MODEL 1
REMARK VINA RESULT:     -12.1      0.000      0.000
REMARK SMILES O=C(OCCOCCOC(=O)c1ccc(-c2c3nc(c(-c4c(F)cccc4F)c4ccc([nH]4)c(-c4c(F)cccc4F)c4nc(c(-c5c(F)cccc5F)c5ccc2[nH]5)C=C4)C=C3)cc1)C1=Cc2cc(OC(F)(F)F)ccc2O[C@@H]1C(F)(F)F
REMARK SMILES IDX 6 1 5 2 4 3 3 4 2 5 1 6 66 7 67 8 80 9 68 10 79 11 69 12
REMARK SMILES IDX 78 13 70 14 77 15 76 16 81 17 82 18 83 19 84 20 71 21 72 22
REMARK SMILES IDX 73 23 74 24 75 25 7 26 8 27 9 28 10 29 11 30 12 31 13 32
REMARK SMILES IDX 65 33 14 34 64 35 15 36 16 37 17 38 58 39 18 40 63 41 57 42
REMARK SMILES IDX 59 43 19 44 62 45 56 46 55 47 20 49 46 50 29 51 45 52 30 53
REMARK SMILES IDX 33 54 44 55 60 56 31 57 32 58 43 60 61 61 34 62 21 63 22 64
REMARK SMILES IDX 27 65 23 66 24 67 26 68 28 69 25 70 47 71 48 72 53 73 49 74
REMARK SMILES IDX 50 75 52 76 54 77 51 78 35 79 36 80 41 81 37 82 38 83 40 84
REMARK SMILES IDX 42 85 39 86
REMARK H PARENT 59 48 33 59
REMARK Flexibility Score: inf
ROOT
ATOM      1  O   UNL A   1      40.554  21.854  26.155  1.00  0.00    -0.374 OA
ENDROOT
BRANCH   1   2
ATOM      2  C   UNL A   1      39.069  21.211  25.993  1.00  0.00     0.202 C 
BRANCH   2   3
ATOM      3  C   UNL A   1      37.135  22.147  25.687  1.00  0.00     0.261 C 
BRANCH   3   4
ATOM      4  O   UNL A   1      35.870  21.478  25.121  1.00  0.00    -0.460 OA
BRANCH   4   5
ATOM      5  C   UNL A   1      35.085  22.340  24.469  1.00  0.00     0.338 C 
ATOM      6  O   UNL A   1      35.383  23.251  23.742  1.00  0.00    -0.246 OA
BRANCH   5   7
ATOM      7  C   UNL A   1      33.879  22.034  25.208  1.00  0.00     0.087 C 
ATOM      8  C   UNL A   1      33.521  23.129  26.137  1.00  0.00     0.027 C 
ATOM      9  C   UNL A   1      32.824  21.500  23.676  1.00  0.00     0.316 C 
ATOM     10  C   UNL A   1      32.170  24.291  25.837  1.00  0.00     0.021 A 
ATOM     11  O   UNL A   1      31.408  22.765  23.306  1.00  0.00    -0.475 OA
ATOM     12  C   UNL A   1      32.061  25.397  26.635  1.00  0.00     0.058 A 
ATOM     13  C   UNL A   1      31.174  24.189  24.427  1.00  0.00     0.128 A 
ATOM     14  C   UNL A   1      31.160  26.388  26.199  1.00  0.00     0.130 A 
ATOM     15  C   UNL A   1      30.410  25.242  24.015  1.00  0.00     0.051 A 
ATOM     16  C   UNL A   1      30.416  26.330  24.945  1.00  0.00     0.050 A 
BRANCH   9  17
ATOM     17  C   UNL A   1      32.793  19.937  23.992  1.00  0.00     0.430 C 
ATOM     18  F   UNL A   1      32.148  19.580  25.117  1.00  0.00    -0.167 F 
ATOM     19  F   UNL A   1      32.084  19.340  22.986  1.00  0.00    -0.167 F 
ATOM     20  F   UNL A   1      33.997  19.323  23.968  1.00  0.00    -0.167 F 
ENDBRANCH   9  17
BRANCH  14  21
ATOM     21  O   UNL A   1      31.149  27.450  27.076  1.00  0.00    -0.406 OA
BRANCH  21  22
ATOM     22  C   UNL A   1      32.078  28.502  26.895  1.00  0.00     0.573 C 
ATOM     23  F   UNL A   1      33.235  28.215  27.524  1.00  0.00    -0.132 F 
ATOM     24  F   UNL A   1      32.314  28.737  25.588  1.00  0.00    -0.132 F 
ATOM     25  F   UNL A   1      31.561  29.624  27.442  1.00  0.00    -0.132 F 
ENDBRANCH  21  22
ENDBRANCH  14  21
ENDBRANCH   5   7
ENDBRANCH   4   5
ENDBRANCH   3   4
ENDBRANCH   2   3
ENDBRANCH   1   2
BRANCH   1  26
ATOM     26  C   UNL A   1      41.874  21.276  26.182  1.00  0.00     0.202 C 
BRANCH  26  27
ATOM     27  C   UNL A   1      42.934  21.956  25.322  1.00  0.00     0.261 C 
BRANCH  27  28
ATOM     28  O   UNL A   1      42.652  23.327  25.091  1.00  0.00    -0.460 OA
BRANCH  28  29
ATOM     29  C   UNL A   1      43.685  24.154  25.367  1.00  0.00     0.338 C 
ATOM     30  O   UNL A   1      44.802  24.151  24.883  1.00  0.00    -0.246 OA
BRANCH  29  31
ATOM     31  C   UNL A   1      43.227  25.113  26.385  1.00  0.00     0.060 A 
ATOM     32  C   UNL A   1      42.318  24.666  27.348  1.00  0.00     0.016 A 
ATOM     33  C   UNL A   1      43.732  26.419  26.423  1.00  0.00     0.016 A 
ATOM     34  C   UNL A   1      41.968  25.506  28.400  1.00  0.00     0.010 A 
ATOM     35  C   UNL A   1      43.363  27.266  27.457  1.00  0.00     0.010 A 
ATOM     36  C   UNL A   1      42.492  26.804  28.454  1.00  0.00    -0.014 A 
BRANCH  36  37
ATOM     37  C   UNL A   1      42.023  27.747  29.483  1.00  0.00     0.031 A 
ATOM     38  C   UNL A   1      42.703  27.717  30.814  1.00  0.00     0.074 A 
ATOM     39  C   UNL A   1      40.991  28.570  29.234  1.00  0.00     0.049 A 
ATOM     40  N   UNL A   1      42.419  28.386  31.897  1.00  0.00    -0.248 NA
ATOM     41  C   UNL A   1      43.854  26.807  30.943  1.00  0.00     0.031 C 
ATOM     42  C   UNL A   1      40.281  28.681  27.959  1.00  0.00     0.029 A 
ATOM     43  N   UNL A   1      40.343  29.455  30.056  1.00  0.00    -0.354 N 
ATOM     44  C   UNL A   1      43.355  27.979  32.837  1.00  0.00     0.074 A 
ATOM     45  C   UNL A   1      44.204  26.995  32.206  1.00  0.00     0.031 C 
ATOM     46  C   UNL A   1      39.280  29.567  28.094  1.00  0.00     0.029 A 
ATOM     47  C   UNL A   1      39.254  30.054  29.471  1.00  0.00     0.049 A 
ATOM     48  H   UNL A   1      40.633  29.643  30.980  1.00  0.00     0.167 HD
ATOM     49  C   UNL A   1      43.484  28.396  34.115  1.00  0.00     0.037 A 
ATOM     50  C   UNL A   1      38.326  30.868  30.011  1.00  0.00     0.037 A 
ATOM     51  C   UNL A   1      42.614  29.358  34.733  1.00  0.00     0.049 A 
ATOM     52  C   UNL A   1      38.450  31.243  31.469  1.00  0.00     0.074 A 
ATOM     53  C   UNL A   1      42.678  29.871  36.015  1.00  0.00     0.029 A 
ATOM     54  N   UNL A   1      41.510  29.931  34.121  1.00  0.00    -0.354 N 
ATOM     55  N   UNL A   1      39.381  30.915  32.334  1.00  0.00    -0.248 NA
ATOM     56  C   UNL A   1      37.393  32.097  32.029  1.00  0.00     0.031 C 
ATOM     57  C   UNL A   1      41.566  30.694  36.205  1.00  0.00     0.029 A 
ATOM     58  C   UNL A   1      40.854  30.755  35.018  1.00  0.00     0.049 A 
ATOM     59  H   UNL A   1      41.235  29.776  33.189  1.00  0.00     0.167 HD
ATOM     60  C   UNL A   1      39.036  31.543  33.525  1.00  0.00     0.074 A 
ATOM     61  C   UNL A   1      37.827  32.294  33.265  1.00  0.00     0.031 C 
ATOM     62  C   UNL A   1      39.655  31.500  34.730  1.00  0.00     0.037 A 
BRANCH  49  63
ATOM     63  C   UNL A   1      44.572  27.787  34.943  1.00  0.00     0.057 A 
ATOM     64  C   UNL A   1      45.839  28.373  35.053  1.00  0.00     0.134 A 
ATOM     65  C   UNL A   1      44.323  26.632  35.694  1.00  0.00     0.134 A 
ATOM     66  F   UNL A   1      46.146  29.469  34.341  1.00  0.00    -0.206 F 
ATOM     67  C   UNL A   1      46.820  27.830  35.882  1.00  0.00     0.040 A 
ATOM     68  C   UNL A   1      45.287  26.096  36.547  1.00  0.00     0.040 A 
ATOM     69  F   UNL A   1      43.131  26.019  35.627  1.00  0.00    -0.206 F 
ATOM     70  C   UNL A   1      46.541  26.696  36.641  1.00  0.00     0.006 A 
ENDBRANCH  49  63
BRANCH  50  71
ATOM     71  C   UNL A   1      37.167  31.345  29.208  1.00  0.00     0.057 A 
ATOM     72  C   UNL A   1      37.136  32.636  28.666  1.00  0.00     0.134 A 
ATOM     73  C   UNL A   1      36.023  30.554  29.038  1.00  0.00     0.134 A 
ATOM     74  F   UNL A   1      38.189  33.454  28.810  1.00  0.00    -0.206 F 
ATOM     75  C   UNL A   1      35.999  33.138  28.027  1.00  0.00     0.040 A 
ATOM     76  C   UNL A   1      34.893  31.029  28.370  1.00  0.00     0.040 A 
ATOM     77  F   UNL A   1      35.982  29.306  29.528  1.00  0.00    -0.206 F 
ATOM     78  C   UNL A   1      34.873  32.332  27.877  1.00  0.00     0.006 A 
ENDBRANCH  50  71
BRANCH  62  79
ATOM     79  C   UNL A   1      39.055  32.303  35.849  1.00  0.00     0.057 A 
ATOM     80  C   UNL A   1      38.180  31.732  36.781  1.00  0.00     0.134 A 
ATOM     81  C   UNL A   1      39.412  33.645  36.034  1.00  0.00     0.134 A 
ATOM     82  F   UNL A   1      37.791  30.454  36.658  1.00  0.00    -0.206 F 
ATOM     83  C   UNL A   1      37.663  32.474  37.845  1.00  0.00     0.040 A 
ATOM     84  C   UNL A   1      38.930  34.387  37.113  1.00  0.00     0.040 A 
ATOM     85  F   UNL A   1      40.258  34.250  35.185  1.00  0.00    -0.206 F 
ATOM     86  C   UNL A   1      38.047  33.802  38.018  1.00  0.00     0.006 A 
ENDBRANCH  62  79
ENDBRANCH  36  37
ENDBRANCH  29  31
ENDBRANCH  28  29
ENDBRANCH  27  28
ENDBRANCH  26  27
ENDBRANCH   1  26
TORSDOF 17
ENDMDL
MODEL 2
REMARK VINA RESULT:     -11.8      4.307      9.754
REMARK SMILES O=C(OCCOCCOC(=O)c1ccc(-c2c3nc(c(-c4c(F)cccc4F)c4ccc([nH]4)c(-c4c(F)cccc4F)c4nc(c(-c5c(F)cccc5F)c5ccc2[nH]5)C=C4)C=C3)cc1)C1=Cc2cc(OC(F)(F)F)ccc2O[C@@H]1C(F)(F)F
REMARK SMILES IDX 6 1 5 2 4 3 3 4 2 5 1 6 66 7 67 8 80 9 68 10 79 11 69 12
REMARK SMILES IDX 78 13 70 14 77 15 76 16 81 17 82 18 83 19 84 20 71 21 72 22
REMARK SMILES IDX 73 23 74 24 75 25 7 26 8 27 9 28 10 29 11 30 12 31 13 32
REMARK SMILES IDX 65 33 14 34 64 35 15 36 16 37 17 38 58 39 18 40 63 41 57 42
REMARK SMILES IDX 59 43 19 44 62 45 56 46 55 47 20 49 46 50 29 51 45 52 30 53
REMARK SMILES IDX 33 54 44 55 60 56 31 57 32 58 43 60 61 61 34 62 21 63 22 64
REMARK SMILES IDX 27 65 23 66 24 67 26 68 28 69 25 70 47 71 48 72 53 73 49 74
REMARK SMILES IDX 50 75 52 76 54 77 51 78 35 79 36 80 41 81 37 82 38 83 40 84
REMARK SMILES IDX 42 85 39 86
REMARK H PARENT 59 48 33 59
REMARK Flexibility Score: inf
ROOT
ATOM      1  O   UNL A   1      34.063  33.968  28.331  1.00  0.00    -0.374 OA
ENDROOT
BRANCH   1   2
ATOM      2  C   UNL A   1      32.939  33.000  27.665  1.00  0.00     0.202 C 
BRANCH   2   3
ATOM      3  C   UNL A   1      32.958  30.869  27.248  1.00  0.00     0.261 C 
BRANCH   3   4
ATOM      4  O   UNL A   1      32.340  30.168  26.026  1.00  0.00    -0.460 OA
BRANCH   4   5
ATOM      5  C   UNL A   1      31.956  28.917  26.295  1.00  0.00     0.338 C 
ATOM      6  O   UNL A   1      31.691  28.407  27.353  1.00  0.00    -0.246 OA
BRANCH   5   7
ATOM      7  C   UNL A   1      32.323  28.366  25.010  1.00  0.00     0.087 C 
ATOM      8  C   UNL A   1      33.445  27.409  25.131  1.00  0.00     0.027 C 
ATOM      9  C   UNL A   1      30.527  27.894  24.464  1.00  0.00     0.316 C 
ATOM     10  C   UNL A   1      33.245  25.616  25.024  1.00  0.00     0.021 A 
ATOM     11  O   UNL A   1      30.279  25.976  24.401  1.00  0.00    -0.475 OA
ATOM     12  C   UNL A   1      34.296  24.813  25.370  1.00  0.00     0.058 A 
ATOM     13  C   UNL A   1      31.702  24.884  24.750  1.00  0.00     0.128 A 
ATOM     14  C   UNL A   1      34.006  23.442  25.517  1.00  0.00     0.130 A 
ATOM     15  C   UNL A   1      31.479  23.565  25.023  1.00  0.00     0.051 A 
ATOM     16  C   UNL A   1      32.671  22.866  25.393  1.00  0.00     0.050 A 
BRANCH   9  17
ATOM     17  C   UNL A   1      30.355  29.021  23.349  1.00  0.00     0.430 C 
ATOM     18  F   UNL A   1      31.365  29.130  22.467  1.00  0.00    -0.167 F 
ATOM     19  F   UNL A   1      29.271  28.672  22.591  1.00  0.00    -0.167 F 
ATOM     20  F   UNL A   1      30.056  30.252  23.821  1.00  0.00    -0.167 F 
ENDBRANCH   9  17
BRANCH  14  21
ATOM     21  O   UNL A   1      35.137  22.745  25.877  1.00  0.00    -0.406 OA
BRANCH  21  22
ATOM     22  C   UNL A   1      35.702  21.828  24.959  1.00  0.00     0.573 C 
ATOM     23  F   UNL A   1      34.927  20.731  24.859  1.00  0.00    -0.132 F 
ATOM     24  F   UNL A   1      35.869  22.383  23.742  1.00  0.00    -0.132 F 
ATOM     25  F   UNL A   1      36.915  21.453  25.424  1.00  0.00    -0.132 F 
ENDBRANCH  21  22
ENDBRANCH  14  21
ENDBRANCH   5   7
ENDBRANCH   4   5
ENDBRANCH   3   4
ENDBRANCH   2   3
ENDBRANCH   1   2
BRANCH   1  26
ATOM     26  C   UNL A   1      34.055  34.825  29.490  1.00  0.00     0.202 C 
BRANCH  26  27
ATOM     27  C   UNL A   1      34.332  34.158  30.833  1.00  0.00     0.261 C 
BRANCH  27  28
ATOM     28  O   UNL A   1      34.719  32.800  30.699  1.00  0.00    -0.460 OA
BRANCH  28  29
ATOM     29  C   UNL A   1      35.430  32.326  31.746  1.00  0.00     0.338 C 
ATOM     30  O   UNL A   1      35.128  32.332  32.925  1.00  0.00    -0.246 OA
BRANCH  29  31
ATOM     31  C   UNL A   1      36.683  31.765  31.216  1.00  0.00     0.060 A 
ATOM     32  C   UNL A   1      37.624  31.278  32.128  1.00  0.00     0.016 A 
ATOM     33  C   UNL A   1      36.901  31.668  29.835  1.00  0.00     0.016 A 
ATOM     34  C   UNL A   1      38.756  30.622  31.658  1.00  0.00     0.010 A 
ATOM     35  C   UNL A   1      38.044  31.037  29.366  1.00  0.00     0.010 A 
ATOM     36  C   UNL A   1      38.964  30.501  30.278  1.00  0.00    -0.014 A 
BRANCH  36  37
ATOM     37  C   UNL A   1      40.223  29.933  29.768  1.00  0.00     0.031 A 
ATOM     38  C   UNL A   1      41.378  30.862  29.581  1.00  0.00     0.074 A 
ATOM     39  C   UNL A   1      40.303  28.631  29.447  1.00  0.00     0.049 A 
ATOM     40  N   UNL A   1      42.555  30.620  29.073  1.00  0.00    -0.248 NA
ATOM     41  C   UNL A   1      41.179  32.255  30.019  1.00  0.00     0.031 C 
ATOM     42  C   UNL A   1      39.234  27.647  29.615  1.00  0.00     0.029 A 
ATOM     43  N   UNL A   1      41.331  27.917  28.886  1.00  0.00    -0.354 N 
ATOM     44  C   UNL A   1      43.238  31.826  29.130  1.00  0.00     0.074 A 
ATOM     45  C   UNL A   1      42.342  32.804  29.704  1.00  0.00     0.031 C 
ATOM     46  C   UNL A   1      39.655  26.461  29.144  1.00  0.00     0.029 A 
ATOM     47  C   UNL A   1      41.005  26.613  28.606  1.00  0.00     0.049 A 
ATOM     48  H   UNL A   1      42.218  28.304  28.702  1.00  0.00     0.167 HD
ATOM     49  C   UNL A   1      44.502  32.086  28.733  1.00  0.00     0.037 A 
ATOM     50  C   UNL A   1      41.712  25.669  27.952  1.00  0.00     0.037 A 
ATOM     51  C   UNL A   1      45.370  31.106  28.141  1.00  0.00     0.049 A 
ATOM     52  C   UNL A   1      43.089  26.021  27.441  1.00  0.00     0.074 A 
ATOM     53  C   UNL A   1      46.681  31.259  27.731  1.00  0.00     0.029 A 
ATOM     54  N   UNL A   1      45.005  29.800  27.854  1.00  0.00    -0.354 N 
ATOM     55  N   UNL A   1      43.759  27.143  27.565  1.00  0.00    -0.248 NA
ATOM     56  C   UNL A   1      43.808  24.979  26.693  1.00  0.00     0.031 C 
ATOM     57  C   UNL A   1      47.083  30.069  27.121  1.00  0.00     0.029 A 
ATOM     58  C   UNL A   1      46.051  29.150  27.223  1.00  0.00     0.049 A 
ATOM     59  H   UNL A   1      44.133  29.396  28.065  1.00  0.00     0.167 HD
ATOM     60  C   UNL A   1      44.982  26.930  26.939  1.00  0.00     0.074 A 
ATOM     61  C   UNL A   1      44.973  25.564  26.460  1.00  0.00     0.031 C 
ATOM     62  C   UNL A   1      46.019  27.785  26.765  1.00  0.00     0.037 A 
BRANCH  49  63
ATOM     63  C   UNL A   1      45.008  33.486  28.882  1.00  0.00     0.057 A 
ATOM     64  C   UNL A   1      44.826  34.453  27.886  1.00  0.00     0.134 A 
ATOM     65  C   UNL A   1      45.628  33.888  30.072  1.00  0.00     0.134 A 
ATOM     66  F   UNL A   1      44.259  34.124  26.714  1.00  0.00    -0.206 F 
ATOM     67  C   UNL A   1      45.244  35.771  28.068  1.00  0.00     0.040 A 
ATOM     68  C   UNL A   1      46.025  35.209  30.277  1.00  0.00     0.040 A 
ATOM     69  F   UNL A   1      45.837  33.008  31.063  1.00  0.00    -0.206 F 
ATOM     70  C   UNL A   1      45.833  36.155  29.272  1.00  0.00     0.006 A 
ENDBRANCH  49  63
BRANCH  50  71
ATOM     71  C   UNL A   1      41.130  24.326  27.682  1.00  0.00     0.057 A 
ATOM     72  C   UNL A   1      41.598  23.183  28.341  1.00  0.00     0.134 A 
ATOM     73  C   UNL A   1      40.153  24.139  26.696  1.00  0.00     0.134 A 
ATOM     74  F   UNL A   1      42.548  23.287  29.283  1.00  0.00    -0.206 F 
ATOM     75  C   UNL A   1      41.153  21.903  28.000  1.00  0.00     0.040 A 
ATOM     76  C   UNL A   1      39.672  22.870  26.369  1.00  0.00     0.040 A 
ATOM     77  F   UNL A   1      39.656  25.189  26.025  1.00  0.00    -0.206 F 
ATOM     78  C   UNL A   1      40.186  21.745  27.010  1.00  0.00     0.006 A 
ENDBRANCH  50  71
BRANCH  62  79
ATOM     79  C   UNL A   1      47.236  27.267  26.053  1.00  0.00     0.057 A 
ATOM     80  C   UNL A   1      48.267  26.609  26.736  1.00  0.00     0.134 A 
ATOM     81  C   UNL A   1      47.345  27.368  24.660  1.00  0.00     0.134 A 
ATOM     82  F   UNL A   1      48.230  26.485  28.071  1.00  0.00    -0.206 F 
ATOM     83  C   UNL A   1      49.373  26.090  26.060  1.00  0.00     0.040 A 
ATOM     84  C   UNL A   1      48.427  26.822  23.970  1.00  0.00     0.040 A 
ATOM     85  F   UNL A   1      46.385  27.973  23.943  1.00  0.00    -0.206 F 
ATOM     86  C   UNL A   1      49.449  26.187  24.672  1.00  0.00     0.006 A 
ENDBRANCH  62  79
ENDBRANCH  36  37
ENDBRANCH  29  31
ENDBRANCH  28  29
ENDBRANCH  27  28
ENDBRANCH  26  27
ENDBRANCH   1  26
TORSDOF 17
ENDMDL
MODEL 3
REMARK VINA RESULT:     -11.6      3.130      7.780
REMARK SMILES O=C(OCCOCCOC(=O)c1ccc(-c2c3nc(c(-c4c(F)cccc4F)c4ccc([nH]4)c(-c4c(F)cccc4F)c4nc(c(-c5c(F)cccc5F)c5ccc2[nH]5)C=C4)C=C3)cc1)C1=Cc2cc(OC(F)(F)F)ccc2O[C@@H]1C(F)(F)F
REMARK SMILES IDX 6 1 5 2 4 3 3 4 2 5 1 6 66 7 67 8 80 9 68 10 79 11 69 12
REMARK SMILES IDX 78 13 70 14 77 15 76 16 81 17 82 18 83 19 84 20 71 21 72 22
REMARK SMILES IDX 73 23 74 24 75 25 7 26 8 27 9 28 10 29 11 30 12 31 13 32
REMARK SMILES IDX 65 33 14 34 64 35 15 36 16 37 17 38 58 39 18 40 63 41 57 42
REMARK SMILES IDX 59 43 19 44 62 45 56 46 55 47 20 49 46 50 29 51 45 52 30 53
REMARK SMILES IDX 33 54 44 55 60 56 31 57 32 58 43 60 61 61 34 62 21 63 22 64
REMARK SMILES IDX 27 65 23 66 24 67 26 68 28 69 25 70 47 71 48 72 53 73 49 74
REMARK SMILES IDX 50 75 52 76 54 77 51 78 35 79 36 80 41 81 37 82 38 83 40 84
REMARK SMILES IDX 42 85 39 86
REMARK H PARENT 59 48 33 59
REMARK Flexibility Score: inf
ROOT
ATOM      1  O   UNL A   1      32.247  30.724  26.837  1.00  0.00    -0.374 OA
ENDROOT
BRANCH   1   2
ATOM      2  C   UNL A   1      31.898  29.296  27.531  1.00  0.00     0.202 C 
BRANCH   2   3
ATOM      3  C   UNL A   1      31.793  27.293  26.700  1.00  0.00     0.261 C 
BRANCH   3   4
ATOM      4  O   UNL A   1      30.516  26.526  26.312  1.00  0.00    -0.460 OA
BRANCH   4   5
ATOM      5  C   UNL A   1      30.689  25.201  26.339  1.00  0.00     0.338 C 
ATOM      6  O   UNL A   1      31.275  24.520  27.139  1.00  0.00    -0.246 OA
BRANCH   5   7
ATOM      7  C   UNL A   1      30.279  24.968  24.972  1.00  0.00     0.087 C 
ATOM      8  C   UNL A   1      29.303  25.983  24.518  1.00  0.00     0.027 C 
ATOM      9  C   UNL A   1      32.062  24.753  24.251  1.00  0.00     0.316 C 
ATOM     10  C   UNL A   1      29.720  27.335  23.392  1.00  0.00     0.021 A 
ATOM     11  O   UNL A   1      32.546  26.222  23.089  1.00  0.00    -0.475 OA
ATOM     12  C   UNL A   1      28.816  28.345  23.210  1.00  0.00     0.058 A 
ATOM     13  C   UNL A   1      31.312  27.525  22.743  1.00  0.00     0.128 A 
ATOM     14  C   UNL A   1      29.290  29.487  22.535  1.00  0.00     0.130 A 
ATOM     15  C   UNL A   1      31.725  28.707  22.201  1.00  0.00     0.051 A 
ATOM     16  C   UNL A   1      30.671  29.669  22.098  1.00  0.00     0.050 A 
BRANCH   9  17
ATOM     17  C   UNL A   1      31.985  23.181  23.996  1.00  0.00     0.430 C 
ATOM     18  F   UNL A   1      31.193  22.791  22.981  1.00  0.00    -0.167 F 
ATOM     19  F   UNL A   1      33.239  22.774  23.630  1.00  0.00    -0.167 F 
ATOM     20  F   UNL A   1      31.692  22.437  25.086  1.00  0.00    -0.167 F 
ENDBRANCH   9  17
BRANCH  14  21
ATOM     21  O   UNL A   1      28.295  30.432  22.426  1.00  0.00    -0.406 OA
BRANCH  21  22
ATOM     22  C   UNL A   1      28.141  31.391  23.455  1.00  0.00     0.573 C 
ATOM     23  F   UNL A   1      27.078  31.083  24.224  1.00  0.00    -0.132 F 
ATOM     24  F   UNL A   1      29.248  31.482  24.220  1.00  0.00    -0.132 F 
ATOM     25  F   UNL A   1      27.920  32.596  22.883  1.00  0.00    -0.132 F 
ENDBRANCH  21  22
ENDBRANCH  14  21
ENDBRANCH   5   7
ENDBRANCH   4   5
ENDBRANCH   3   4
ENDBRANCH   2   3
ENDBRANCH   1   2
BRANCH   1  26
ATOM     26  C   UNL A   1      31.597  32.010  26.861  1.00  0.00     0.202 C 
BRANCH  26  27
ATOM     27  C   UNL A   1      32.503  33.230  26.983  1.00  0.00     0.261 C 
BRANCH  27  28
ATOM     28  O   UNL A   1      32.392  33.869  28.245  1.00  0.00    -0.460 OA
BRANCH  28  29
ATOM     29  C   UNL A   1      33.402  34.725  28.516  1.00  0.00     0.338 C 
ATOM     30  O   UNL A   1      33.437  35.929  28.334  1.00  0.00    -0.246 OA
BRANCH  29  31
ATOM     31  C   UNL A   1      34.501  33.945  29.105  1.00  0.00     0.060 A 
ATOM     32  C   UNL A   1      34.173  32.868  29.934  1.00  0.00     0.016 A 
ATOM     33  C   UNL A   1      35.837  34.237  28.798  1.00  0.00     0.016 A 
ATOM     34  C   UNL A   1      35.182  32.032  30.398  1.00  0.00     0.010 A 
ATOM     35  C   UNL A   1      36.846  33.418  29.283  1.00  0.00     0.010 A 
ATOM     36  C   UNL A   1      36.517  32.306  30.071  1.00  0.00    -0.014 A 
BRANCH  36  37
ATOM     37  C   UNL A   1      37.602  31.511  30.669  1.00  0.00     0.031 A 
ATOM     38  C   UNL A   1      38.012  31.838  32.068  1.00  0.00     0.074 A 
ATOM     39  C   UNL A   1      38.221  30.557  29.955  1.00  0.00     0.049 A 
ATOM     40  N   UNL A   1      38.988  31.340  32.777  1.00  0.00    -0.248 NA
ATOM     41  C   UNL A   1      37.220  32.869  32.761  1.00  0.00     0.031 C 
ATOM     42  C   UNL A   1      37.875  30.157  28.591  1.00  0.00     0.029 A 
ATOM     43  N   UNL A   1      39.294  29.765  30.274  1.00  0.00    -0.354 N 
ATOM     44  C   UNL A   1      38.928  31.995  33.998  1.00  0.00     0.074 A 
ATOM     45  C   UNL A   1      37.835  32.938  33.932  1.00  0.00     0.031 C 
ATOM     46  C   UNL A   1      38.736  29.209  28.182  1.00  0.00     0.029 A 
ATOM     47  C   UNL A   1      39.716  28.967  29.239  1.00  0.00     0.049 A 
ATOM     48  H   UNL A   1      39.721  29.768  31.163  1.00  0.00     0.167 HD
ATOM     49  C   UNL A   1      39.724  31.820  35.076  1.00  0.00     0.037 A 
ATOM     50  C   UNL A   1      40.797  28.166  29.153  1.00  0.00     0.037 A 
ATOM     51  C   UNL A   1      40.823  30.895  35.114  1.00  0.00     0.049 A 
ATOM     52  C   UNL A   1      41.717  28.062  30.347  1.00  0.00     0.074 A 
ATOM     53  C   UNL A   1      41.673  30.618  36.168  1.00  0.00     0.029 A 
ATOM     54  N   UNL A   1      41.236  30.115  34.045  1.00  0.00    -0.354 N 
ATOM     55  N   UNL A   1      41.613  28.627  31.527  1.00  0.00    -0.248 NA
ATOM     56  C   UNL A   1      42.908  27.214  30.196  1.00  0.00     0.031 C 
ATOM     57  C   UNL A   1      42.650  29.731  35.712  1.00  0.00     0.029 A 
ATOM     58  C   UNL A   1      42.362  29.395  34.399  1.00  0.00     0.049 A 
ATOM     59  H   UNL A   1      40.794  30.079  33.166  1.00  0.00     0.167 HD
ATOM     60  C   UNL A   1      42.705  28.181  32.263  1.00  0.00     0.074 A 
ATOM     61  C   UNL A   1      43.444  27.278  31.406  1.00  0.00     0.031 C 
ATOM     62  C   UNL A   1      43.074  28.494  33.529  1.00  0.00     0.037 A 
BRANCH  49  63
ATOM     63  C   UNL A   1      39.468  32.669  36.280  1.00  0.00     0.057 A 
ATOM     64  C   UNL A   1      40.112  33.897  36.474  1.00  0.00     0.134 A 
ATOM     65  C   UNL A   1      38.510  32.281  37.225  1.00  0.00     0.134 A 
ATOM     66  F   UNL A   1      41.055  34.314  35.615  1.00  0.00    -0.206 F 
ATOM     67  C   UNL A   1      39.812  34.709  37.568  1.00  0.00     0.040 A 
ATOM     68  C   UNL A   1      38.182  33.097  38.307  1.00  0.00     0.040 A 
ATOM     69  F   UNL A   1      37.863  31.113  37.100  1.00  0.00    -0.206 F 
ATOM     70  C   UNL A   1      38.835  34.316  38.480  1.00  0.00     0.006 A 
ENDBRANCH  49  63
BRANCH  50  71
ATOM     71  C   UNL A   1      41.116  27.443  27.893  1.00  0.00     0.057 A 
ATOM     72  C   UNL A   1      41.825  28.061  26.855  1.00  0.00     0.134 A 
ATOM     73  C   UNL A   1      40.645  26.144  27.658  1.00  0.00     0.134 A 
ATOM     74  F   UNL A   1      42.287  29.312  27.005  1.00  0.00    -0.206 F 
ATOM     75  C   UNL A   1      42.013  27.437  25.619  1.00  0.00     0.040 A 
ATOM     76  C   UNL A   1      40.856  25.494  26.441  1.00  0.00     0.040 A 
ATOM     77  F   UNL A   1      39.960  25.489  28.607  1.00  0.00    -0.206 F 
ATOM     78  C   UNL A   1      41.527  26.149  25.410  1.00  0.00     0.006 A 
ENDBRANCH  50  71
BRANCH  62  79
ATOM     79  C   UNL A   1      44.310  27.838  34.075  1.00  0.00     0.057 A 
ATOM     80  C   UNL A   1      45.561  28.466  34.029  1.00  0.00     0.134 A 
ATOM     81  C   UNL A   1      44.234  26.594  34.715  1.00  0.00     0.134 A 
ATOM     82  F   UNL A   1      45.706  29.654  33.424  1.00  0.00    -0.206 F 
ATOM     83  C   UNL A   1      46.697  27.869  34.580  1.00  0.00     0.040 A 
ATOM     84  C   UNL A   1      45.354  26.004  35.301  1.00  0.00     0.040 A 
ATOM     85  F   UNL A   1      43.063  25.945  34.808  1.00  0.00    -0.206 F 
ATOM     86  C   UNL A   1      46.591  26.639  35.228  1.00  0.00     0.006 A 
ENDBRANCH  62  79
ENDBRANCH  36  37
ENDBRANCH  29  31
ENDBRANCH  28  29
ENDBRANCH  27  28
ENDBRANCH  26  27
ENDBRANCH   1  26
TORSDOF 17
ENDMDL
