MODEL 1
REMARK VINA RESULT:     -12.3      0.000      0.000
REMARK SMILES O=C(OCCOCCOC(=O)c1ccc([C@@H]2CC(O)=Nc3c2ncn3-c2cccc(Cl)c2)cc1)c1ccc(-c2c3nc(c(-c4c(F)cccc4F)c4ccc([nH]4)c(-c4c(F)cccc4F)c4nc(c(-c5c(F)cccc5F)c5ccc2[nH]5)C=C4)C=C3)cc1
REMARK SMILES IDX 6 1 5 2 4 3 3 4 2 5 1 6 35 7 36 8 88 9 37 10 87 11 38 12
REMARK SMILES IDX 39 13 40 14 81 15 41 16 86 17 80 18 82 19 42 20 85 21 79 22
REMARK SMILES IDX 78 23 43 25 69 26 52 27 68 28 53 29 56 30 67 31 83 32 54 33
REMARK SMILES IDX 55 34 66 36 84 37 57 38 44 39 45 40 50 41 46 42 47 43 49 44
REMARK SMILES IDX 51 45 48 46 70 47 71 48 76 49 72 50 73 51 75 52 77 53 74 54
REMARK SMILES IDX 58 55 59 56 64 57 60 58 61 59 63 60 65 61 62 62 7 63 8 64
REMARK SMILES IDX 9 65 10 66 11 67 12 68 13 69 34 70 14 71 33 72 15 73 16 74
REMARK SMILES IDX 17 75 22 76 18 77 21 78 23 79 20 80 25 81 24 82 19 83 26 85
REMARK SMILES IDX 27 86 32 87 28 88 30 89 29 90 31 91
REMARK H PARENT 82 24 56 35 19 84
REMARK Flexibility Score: inf
ROOT
ATOM      1  O   UNL A   1      39.156  21.256  25.678  1.00  0.00    -0.374 OA
ENDROOT
BRANCH   1   2
ATOM      2  C   UNL A   1      39.590  22.271  26.581  1.00  0.00     0.202 C 
BRANCH   2   3
ATOM      3  C   UNL A   1      38.934  23.654  26.524  1.00  0.00     0.261 C 
BRANCH   3   4
ATOM      4  O   UNL A   1      39.875  24.735  26.634  1.00  0.00    -0.460 OA
BRANCH   4   5
ATOM      5  C   UNL A   1      40.363  25.202  27.803  1.00  0.00     0.338 C 
ATOM      6  O   UNL A   1      41.491  24.897  28.179  1.00  0.00    -0.246 OA
BRANCH   5   7
ATOM      7  C   UNL A   1      39.628  26.290  28.497  1.00  0.00     0.060 A 
ATOM      8  C   UNL A   1      38.950  27.327  27.852  1.00  0.00     0.016 A 
ATOM      9  C   UNL A   1      39.805  26.341  29.884  1.00  0.00     0.016 A 
ATOM     10  C   UNL A   1      38.832  28.544  28.467  1.00  0.00     0.010 A 
ATOM     11  C   UNL A   1      39.590  27.527  30.542  1.00  0.00     0.010 A 
ATOM     12  C   UNL A   1      39.257  28.644  29.780  1.00  0.00    -0.014 A 
BRANCH  12  13
ATOM     13  C   UNL A   1      39.294  29.964  30.363  1.00  0.00     0.031 A 
ATOM     14  C   UNL A   1      40.644  30.587  30.321  1.00  0.00     0.074 A 
ATOM     15  C   UNL A   1      38.131  30.505  30.771  1.00  0.00     0.049 A 
ATOM     16  N   UNL A   1      41.314  31.134  31.281  1.00  0.00    -0.248 NA
ATOM     17  C   UNL A   1      41.420  30.423  29.074  1.00  0.00     0.031 C 
ATOM     18  C   UNL A   1      36.777  29.940  30.649  1.00  0.00     0.029 A 
ATOM     19  N   UNL A   1      37.892  31.755  31.240  1.00  0.00    -0.354 N 
ATOM     20  C   UNL A   1      42.498  31.583  30.699  1.00  0.00     0.074 A 
ATOM     21  C   UNL A   1      42.589  30.967  29.406  1.00  0.00     0.031 C 
ATOM     22  C   UNL A   1      35.867  30.928  30.767  1.00  0.00     0.029 A 
ATOM     23  C   UNL A   1      36.562  32.150  31.108  1.00  0.00     0.049 A 
ATOM     24  H   UNL A   1      38.590  32.328  31.634  1.00  0.00     0.167 HD
ATOM     25  C   UNL A   1      43.168  32.652  31.206  1.00  0.00     0.037 A 
ATOM     26  C   UNL A   1      36.142  33.438  31.133  1.00  0.00     0.037 A 
ATOM     27  C   UNL A   1      42.881  32.828  32.605  1.00  0.00     0.049 A 
ATOM     28  C   UNL A   1      37.225  34.225  31.786  1.00  0.00     0.074 A 
ATOM     29  C   UNL A   1      43.089  32.057  33.732  1.00  0.00     0.029 A 
ATOM     30  N   UNL A   1      41.940  33.763  32.960  1.00  0.00    -0.354 N 
ATOM     31  N   UNL A   1      37.571  34.064  33.037  1.00  0.00    -0.248 NA
ATOM     32  C   UNL A   1      38.256  34.786  30.920  1.00  0.00     0.031 C 
ATOM     33  C   UNL A   1      41.922  32.246  34.526  1.00  0.00     0.029 A 
ATOM     34  C   UNL A   1      41.107  33.174  33.877  1.00  0.00     0.049 A 
ATOM     35  H   UNL A   1      41.876  34.685  32.620  1.00  0.00     0.167 HD
ATOM     36  C   UNL A   1      38.959  34.114  33.035  1.00  0.00     0.074 A 
ATOM     37  C   UNL A   1      39.322  34.605  31.706  1.00  0.00     0.031 C 
ATOM     38  C   UNL A   1      39.699  33.480  33.992  1.00  0.00     0.037 A 
BRANCH  25  39
ATOM     39  C   UNL A   1      43.714  33.755  30.333  1.00  0.00     0.057 A 
ATOM     40  C   UNL A   1      45.061  34.130  30.472  1.00  0.00     0.134 A 
ATOM     41  C   UNL A   1      42.914  34.660  29.601  1.00  0.00     0.134 A 
ATOM     42  F   UNL A   1      45.924  33.356  31.146  1.00  0.00    -0.206 F 
ATOM     43  C   UNL A   1      45.549  35.355  30.001  1.00  0.00     0.040 A 
ATOM     44  C   UNL A   1      43.402  35.861  29.087  1.00  0.00     0.040 A 
ATOM     45  F   UNL A   1      41.599  34.488  29.424  1.00  0.00    -0.206 F 
ATOM     46  C   UNL A   1      44.715  36.232  29.318  1.00  0.00     0.006 A 
ENDBRANCH  25  39
BRANCH  26  47
ATOM     47  C   UNL A   1      35.110  34.038  30.255  1.00  0.00     0.057 A 
ATOM     48  C   UNL A   1      34.039  34.769  30.782  1.00  0.00     0.134 A 
ATOM     49  C   UNL A   1      35.277  34.110  28.857  1.00  0.00     0.134 A 
ATOM     50  F   UNL A   1      33.830  34.806  32.106  1.00  0.00    -0.206 F 
ATOM     51  C   UNL A   1      33.184  35.526  29.968  1.00  0.00     0.040 A 
ATOM     52  C   UNL A   1      34.427  34.854  28.035  1.00  0.00     0.040 A 
ATOM     53  F   UNL A   1      36.323  33.529  28.252  1.00  0.00    -0.206 F 
ATOM     54  C   UNL A   1      33.379  35.574  28.590  1.00  0.00     0.006 A 
ENDBRANCH  26  47
BRANCH  38  55
ATOM     55  C   UNL A   1      38.967  32.838  35.140  1.00  0.00     0.057 A 
ATOM     56  C   UNL A   1      38.633  31.474  35.186  1.00  0.00     0.134 A 
ATOM     57  C   UNL A   1      38.764  33.572  36.311  1.00  0.00     0.134 A 
ATOM     58  F   UNL A   1      38.893  30.665  34.153  1.00  0.00    -0.206 F 
ATOM     59  C   UNL A   1      38.088  30.879  36.328  1.00  0.00     0.040 A 
ATOM     60  C   UNL A   1      38.250  32.984  37.470  1.00  0.00     0.040 A 
ATOM     61  F   UNL A   1      39.121  34.864  36.366  1.00  0.00    -0.206 F 
ATOM     62  C   UNL A   1      37.902  31.635  37.480  1.00  0.00     0.006 A 
ENDBRANCH  38  55
ENDBRANCH  12  13
ENDBRANCH   5   7
ENDBRANCH   4   5
ENDBRANCH   3   4
ENDBRANCH   2   3
ENDBRANCH   1   2
BRANCH   1  63
ATOM     63  C   UNL A   1      37.919  21.472  24.984  1.00  0.00     0.202 C 
BRANCH  63  64
ATOM     64  C   UNL A   1      36.803  20.417  25.053  1.00  0.00     0.261 C 
BRANCH  64  65
ATOM     65  O   UNL A   1      35.530  20.971  25.425  1.00  0.00    -0.460 OA
BRANCH  65  66
ATOM     66  C   UNL A   1      34.472  20.480  24.727  1.00  0.00     0.338 C 
ATOM     67  O   UNL A   1      34.089  19.333  24.688  1.00  0.00    -0.246 OA
BRANCH  66  68
ATOM     68  C   UNL A   1      33.670  21.617  24.223  1.00  0.00     0.060 A 
ATOM     69  C   UNL A   1      34.353  22.796  23.897  1.00  0.00     0.016 A 
ATOM     70  C   UNL A   1      32.289  21.531  24.062  1.00  0.00     0.016 A 
ATOM     71  C   UNL A   1      33.654  23.901  23.428  1.00  0.00     0.005 A 
ATOM     72  C   UNL A   1      31.584  22.662  23.644  1.00  0.00     0.005 A 
ATOM     73  C   UNL A   1      32.255  23.863  23.336  1.00  0.00    -0.038 A 
BRANCH  73  74
ATOM     74  C   UNL A   1      31.530  25.172  23.073  1.00  0.00     0.081 C 
ATOM     75  C   UNL A   1      32.230  25.931  21.925  1.00  0.00     0.111 C 
ATOM     76  C   UNL A   1      31.533  25.955  24.327  1.00  0.00     0.093 A 
ATOM     77  C   UNL A   1      33.082  27.107  22.372  1.00  0.00     0.188 C 
ATOM     78  C   UNL A   1      32.231  27.136  24.427  1.00  0.00     0.164 A 
ATOM     79  N   UNL A   1      30.955  25.601  25.516  1.00  0.00    -0.238 NA
ATOM     80  N   UNL A   1      33.045  27.719  23.513  1.00  0.00    -0.198 NA
ATOM     81  N   UNL A   1      32.098  27.520  25.745  1.00  0.00    -0.283 N 
ATOM     82  C   UNL A   1      31.353  26.533  26.359  1.00  0.00     0.206 A 
BRANCH  77  83
ATOM     83  O   UNL A   1      33.927  27.567  21.429  1.00  0.00    -0.496 OA
ATOM     84  H   UNL A   1      34.643  27.036  21.143  1.00  0.00     0.294 HD
ENDBRANCH  77  83
BRANCH  81  85
ATOM     85  C   UNL A   1      32.666  28.661  26.349  1.00  0.00     0.050 A 
ATOM     86  C   UNL A   1      33.941  28.590  26.918  1.00  0.00     0.027 A 
ATOM     87  C   UNL A   1      31.958  29.869  26.326  1.00  0.00     0.047 A 
ATOM     88  C   UNL A   1      34.528  29.753  27.423  1.00  0.00     0.004 A 
ATOM     89  C   UNL A   1      32.532  31.006  26.882  1.00  0.00     0.043 A 
ATOM     90  C   UNL A   1      33.821  30.958  27.413  1.00  0.00     0.020 A 
ATOM     91  Cl  UNL A   1      31.644  32.480  26.919  1.00  0.00    -0.084 Cl
ENDBRANCH  81  85
ENDBRANCH  73  74
ENDBRANCH  66  68
ENDBRANCH  65  66
ENDBRANCH  64  65
ENDBRANCH  63  64
ENDBRANCH   1  63
TORSDOF 17
ENDMDL
MODEL 2
REMARK VINA RESULT:     -12.2      5.392     10.463
REMARK SMILES O=C(OCCOCCOC(=O)c1ccc([C@@H]2CC(O)=Nc3c2ncn3-c2cccc(Cl)c2)cc1)c1ccc(-c2c3nc(c(-c4c(F)cccc4F)c4ccc([nH]4)c(-c4c(F)cccc4F)c4nc(c(-c5c(F)cccc5F)c5ccc2[nH]5)C=C4)C=C3)cc1
REMARK SMILES IDX 6 1 5 2 4 3 3 4 2 5 1 6 35 7 36 8 88 9 37 10 87 11 38 12
REMARK SMILES IDX 39 13 40 14 81 15 41 16 86 17 80 18 82 19 42 20 85 21 79 22
REMARK SMILES IDX 78 23 43 25 69 26 52 27 68 28 53 29 56 30 67 31 83 32 54 33
REMARK SMILES IDX 55 34 66 36 84 37 57 38 44 39 45 40 50 41 46 42 47 43 49 44
REMARK SMILES IDX 51 45 48 46 70 47 71 48 76 49 72 50 73 51 75 52 77 53 74 54
REMARK SMILES IDX 58 55 59 56 64 57 60 58 61 59 63 60 65 61 62 62 7 63 8 64
REMARK SMILES IDX 9 65 10 66 11 67 12 68 13 69 34 70 14 71 33 72 15 73 16 74
REMARK SMILES IDX 17 75 22 76 18 77 21 78 23 79 20 80 25 81 24 82 19 83 26 85
REMARK SMILES IDX 27 86 32 87 28 88 30 89 29 90 31 91
REMARK H PARENT 82 24 56 35 19 84
REMARK Flexibility Score: inf
ROOT
ATOM      1  O   UNL A   1      35.770  33.187  27.697  1.00  0.00    -0.374 OA
ENDROOT
BRANCH   1   2
ATOM      2  C   UNL A   1      36.601  33.497  28.814  1.00  0.00     0.202 C 
BRANCH   2   3
ATOM      3  C   UNL A   1      37.282  32.358  29.580  1.00  0.00     0.261 C 
BRANCH   3   4
ATOM      4  O   UNL A   1      37.862  31.363  28.720  1.00  0.00    -0.460 OA
BRANCH   4   5
ATOM      5  C   UNL A   1      37.675  30.033  28.862  1.00  0.00     0.338 C 
ATOM      6  O   UNL A   1      36.627  29.593  29.325  1.00  0.00    -0.246 OA
BRANCH   5   7
ATOM      7  C   UNL A   1      38.637  29.106  28.214  1.00  0.00     0.060 A 
ATOM      8  C   UNL A   1      38.631  27.719  28.368  1.00  0.00     0.016 A 
ATOM      9  C   UNL A   1      39.711  29.722  27.561  1.00  0.00     0.016 A 
ATOM     10  C   UNL A   1      39.805  27.021  28.273  1.00  0.00     0.010 A 
ATOM     11  C   UNL A   1      40.866  29.009  27.357  1.00  0.00     0.010 A 
ATOM     12  C   UNL A   1      40.932  27.714  27.866  1.00  0.00    -0.014 A 
BRANCH  12  13
ATOM     13  C   UNL A   1      42.195  27.020  27.937  1.00  0.00     0.031 A 
ATOM     14  C   UNL A   1      42.978  27.347  29.158  1.00  0.00     0.074 A 
ATOM     15  C   UNL A   1      42.469  26.111  26.982  1.00  0.00     0.049 A 
ATOM     16  N   UNL A   1      44.212  27.720  29.253  1.00  0.00    -0.248 NA
ATOM     17  C   UNL A   1      42.232  27.436  30.430  1.00  0.00     0.031 C 
ATOM     18  C   UNL A   1      41.606  25.676  25.872  1.00  0.00     0.029 A 
ATOM     19  N   UNL A   1      43.521  25.261  26.892  1.00  0.00    -0.354 N 
ATOM     20  C   UNL A   1      44.451  27.866  30.618  1.00  0.00     0.074 A 
ATOM     21  C   UNL A   1      43.173  27.859  31.271  1.00  0.00     0.031 C 
ATOM     22  C   UNL A   1      42.036  24.485  25.409  1.00  0.00     0.029 A 
ATOM     23  C   UNL A   1      43.269  24.150  26.088  1.00  0.00     0.049 A 
ATOM     24  H   UNL A   1      44.380  25.412  27.350  1.00  0.00     0.167 HD
ATOM     25  C   UNL A   1      45.697  27.691  31.135  1.00  0.00     0.037 A 
ATOM     26  C   UNL A   1      43.977  22.996  26.137  1.00  0.00     0.037 A 
ATOM     27  C   UNL A   1      46.710  27.939  30.144  1.00  0.00     0.049 A 
ATOM     28  C   UNL A   1      45.273  23.320  26.795  1.00  0.00     0.074 A 
ATOM     29  C   UNL A   1      47.081  29.046  29.406  1.00  0.00     0.029 A 
ATOM     30  N   UNL A   1      47.265  26.858  29.502  1.00  0.00    -0.354 N 
ATOM     31  N   UNL A   1      46.162  24.120  26.266  1.00  0.00    -0.248 NA
ATOM     32  C   UNL A   1      45.336  23.188  28.246  1.00  0.00     0.031 C 
ATOM     33  C   UNL A   1      47.402  28.536  28.116  1.00  0.00     0.029 A 
ATOM     34  C   UNL A   1      47.282  27.147  28.161  1.00  0.00     0.049 A 
ATOM     35  H   UNL A   1      47.591  26.032  29.927  1.00  0.00     0.167 HD
ATOM     36  C   UNL A   1      46.621  24.895  27.324  1.00  0.00     0.074 A 
ATOM     37  C   UNL A   1      46.105  24.244  28.528  1.00  0.00     0.031 C 
ATOM     38  C   UNL A   1      47.123  26.150  27.127  1.00  0.00     0.037 A 
BRANCH  25  39
ATOM     39  C   UNL A   1      45.950  26.886  32.386  1.00  0.00     0.057 A 
ATOM     40  C   UNL A   1      46.784  27.420  33.383  1.00  0.00     0.134 A 
ATOM     41  C   UNL A   1      45.671  25.508  32.514  1.00  0.00     0.134 A 
ATOM     42  F   UNL A   1      47.124  28.717  33.373  1.00  0.00    -0.206 F 
ATOM     43  C   UNL A   1      47.371  26.622  34.373  1.00  0.00     0.040 A 
ATOM     44  C   UNL A   1      46.213  24.713  33.525  1.00  0.00     0.040 A 
ATOM     45  F   UNL A   1      44.944  24.827  31.621  1.00  0.00    -0.206 F 
ATOM     46  C   UNL A   1      47.097  25.261  34.438  1.00  0.00     0.006 A 
ENDBRANCH  25  39
BRANCH  26  47
ATOM     47  C   UNL A   1      43.418  21.626  26.058  1.00  0.00     0.057 A 
ATOM     48  C   UNL A   1      44.021  20.637  25.273  1.00  0.00     0.134 A 
ATOM     49  C   UNL A   1      42.411  21.184  26.941  1.00  0.00     0.134 A 
ATOM     50  F   UNL A   1      45.025  20.949  24.442  1.00  0.00    -0.206 F 
ATOM     51  C   UNL A   1      43.644  19.288  25.357  1.00  0.00     0.040 A 
ATOM     52  C   UNL A   1      42.021  19.846  27.028  1.00  0.00     0.040 A 
ATOM     53  F   UNL A   1      41.831  22.024  27.809  1.00  0.00    -0.206 F 
ATOM     54  C   UNL A   1      42.645  18.888  26.241  1.00  0.00     0.006 A 
ENDBRANCH  26  47
BRANCH  38  55
ATOM     55  C   UNL A   1      47.301  26.624  25.709  1.00  0.00     0.057 A 
ATOM     56  C   UNL A   1      46.373  27.439  25.037  1.00  0.00     0.134 A 
ATOM     57  C   UNL A   1      48.525  26.413  25.071  1.00  0.00     0.134 A 
ATOM     58  F   UNL A   1      45.218  27.788  25.614  1.00  0.00    -0.206 F 
ATOM     59  C   UNL A   1      46.637  27.984  23.776  1.00  0.00     0.040 A 
ATOM     60  C   UNL A   1      48.815  26.978  23.826  1.00  0.00     0.040 A 
ATOM     61  F   UNL A   1      49.487  25.703  25.679  1.00  0.00    -0.206 F 
ATOM     62  C   UNL A   1      47.867  27.760  23.170  1.00  0.00     0.006 A 
ENDBRANCH  38  55
ENDBRANCH  12  13
ENDBRANCH   5   7
ENDBRANCH   4   5
ENDBRANCH   3   4
ENDBRANCH   2   3
ENDBRANCH   1   2
BRANCH   1  63
ATOM     63  C   UNL A   1      34.418  32.787  27.968  1.00  0.00     0.202 C 
BRANCH  63  64
ATOM     64  C   UNL A   1      34.026  31.302  27.899  1.00  0.00     0.261 C 
BRANCH  64  65
ATOM     65  O   UNL A   1      33.475  30.927  26.625  1.00  0.00    -0.460 OA
BRANCH  65  66
ATOM     66  C   UNL A   1      32.118  30.864  26.592  1.00  0.00     0.338 C 
ATOM     67  O   UNL A   1      31.337  31.773  26.759  1.00  0.00    -0.246 OA
BRANCH  66  68
ATOM     68  C   UNL A   1      31.720  29.549  26.041  1.00  0.00     0.060 A 
ATOM     69  C   UNL A   1      31.717  28.455  26.915  1.00  0.00     0.016 A 
ATOM     70  C   UNL A   1      31.347  29.390  24.708  1.00  0.00     0.016 A 
ATOM     71  C   UNL A   1      31.361  27.194  26.456  1.00  0.00     0.005 A 
ATOM     72  C   UNL A   1      31.045  28.111  24.236  1.00  0.00     0.005 A 
ATOM     73  C   UNL A   1      31.062  26.996  25.100  1.00  0.00    -0.038 A 
BRANCH  73  74
ATOM     74  C   UNL A   1      30.941  25.565  24.605  1.00  0.00     0.081 C 
ATOM     75  C   UNL A   1      30.321  24.685  25.712  1.00  0.00     0.111 C 
ATOM     76  C   UNL A   1      32.292  25.096  24.228  1.00  0.00     0.093 A 
ATOM     77  C   UNL A   1      31.311  23.789  26.436  1.00  0.00     0.188 C 
ATOM     78  C   UNL A   1      32.919  24.093  24.929  1.00  0.00     0.164 A 
ATOM     79  N   UNL A   1      33.096  25.616  23.250  1.00  0.00    -0.238 NA
ATOM     80  N   UNL A   1      32.500  23.453  26.049  1.00  0.00    -0.198 NA
ATOM     81  N   UNL A   1      34.179  24.002  24.375  1.00  0.00    -0.283 N 
ATOM     82  C   UNL A   1      34.238  24.973  23.395  1.00  0.00     0.206 A 
BRANCH  77  83
ATOM     83  O   UNL A   1      30.844  23.265  27.586  1.00  0.00    -0.496 OA
ATOM     84  H   UNL A   1      29.921  23.173  27.717  1.00  0.00     0.294 HD
ENDBRANCH  77  83
BRANCH  81  85
ATOM     85  C   UNL A   1      35.212  23.130  24.777  1.00  0.00     0.050 A 
ATOM     86  C   UNL A   1      35.094  21.755  24.552  1.00  0.00     0.027 A 
ATOM     87  C   UNL A   1      36.370  23.666  25.354  1.00  0.00     0.047 A 
ATOM     88  C   UNL A   1      36.168  20.919  24.866  1.00  0.00     0.004 A 
ATOM     89  C   UNL A   1      37.409  22.814  25.711  1.00  0.00     0.043 A 
ATOM     90  C   UNL A   1      37.322  21.447  25.453  1.00  0.00     0.020 A 
ATOM     91  Cl  UNL A   1      38.809  23.453  26.483  1.00  0.00    -0.084 Cl
ENDBRANCH  81  85
ENDBRANCH  73  74
ENDBRANCH  66  68
ENDBRANCH  65  66
ENDBRANCH  64  65
ENDBRANCH  63  64
ENDBRANCH   1  63
TORSDOF 17
ENDMDL
MODEL 3
REMARK VINA RESULT:     -12.1      4.447      6.698
REMARK SMILES O=C(OCCOCCOC(=O)c1ccc([C@@H]2CC(O)=Nc3c2ncn3-c2cccc(Cl)c2)cc1)c1ccc(-c2c3nc(c(-c4c(F)cccc4F)c4ccc([nH]4)c(-c4c(F)cccc4F)c4nc(c(-c5c(F)cccc5F)c5ccc2[nH]5)C=C4)C=C3)cc1
REMARK SMILES IDX 6 1 5 2 4 3 3 4 2 5 1 6 35 7 36 8 88 9 37 10 87 11 38 12
REMARK SMILES IDX 39 13 40 14 81 15 41 16 86 17 80 18 82 19 42 20 85 21 79 22
REMARK SMILES IDX 78 23 43 25 69 26 52 27 68 28 53 29 56 30 67 31 83 32 54 33
REMARK SMILES IDX 55 34 66 36 84 37 57 38 44 39 45 40 50 41 46 42 47 43 49 44
REMARK SMILES IDX 51 45 48 46 70 47 71 48 76 49 72 50 73 51 75 52 77 53 74 54
REMARK SMILES IDX 58 55 59 56 64 57 60 58 61 59 63 60 65 61 62 62 7 63 8 64
REMARK SMILES IDX 9 65 10 66 11 67 12 68 13 69 34 70 14 71 33 72 15 73 16 74
REMARK SMILES IDX 17 75 22 76 18 77 21 78 23 79 20 80 25 81 24 82 19 83 26 85
REMARK SMILES IDX 27 86 32 87 28 88 30 89 29 90 31 91
REMARK H PARENT 82 24 56 35 19 84
REMARK Flexibility Score: inf
ROOT
ATOM      1  O   UNL A   1      40.260  20.341  26.427  1.00  0.00    -0.374 OA
ENDROOT
BRANCH   1   2
ATOM      2  C   UNL A   1      41.525  20.073  27.028  1.00  0.00     0.202 C 
BRANCH   2   3
ATOM      3  C   UNL A   1      42.504  19.130  26.322  1.00  0.00     0.261 C 
BRANCH   3   4
ATOM      4  O   UNL A   1      42.763  19.497  24.957  1.00  0.00    -0.460 OA
BRANCH   4   5
ATOM      5  C   UNL A   1      43.966  19.894  24.491  1.00  0.00     0.338 C 
ATOM      6  O   UNL A   1      44.553  19.242  23.633  1.00  0.00    -0.246 OA
BRANCH   5   7
ATOM      7  C   UNL A   1      44.447  21.258  24.833  1.00  0.00     0.060 A 
ATOM      8  C   UNL A   1      45.607  21.532  25.560  1.00  0.00     0.016 A 
ATOM      9  C   UNL A   1      43.553  22.295  24.544  1.00  0.00     0.016 A 
ATOM     10  C   UNL A   1      45.674  22.664  26.326  1.00  0.00     0.010 A 
ATOM     11  C   UNL A   1      43.665  23.482  25.225  1.00  0.00     0.010 A 
ATOM     12  C   UNL A   1      44.637  23.575  26.218  1.00  0.00    -0.014 A 
BRANCH  12  13
ATOM     13  C   UNL A   1      44.625  24.675  27.152  1.00  0.00     0.031 A 
ATOM     14  C   UNL A   1      45.865  25.495  27.113  1.00  0.00     0.074 A 
ATOM     15  C   UNL A   1      43.497  24.891  27.856  1.00  0.00     0.049 A 
ATOM     16  N   UNL A   1      46.626  25.861  28.091  1.00  0.00    -0.248 NA
ATOM     17  C   UNL A   1      46.423  25.804  25.779  1.00  0.00     0.031 C 
ATOM     18  C   UNL A   1      42.218  24.169  27.758  1.00  0.00     0.029 A 
ATOM     19  N   UNL A   1      43.202  25.910  28.699  1.00  0.00    -0.354 N 
ATOM     20  C   UNL A   1      47.629  26.636  27.511  1.00  0.00     0.074 A 
ATOM     21  C   UNL A   1      47.561  26.417  26.094  1.00  0.00     0.031 C 
ATOM     22  C   UNL A   1      41.234  24.928  28.284  1.00  0.00     0.029 A 
ATOM     23  C   UNL A   1      41.833  26.107  28.872  1.00  0.00     0.049 A 
ATOM     24  H   UNL A   1      43.887  26.458  29.146  1.00  0.00     0.167 HD
ATOM     25  C   UNL A   1      48.250  27.620  28.215  1.00  0.00     0.037 A 
ATOM     26  C   UNL A   1      41.278  27.255  29.331  1.00  0.00     0.037 A 
ATOM     27  C   UNL A   1      48.196  27.360  29.629  1.00  0.00     0.049 A 
ATOM     28  C   UNL A   1      42.361  27.998  30.033  1.00  0.00     0.074 A 
ATOM     29  C   UNL A   1      48.687  26.356  30.440  1.00  0.00     0.029 A 
ATOM     30  N   UNL A   1      47.231  28.000  30.368  1.00  0.00    -0.354 N 
ATOM     31  N   UNL A   1      42.938  27.561  31.123  1.00  0.00    -0.248 NA
ATOM     32  C   UNL A   1      43.152  28.932  29.239  1.00  0.00     0.031 C 
ATOM     33  C   UNL A   1      47.664  26.131  31.405  1.00  0.00     0.029 A 
ATOM     34  C   UNL A   1      46.646  27.057  31.175  1.00  0.00     0.049 A 
ATOM     35  H   UNL A   1      47.002  28.956  30.325  1.00  0.00     0.167 HD
ATOM     36  C   UNL A   1      44.289  27.832  30.947  1.00  0.00     0.074 A 
ATOM     37  C   UNL A   1      44.353  28.717  29.784  1.00  0.00     0.031 C 
ATOM     38  C   UNL A   1      45.255  27.089  31.565  1.00  0.00     0.037 A 
BRANCH  25  39
ATOM     39  C   UNL A   1      48.503  28.992  27.639  1.00  0.00     0.057 A 
ATOM     40  C   UNL A   1      49.788  29.548  27.745  1.00  0.00     0.134 A 
ATOM     41  C   UNL A   1      47.486  29.901  27.274  1.00  0.00     0.134 A 
ATOM     42  F   UNL A   1      50.840  28.789  28.085  1.00  0.00    -0.206 F 
ATOM     43  C   UNL A   1      50.024  30.921  27.593  1.00  0.00     0.040 A 
ATOM     44  C   UNL A   1      47.719  31.262  27.074  1.00  0.00     0.040 A 
ATOM     45  F   UNL A   1      46.197  29.552  27.186  1.00  0.00    -0.206 F 
ATOM     46  C   UNL A   1      48.984  31.784  27.271  1.00  0.00     0.006 A 
ENDBRANCH  25  39
BRANCH  26  47
ATOM     47  C   UNL A   1      40.045  27.896  28.818  1.00  0.00     0.057 A 
ATOM     48  C   UNL A   1      38.919  28.066  29.630  1.00  0.00     0.134 A 
ATOM     49  C   UNL A   1      40.023  28.574  27.582  1.00  0.00     0.134 A 
ATOM     50  F   UNL A   1      38.869  27.505  30.847  1.00  0.00    -0.206 F 
ATOM     51  C   UNL A   1      37.832  28.862  29.237  1.00  0.00     0.040 A 
ATOM     52  C   UNL A   1      38.944  29.363  27.176  1.00  0.00     0.040 A 
ATOM     53  F   UNL A   1      41.084  28.562  26.763  1.00  0.00    -0.206 F 
ATOM     54  C   UNL A   1      37.845  29.518  28.009  1.00  0.00     0.006 A 
ENDBRANCH  26  47
BRANCH  38  55
ATOM     55  C   UNL A   1      44.816  26.050  32.562  1.00  0.00     0.057 A 
ATOM     56  C   UNL A   1      44.525  24.718  32.222  1.00  0.00     0.134 A 
ATOM     57  C   UNL A   1      44.872  26.350  33.924  1.00  0.00     0.134 A 
ATOM     58  F   UNL A   1      44.556  24.308  30.948  1.00  0.00    -0.206 F 
ATOM     59  C   UNL A   1      44.265  23.742  33.190  1.00  0.00     0.040 A 
ATOM     60  C   UNL A   1      44.646  25.379  34.904  1.00  0.00     0.040 A 
ATOM     61  F   UNL A   1      45.209  27.584  34.328  1.00  0.00    -0.206 F 
ATOM     62  C   UNL A   1      44.334  24.071  34.539  1.00  0.00     0.006 A 
ENDBRANCH  38  55
ENDBRANCH  12  13
ENDBRANCH   5   7
ENDBRANCH   4   5
ENDBRANCH   3   4
ENDBRANCH   2   3
ENDBRANCH   1   2
BRANCH   1  63
ATOM     63  C   UNL A   1      39.880  21.716  26.268  1.00  0.00     0.202 C 
BRANCH  63  64
ATOM     64  C   UNL A   1      38.398  22.091  26.106  1.00  0.00     0.261 C 
BRANCH  64  65
ATOM     65  O   UNL A   1      37.912  21.891  24.769  1.00  0.00    -0.460 OA
BRANCH  65  66
ATOM     66  C   UNL A   1      36.838  21.063  24.673  1.00  0.00     0.338 C 
ATOM     67  O   UNL A   1      36.758  19.920  25.061  1.00  0.00    -0.246 OA
BRANCH  66  68
ATOM     68  C   UNL A   1      35.661  21.861  24.262  1.00  0.00     0.060 A 
ATOM     69  C   UNL A   1      35.900  23.107  23.669  1.00  0.00     0.016 A 
ATOM     70  C   UNL A   1      34.359  21.400  24.440  1.00  0.00     0.016 A 
ATOM     71  C   UNL A   1      34.836  23.906  23.270  1.00  0.00     0.005 A 
ATOM     72  C   UNL A   1      33.292  22.230  24.090  1.00  0.00     0.005 A 
ATOM     73  C   UNL A   1      33.517  23.498  23.514  1.00  0.00    -0.038 A 
BRANCH  73  74
ATOM     74  C   UNL A   1      32.411  24.517  23.301  1.00  0.00     0.081 C 
ATOM     75  C   UNL A   1      32.733  25.379  22.060  1.00  0.00     0.111 C 
ATOM     76  C   UNL A   1      32.307  25.340  24.525  1.00  0.00     0.093 A 
ATOM     77  C   UNL A   1      33.235  26.777  22.375  1.00  0.00     0.188 C 
ATOM     78  C   UNL A   1      32.627  26.678  24.512  1.00  0.00     0.164 A 
ATOM     79  N   UNL A   1      31.985  24.903  25.781  1.00  0.00    -0.238 NA
ATOM     80  N   UNL A   1      33.133  27.418  23.495  1.00  0.00    -0.198 NA
ATOM     81  N   UNL A   1      32.520  27.084  25.826  1.00  0.00    -0.283 N 
ATOM     82  C   UNL A   1      32.170  25.960  26.548  1.00  0.00     0.206 A 
BRANCH  77  83
ATOM     83  O   UNL A   1      33.804  27.408  21.329  1.00  0.00    -0.496 OA
ATOM     84  H   UNL A   1      34.622  27.850  21.438  1.00  0.00     0.294 HD
ENDBRANCH  77  83
BRANCH  81  85
ATOM     85  C   UNL A   1      32.779  28.376  26.330  1.00  0.00     0.050 A 
ATOM     86  C   UNL A   1      33.951  28.623  27.050  1.00  0.00     0.027 A 
ATOM     87  C   UNL A   1      31.874  29.409  26.057  1.00  0.00     0.047 A 
ATOM     88  C   UNL A   1      34.239  29.928  27.456  1.00  0.00     0.004 A 
ATOM     89  C   UNL A   1      32.147  30.693  26.515  1.00  0.00     0.043 A 
ATOM     90  C   UNL A   1      33.333  30.961  27.196  1.00  0.00     0.020 A 
ATOM     91  Cl  UNL A   1      31.010  31.955  26.243  1.00  0.00    -0.084 Cl
ENDBRANCH  81  85
ENDBRANCH  73  74
ENDBRANCH  66  68
ENDBRANCH  65  66
ENDBRANCH  64  65
ENDBRANCH  63  64
ENDBRANCH   1  63
TORSDOF 17
ENDMDL
