MODEL 1
REMARK VINA RESULT:     -10.7      0.000      0.000
REMARK SMILES CCCc1cc(OC(F)(F)F)cc2c1O[C@@H](C(F)(F)F)C(C(=O)OCCOCCOC(=O)c1ccc(-c3c4nc(c(-c5c(F)cccc5F)c5ccc([nH]5)c(-c5c(F)cccc5F)c5nc(c(-c6c(F)cccc6F)c6ccc3[nH]6)C=C5)C=C4)cc1)=C2
REMARK SMILES IDX 27 1 26 2 25 3 24 4 22 5 23 6 21 7 4 8 5 9 14 10 6 11 13 12
REMARK SMILES IDX 15 13 12 14 87 15 16 16 3 17 2 18 1 19 7 20 8 21 9 22 10 23
REMARK SMILES IDX 11 24 17 25 18 26 19 27 20 28 28 29 29 30 30 31 31 32 32 33
REMARK SMILES IDX 33 34 34 35 86 36 35 37 85 38 36 39 37 40 38 41 79 42 39 43
REMARK SMILES IDX 84 44 78 45 80 46 40 47 83 48 77 49 76 50 41 52 67 53 50 54
REMARK SMILES IDX 66 55 51 56 54 57 65 58 81 59 52 60 53 61 64 63 82 64 55 65
REMARK SMILES IDX 42 66 43 67 48 68 44 69 45 70 47 71 49 72 46 73 68 74 69 75
REMARK SMILES IDX 74 76 70 77 71 78 73 79 75 80 72 81 56 82 57 83 62 84 58 85
REMARK SMILES IDX 59 86 61 87 63 88 60 89
REMARK H PARENT 80 51 54 62
REMARK Flexibility Score: inf
ROOT
ATOM      1  O   UNL A   1      38.538  22.248  26.353  1.00  0.00    -0.374 OA
ENDROOT
BRANCH   1   2
ATOM      2  C   UNL A   1      37.461  22.117  25.431  1.00  0.00     0.202 C 
BRANCH   2   3
ATOM      3  C   UNL A   1      36.082  22.649  25.831  1.00  0.00     0.261 C 
BRANCH   3   4
ATOM      4  O   UNL A   1      35.084  22.376  24.838  1.00  0.00    -0.460 OA
BRANCH   4   5
ATOM      5  C   UNL A   1      35.028  23.286  23.836  1.00  0.00     0.338 C 
ATOM      6  O   UNL A   1      35.616  23.223  22.768  1.00  0.00    -0.246 OA
BRANCH   5   7
ATOM      7  C   UNL A   1      34.046  24.337  24.137  1.00  0.00     0.087 C 
ATOM      8  C   UNL A   1      31.292  27.451  23.827  1.00  0.00    -0.002 A 
ATOM      9  C   UNL A   1      31.560  28.662  24.484  1.00  0.00     0.054 A 
ATOM     10  C   UNL A   1      32.219  26.408  23.968  1.00  0.00     0.131 A 
ATOM     11  C   UNL A   1      32.761  28.862  25.173  1.00  0.00     0.130 A 
ATOM     12  C   UNL A   1      33.428  26.588  24.663  1.00  0.00     0.021 A 
ATOM     13  O   UNL A   1      31.932  25.227  23.328  1.00  0.00    -0.475 OA
ATOM     14  C   UNL A   1      33.686  27.818  25.271  1.00  0.00     0.058 A 
ATOM     15  C   UNL A   1      34.445  25.536  24.595  1.00  0.00     0.027 C 
ATOM     16  C   UNL A   1      32.579  24.066  23.900  1.00  0.00     0.316 C 
BRANCH   8  17
ATOM     17  C   UNL A   1      30.041  27.240  22.998  1.00  0.00     0.039 C 
BRANCH  17  18
ATOM     18  C   UNL A   1      28.838  28.143  23.298  1.00  0.00     0.001 C 
ATOM     19  C   UNL A   1      28.737  29.345  22.367  1.00  0.00     0.004 C 
ENDBRANCH  17  18
ENDBRANCH   8  17
BRANCH  11  20
ATOM     20  O   UNL A   1      33.148  30.033  25.766  1.00  0.00    -0.406 OA
BRANCH  20  21
ATOM     21  C   UNL A   1      32.416  30.453  26.909  1.00  0.00     0.573 C 
ATOM     22  F   UNL A   1      31.440  31.326  26.579  1.00  0.00    -0.132 F 
ATOM     23  F   UNL A   1      31.875  29.394  27.548  1.00  0.00    -0.132 F 
ATOM     24  F   UNL A   1      33.260  31.072  27.764  1.00  0.00    -0.132 F 
ENDBRANCH  20  21
ENDBRANCH  11  20
BRANCH  16  25
ATOM     25  C   UNL A   1      32.158  22.828  23.090  1.00  0.00     0.430 C 
ATOM     26  F   UNL A   1      30.822  22.816  22.872  1.00  0.00    -0.167 F 
ATOM     27  F   UNL A   1      32.733  22.868  21.857  1.00  0.00    -0.167 F 
ATOM     28  F   UNL A   1      32.525  21.663  23.657  1.00  0.00    -0.167 F 
ENDBRANCH  16  25
ENDBRANCH   5   7
ENDBRANCH   4   5
ENDBRANCH   3   4
ENDBRANCH   2   3
ENDBRANCH   1   2
BRANCH   1  29
ATOM     29  C   UNL A   1      39.745  21.532  26.115  1.00  0.00     0.202 C 
BRANCH  29  30
ATOM     30  C   UNL A   1      41.090  22.253  26.280  1.00  0.00     0.261 C 
BRANCH  30  31
ATOM     31  O   UNL A   1      41.010  23.674  26.093  1.00  0.00    -0.460 OA
BRANCH  31  32
ATOM     32  C   UNL A   1      41.984  24.367  26.732  1.00  0.00     0.338 C 
ATOM     33  O   UNL A   1      43.191  24.229  26.615  1.00  0.00    -0.246 OA
BRANCH  32  34
ATOM     34  C   UNL A   1      41.402  25.486  27.491  1.00  0.00     0.060 A 
ATOM     35  C   UNL A   1      42.132  26.680  27.531  1.00  0.00     0.016 A 
ATOM     36  C   UNL A   1      40.238  25.334  28.245  1.00  0.00     0.016 A 
ATOM     37  C   UNL A   1      41.738  27.707  28.381  1.00  0.00     0.010 A 
ATOM     38  C   UNL A   1      39.847  26.365  29.106  1.00  0.00     0.010 A 
ATOM     39  C   UNL A   1      40.624  27.534  29.213  1.00  0.00    -0.014 A 
BRANCH  39  40
ATOM     40  C   UNL A   1      40.399  28.508  30.309  1.00  0.00     0.031 A 
ATOM     41  C   UNL A   1      41.274  28.443  31.533  1.00  0.00     0.074 A 
ATOM     42  C   UNL A   1      39.488  29.487  30.179  1.00  0.00     0.049 A 
ATOM     43  N   UNL A   1      41.280  29.213  32.591  1.00  0.00    -0.248 NA
ATOM     44  C   UNL A   1      42.275  27.363  31.570  1.00  0.00     0.031 C 
ATOM     45  C   UNL A   1      38.610  29.675  29.025  1.00  0.00     0.029 A 
ATOM     46  N   UNL A   1      39.156  30.512  31.027  1.00  0.00    -0.354 N 
ATOM     47  C   UNL A   1      42.277  28.710  33.418  1.00  0.00     0.074 A 
ATOM     48  C   UNL A   1      42.826  27.546  32.760  1.00  0.00     0.031 C 
ATOM     49  C   UNL A   1      37.839  30.756  29.237  1.00  0.00     0.029 A 
ATOM     50  C   UNL A   1      38.149  31.315  30.551  1.00  0.00     0.049 A 
ATOM     51  H   UNL A   1      39.598  30.658  31.894  1.00  0.00     0.167 HD
ATOM     52  C   UNL A   1      42.706  29.186  34.612  1.00  0.00     0.037 A 
ATOM     53  C   UNL A   1      37.538  32.372  31.119  1.00  0.00     0.037 A 
ATOM     54  C   UNL A   1      42.163  30.351  35.259  1.00  0.00     0.049 A 
ATOM     55  C   UNL A   1      37.994  32.843  32.475  1.00  0.00     0.074 A 
ATOM     56  C   UNL A   1      42.544  30.927  36.459  1.00  0.00     0.029 A 
ATOM     57  N   UNL A   1      41.116  31.115  34.765  1.00  0.00    -0.354 N 
ATOM     58  N   UNL A   1      38.960  32.381  33.234  1.00  0.00    -0.248 NA
ATOM     59  C   UNL A   1      37.279  33.991  33.050  1.00  0.00     0.031 C 
ATOM     60  C   UNL A   1      41.691  32.004  36.718  1.00  0.00     0.029 A 
ATOM     61  C   UNL A   1      40.819  32.139  35.649  1.00  0.00     0.049 A 
ATOM     62  H   UNL A   1      40.653  30.953  33.911  1.00  0.00     0.167 HD
ATOM     63  C   UNL A   1      38.987  33.198  34.359  1.00  0.00     0.074 A 
ATOM     64  C   UNL A   1      37.957  34.198  34.171  1.00  0.00     0.031 C 
ATOM     65  C   UNL A   1      39.790  33.127  35.450  1.00  0.00     0.037 A 
BRANCH  52  66
ATOM     66  C   UNL A   1      43.801  28.430  35.309  1.00  0.00     0.057 A 
ATOM     67  C   UNL A   1      43.532  27.389  36.206  1.00  0.00     0.134 A 
ATOM     68  C   UNL A   1      45.146  28.723  35.047  1.00  0.00     0.134 A 
ATOM     69  F   UNL A   1      42.267  27.065  36.514  1.00  0.00    -0.206 F 
ATOM     70  C   UNL A   1      44.560  26.681  36.835  1.00  0.00     0.040 A 
ATOM     71  C   UNL A   1      46.181  28.004  35.645  1.00  0.00     0.040 A 
ATOM     72  F   UNL A   1      45.475  29.706  34.195  1.00  0.00    -0.206 F 
ATOM     73  C   UNL A   1      45.889  26.984  36.547  1.00  0.00     0.006 A 
ENDBRANCH  52  66
BRANCH  53  74
ATOM     74  C   UNL A   1      36.419  33.054  30.420  1.00  0.00     0.057 A 
ATOM     75  C   UNL A   1      35.085  32.804  30.762  1.00  0.00     0.134 A 
ATOM     76  C   UNL A   1      36.657  33.943  29.366  1.00  0.00     0.134 A 
ATOM     77  F   UNL A   1      34.789  31.945  31.749  1.00  0.00    -0.206 F 
ATOM     78  C   UNL A   1      34.028  33.390  30.063  1.00  0.00     0.040 A 
ATOM     79  C   UNL A   1      35.611  34.561  28.677  1.00  0.00     0.040 A 
ATOM     80  F   UNL A   1      37.912  34.229  28.989  1.00  0.00    -0.206 F 
ATOM     81  C   UNL A   1      34.291  34.276  29.020  1.00  0.00     0.006 A 
ENDBRANCH  53  74
BRANCH  65  82
ATOM     82  C   UNL A   1      39.607  34.182  36.505  1.00  0.00     0.057 A 
ATOM     83  C   UNL A   1      38.858  33.949  37.667  1.00  0.00     0.134 A 
ATOM     84  C   UNL A   1      40.202  35.442  36.365  1.00  0.00     0.134 A 
ATOM     85  F   UNL A   1      38.251  32.768  37.860  1.00  0.00    -0.206 F 
ATOM     86  C   UNL A   1      38.676  34.944  38.629  1.00  0.00     0.040 A 
ATOM     87  C   UNL A   1      40.056  36.433  37.337  1.00  0.00     0.040 A 
ATOM     88  F   UNL A   1      40.945  35.730  35.285  1.00  0.00    -0.206 F 
ATOM     89  C   UNL A   1      39.281  36.188  38.468  1.00  0.00     0.006 A 
ENDBRANCH  65  82
ENDBRANCH  39  40
ENDBRANCH  32  34
ENDBRANCH  31  32
ENDBRANCH  30  31
ENDBRANCH  29  30
ENDBRANCH   1  29
TORSDOF 19
ENDMDL
MODEL 2
REMARK VINA RESULT:     -10.6      0.640      6.150
REMARK SMILES CCCc1cc(OC(F)(F)F)cc2c1O[C@@H](C(F)(F)F)C(C(=O)OCCOCCOC(=O)c1ccc(-c3c4nc(c(-c5c(F)cccc5F)c5ccc([nH]5)c(-c5c(F)cccc5F)c5nc(c(-c6c(F)cccc6F)c6ccc3[nH]6)C=C5)C=C4)cc1)=C2
REMARK SMILES IDX 27 1 26 2 25 3 24 4 22 5 23 6 21 7 4 8 5 9 14 10 6 11 13 12
REMARK SMILES IDX 15 13 12 14 87 15 16 16 3 17 2 18 1 19 7 20 8 21 9 22 10 23
REMARK SMILES IDX 11 24 17 25 18 26 19 27 20 28 28 29 29 30 30 31 31 32 32 33
REMARK SMILES IDX 33 34 34 35 86 36 35 37 85 38 36 39 37 40 38 41 79 42 39 43
REMARK SMILES IDX 84 44 78 45 80 46 40 47 83 48 77 49 76 50 41 52 67 53 50 54
REMARK SMILES IDX 66 55 51 56 54 57 65 58 81 59 52 60 53 61 64 63 82 64 55 65
REMARK SMILES IDX 42 66 43 67 48 68 44 69 45 70 47 71 49 72 46 73 68 74 69 75
REMARK SMILES IDX 74 76 70 77 71 78 73 79 75 80 72 81 56 82 57 83 62 84 58 85
REMARK SMILES IDX 59 86 61 87 63 88 60 89
REMARK H PARENT 80 51 54 62
REMARK Flexibility Score: inf
ROOT
ATOM      1  O   UNL A   1      38.898  21.946  25.581  1.00  0.00    -0.374 OA
ENDROOT
BRANCH   1   2
ATOM      2  C   UNL A   1      37.590  21.408  25.737  1.00  0.00     0.202 C 
BRANCH   2   3
ATOM      3  C   UNL A   1      36.647  21.406  24.531  1.00  0.00     0.261 C 
BRANCH   3   4
ATOM      4  O   UNL A   1      35.536  22.296  24.706  1.00  0.00    -0.460 OA
BRANCH   4   5
ATOM      5  C   UNL A   1      35.337  23.152  23.675  1.00  0.00     0.338 C 
ATOM      6  O   UNL A   1      35.812  23.058  22.554  1.00  0.00    -0.246 OA
BRANCH   5   7
ATOM      7  C   UNL A   1      34.349  24.180  24.032  1.00  0.00     0.087 C 
ATOM      8  C   UNL A   1      31.551  27.266  23.883  1.00  0.00    -0.002 A 
ATOM      9  C   UNL A   1      31.818  28.459  24.573  1.00  0.00     0.054 A 
ATOM     10  C   UNL A   1      32.494  26.231  23.969  1.00  0.00     0.131 A 
ATOM     11  C   UNL A   1      33.032  28.653  25.240  1.00  0.00     0.130 A 
ATOM     12  C   UNL A   1      33.715  26.405  24.643  1.00  0.00     0.021 A 
ATOM     13  O   UNL A   1      32.207  25.067  23.299  1.00  0.00    -0.475 OA
ATOM     14  C   UNL A   1      33.972  27.618  25.284  1.00  0.00     0.058 A 
ATOM     15  C   UNL A   1      34.744  25.369  24.519  1.00  0.00     0.027 C 
ATOM     16  C   UNL A   1      32.881  23.897  23.819  1.00  0.00     0.316 C 
BRANCH   8  17
ATOM     17  C   UNL A   1      30.283  27.065  23.076  1.00  0.00     0.039 C 
BRANCH  17  18
ATOM     18  C   UNL A   1      29.052  26.535  23.821  1.00  0.00     0.001 C 
ATOM     19  C   UNL A   1      29.382  25.914  25.172  1.00  0.00     0.004 C 
ENDBRANCH  17  18
ENDBRANCH   8  17
BRANCH  11  20
ATOM     20  O   UNL A   1      33.418  29.809  25.861  1.00  0.00    -0.406 OA
BRANCH  20  21
ATOM     21  C   UNL A   1      33.229  29.882  27.268  1.00  0.00     0.573 C 
ATOM     22  F   UNL A   1      34.408  29.942  27.925  1.00  0.00    -0.132 F 
ATOM     23  F   UNL A   1      32.477  30.955  27.595  1.00  0.00    -0.132 F 
ATOM     24  F   UNL A   1      32.577  28.772  27.679  1.00  0.00    -0.132 F 
ENDBRANCH  20  21
ENDBRANCH  11  20
BRANCH  16  25
ATOM     25  C   UNL A   1      32.457  22.680  22.979  1.00  0.00     0.430 C 
ATOM     26  F   UNL A   1      32.797  21.521  23.589  1.00  0.00    -0.167 F 
ATOM     27  F   UNL A   1      31.101  22.652  22.862  1.00  0.00    -0.167 F 
ATOM     28  F   UNL A   1      32.959  22.688  21.730  1.00  0.00    -0.167 F 
ENDBRANCH  16  25
ENDBRANCH   5   7
ENDBRANCH   4   5
ENDBRANCH   3   4
ENDBRANCH   2   3
ENDBRANCH   1   2
BRANCH   1  29
ATOM     29  C   UNL A   1      40.000  21.276  26.184  1.00  0.00     0.202 C 
BRANCH  29  30
ATOM     30  C   UNL A   1      41.281  22.063  26.493  1.00  0.00     0.261 C 
BRANCH  30  31
ATOM     31  O   UNL A   1      41.057  23.245  27.277  1.00  0.00    -0.460 OA
BRANCH  31  32
ATOM     32  C   UNL A   1      41.531  24.380  26.708  1.00  0.00     0.338 C 
ATOM     33  O   UNL A   1      42.109  24.486  25.638  1.00  0.00    -0.246 OA
BRANCH  32  34
ATOM     34  C   UNL A   1      41.095  25.558  27.475  1.00  0.00     0.060 A 
ATOM     35  C   UNL A   1      41.915  26.691  27.427  1.00  0.00     0.016 A 
ATOM     36  C   UNL A   1      39.982  25.515  28.316  1.00  0.00     0.016 A 
ATOM     37  C   UNL A   1      41.666  27.765  28.274  1.00  0.00     0.010 A 
ATOM     38  C   UNL A   1      39.737  26.593  29.172  1.00  0.00     0.010 A 
ATOM     39  C   UNL A   1      40.608  27.700  29.190  1.00  0.00    -0.014 A 
BRANCH  39  40
ATOM     40  C   UNL A   1      40.541  28.712  30.271  1.00  0.00     0.031 A 
ATOM     41  C   UNL A   1      39.480  29.778  30.209  1.00  0.00     0.074 A 
ATOM     42  C   UNL A   1      41.359  28.632  31.335  1.00  0.00     0.049 A 
ATOM     43  N   UNL A   1      39.214  30.736  31.060  1.00  0.00    -0.248 NA
ATOM     44  C   UNL A   1      38.599  29.762  29.028  1.00  0.00     0.031 C 
ATOM     45  C   UNL A   1      42.400  27.623  31.525  1.00  0.00     0.029 A 
ATOM     46  N   UNL A   1      41.436  29.413  32.458  1.00  0.00    -0.354 N 
ATOM     47  C   UNL A   1      38.144  31.437  30.517  1.00  0.00     0.074 A 
ATOM     48  C   UNL A   1      37.835  30.822  29.245  1.00  0.00     0.031 C 
ATOM     49  C   UNL A   1      43.012  27.846  32.701  1.00  0.00     0.029 A 
ATOM     50  C   UNL A   1      42.425  29.028  33.329  1.00  0.00     0.049 A 
ATOM     51  H   UNL A   1      40.839  30.177  32.626  1.00  0.00     0.167 HD
ATOM     52  C   UNL A   1      37.470  32.490  31.038  1.00  0.00     0.037 A 
ATOM     53  C   UNL A   1      42.820  29.577  34.494  1.00  0.00     0.037 A 
ATOM     54  C   UNL A   1      37.774  33.094  32.309  1.00  0.00     0.049 A 
ATOM     55  C   UNL A   1      42.092  30.785  35.022  1.00  0.00     0.074 A 
ATOM     56  C   UNL A   1      37.136  34.150  32.936  1.00  0.00     0.029 A 
ATOM     57  N   UNL A   1      38.809  32.701  33.144  1.00  0.00    -0.354 N 
ATOM     58  N   UNL A   1      41.060  31.419  34.517  1.00  0.00    -0.248 NA
ATOM     59  C   UNL A   1      42.579  31.348  36.290  1.00  0.00     0.031 C 
ATOM     60  C   UNL A   1      37.820  34.434  34.122  1.00  0.00     0.029 A 
ATOM     61  C   UNL A   1      38.846  33.513  34.266  1.00  0.00     0.049 A 
ATOM     62  H   UNL A   1      39.426  31.955  32.965  1.00  0.00     0.167 HD
ATOM     63  C   UNL A   1      40.758  32.435  35.417  1.00  0.00     0.074 A 
ATOM     64  C   UNL A   1      41.701  32.316  36.510  1.00  0.00     0.031 C 
ATOM     65  C   UNL A   1      39.790  33.383  35.347  1.00  0.00     0.037 A 
BRANCH  52  66
ATOM     66  C   UNL A   1      36.352  33.074  30.222  1.00  0.00     0.057 A 
ATOM     67  C   UNL A   1      36.588  33.946  29.153  1.00  0.00     0.134 A 
ATOM     68  C   UNL A   1      35.021  32.725  30.487  1.00  0.00     0.134 A 
ATOM     69  F   UNL A   1      37.837  34.334  28.853  1.00  0.00    -0.206 F 
ATOM     70  C   UNL A   1      35.540  34.468  28.390  1.00  0.00     0.040 A 
ATOM     71  C   UNL A   1      33.969  33.216  29.714  1.00  0.00     0.040 A 
ATOM     72  F   UNL A   1      34.723  31.891  31.495  1.00  0.00    -0.206 F 
ATOM     73  C   UNL A   1      34.227  34.095  28.665  1.00  0.00     0.006 A 
ENDBRANCH  52  66
BRANCH  53  74
ATOM     74  C   UNL A   1      43.970  29.002  35.240  1.00  0.00     0.057 A 
ATOM     75  C   UNL A   1      45.287  29.372  34.947  1.00  0.00     0.134 A 
ATOM     76  C   UNL A   1      43.779  28.040  36.238  1.00  0.00     0.134 A 
ATOM     77  F   UNL A   1      45.538  30.274  33.985  1.00  0.00    -0.206 F 
ATOM     78  C   UNL A   1      46.374  28.786  35.597  1.00  0.00     0.040 A 
ATOM     79  C   UNL A   1      44.855  27.467  36.919  1.00  0.00     0.040 A 
ATOM     80  F   UNL A   1      42.541  27.643  36.570  1.00  0.00    -0.206 F 
ATOM     81  C   UNL A   1      46.158  27.832  36.591  1.00  0.00     0.006 A 
ENDBRANCH  53  74
BRANCH  65  82
ATOM     82  C   UNL A   1      39.682  34.340  36.501  1.00  0.00     0.057 A 
ATOM     83  C   UNL A   1      40.262  35.615  36.466  1.00  0.00     0.134 A 
ATOM     84  C   UNL A   1      38.973  33.988  37.656  1.00  0.00     0.134 A 
ATOM     85  F   UNL A   1      40.965  36.014  35.394  1.00  0.00    -0.206 F 
ATOM     86  C   UNL A   1      40.175  36.487  37.552  1.00  0.00     0.040 A 
ATOM     87  C   UNL A   1      38.849  34.864  38.734  1.00  0.00     0.040 A 
ATOM     88  F   UNL A   1      38.379  32.788  37.753  1.00  0.00    -0.206 F 
ATOM     89  C   UNL A   1      39.461  36.114  38.689  1.00  0.00     0.006 A 
ENDBRANCH  65  82
ENDBRANCH  39  40
ENDBRANCH  32  34
ENDBRANCH  31  32
ENDBRANCH  30  31
ENDBRANCH  29  30
ENDBRANCH   1  29
TORSDOF 19
ENDMDL
MODEL 3
REMARK VINA RESULT:     -10.5      4.824     10.026
REMARK SMILES CCCc1cc(OC(F)(F)F)cc2c1O[C@@H](C(F)(F)F)C(C(=O)OCCOCCOC(=O)c1ccc(-c3c4nc(c(-c5c(F)cccc5F)c5ccc([nH]5)c(-c5c(F)cccc5F)c5nc(c(-c6c(F)cccc6F)c6ccc3[nH]6)C=C5)C=C4)cc1)=C2
REMARK SMILES IDX 27 1 26 2 25 3 24 4 22 5 23 6 21 7 4 8 5 9 14 10 6 11 13 12
REMARK SMILES IDX 15 13 12 14 87 15 16 16 3 17 2 18 1 19 7 20 8 21 9 22 10 23
REMARK SMILES IDX 11 24 17 25 18 26 19 27 20 28 28 29 29 30 30 31 31 32 32 33
REMARK SMILES IDX 33 34 34 35 86 36 35 37 85 38 36 39 37 40 38 41 79 42 39 43
REMARK SMILES IDX 84 44 78 45 80 46 40 47 83 48 77 49 76 50 41 52 67 53 50 54
REMARK SMILES IDX 66 55 51 56 54 57 65 58 81 59 52 60 53 61 64 63 82 64 55 65
REMARK SMILES IDX 42 66 43 67 48 68 44 69 45 70 47 71 49 72 46 73 68 74 69 75
REMARK SMILES IDX 74 76 70 77 71 78 73 79 75 80 72 81 56 82 57 83 62 84 58 85
REMARK SMILES IDX 59 86 61 87 63 88 60 89
REMARK H PARENT 80 51 54 62
REMARK Flexibility Score: inf
ROOT
ATOM      1  O   UNL A   1      34.390  31.806  27.236  1.00  0.00    -0.374 OA
ENDROOT
BRANCH   1   2
ATOM      2  C   UNL A   1      33.378  30.843  27.508  1.00  0.00     0.202 C 
BRANCH   2   3
ATOM      3  C   UNL A   1      32.417  30.448  26.383  1.00  0.00     0.261 C 
BRANCH   3   4
ATOM      4  O   UNL A   1      32.926  29.373  25.583  1.00  0.00    -0.460 OA
BRANCH   4   5
ATOM      5  C   UNL A   1      32.267  28.200  25.736  1.00  0.00     0.338 C 
ATOM      6  O   UNL A   1      31.141  28.055  26.185  1.00  0.00    -0.246 OA
BRANCH   5   7
ATOM      7  C   UNL A   1      33.040  27.087  25.167  1.00  0.00     0.087 C 
ATOM      8  C   UNL A   1      34.207  23.373  23.678  1.00  0.00    -0.002 A 
ATOM      9  C   UNL A   1      35.248  22.681  24.318  1.00  0.00     0.054 A 
ATOM     10  C   UNL A   1      33.850  24.633  24.179  1.00  0.00     0.131 A 
ATOM     11  C   UNL A   1      35.842  23.181  25.481  1.00  0.00     0.130 A 
ATOM     12  C   UNL A   1      34.441  25.155  25.343  1.00  0.00     0.021 A 
ATOM     13  O   UNL A   1      32.840  25.299  23.530  1.00  0.00    -0.475 OA
ATOM     14  C   UNL A   1      35.444  24.425  25.983  1.00  0.00     0.058 A 
ATOM     15  C   UNL A   1      33.879  26.372  25.934  1.00  0.00     0.027 C 
ATOM     16  C   UNL A   1      32.860  26.734  23.709  1.00  0.00     0.316 C 
BRANCH   8  17
ATOM     17  C   UNL A   1      33.486  22.810  22.469  1.00  0.00     0.039 C 
BRANCH  17  18
ATOM     18  C   UNL A   1      32.079  22.241  22.691  1.00  0.00     0.001 C 
ATOM     19  C   UNL A   1      31.914  20.817  22.175  1.00  0.00     0.004 C 
ENDBRANCH  17  18
ENDBRANCH   8  17
BRANCH  11  20
ATOM     20  O   UNL A   1      36.795  22.539  26.223  1.00  0.00    -0.406 OA
BRANCH  20  21
ATOM     21  C   UNL A   1      38.149  22.713  25.827  1.00  0.00     0.573 C 
ATOM     22  F   UNL A   1      38.484  21.875  24.823  1.00  0.00    -0.132 F 
ATOM     23  F   UNL A   1      38.376  23.988  25.443  1.00  0.00    -0.132 F 
ATOM     24  F   UNL A   1      38.950  22.444  26.882  1.00  0.00    -0.132 F 
ENDBRANCH  20  21
ENDBRANCH  11  20
BRANCH  16  25
ATOM     25  C   UNL A   1      31.684  27.338  22.922  1.00  0.00     0.430 C 
ATOM     26  F   UNL A   1      31.853  28.667  22.730  1.00  0.00    -0.167 F 
ATOM     27  F   UNL A   1      31.632  26.788  21.678  1.00  0.00    -0.167 F 
ATOM     28  F   UNL A   1      30.485  27.122  23.497  1.00  0.00    -0.167 F 
ENDBRANCH  16  25
ENDBRANCH   5   7
ENDBRANCH   4   5
ENDBRANCH   3   4
ENDBRANCH   2   3
ENDBRANCH   1   2
BRANCH   1  29
ATOM     29  C   UNL A   1      34.675  32.805  28.210  1.00  0.00     0.202 C 
BRANCH  29  30
ATOM     30  C   UNL A   1      34.949  32.384  29.660  1.00  0.00     0.261 C 
BRANCH  30  31
ATOM     31  O   UNL A   1      36.317  32.024  29.907  1.00  0.00    -0.460 OA
BRANCH  31  32
ATOM     32  C   UNL A   1      36.463  30.874  30.610  1.00  0.00     0.338 C 
ATOM     33  O   UNL A   1      35.712  30.425  31.461  1.00  0.00    -0.246 OA
BRANCH  32  34
ATOM     34  C   UNL A   1      37.595  30.093  30.085  1.00  0.00     0.060 A 
ATOM     35  C   UNL A   1      38.383  29.404  31.014  1.00  0.00     0.016 A 
ATOM     36  C   UNL A   1      37.951  30.134  28.736  1.00  0.00     0.016 A 
ATOM     37  C   UNL A   1      39.572  28.808  30.610  1.00  0.00     0.010 A 
ATOM     38  C   UNL A   1      39.151  29.540  28.333  1.00  0.00     0.010 A 
ATOM     39  C   UNL A   1      39.990  28.919  29.278  1.00  0.00    -0.014 A 
BRANCH  39  40
ATOM     40  C   UNL A   1      41.382  28.539  28.936  1.00  0.00     0.031 A 
ATOM     41  C   UNL A   1      41.662  27.136  28.469  1.00  0.00     0.074 A 
ATOM     42  C   UNL A   1      42.366  29.455  28.961  1.00  0.00     0.049 A 
ATOM     43  N   UNL A   1      42.792  26.599  28.084  1.00  0.00    -0.248 NA
ATOM     44  C   UNL A   1      40.515  26.213  28.433  1.00  0.00     0.031 C 
ATOM     45  C   UNL A   1      42.209  30.853  29.358  1.00  0.00     0.029 A 
ATOM     46  N   UNL A   1      43.694  29.342  28.637  1.00  0.00    -0.354 N 
ATOM     47  C   UNL A   1      42.493  25.280  27.765  1.00  0.00     0.074 A 
ATOM     48  C   UNL A   1      41.087  25.085  28.041  1.00  0.00     0.031 C 
ATOM     49  C   UNL A   1      43.398  31.471  29.251  1.00  0.00     0.029 A 
ATOM     50  C   UNL A   1      44.402  30.506  28.808  1.00  0.00     0.049 A 
ATOM     51  H   UNL A   1      44.100  28.507  28.312  1.00  0.00     0.167 HD
ATOM     52  C   UNL A   1      43.315  24.321  27.273  1.00  0.00     0.037 A 
ATOM     53  C   UNL A   1      45.714  30.758  28.638  1.00  0.00     0.037 A 
ATOM     54  C   UNL A   1      44.712  24.521  26.992  1.00  0.00     0.049 A 
ATOM     55  C   UNL A   1      46.617  29.657  28.148  1.00  0.00     0.074 A 
ATOM     56  C   UNL A   1      45.624  23.620  26.470  1.00  0.00     0.029 A 
ATOM     57  N   UNL A   1      45.402  25.703  27.216  1.00  0.00    -0.354 N 
ATOM     58  N   UNL A   1      46.318  28.422  27.817  1.00  0.00    -0.248 NA
ATOM     59  C   UNL A   1      48.041  29.988  27.997  1.00  0.00     0.031 C 
ATOM     60  C   UNL A   1      46.878  24.238  26.433  1.00  0.00     0.029 A 
ATOM     61  C   UNL A   1      46.735  25.545  26.871  1.00  0.00     0.049 A 
ATOM     62  H   UNL A   1      45.004  26.532  27.567  1.00  0.00     0.167 HD
ATOM     63  C   UNL A   1      47.508  27.841  27.395  1.00  0.00     0.074 A 
ATOM     64  C   UNL A   1      48.527  28.866  27.487  1.00  0.00     0.031 C 
ATOM     65  C   UNL A   1      47.739  26.574  26.969  1.00  0.00     0.037 A 
BRANCH  52  66
ATOM     66  C   UNL A   1      42.728  22.959  27.032  1.00  0.00     0.057 A 
ATOM     67  C   UNL A   1      42.448  22.487  25.743  1.00  0.00     0.134 A 
ATOM     68  C   UNL A   1      42.477  22.093  28.104  1.00  0.00     0.134 A 
ATOM     69  F   UNL A   1      42.650  23.271  24.673  1.00  0.00    -0.206 F 
ATOM     70  C   UNL A   1      41.919  21.212  25.530  1.00  0.00     0.040 A 
ATOM     71  C   UNL A   1      41.977  20.806  27.902  1.00  0.00     0.040 A 
ATOM     72  F   UNL A   1      42.726  22.479  29.364  1.00  0.00    -0.206 F 
ATOM     73  C   UNL A   1      41.691  20.365  26.613  1.00  0.00     0.006 A 
ENDBRANCH  52  66
BRANCH  53  74
ATOM     74  C   UNL A   1      46.263  32.104  28.946  1.00  0.00     0.057 A 
ATOM     75  C   UNL A   1      46.682  32.443  30.237  1.00  0.00     0.134 A 
ATOM     76  C   UNL A   1      46.344  33.096  27.962  1.00  0.00     0.134 A 
ATOM     77  F   UNL A   1      46.608  31.544  31.230  1.00  0.00    -0.206 F 
ATOM     78  C   UNL A   1      47.134  33.727  30.546  1.00  0.00     0.040 A 
ATOM     79  C   UNL A   1      46.824  34.376  28.248  1.00  0.00     0.040 A 
ATOM     80  F   UNL A   1      45.962  32.836  26.702  1.00  0.00    -0.206 F 
ATOM     81  C   UNL A   1      47.210  34.696  29.547  1.00  0.00     0.006 A 
ENDBRANCH  53  74
BRANCH  65  82
ATOM     82  C   UNL A   1      49.140  26.239  26.538  1.00  0.00     0.057 A 
ATOM     83  C   UNL A   1      49.636  26.598  25.279  1.00  0.00     0.134 A 
ATOM     84  C   UNL A   1      50.008  25.562  27.404  1.00  0.00     0.134 A 
ATOM     85  F   UNL A   1      48.854  27.238  24.396  1.00  0.00    -0.206 F 
ATOM     86  C   UNL A   1      50.932  26.261  24.881  1.00  0.00     0.040 A 
ATOM     87  C   UNL A   1      51.317  25.251  27.031  1.00  0.00     0.040 A 
ATOM     88  F   UNL A   1      49.605  25.200  28.631  1.00  0.00    -0.206 F 
ATOM     89  C   UNL A   1      51.778  25.591  25.762  1.00  0.00     0.006 A 
ENDBRANCH  65  82
ENDBRANCH  39  40
ENDBRANCH  32  34
ENDBRANCH  31  32
ENDBRANCH  30  31
ENDBRANCH  29  30
ENDBRANCH   1  29
TORSDOF 19
ENDMDL
