MODEL 1
REMARK VINA RESULT:     -11.3      0.000      0.000
REMARK SMILES CCCCN(c1ccccc1C(=O)OCCOCCOC(=O)c1ccc(-c2c3nc(c(-c4c(F)cccc4F)c4ccc([nH]4)c(-c4c(F)cccc4F)c4nc(c(-c5c(F)cccc5F)c5ccc2[nH]5)C=C4)C=C3)cc1)S(=O)(=O)c1ccc2c(c1)oc(=O)n2C
REMARK SMILES IDX 16 1 15 2 14 3 12 4 13 5 11 6 6 7 7 8 8 9 10 10 9 11 5 12
REMARK SMILES IDX 4 13 3 14 2 15 1 16 77 17 78 18 79 19 80 20 81 21 85 22
REMARK SMILES IDX 82 23 84 24 83 25 86 26 89 27 87 28 90 29 88 30 17 31 18 32
REMARK SMILES IDX 19 33 20 34 21 35 22 36 23 37 24 38 76 39 25 40 75 41 26 42
REMARK SMILES IDX 27 43 28 44 69 45 29 46 74 47 68 48 70 49 30 50 73 51 67 52
REMARK SMILES IDX 66 53 31 55 57 56 40 57 56 58 41 59 44 60 55 61 71 62 42 63
REMARK SMILES IDX 43 64 54 66 72 67 45 68 32 69 33 70 38 71 34 72 35 73 37 74
REMARK SMILES IDX 39 75 36 76 58 77 59 78 64 79 60 80 61 81 63 82 65 83 62 84
REMARK SMILES IDX 46 85 47 86 52 87 48 88 49 89 51 90 53 91 50 92
REMARK H PARENT 70 54 44 65
REMARK Flexibility Score: inf
ROOT
ATOM      1  C   UNL A   1      33.274  31.064  27.249  1.00  0.00     0.202 C 
ENDROOT
BRANCH   1   2
ATOM      2  C   UNL A   1      32.164  30.077  26.881  1.00  0.00     0.261 C 
BRANCH   2   3
ATOM      3  O   UNL A   1      31.750  30.216  25.511  1.00  0.00    -0.460 OA
BRANCH   3   4
ATOM      4  C   UNL A   1      32.189  29.232  24.699  1.00  0.00     0.340 C 
ATOM      5  O   UNL A   1      33.325  28.778  24.662  1.00  0.00    -0.246 OA
BRANCH   4   6
ATOM      6  C   UNL A   1      31.116  28.623  23.887  1.00  0.00     0.084 A 
ATOM      7  C   UNL A   1      30.689  27.291  24.039  1.00  0.00     0.066 A 
ATOM      8  C   UNL A   1      29.316  27.071  23.857  1.00  0.00     0.028 A 
ATOM      9  C   UNL A   1      28.451  28.034  23.326  1.00  0.00     0.002 A 
ATOM     10  C   UNL A   1      30.243  29.603  23.354  1.00  0.00     0.018 A 
ATOM     11  C   UNL A   1      28.931  29.295  23.021  1.00  0.00     0.001 A 
BRANCH   7  12
ATOM     12  N   UNL A   1      31.523  26.070  24.185  1.00  0.00    -0.265 N 
BRANCH  12  13
ATOM     13  C   UNL A   1      31.326  25.014  23.132  1.00  0.00     0.136 C 
BRANCH  13  14
ATOM     14  C   UNL A   1      32.516  24.814  22.194  1.00  0.00     0.022 C 
BRANCH  14  15
ATOM     15  C   UNL A   1      33.363  23.552  22.346  1.00  0.00    -0.002 C 
ATOM     16  C   UNL A   1      32.565  22.264  22.303  1.00  0.00     0.004 C 
ENDBRANCH  14  15
ENDBRANCH  13  14
ENDBRANCH  12  13
BRANCH  12  17
ATOM     17  S   UNL A   1      31.468  25.380  25.823  1.00  0.00     0.264 S 
ATOM     18  O   UNL A   1      31.836  26.426  26.754  1.00  0.00    -0.201 OA
ATOM     19  O   UNL A   1      30.250  24.626  25.999  1.00  0.00    -0.201 OA
BRANCH  17  20
ATOM     20  C   UNL A   1      32.720  24.125  25.916  1.00  0.00     0.091 A 
ATOM     21  C   UNL A   1      34.084  24.496  25.887  1.00  0.00     0.025 A 
ATOM     22  C   UNL A   1      32.330  22.788  25.965  1.00  0.00     0.071 A 
ATOM     23  C   UNL A   1      35.075  23.517  25.763  1.00  0.00     0.032 A 
ATOM     24  C   UNL A   1      33.314  21.862  25.712  1.00  0.00     0.157 A 
ATOM     25  C   UNL A   1      34.645  22.216  25.607  1.00  0.00     0.090 A 
ATOM     26  O   UNL A   1      33.079  20.532  25.410  1.00  0.00    -0.408 OA
ATOM     27  N   UNL A   1      35.304  21.063  25.265  1.00  0.00    -0.277 N 
ATOM     28  C   UNL A   1      34.358  20.074  25.066  1.00  0.00     0.419 A 
ATOM     29  C   UNL A   1      36.708  20.910  25.029  1.00  0.00     0.157 C 
ATOM     30  O   UNL A   1      34.565  18.956  24.626  1.00  0.00    -0.223 OA
ENDBRANCH  17  20
ENDBRANCH  12  17
ENDBRANCH   7  12
ENDBRANCH   4   6
ENDBRANCH   3   4
ENDBRANCH   2   3
ENDBRANCH   1   2
BRANCH   1  31
ATOM     31  O   UNL A   1      32.897  32.369  27.674  1.00  0.00    -0.374 OA
BRANCH  31  32
ATOM     32  C   UNL A   1      33.924  33.298  28.008  1.00  0.00     0.202 C 
BRANCH  32  33
ATOM     33  C   UNL A   1      33.972  33.895  29.424  1.00  0.00     0.261 C 
BRANCH  33  34
ATOM     34  O   UNL A   1      35.197  33.679  30.140  1.00  0.00    -0.460 OA
BRANCH  34  35
ATOM     35  C   UNL A   1      35.195  32.609  30.971  1.00  0.00     0.338 C 
ATOM     36  O   UNL A   1      34.361  32.318  31.811  1.00  0.00    -0.246 OA
BRANCH  35  37
ATOM     37  C   UNL A   1      36.335  31.731  30.663  1.00  0.00     0.060 A 
ATOM     38  C   UNL A   1      37.134  31.251  31.709  1.00  0.00     0.016 A 
ATOM     39  C   UNL A   1      36.699  31.516  29.336  1.00  0.00     0.016 A 
ATOM     40  C   UNL A   1      38.318  30.564  31.429  1.00  0.00     0.010 A 
ATOM     41  C   UNL A   1      37.886  30.832  29.060  1.00  0.00     0.010 A 
ATOM     42  C   UNL A   1      38.717  30.369  30.102  1.00  0.00    -0.014 A 
BRANCH  42  43
ATOM     43  C   UNL A   1      40.049  29.794  29.773  1.00  0.00     0.031 A 
ATOM     44  C   UNL A   1      41.242  30.709  29.734  1.00  0.00     0.074 A 
ATOM     45  C   UNL A   1      40.202  28.490  29.473  1.00  0.00     0.049 A 
ATOM     46  N   UNL A   1      42.465  30.464  29.342  1.00  0.00    -0.248 NA
ATOM     47  C   UNL A   1      41.027  32.084  30.215  1.00  0.00     0.031 C 
ATOM     48  C   UNL A   1      39.165  27.467  29.567  1.00  0.00     0.029 A 
ATOM     49  N   UNL A   1      41.289  27.809  28.982  1.00  0.00    -0.354 N 
ATOM     50  C   UNL A   1      43.165  31.650  29.529  1.00  0.00     0.074 A 
ATOM     51  C   UNL A   1      42.218  32.628  30.020  1.00  0.00     0.031 C 
ATOM     52  C   UNL A   1      39.626  26.317  29.051  1.00  0.00     0.029 A 
ATOM     53  C   UNL A   1      41.003  26.514  28.616  1.00  0.00     0.049 A 
ATOM     54  H   UNL A   1      42.186  28.208  28.900  1.00  0.00     0.167 HD
ATOM     55  C   UNL A   1      44.483  31.892  29.335  1.00  0.00     0.037 A 
ATOM     56  C   UNL A   1      41.760  25.594  27.991  1.00  0.00     0.037 A 
ATOM     57  C   UNL A   1      45.420  30.914  28.848  1.00  0.00     0.049 A 
ATOM     58  C   UNL A   1      43.190  25.920  27.667  1.00  0.00     0.074 A 
ATOM     59  C   UNL A   1      46.782  31.051  28.648  1.00  0.00     0.029 A 
ATOM     60  N   UNL A   1      45.087  29.622  28.470  1.00  0.00    -0.354 N 
ATOM     61  N   UNL A   1      43.856  27.027  27.893  1.00  0.00    -0.248 NA
ATOM     62  C   UNL A   1      43.987  24.861  27.030  1.00  0.00     0.031 C 
ATOM     63  C   UNL A   1      47.261  29.862  28.088  1.00  0.00     0.029 A 
ATOM     64  C   UNL A   1      46.211  28.963  28.001  1.00  0.00     0.049 A 
ATOM     65  H   UNL A   1      44.185  29.231  28.525  1.00  0.00     0.167 HD
ATOM     66  C   UNL A   1      45.158  26.781  27.478  1.00  0.00     0.074 A 
ATOM     67  C   UNL A   1      45.187  25.421  26.981  1.00  0.00     0.031 C 
ATOM     68  C   UNL A   1      46.233  27.603  27.520  1.00  0.00     0.037 A 
BRANCH  55  69
ATOM     69  C   UNL A   1      44.981  33.277  29.632  1.00  0.00     0.057 A 
ATOM     70  C   UNL A   1      45.472  33.636  30.895  1.00  0.00     0.134 A 
ATOM     71  C   UNL A   1      44.990  34.261  28.635  1.00  0.00     0.134 A 
ATOM     72  F   UNL A   1      45.482  32.746  31.900  1.00  0.00    -0.206 F 
ATOM     73  C   UNL A   1      45.923  34.930  31.164  1.00  0.00     0.040 A 
ATOM     74  C   UNL A   1      45.467  35.549  28.883  1.00  0.00     0.040 A 
ATOM     75  F   UNL A   1      44.542  33.985  27.402  1.00  0.00    -0.206 F 
ATOM     76  C   UNL A   1      45.927  35.889  30.153  1.00  0.00     0.006 A 
ENDBRANCH  55  69
BRANCH  56  77
ATOM     77  C   UNL A   1      41.191  24.262  27.657  1.00  0.00     0.057 A 
ATOM     78  C   UNL A   1      40.284  24.107  26.604  1.00  0.00     0.134 A 
ATOM     79  C   UNL A   1      41.531  23.118  28.389  1.00  0.00     0.134 A 
ATOM     80  F   UNL A   1      39.909  25.170  25.876  1.00  0.00    -0.206 F 
ATOM     81  C   UNL A   1      39.714  22.868  26.304  1.00  0.00     0.040 A 
ATOM     82  C   UNL A   1      40.986  21.868  28.086  1.00  0.00     0.040 A 
ATOM     83  F   UNL A   1      42.402  23.195  29.406  1.00  0.00    -0.206 F 
ATOM     84  C   UNL A   1      40.067  21.743  27.045  1.00  0.00     0.006 A 
ENDBRANCH  56  77
BRANCH  68  85
ATOM     85  C   UNL A   1      47.551  27.046  27.066  1.00  0.00     0.057 A 
ATOM     86  C   UNL A   1      48.380  26.306  27.917  1.00  0.00     0.134 A 
ATOM     87  C   UNL A   1      47.967  27.207  25.737  1.00  0.00     0.134 A 
ATOM     88  F   UNL A   1      48.048  26.128  29.205  1.00  0.00    -0.206 F 
ATOM     89  C   UNL A   1      49.584  25.760  27.468  1.00  0.00     0.040 A 
ATOM     90  C   UNL A   1      49.152  26.640  25.268  1.00  0.00     0.040 A 
ATOM     91  F   UNL A   1      47.216  27.899  24.866  1.00  0.00    -0.206 F 
ATOM     92  C   UNL A   1      49.967  25.918  26.138  1.00  0.00     0.006 A 
ENDBRANCH  68  85
ENDBRANCH  42  43
ENDBRANCH  35  37
ENDBRANCH  34  35
ENDBRANCH  33  34
ENDBRANCH  32  33
ENDBRANCH  31  32
ENDBRANCH   1  31
TORSDOF 20
ENDMDL
MODEL 2
REMARK VINA RESULT:     -11.2      2.871      7.504
REMARK SMILES CCCCN(c1ccccc1C(=O)OCCOCCOC(=O)c1ccc(-c2c3nc(c(-c4c(F)cccc4F)c4ccc([nH]4)c(-c4c(F)cccc4F)c4nc(c(-c5c(F)cccc5F)c5ccc2[nH]5)C=C4)C=C3)cc1)S(=O)(=O)c1ccc2c(c1)oc(=O)n2C
REMARK SMILES IDX 16 1 15 2 14 3 12 4 13 5 11 6 6 7 7 8 8 9 10 10 9 11 5 12
REMARK SMILES IDX 4 13 3 14 2 15 1 16 77 17 78 18 79 19 80 20 81 21 85 22
REMARK SMILES IDX 82 23 84 24 83 25 86 26 89 27 87 28 90 29 88 30 17 31 18 32
REMARK SMILES IDX 19 33 20 34 21 35 22 36 23 37 24 38 76 39 25 40 75 41 26 42
REMARK SMILES IDX 27 43 28 44 69 45 29 46 74 47 68 48 70 49 30 50 73 51 67 52
REMARK SMILES IDX 66 53 31 55 57 56 40 57 56 58 41 59 44 60 55 61 71 62 42 63
REMARK SMILES IDX 43 64 54 66 72 67 45 68 32 69 33 70 38 71 34 72 35 73 37 74
REMARK SMILES IDX 39 75 36 76 58 77 59 78 64 79 60 80 61 81 63 82 65 83 62 84
REMARK SMILES IDX 46 85 47 86 52 87 48 88 49 89 51 90 53 91 50 92
REMARK H PARENT 70 54 44 65
REMARK Flexibility Score: inf
ROOT
ATOM      1  C   UNL A   1      36.246  22.324  25.266  1.00  0.00     0.202 C 
ENDROOT
BRANCH   1   2
ATOM      2  C   UNL A   1      36.197  23.850  25.169  1.00  0.00     0.261 C 
BRANCH   2   3
ATOM      3  O   UNL A   1      34.890  24.369  25.471  1.00  0.00    -0.460 OA
BRANCH   3   4
ATOM      4  C   UNL A   1      34.320  25.050  24.455  1.00  0.00     0.340 C 
ATOM      5  O   UNL A   1      34.365  24.753  23.270  1.00  0.00    -0.246 OA
BRANCH   4   6
ATOM      6  C   UNL A   1      33.493  26.187  24.908  1.00  0.00     0.084 A 
ATOM      7  C   UNL A   1      32.299  26.036  25.637  1.00  0.00     0.066 A 
ATOM      8  C   UNL A   1      32.057  27.015  26.612  1.00  0.00     0.028 A 
ATOM      9  C   UNL A   1      32.800  28.197  26.709  1.00  0.00     0.002 A 
ATOM     10  C   UNL A   1      34.250  27.380  25.006  1.00  0.00     0.018 A 
ATOM     11  C   UNL A   1      33.873  28.405  25.863  1.00  0.00     0.001 A 
BRANCH   7  12
ATOM     12  N   UNL A   1      31.183  25.087  25.388  1.00  0.00    -0.265 N 
BRANCH  12  13
ATOM     13  C   UNL A   1      29.804  25.686  25.380  1.00  0.00     0.136 C 
BRANCH  13  14
ATOM     14  C   UNL A   1      29.358  26.252  24.032  1.00  0.00     0.022 C 
BRANCH  14  15
ATOM     15  C   UNL A   1      29.844  27.642  23.627  1.00  0.00    -0.002 C 
ATOM     16  C   UNL A   1      30.863  27.636  22.505  1.00  0.00     0.004 C 
ENDBRANCH  14  15
ENDBRANCH  13  14
ENDBRANCH  12  13
BRANCH  12  17
ATOM     17  S   UNL A   1      31.261  23.635  26.411  1.00  0.00     0.264 S 
ATOM     18  O   UNL A   1      32.241  23.879  27.449  1.00  0.00    -0.201 OA
ATOM     19  O   UNL A   1      29.927  23.192  26.741  1.00  0.00    -0.201 OA
BRANCH  17  20
ATOM     20  C   UNL A   1      31.875  22.306  25.407  1.00  0.00     0.091 A 
ATOM     21  C   UNL A   1      31.754  22.381  24.001  1.00  0.00     0.025 A 
ATOM     22  C   UNL A   1      32.423  21.188  26.032  1.00  0.00     0.071 A 
ATOM     23  C   UNL A   1      32.052  21.266  23.210  1.00  0.00     0.032 A 
ATOM     24  C   UNL A   1      32.582  20.073  25.244  1.00  0.00     0.157 A 
ATOM     25  C   UNL A   1      32.395  20.108  23.876  1.00  0.00     0.090 A 
ATOM     26  O   UNL A   1      32.808  18.796  25.730  1.00  0.00    -0.408 OA
ATOM     27  N   UNL A   1      32.548  18.813  23.453  1.00  0.00    -0.277 N 
ATOM     28  C   UNL A   1      32.712  18.015  24.570  1.00  0.00     0.419 A 
ATOM     29  C   UNL A   1      32.438  18.326  22.110  1.00  0.00     0.157 C 
ATOM     30  O   UNL A   1      32.745  16.796  24.588  1.00  0.00    -0.223 OA
ENDBRANCH  17  20
ENDBRANCH  12  17
ENDBRANCH   7  12
ENDBRANCH   4   6
ENDBRANCH   3   4
ENDBRANCH   2   3
ENDBRANCH   1   2
BRANCH   1  31
ATOM     31  O   UNL A   1      37.521  21.698  25.364  1.00  0.00    -0.374 OA
BRANCH  31  32
ATOM     32  C   UNL A   1      37.634  20.325  25.002  1.00  0.00     0.202 C 
BRANCH  32  33
ATOM     33  C   UNL A   1      39.019  19.658  24.991  1.00  0.00     0.261 C 
BRANCH  33  34
ATOM     34  O   UNL A   1      39.706  19.648  26.252  1.00  0.00    -0.460 OA
BRANCH  34  35
ATOM     35  C   UNL A   1      41.057  19.596  26.168  1.00  0.00     0.338 C 
ATOM     36  O   UNL A   1      41.742  18.707  25.693  1.00  0.00    -0.246 OA
BRANCH  35  37
ATOM     37  C   UNL A   1      41.640  20.854  26.663  1.00  0.00     0.060 A 
ATOM     38  C   UNL A   1      41.482  21.201  28.010  1.00  0.00     0.016 A 
ATOM     39  C   UNL A   1      42.202  21.753  25.760  1.00  0.00     0.016 A 
ATOM     40  C   UNL A   1      41.872  22.465  28.459  1.00  0.00     0.010 A 
ATOM     41  C   UNL A   1      42.587  23.018  26.212  1.00  0.00     0.010 A 
ATOM     42  C   UNL A   1      42.407  23.394  27.560  1.00  0.00    -0.014 A 
BRANCH  42  43
ATOM     43  C   UNL A   1      42.674  24.799  27.969  1.00  0.00     0.031 A 
ATOM     44  C   UNL A   1      44.060  25.169  28.424  1.00  0.00     0.074 A 
ATOM     45  C   UNL A   1      41.701  25.730  27.978  1.00  0.00     0.049 A 
ATOM     46  N   UNL A   1      44.491  26.285  28.951  1.00  0.00    -0.248 NA
ATOM     47  C   UNL A   1      45.101  24.143  28.246  1.00  0.00     0.031 C 
ATOM     48  C   UNL A   1      40.344  25.549  27.473  1.00  0.00     0.029 A 
ATOM     49  N   UNL A   1      41.696  27.010  28.477  1.00  0.00    -0.354 N 
ATOM     50  C   UNL A   1      45.850  26.098  29.167  1.00  0.00     0.074 A 
ATOM     51  C   UNL A   1      46.162  24.744  28.763  1.00  0.00     0.031 C 
ATOM     52  C   UNL A   1      39.607  26.628  27.779  1.00  0.00     0.029 A 
ATOM     53  C   UNL A   1      40.449  27.592  28.476  1.00  0.00     0.049 A 
ATOM     54  H   UNL A   1      42.505  27.467  28.802  1.00  0.00     0.167 HD
ATOM     55  C   UNL A   1      46.761  26.984  29.635  1.00  0.00     0.037 A 
ATOM     56  C   UNL A   1      40.029  28.762  28.991  1.00  0.00     0.037 A 
ATOM     57  C   UNL A   1      46.445  28.330  30.035  1.00  0.00     0.049 A 
ATOM     58  C   UNL A   1      41.032  29.686  29.622  1.00  0.00     0.074 A 
ATOM     59  C   UNL A   1      47.301  29.317  30.491  1.00  0.00     0.029 A 
ATOM     60  N   UNL A   1      45.169  28.873  30.039  1.00  0.00    -0.354 N 
ATOM     61  N   UNL A   1      42.323  29.520  29.777  1.00  0.00    -0.248 NA
ATOM     62  C   UNL A   1      40.528  30.973  30.121  1.00  0.00     0.031 C 
ATOM     63  C   UNL A   1      46.533  30.435  30.833  1.00  0.00     0.029 A 
ATOM     64  C   UNL A   1      45.208  30.169  30.527  1.00  0.00     0.049 A 
ATOM     65  H   UNL A   1      44.354  28.406  29.741  1.00  0.00     0.167 HD
ATOM     66  C   UNL A   1      42.794  30.699  30.340  1.00  0.00     0.074 A 
ATOM     67  C   UNL A   1      41.649  31.569  30.504  1.00  0.00     0.031 C 
ATOM     68  C   UNL A   1      44.064  31.033  30.675  1.00  0.00     0.037 A 
BRANCH  55  69
ATOM     69  C   UNL A   1      48.181  26.514  29.759  1.00  0.00     0.057 A 
ATOM     70  C   UNL A   1      48.674  25.939  30.939  1.00  0.00     0.134 A 
ATOM     71  C   UNL A   1      49.064  26.617  28.677  1.00  0.00     0.134 A 
ATOM     72  F   UNL A   1      47.886  25.820  32.019  1.00  0.00    -0.206 F 
ATOM     73  C   UNL A   1      50.001  25.516  31.048  1.00  0.00     0.040 A 
ATOM     74  C   UNL A   1      50.383  26.169  28.762  1.00  0.00     0.040 A 
ATOM     75  F   UNL A   1      48.657  27.150  27.514  1.00  0.00    -0.206 F 
ATOM     76  C   UNL A   1      50.857  25.624  29.954  1.00  0.00     0.006 A 
ENDBRANCH  55  69
BRANCH  56  77
ATOM     77  C   UNL A   1      38.596  29.144  28.903  1.00  0.00     0.057 A 
ATOM     78  C   UNL A   1      38.052  29.640  27.714  1.00  0.00     0.134 A 
ATOM     79  C   UNL A   1      37.740  29.032  30.006  1.00  0.00     0.134 A 
ATOM     80  F   UNL A   1      38.826  29.783  26.627  1.00  0.00    -0.206 F 
ATOM     81  C   UNL A   1      36.716  30.037  27.628  1.00  0.00     0.040 A 
ATOM     82  C   UNL A   1      36.396  29.403  29.928  1.00  0.00     0.040 A 
ATOM     83  F   UNL A   1      38.196  28.555  31.174  1.00  0.00    -0.206 F 
ATOM     84  C   UNL A   1      35.883  29.916  28.739  1.00  0.00     0.006 A 
ENDBRANCH  56  77
BRANCH  68  85
ATOM     85  C   UNL A   1      44.299  32.417  31.206  1.00  0.00     0.057 A 
ATOM     86  C   UNL A   1      44.541  33.507  30.362  1.00  0.00     0.134 A 
ATOM     87  C   UNL A   1      44.225  32.669  32.583  1.00  0.00     0.134 A 
ATOM     88  F   UNL A   1      44.639  33.333  29.035  1.00  0.00    -0.206 F 
ATOM     89  C   UNL A   1      44.719  34.796  30.869  1.00  0.00     0.040 A 
ATOM     90  C   UNL A   1      44.370  33.957  33.099  1.00  0.00     0.040 A 
ATOM     91  F   UNL A   1      43.989  31.670  33.447  1.00  0.00    -0.206 F 
ATOM     92  C   UNL A   1      44.622  35.025  32.240  1.00  0.00     0.006 A 
ENDBRANCH  68  85
ENDBRANCH  42  43
ENDBRANCH  35  37
ENDBRANCH  34  35
ENDBRANCH  33  34
ENDBRANCH  32  33
ENDBRANCH  31  32
ENDBRANCH   1  31
TORSDOF 20
ENDMDL
MODEL 3
REMARK VINA RESULT:     -11.2      4.152      9.469
REMARK SMILES CCCCN(c1ccccc1C(=O)OCCOCCOC(=O)c1ccc(-c2c3nc(c(-c4c(F)cccc4F)c4ccc([nH]4)c(-c4c(F)cccc4F)c4nc(c(-c5c(F)cccc5F)c5ccc2[nH]5)C=C4)C=C3)cc1)S(=O)(=O)c1ccc2c(c1)oc(=O)n2C
REMARK SMILES IDX 16 1 15 2 14 3 12 4 13 5 11 6 6 7 7 8 8 9 10 10 9 11 5 12
REMARK SMILES IDX 4 13 3 14 2 15 1 16 77 17 78 18 79 19 80 20 81 21 85 22
REMARK SMILES IDX 82 23 84 24 83 25 86 26 89 27 87 28 90 29 88 30 17 31 18 32
REMARK SMILES IDX 19 33 20 34 21 35 22 36 23 37 24 38 76 39 25 40 75 41 26 42
REMARK SMILES IDX 27 43 28 44 69 45 29 46 74 47 68 48 70 49 30 50 73 51 67 52
REMARK SMILES IDX 66 53 31 55 57 56 40 57 56 58 41 59 44 60 55 61 71 62 42 63
REMARK SMILES IDX 43 64 54 66 72 67 45 68 32 69 33 70 38 71 34 72 35 73 37 74
REMARK SMILES IDX 39 75 36 76 58 77 59 78 64 79 60 80 61 81 63 82 65 83 62 84
REMARK SMILES IDX 46 85 47 86 52 87 48 88 49 89 51 90 53 91 50 92
REMARK H PARENT 70 54 44 65
REMARK Flexibility Score: inf
ROOT
ATOM      1  C   UNL A   1      38.747  19.735  25.095  1.00  0.00     0.202 C 
ENDROOT
BRANCH   1   2
ATOM      2  C   UNL A   1      37.785  20.922  25.017  1.00  0.00     0.261 C 
BRANCH   2   3
ATOM      3  O   UNL A   1      36.459  20.519  24.632  1.00  0.00    -0.460 OA
BRANCH   3   4
ATOM      4  C   UNL A   1      35.479  21.060  25.385  1.00  0.00     0.340 C 
ATOM      5  O   UNL A   1      35.626  21.861  26.298  1.00  0.00    -0.246 OA
BRANCH   4   6
ATOM      6  C   UNL A   1      34.123  20.686  24.934  1.00  0.00     0.084 A 
ATOM      7  C   UNL A   1      33.301  21.530  24.165  1.00  0.00     0.066 A 
ATOM      8  C   UNL A   1      32.502  20.888  23.207  1.00  0.00     0.028 A 
ATOM      9  C   UNL A   1      32.331  19.500  23.160  1.00  0.00     0.002 A 
ATOM     10  C   UNL A   1      33.956  19.280  24.887  1.00  0.00     0.018 A 
ATOM     11  C   UNL A   1      33.023  18.693  24.043  1.00  0.00     0.001 A 
BRANCH   7  12
ATOM     12  N   UNL A   1      33.035  22.979  24.358  1.00  0.00    -0.265 N 
BRANCH  12  13
ATOM     13  C   UNL A   1      31.598  23.355  24.591  1.00  0.00     0.136 C 
BRANCH  13  14
ATOM     14  C   UNL A   1      31.292  23.887  25.991  1.00  0.00     0.022 C 
BRANCH  14  15
ATOM     15  C   UNL A   1      30.434  25.143  26.124  1.00  0.00    -0.002 C 
ATOM     16  C   UNL A   1      29.807  25.603  24.823  1.00  0.00     0.004 C 
ENDBRANCH  14  15
ENDBRANCH  13  14
ENDBRANCH  12  13
BRANCH  12  17
ATOM     17  S   UNL A   1      33.785  23.997  23.109  1.00  0.00     0.264 S 
ATOM     18  O   UNL A   1      35.219  23.819  23.197  1.00  0.00    -0.201 OA
ATOM     19  O   UNL A   1      33.093  23.827  21.853  1.00  0.00    -0.201 OA
BRANCH  17  20
ATOM     20  C   UNL A   1      33.436  25.689  23.519  1.00  0.00     0.091 A 
ATOM     21  C   UNL A   1      33.953  26.238  24.715  1.00  0.00     0.025 A 
ATOM     22  C   UNL A   1      32.615  26.431  22.673  1.00  0.00     0.071 A 
ATOM     23  C   UNL A   1      33.531  27.499  25.148  1.00  0.00     0.032 A 
ATOM     24  C   UNL A   1      32.121  27.605  23.188  1.00  0.00     0.157 A 
ATOM     25  C   UNL A   1      32.559  28.120  24.393  1.00  0.00     0.090 A 
ATOM     26  O   UNL A   1      31.064  28.316  22.644  1.00  0.00    -0.408 OA
ATOM     27  N   UNL A   1      31.787  29.231  24.618  1.00  0.00    -0.277 N 
ATOM     28  C   UNL A   1      30.837  29.301  23.615  1.00  0.00     0.419 A 
ATOM     29  C   UNL A   1      31.849  30.110  25.747  1.00  0.00     0.157 C 
ATOM     30  O   UNL A   1      29.900  30.080  23.562  1.00  0.00    -0.223 OA
ENDBRANCH  17  20
ENDBRANCH  12  17
ENDBRANCH   7  12
ENDBRANCH   4   6
ENDBRANCH   3   4
ENDBRANCH   2   3
ENDBRANCH   1   2
BRANCH   1  31
ATOM     31  O   UNL A   1      39.806  19.790  26.044  1.00  0.00    -0.374 OA
BRANCH  31  32
ATOM     32  C   UNL A   1      40.399  21.054  26.328  1.00  0.00     0.202 C 
BRANCH  32  33
ATOM     33  C   UNL A   1      41.886  21.279  26.010  1.00  0.00     0.261 C 
BRANCH  33  34
ATOM     34  O   UNL A   1      42.196  22.532  25.379  1.00  0.00    -0.460 OA
BRANCH  34  35
ATOM     35  C   UNL A   1      43.213  23.223  25.948  1.00  0.00     0.338 C 
ATOM     36  O   UNL A   1      44.409  23.022  25.831  1.00  0.00    -0.246 OA
BRANCH  35  37
ATOM     37  C   UNL A   1      42.681  24.375  26.695  1.00  0.00     0.060 A 
ATOM     38  C   UNL A   1      43.369  25.594  26.659  1.00  0.00     0.016 A 
ATOM     39  C   UNL A   1      41.595  24.198  27.548  1.00  0.00     0.016 A 
ATOM     40  C   UNL A   1      42.981  26.643  27.496  1.00  0.00     0.010 A 
ATOM     41  C   UNL A   1      41.213  25.249  28.387  1.00  0.00     0.010 A 
ATOM     42  C   UNL A   1      41.914  26.473  28.385  1.00  0.00    -0.014 A 
BRANCH  42  43
ATOM     43  C   UNL A   1      41.585  27.506  29.403  1.00  0.00     0.031 A 
ATOM     44  C   UNL A   1      42.313  27.480  30.720  1.00  0.00     0.074 A 
ATOM     45  C   UNL A   1      40.630  28.430  29.189  1.00  0.00     0.049 A 
ATOM     46  N   UNL A   1      42.101  28.186  31.799  1.00  0.00    -0.248 NA
ATOM     47  C   UNL A   1      43.440  26.539  30.825  1.00  0.00     0.031 C 
ATOM     48  C   UNL A   1      39.916  28.643  27.934  1.00  0.00     0.029 A 
ATOM     49  N   UNL A   1      40.063  29.342  30.046  1.00  0.00    -0.354 N 
ATOM     50  C   UNL A   1      43.066  27.778  32.712  1.00  0.00     0.074 A 
ATOM     51  C   UNL A   1      43.831  26.725  32.077  1.00  0.00     0.031 C 
ATOM     52  C   UNL A   1      38.937  29.541  28.125  1.00  0.00     0.029 A 
ATOM     53  C   UNL A   1      38.974  29.991  29.511  1.00  0.00     0.049 A 
ATOM     54  H   UNL A   1      40.402  29.514  30.955  1.00  0.00     0.167 HD
ATOM     55  C   UNL A   1      43.309  28.255  33.955  1.00  0.00     0.037 A 
ATOM     56  C   UNL A   1      38.098  30.842  30.076  1.00  0.00     0.037 A 
ATOM     57  C   UNL A   1      42.546  29.303  34.580  1.00  0.00     0.049 A 
ATOM     58  C   UNL A   1      38.308  31.270  31.501  1.00  0.00     0.074 A 
ATOM     59  C   UNL A   1      42.732  29.880  35.824  1.00  0.00     0.029 A 
ATOM     60  N   UNL A   1      41.439  29.918  34.014  1.00  0.00    -0.354 N 
ATOM     61  N   UNL A   1      39.253  30.915  32.339  1.00  0.00    -0.248 NA
ATOM     62  C   UNL A   1      37.351  32.240  32.053  1.00  0.00     0.031 C 
ATOM     63  C   UNL A   1      41.700  30.800  36.036  1.00  0.00     0.029 A 
ATOM     64  C   UNL A   1      40.910  30.843  34.899  1.00  0.00     0.049 A 
ATOM     65  H   UNL A   1      41.082  29.726  33.117  1.00  0.00     0.167 HD
ATOM     66  C   UNL A   1      39.037  31.656  33.493  1.00  0.00     0.074 A 
ATOM     67  C   UNL A   1      37.869  32.477  33.249  1.00  0.00     0.031 C 
ATOM     68  C   UNL A   1      39.753  31.666  34.643  1.00  0.00     0.037 A 
BRANCH  55  69
ATOM     69  C   UNL A   1      44.436  27.631  34.726  1.00  0.00     0.057 A 
ATOM     70  C   UNL A   1      45.740  28.145  34.685  1.00  0.00     0.134 A 
ATOM     71  C   UNL A   1      44.211  26.512  35.538  1.00  0.00     0.134 A 
ATOM     72  F   UNL A   1      46.028  29.208  33.918  1.00  0.00    -0.206 F 
ATOM     73  C   UNL A   1      46.783  27.550  35.397  1.00  0.00     0.040 A 
ATOM     74  C   UNL A   1      45.239  25.927  36.279  1.00  0.00     0.040 A 
ATOM     75  F   UNL A   1      42.987  25.972  35.630  1.00  0.00    -0.206 F 
ATOM     76  C   UNL A   1      46.532  26.441  36.202  1.00  0.00     0.006 A 
ENDBRANCH  55  69
BRANCH  56  77
ATOM     77  C   UNL A   1      36.958  31.374  29.284  1.00  0.00     0.057 A 
ATOM     78  C   UNL A   1      35.828  30.590  29.029  1.00  0.00     0.134 A 
ATOM     79  C   UNL A   1      36.977  32.670  28.756  1.00  0.00     0.134 A 
ATOM     80  F   UNL A   1      35.759  29.334  29.497  1.00  0.00    -0.206 F 
ATOM     81  C   UNL A   1      34.768  31.065  28.255  1.00  0.00     0.040 A 
ATOM     82  C   UNL A   1      35.913  33.166  28.000  1.00  0.00     0.040 A 
ATOM     83  F   UNL A   1      38.027  33.477  28.971  1.00  0.00    -0.206 F 
ATOM     84  C   UNL A   1      34.807  32.359  27.740  1.00  0.00     0.006 A 
ENDBRANCH  56  77
BRANCH  68  85
ATOM     85  C   UNL A   1      39.332  32.628  35.714  1.00  0.00     0.057 A 
ATOM     86  C   UNL A   1      38.391  32.288  36.694  1.00  0.00     0.134 A 
ATOM     87  C   UNL A   1      39.922  33.897  35.798  1.00  0.00     0.134 A 
ATOM     88  F   UNL A   1      37.778  31.094  36.663  1.00  0.00    -0.206 F 
ATOM     89  C   UNL A   1      38.039  33.181  37.708  1.00  0.00     0.040 A 
ATOM     90  C   UNL A   1      39.601  34.787  36.824  1.00  0.00     0.040 A 
ATOM     91  F   UNL A   1      40.836  34.285  34.896  1.00  0.00    -0.206 F 
ATOM     92  C   UNL A   1      38.653  34.430  37.781  1.00  0.00     0.006 A 
ENDBRANCH  68  85
ENDBRANCH  42  43
ENDBRANCH  35  37
ENDBRANCH  34  35
ENDBRANCH  33  34
ENDBRANCH  32  33
ENDBRANCH  31  32
ENDBRANCH   1  31
TORSDOF 20
ENDMDL
