MODEL 1
REMARK VINA RESULT:     -11.6      0.000      0.000
REMARK SMILES CCc1cc(C(=O)c2[nH]c3cc(Cl)ccc3c2CC(=O)OCCOCCOC(=O)c2ccc(-c3c4nc(c(-c5c(F)cccc5F)c5ccc([nH]5)c(-c5c(F)cccc5F)c5nc(c(-c6c(F)cccc6F)c6ccc3[nH]6)C=C5)C=C4)cc2)ncc1Cl
REMARK SMILES IDX 23 1 22 2 21 3 19 4 20 5 18 6 17 7 8 8 9 9 10 10 16 12 11 13
REMARK SMILES IDX 15 14 12 15 14 16 13 17 6 18 7 19 5 20 3 21 4 22 86 23 85 24
REMARK SMILES IDX 87 25 84 26 2 27 1 28 24 29 25 30 26 31 27 32 28 33 29 34
REMARK SMILES IDX 30 35 31 36 83 37 32 38 82 39 33 40 34 41 35 42 76 43 36 44
REMARK SMILES IDX 81 45 75 46 77 47 37 48 80 49 74 50 73 51 38 53 64 54 47 55
REMARK SMILES IDX 63 56 48 57 51 58 62 59 78 60 49 61 50 62 61 64 79 65 52 66
REMARK SMILES IDX 39 67 40 68 45 69 41 70 42 71 44 72 46 73 43 74 65 75 66 76
REMARK SMILES IDX 71 77 67 78 68 79 70 80 72 81 69 82 53 83 54 84 59 85 55 86
REMARK SMILES IDX 56 87 58 88 60 89 57 90
REMARK H PARENT 9 11 77 52 51 63
REMARK Flexibility Score: inf
ROOT
ATOM      1  C   UNL A   1      32.910  29.672  26.905  1.00  0.00     0.202 C 
ENDROOT
BRANCH   1   2
ATOM      2  C   UNL A   1      32.025  28.459  27.214  1.00  0.00     0.261 C 
BRANCH   2   3
ATOM      3  O   UNL A   1      31.809  27.627  26.051  1.00  0.00    -0.463 OA
BRANCH   3   4
ATOM      4  C   UNL A   1      32.039  26.300  26.243  1.00  0.00     0.310 C 
ATOM      5  O   UNL A   1      31.392  25.599  27.021  1.00  0.00    -0.252 OA
BRANCH   4   6
ATOM      6  C   UNL A   1      33.221  25.727  25.493  1.00  0.00     0.161 C 
BRANCH   6   7
ATOM      7  C   UNL A   1      32.980  24.698  24.418  1.00  0.00     0.000 A 
ATOM      8  C   UNL A   1      32.473  24.921  23.134  1.00  0.00     0.093 A 
ATOM      9  N   UNL A   1      32.445  23.694  22.504  1.00  0.00    -0.351 N 
ATOM     10  C   UNL A   1      32.601  22.681  23.419  1.00  0.00     0.048 A 
ATOM     11  H   UNL A   1      32.329  23.564  21.534  1.00  0.00     0.167 HD
ATOM     12  C   UNL A   1      32.978  23.277  24.620  1.00  0.00     0.004 A 
ATOM     13  C   UNL A   1      32.422  21.298  23.278  1.00  0.00     0.047 A 
ATOM     14  C   UNL A   1      33.196  22.449  25.742  1.00  0.00     0.012 A 
ATOM     15  C   UNL A   1      32.601  20.510  24.420  1.00  0.00     0.043 A 
ATOM     16  C   UNL A   1      32.985  21.069  25.634  1.00  0.00     0.021 A 
ATOM     17  Cl  UNL A   1      32.312  18.813  24.323  1.00  0.00    -0.084 Cl
BRANCH   8  18
ATOM     18  C   UNL A   1      32.049  26.190  22.553  1.00  0.00     0.227 C 
ATOM     19  O   UNL A   1      32.767  26.817  21.777  1.00  0.00    -0.285 OA
BRANCH  18  20
ATOM     20  C   UNL A   1      30.755  26.829  22.962  1.00  0.00     0.113 A 
ATOM     21  C   UNL A   1      29.159  28.646  22.800  1.00  0.00    -0.026 A 
ATOM     22  C   UNL A   1      30.461  28.144  22.608  1.00  0.00     0.037 A 
ATOM     23  C   UNL A   1      28.214  27.792  23.388  1.00  0.00     0.062 A 
ATOM     24  C   UNL A   1      28.607  26.505  23.740  1.00  0.00     0.132 A 
ATOM     25  Cl  UNL A   1      26.578  28.250  23.674  1.00  0.00    -0.082 Cl
ATOM     26  N   UNL A   1      29.850  26.008  23.549  1.00  0.00    -0.251 NA
BRANCH  21  27
ATOM     27  C   UNL A   1      28.835  30.065  22.380  1.00  0.00     0.034 C 
ATOM     28  C   UNL A   1      28.940  31.085  23.511  1.00  0.00     0.009 C 
ENDBRANCH  21  27
ENDBRANCH  18  20
ENDBRANCH   8  18
ENDBRANCH   6   7
ENDBRANCH   4   6
ENDBRANCH   3   4
ENDBRANCH   2   3
ENDBRANCH   1   2
BRANCH   1  29
ATOM     29  O   UNL A   1      32.378  30.647  26.004  1.00  0.00    -0.374 OA
BRANCH  29  30
ATOM     30  C   UNL A   1      31.412  31.547  26.544  1.00  0.00     0.202 C 
BRANCH  30  31
ATOM     31  C   UNL A   1      31.881  32.993  26.736  1.00  0.00     0.261 C 
BRANCH  31  32
ATOM     32  O   UNL A   1      32.307  33.256  28.083  1.00  0.00    -0.460 OA
BRANCH  32  33
ATOM     33  C   UNL A   1      33.378  34.076  28.175  1.00  0.00     0.338 C 
ATOM     34  O   UNL A   1      33.381  35.303  28.169  1.00  0.00    -0.246 OA
BRANCH  33  35
ATOM     35  C   UNL A   1      34.596  33.301  28.449  1.00  0.00     0.060 A 
ATOM     36  C   UNL A   1      34.428  32.023  28.997  1.00  0.00     0.016 A 
ATOM     37  C   UNL A   1      35.873  33.831  28.251  1.00  0.00     0.016 A 
ATOM     38  C   UNL A   1      35.538  31.293  29.409  1.00  0.00     0.010 A 
ATOM     39  C   UNL A   1      36.987  33.098  28.671  1.00  0.00     0.010 A 
ATOM     40  C   UNL A   1      36.818  31.846  29.290  1.00  0.00    -0.014 A 
BRANCH  40  41
ATOM     41  C   UNL A   1      37.954  31.170  29.959  1.00  0.00     0.031 A 
ATOM     42  C   UNL A   1      38.227  31.471  31.406  1.00  0.00     0.074 A 
ATOM     43  C   UNL A   1      38.695  30.267  29.297  1.00  0.00     0.049 A 
ATOM     44  N   UNL A   1      39.144  30.978  32.198  1.00  0.00    -0.248 NA
ATOM     45  C   UNL A   1      37.350  32.465  32.045  1.00  0.00     0.031 C 
ATOM     46  C   UNL A   1      38.504  29.883  27.900  1.00  0.00     0.029 A 
ATOM     47  N   UNL A   1      39.759  29.510  29.714  1.00  0.00    -0.354 N 
ATOM     48  C   UNL A   1      38.959  31.605  33.424  1.00  0.00     0.074 A 
ATOM     49  C   UNL A   1      37.864  32.536  33.264  1.00  0.00     0.031 C 
ATOM     50  C   UNL A   1      39.430  28.965  27.571  1.00  0.00     0.029 A 
ATOM     51  C   UNL A   1      40.288  28.716  28.728  1.00  0.00     0.049 A 
ATOM     52  H   UNL A   1      40.110  29.534  30.634  1.00  0.00     0.167 HD
ATOM     53  C   UNL A   1      39.636  31.413  34.581  1.00  0.00     0.037 A 
ATOM     54  C   UNL A   1      41.353  27.894  28.755  1.00  0.00     0.037 A 
ATOM     55  C   UNL A   1      40.722  30.480  34.730  1.00  0.00     0.049 A 
ATOM     56  C   UNL A   1      42.115  27.721  30.040  1.00  0.00     0.074 A 
ATOM     57  C   UNL A   1      41.450  30.178  35.867  1.00  0.00     0.029 A 
ATOM     58  N   UNL A   1      41.242  29.706  33.702  1.00  0.00    -0.354 N 
ATOM     59  N   UNL A   1      41.902  28.282  31.208  1.00  0.00    -0.248 NA
ATOM     60  C   UNL A   1      43.256  26.796  30.017  1.00  0.00     0.031 C 
ATOM     61  C   UNL A   1      42.447  29.261  35.515  1.00  0.00     0.029 A 
ATOM     62  C   UNL A   1      42.305  28.950  34.171  1.00  0.00     0.049 A 
ATOM     63  H   UNL A   1      40.906  29.695  32.778  1.00  0.00     0.167 HD
ATOM     64  C   UNL A   1      42.868  27.765  32.062  1.00  0.00     0.074 A 
ATOM     65  C   UNL A   1      43.658  26.834  31.281  1.00  0.00     0.031 C 
ATOM     66  C   UNL A   1      43.082  28.034  33.374  1.00  0.00     0.037 A 
BRANCH  53  67
ATOM     67  C   UNL A   1      39.241  32.255  35.759  1.00  0.00     0.057 A 
ATOM     68  C   UNL A   1      38.328  31.806  36.723  1.00  0.00     0.134 A 
ATOM     69  C   UNL A   1      39.786  33.533  35.933  1.00  0.00     0.134 A 
ATOM     70  F   UNL A   1      37.757  30.598  36.609  1.00  0.00    -0.206 F 
ATOM     71  C   UNL A   1      37.948  32.612  37.800  1.00  0.00     0.040 A 
ATOM     72  C   UNL A   1      39.435  34.336  37.019  1.00  0.00     0.040 A 
ATOM     73  F   UNL A   1      40.668  34.025  35.049  1.00  0.00    -0.206 F 
ATOM     74  C   UNL A   1      38.506  33.879  37.952  1.00  0.00     0.006 A 
ENDBRANCH  53  67
BRANCH  54  75
ATOM     75  C   UNL A   1      41.757  27.178  27.519  1.00  0.00     0.057 A 
ATOM     76  C   UNL A   1      42.580  27.780  26.561  1.00  0.00     0.134 A 
ATOM     77  C   UNL A   1      41.343  25.861  27.279  1.00  0.00     0.134 A 
ATOM     78  F   UNL A   1      42.992  29.045  26.725  1.00  0.00    -0.206 F 
ATOM     79  C   UNL A   1      42.972  27.101  25.406  1.00  0.00     0.040 A 
ATOM     80  C   UNL A   1      41.746  25.163  26.140  1.00  0.00     0.040 A 
ATOM     81  F   UNL A   1      40.555  25.227  28.160  1.00  0.00    -0.206 F 
ATOM     82  C   UNL A   1      42.561  25.786  25.197  1.00  0.00     0.006 A 
ENDBRANCH  54  75
BRANCH  66  83
ATOM     83  C   UNL A   1      44.202  27.298  34.051  1.00  0.00     0.057 A 
ATOM     84  C   UNL A   1      45.498  27.824  34.115  1.00  0.00     0.134 A 
ATOM     85  C   UNL A   1      43.967  26.072  34.686  1.00  0.00     0.134 A 
ATOM     86  F   UNL A   1      45.790  28.989  33.518  1.00  0.00    -0.206 F 
ATOM     87  C   UNL A   1      46.528  27.145  34.768  1.00  0.00     0.040 A 
ATOM     88  C   UNL A   1      44.982  25.397  35.365  1.00  0.00     0.040 A 
ATOM     89  F   UNL A   1      42.745  25.519  34.670  1.00  0.00    -0.206 F 
ATOM     90  C   UNL A   1      46.268  25.930  35.402  1.00  0.00     0.006 A 
ENDBRANCH  66  83
ENDBRANCH  40  41
ENDBRANCH  33  35
ENDBRANCH  32  33
ENDBRANCH  31  32
ENDBRANCH  30  31
ENDBRANCH  29  30
ENDBRANCH   1  29
TORSDOF 18
ENDMDL
MODEL 2
REMARK VINA RESULT:     -11.4      4.535      9.938
REMARK SMILES CCc1cc(C(=O)c2[nH]c3cc(Cl)ccc3c2CC(=O)OCCOCCOC(=O)c2ccc(-c3c4nc(c(-c5c(F)cccc5F)c5ccc([nH]5)c(-c5c(F)cccc5F)c5nc(c(-c6c(F)cccc6F)c6ccc3[nH]6)C=C5)C=C4)cc2)ncc1Cl
REMARK SMILES IDX 23 1 22 2 21 3 19 4 20 5 18 6 17 7 8 8 9 9 10 10 16 12 11 13
REMARK SMILES IDX 15 14 12 15 14 16 13 17 6 18 7 19 5 20 3 21 4 22 86 23 85 24
REMARK SMILES IDX 87 25 84 26 2 27 1 28 24 29 25 30 26 31 27 32 28 33 29 34
REMARK SMILES IDX 30 35 31 36 83 37 32 38 82 39 33 40 34 41 35 42 76 43 36 44
REMARK SMILES IDX 81 45 75 46 77 47 37 48 80 49 74 50 73 51 38 53 64 54 47 55
REMARK SMILES IDX 63 56 48 57 51 58 62 59 78 60 49 61 50 62 61 64 79 65 52 66
REMARK SMILES IDX 39 67 40 68 45 69 41 70 42 71 44 72 46 73 43 74 65 75 66 76
REMARK SMILES IDX 71 77 67 78 68 79 70 80 72 81 69 82 53 83 54 84 59 85 55 86
REMARK SMILES IDX 56 87 58 88 60 89 57 90
REMARK H PARENT 9 11 77 52 51 63
REMARK Flexibility Score: inf
ROOT
ATOM      1  C   UNL A   1      36.833  21.248  24.927  1.00  0.00     0.202 C 
ENDROOT
BRANCH   1   2
ATOM      2  C   UNL A   1      36.640  22.341  23.870  1.00  0.00     0.261 C 
BRANCH   2   3
ATOM      3  O   UNL A   1      36.393  23.638  24.461  1.00  0.00    -0.463 OA
BRANCH   3   4
ATOM      4  C   UNL A   1      35.168  24.167  24.195  1.00  0.00     0.310 C 
ATOM      5  O   UNL A   1      34.644  24.152  23.082  1.00  0.00    -0.252 OA
BRANCH   4   6
ATOM      6  C   UNL A   1      34.497  24.874  25.352  1.00  0.00     0.161 C 
BRANCH   6   7
ATOM      7  C   UNL A   1      32.992  24.877  25.437  1.00  0.00     0.000 A 
ATOM      8  C   UNL A   1      32.166  23.813  25.813  1.00  0.00     0.093 A 
ATOM      9  N   UNL A   1      30.871  24.283  25.761  1.00  0.00    -0.351 N 
ATOM     10  C   UNL A   1      30.819  25.471  25.073  1.00  0.00     0.048 A 
ATOM     11  H   UNL A   1      30.092  23.830  26.161  1.00  0.00     0.167 HD
ATOM     12  C   UNL A   1      32.135  25.890  24.892  1.00  0.00     0.004 A 
ATOM     13  C   UNL A   1      29.718  26.190  24.588  1.00  0.00     0.047 A 
ATOM     14  C   UNL A   1      32.367  27.095  24.195  1.00  0.00     0.012 A 
ATOM     15  C   UNL A   1      29.983  27.356  23.863  1.00  0.00     0.043 A 
ATOM     16  C   UNL A   1      31.283  27.809  23.668  1.00  0.00     0.021 A 
ATOM     17  Cl  UNL A   1      28.670  28.233  23.172  1.00  0.00    -0.084 Cl
BRANCH   8  18
ATOM     18  C   UNL A   1      32.571  22.462  26.188  1.00  0.00     0.227 C 
ATOM     19  O   UNL A   1      32.908  22.184  27.337  1.00  0.00    -0.285 OA
BRANCH  18  20
ATOM     20  C   UNL A   1      32.686  21.380  25.156  1.00  0.00     0.113 A 
ATOM     21  C   UNL A   1      32.951  19.041  24.577  1.00  0.00    -0.026 A 
ATOM     22  C   UNL A   1      33.070  20.088  25.511  1.00  0.00     0.037 A 
ATOM     23  C   UNL A   1      32.479  19.363  23.296  1.00  0.00     0.062 A 
ATOM     24  C   UNL A   1      32.150  20.687  23.021  1.00  0.00     0.132 A 
ATOM     25  Cl  UNL A   1      32.261  18.195  22.050  1.00  0.00    -0.082 Cl
ATOM     26  N   UNL A   1      32.248  21.698  23.914  1.00  0.00    -0.251 NA
BRANCH  21  27
ATOM     27  C   UNL A   1      33.337  17.632  24.979  1.00  0.00     0.034 C 
ATOM     28  C   UNL A   1      34.694  17.184  24.442  1.00  0.00     0.009 C 
ENDBRANCH  21  27
ENDBRANCH  18  20
ENDBRANCH   8  18
ENDBRANCH   6   7
ENDBRANCH   4   6
ENDBRANCH   3   4
ENDBRANCH   2   3
ENDBRANCH   1   2
BRANCH   1  29
ATOM     29  O   UNL A   1      38.174  20.986  25.347  1.00  0.00    -0.374 OA
BRANCH  29  30
ATOM     30  C   UNL A   1      38.644  19.651  25.169  1.00  0.00     0.202 C 
BRANCH  30  31
ATOM     31  C   UNL A   1      39.807  19.225  26.071  1.00  0.00     0.261 C 
BRANCH  31  32
ATOM     32  O   UNL A   1      41.061  19.196  25.370  1.00  0.00    -0.460 OA
BRANCH  32  33
ATOM     33  C   UNL A   1      42.135  19.469  26.146  1.00  0.00     0.338 C 
ATOM     34  O   UNL A   1      43.100  18.744  26.366  1.00  0.00    -0.246 OA
BRANCH  33  35
ATOM     35  C   UNL A   1      42.095  20.865  26.605  1.00  0.00     0.060 A 
ATOM     36  C   UNL A   1      41.950  21.854  25.625  1.00  0.00     0.016 A 
ATOM     37  C   UNL A   1      42.270  21.209  27.947  1.00  0.00     0.016 A 
ATOM     38  C   UNL A   1      42.044  23.197  25.974  1.00  0.00     0.010 A 
ATOM     39  C   UNL A   1      42.370  22.559  28.296  1.00  0.00     0.010 A 
ATOM     40  C   UNL A   1      42.300  23.554  27.304  1.00  0.00    -0.014 A 
BRANCH  40  41
ATOM     41  C   UNL A   1      42.647  24.960  27.612  1.00  0.00     0.031 A 
ATOM     42  C   UNL A   1      44.022  25.461  27.268  1.00  0.00     0.074 A 
ATOM     43  C   UNL A   1      41.731  25.787  28.143  1.00  0.00     0.049 A 
ATOM     44  N   UNL A   1      44.532  26.656  27.420  1.00  0.00    -0.248 NA
ATOM     45  C   UNL A   1      44.947  24.481  26.676  1.00  0.00     0.031 C 
ATOM     46  C   UNL A   1      40.364  25.413  28.495  1.00  0.00     0.029 A 
ATOM     47  N   UNL A   1      41.818  27.113  28.481  1.00  0.00    -0.354 N 
ATOM     48  C   UNL A   1      45.837  26.569  26.951  1.00  0.00     0.074 A 
ATOM     49  C   UNL A   1      46.050  25.200  26.538  1.00  0.00     0.031 C 
ATOM     50  C   UNL A   1      39.738  26.486  29.009  1.00  0.00     0.029 A 
ATOM     51  C   UNL A   1      40.670  27.612  29.042  1.00  0.00     0.049 A 
ATOM     52  H   UNL A   1      42.628  27.654  28.335  1.00  0.00     0.167 HD
ATOM     53  C   UNL A   1      46.769  27.548  26.863  1.00  0.00     0.037 A 
ATOM     54  C   UNL A   1      40.408  28.837  29.537  1.00  0.00     0.037 A 
ATOM     55  C   UNL A   1      46.545  28.909  27.273  1.00  0.00     0.049 A 
ATOM     56  C   UNL A   1      41.469  29.900  29.464  1.00  0.00     0.074 A 
ATOM     57  C   UNL A   1      47.406  29.989  27.191  1.00  0.00     0.029 A 
ATOM     58  N   UNL A   1      45.373  29.374  27.855  1.00  0.00    -0.354 N 
ATOM     59  N   UNL A   1      42.683  29.822  28.974  1.00  0.00    -0.248 NA
ATOM     60  C   UNL A   1      41.122  31.223  30.001  1.00  0.00     0.031 C 
ATOM     61  C   UNL A   1      46.776  31.095  27.773  1.00  0.00     0.029 A 
ATOM     62  C   UNL A   1      45.501  30.718  28.168  1.00  0.00     0.049 A 
ATOM     63  H   UNL A   1      44.571  28.829  28.020  1.00  0.00     0.167 HD
ATOM     64  C   UNL A   1      43.239  31.086  29.125  1.00  0.00     0.074 A 
ATOM     65  C   UNL A   1      42.222  31.916  29.739  1.00  0.00     0.031 C 
ATOM     66  C   UNL A   1      44.478  31.523  28.785  1.00  0.00     0.037 A 
BRANCH  53  67
ATOM     67  C   UNL A   1      48.123  27.166  26.337  1.00  0.00     0.057 A 
ATOM     68  C   UNL A   1      48.437  27.231  24.973  1.00  0.00     0.134 A 
ATOM     69  C   UNL A   1      49.128  26.732  27.210  1.00  0.00     0.134 A 
ATOM     70  F   UNL A   1      47.516  27.625  24.081  1.00  0.00    -0.206 F 
ATOM     71  C   UNL A   1      49.692  26.846  24.494  1.00  0.00     0.040 A 
ATOM     72  C   UNL A   1      50.393  26.371  26.747  1.00  0.00     0.040 A 
ATOM     73  F   UNL A   1      48.896  26.648  28.529  1.00  0.00    -0.206 F 
ATOM     74  C   UNL A   1      50.675  26.419  25.383  1.00  0.00     0.006 A 
ENDBRANCH  53  67
BRANCH  54  75
ATOM     75  C   UNL A   1      39.083  29.111  30.147  1.00  0.00     0.057 A 
ATOM     76  C   UNL A   1      38.846  28.891  31.509  1.00  0.00     0.134 A 
ATOM     77  C   UNL A   1      38.027  29.622  29.382  1.00  0.00     0.134 A 
ATOM     78  F   UNL A   1      39.812  28.385  32.289  1.00  0.00    -0.206 F 
ATOM     79  C   UNL A   1      37.605  29.164  32.086  1.00  0.00     0.040 A 
ATOM     80  C   UNL A   1      36.788  29.921  29.951  1.00  0.00     0.040 A 
ATOM     81  F   UNL A   1      38.192  29.858  28.072  1.00  0.00    -0.206 F 
ATOM     82  C   UNL A   1      36.574  29.688  31.308  1.00  0.00     0.006 A 
ENDBRANCH  54  75
BRANCH  66  83
ATOM     83  C   UNL A   1      44.793  32.966  29.054  1.00  0.00     0.057 A 
ATOM     84  C   UNL A   1      45.436  33.375  30.228  1.00  0.00     0.134 A 
ATOM     85  C   UNL A   1      44.491  33.950  28.104  1.00  0.00     0.134 A 
ATOM     86  F   UNL A   1      45.742  32.483  31.183  1.00  0.00    -0.206 F 
ATOM     87  C   UNL A   1      45.748  34.716  30.459  1.00  0.00     0.040 A 
ATOM     88  C   UNL A   1      44.823  35.289  28.311  1.00  0.00     0.040 A 
ATOM     89  F   UNL A   1      43.885  33.622  26.952  1.00  0.00    -0.206 F 
ATOM     90  C   UNL A   1      45.447  35.676  29.494  1.00  0.00     0.006 A 
ENDBRANCH  66  83
ENDBRANCH  40  41
ENDBRANCH  33  35
ENDBRANCH  32  33
ENDBRANCH  31  32
ENDBRANCH  30  31
ENDBRANCH  29  30
ENDBRANCH   1  29
TORSDOF 18
ENDMDL
MODEL 3
REMARK VINA RESULT:     -11.3      2.573      4.592
REMARK SMILES CCc1cc(C(=O)c2[nH]c3cc(Cl)ccc3c2CC(=O)OCCOCCOC(=O)c2ccc(-c3c4nc(c(-c5c(F)cccc5F)c5ccc([nH]5)c(-c5c(F)cccc5F)c5nc(c(-c6c(F)cccc6F)c6ccc3[nH]6)C=C5)C=C4)cc2)ncc1Cl
REMARK SMILES IDX 23 1 22 2 21 3 19 4 20 5 18 6 17 7 8 8 9 9 10 10 16 12 11 13
REMARK SMILES IDX 15 14 12 15 14 16 13 17 6 18 7 19 5 20 3 21 4 22 86 23 85 24
REMARK SMILES IDX 87 25 84 26 2 27 1 28 24 29 25 30 26 31 27 32 28 33 29 34
REMARK SMILES IDX 30 35 31 36 83 37 32 38 82 39 33 40 34 41 35 42 76 43 36 44
REMARK SMILES IDX 81 45 75 46 77 47 37 48 80 49 74 50 73 51 38 53 64 54 47 55
REMARK SMILES IDX 63 56 48 57 51 58 62 59 78 60 49 61 50 62 61 64 79 65 52 66
REMARK SMILES IDX 39 67 40 68 45 69 41 70 42 71 44 72 46 73 43 74 65 75 66 76
REMARK SMILES IDX 71 77 67 78 68 79 70 80 72 81 69 82 53 83 54 84 59 85 55 86
REMARK SMILES IDX 56 87 58 88 60 89 57 90
REMARK H PARENT 9 11 77 52 51 63
REMARK Flexibility Score: inf
ROOT
ATOM      1  C   UNL A   1      33.015  27.529  23.422  1.00  0.00     0.202 C 
ENDROOT
BRANCH   1   2
ATOM      2  C   UNL A   1      32.671  26.149  22.850  1.00  0.00     0.261 C 
BRANCH   2   3
ATOM      3  O   UNL A   1      33.791  25.236  22.907  1.00  0.00    -0.463 OA
BRANCH   3   4
ATOM      4  C   UNL A   1      33.480  23.930  22.691  1.00  0.00     0.310 C 
ATOM      5  O   UNL A   1      33.681  23.346  21.627  1.00  0.00    -0.252 OA
BRANCH   4   6
ATOM      6  C   UNL A   1      32.775  23.229  23.831  1.00  0.00     0.161 C 
BRANCH   6   7
ATOM      7  C   UNL A   1      33.427  22.032  24.474  1.00  0.00     0.000 A 
ATOM      8  C   UNL A   1      34.551  22.029  25.307  1.00  0.00     0.093 A 
ATOM      9  N   UNL A   1      34.770  20.715  25.667  1.00  0.00    -0.351 N 
ATOM     10  C   UNL A   1      34.050  19.870  24.857  1.00  0.00     0.048 A 
ATOM     11  H   UNL A   1      35.360  20.425  26.400  1.00  0.00     0.167 HD
ATOM     12  C   UNL A   1      33.169  20.664  24.127  1.00  0.00     0.004 A 
ATOM     13  C   UNL A   1      34.124  18.478  24.707  1.00  0.00     0.047 A 
ATOM     14  C   UNL A   1      32.309  20.037  23.200  1.00  0.00     0.012 A 
ATOM     15  C   UNL A   1      33.291  17.892  23.748  1.00  0.00     0.043 A 
ATOM     16  C   UNL A   1      32.393  18.652  23.006  1.00  0.00     0.021 A 
ATOM     17  Cl  UNL A   1      33.402  16.196  23.463  1.00  0.00    -0.084 Cl
BRANCH   8  18
ATOM     18  C   UNL A   1      35.351  23.175  25.726  1.00  0.00     0.227 C 
ATOM     19  O   UNL A   1      34.842  24.273  25.941  1.00  0.00    -0.285 OA
BRANCH  18  20
ATOM     20  C   UNL A   1      36.844  23.079  25.814  1.00  0.00     0.113 A 
ATOM     21  C   UNL A   1      38.969  23.946  26.595  1.00  0.00    -0.026 A 
ATOM     22  C   UNL A   1      37.604  24.138  26.307  1.00  0.00     0.037 A 
ATOM     23  C   UNL A   1      39.518  22.683  26.329  1.00  0.00     0.062 A 
ATOM     24  C   UNL A   1      38.690  21.694  25.807  1.00  0.00     0.132 A 
ATOM     25  Cl  UNL A   1      41.164  22.284  26.642  1.00  0.00    -0.082 Cl
ATOM     26  N   UNL A   1      37.375  21.862  25.538  1.00  0.00    -0.251 NA
BRANCH  21  27
ATOM     27  C   UNL A   1      39.782  25.091  27.162  1.00  0.00     0.034 C 
ATOM     28  C   UNL A   1      39.440  25.437  28.609  1.00  0.00     0.009 C 
ENDBRANCH  21  27
ENDBRANCH  18  20
ENDBRANCH   8  18
ENDBRANCH   6   7
ENDBRANCH   4   6
ENDBRANCH   3   4
ENDBRANCH   2   3
ENDBRANCH   1   2
BRANCH   1  29
ATOM     29  O   UNL A   1      31.924  28.426  23.646  1.00  0.00    -0.374 OA
BRANCH  29  30
ATOM     30  C   UNL A   1      31.775  28.922  24.975  1.00  0.00     0.202 C 
BRANCH  30  31
ATOM     31  C   UNL A   1      32.956  29.730  25.523  1.00  0.00     0.261 C 
BRANCH  31  32
ATOM     32  O   UNL A   1      32.838  29.984  26.932  1.00  0.00    -0.460 OA
BRANCH  32  33
ATOM     33  C   UNL A   1      33.380  31.157  27.330  1.00  0.00     0.338 C 
ATOM     34  O   UNL A   1      32.802  32.225  27.507  1.00  0.00    -0.246 OA
BRANCH  33  35
ATOM     35  C   UNL A   1      34.793  30.972  27.694  1.00  0.00     0.060 A 
ATOM     36  C   UNL A   1      35.213  29.666  27.970  1.00  0.00     0.016 A 
ATOM     37  C   UNL A   1      35.668  32.051  27.839  1.00  0.00     0.016 A 
ATOM     38  C   UNL A   1      36.497  29.437  28.453  1.00  0.00     0.010 A 
ATOM     39  C   UNL A   1      36.956  31.820  28.332  1.00  0.00     0.010 A 
ATOM     40  C   UNL A   1      37.358  30.518  28.680  1.00  0.00    -0.014 A 
BRANCH  40  41
ATOM     41  C   UNL A   1      38.616  30.285  29.427  1.00  0.00     0.031 A 
ATOM     42  C   UNL A   1      38.727  30.793  30.837  1.00  0.00     0.074 A 
ATOM     43  C   UNL A   1      39.620  29.588  28.870  1.00  0.00     0.049 A 
ATOM     44  N   UNL A   1      39.718  30.680  31.684  1.00  0.00    -0.248 NA
ATOM     45  C   UNL A   1      37.568  31.533  31.360  1.00  0.00     0.031 C 
ATOM     46  C   UNL A   1      39.610  29.031  27.519  1.00  0.00     0.029 A 
ATOM     47  N   UNL A   1      40.844  29.233  29.374  1.00  0.00    -0.354 N 
ATOM     48  C   UNL A   1      39.304  31.337  32.836  1.00  0.00     0.074 A 
ATOM     49  C   UNL A   1      37.988  31.874  32.569  1.00  0.00     0.031 C 
ATOM     50  C   UNL A   1      40.780  28.408  27.297  1.00  0.00     0.029 A 
ATOM     51  C   UNL A   1      41.626  28.544  28.481  1.00  0.00     0.049 A 
ATOM     52  H   UNL A   1      41.134  29.451  30.290  1.00  0.00     0.167 HD
ATOM     53  C   UNL A   1      39.960  31.472  34.013  1.00  0.00     0.037 A 
ATOM     54  C   UNL A   1      42.887  28.088  28.605  1.00  0.00     0.037 A 
ATOM     55  C   UNL A   1      41.268  30.931  34.270  1.00  0.00     0.049 A 
ATOM     56  C   UNL A   1      43.612  28.279  29.908  1.00  0.00     0.074 A 
ATOM     57  C   UNL A   1      42.007  30.974  35.438  1.00  0.00     0.029 A 
ATOM     58  N   UNL A   1      42.038  30.254  33.333  1.00  0.00    -0.354 N 
ATOM     59  N   UNL A   1      43.195  28.860  31.008  1.00  0.00    -0.248 NA
ATOM     60  C   UNL A   1      44.978  27.745  29.992  1.00  0.00     0.031 C 
ATOM     61  C   UNL A   1      43.247  30.372  35.193  1.00  0.00     0.029 A 
ATOM     62  C   UNL A   1      43.258  29.904  33.888  1.00  0.00     0.049 A 
ATOM     63  H   UNL A   1      41.758  30.052  32.412  1.00  0.00     0.167 HD
ATOM     64  C   UNL A   1      44.235  28.745  31.921  1.00  0.00     0.074 A 
ATOM     65  C   UNL A   1      45.299  28.025  31.249  1.00  0.00     0.031 C 
ATOM     66  C   UNL A   1      44.306  29.193  33.199  1.00  0.00     0.037 A 
BRANCH  53  67
ATOM     67  C   UNL A   1      39.283  32.266  35.093  1.00  0.00     0.057 A 
ATOM     68  C   UNL A   1      39.415  33.657  35.190  1.00  0.00     0.134 A 
ATOM     69  C   UNL A   1      38.482  31.626  36.048  1.00  0.00     0.134 A 
ATOM     70  F   UNL A   1      40.179  34.330  34.317  1.00  0.00    -0.206 F 
ATOM     71  C   UNL A   1      38.802  34.379  36.217  1.00  0.00     0.040 A 
ATOM     72  C   UNL A   1      37.842  32.340  37.062  1.00  0.00     0.040 A 
ATOM     73  F   UNL A   1      38.310  30.296  36.013  1.00  0.00    -0.206 F 
ATOM     74  C   UNL A   1      38.009  33.720  37.154  1.00  0.00     0.006 A 
ENDBRANCH  53  67
BRANCH  54  75
ATOM     75  C   UNL A   1      43.536  27.411  27.454  1.00  0.00     0.057 A 
ATOM     76  C   UNL A   1      44.217  28.135  26.469  1.00  0.00     0.134 A 
ATOM     77  C   UNL A   1      43.507  26.017  27.326  1.00  0.00     0.134 A 
ATOM     78  F   UNL A   1      44.262  29.473  26.526  1.00  0.00    -0.206 F 
ATOM     79  C   UNL A   1      44.840  27.497  25.395  1.00  0.00     0.040 A 
ATOM     80  C   UNL A   1      44.146  25.365  26.270  1.00  0.00     0.040 A 
ATOM     81  F   UNL A   1      42.873  25.265  28.239  1.00  0.00    -0.206 F 
ATOM     82  C   UNL A   1      44.813  26.107  25.298  1.00  0.00     0.006 A 
ENDBRANCH  54  75
BRANCH  66  83
ATOM     83  C   UNL A   1      45.566  28.899  33.959  1.00  0.00     0.057 A 
ATOM     84  C   UNL A   1      46.610  29.828  34.045  1.00  0.00     0.134 A 
ATOM     85  C   UNL A   1      45.715  27.691  34.652  1.00  0.00     0.134 A 
ATOM     86  F   UNL A   1      46.533  31.000  33.395  1.00  0.00    -0.206 F 
ATOM     87  C   UNL A   1      47.768  29.557  34.775  1.00  0.00     0.040 A 
ATOM     88  C   UNL A   1      46.857  27.420  35.407  1.00  0.00     0.040 A 
ATOM     89  F   UNL A   1      44.747  26.762  34.620  1.00  0.00    -0.206 F 
ATOM     90  C   UNL A   1      47.890  28.352  35.465  1.00  0.00     0.006 A 
ENDBRANCH  66  83
ENDBRANCH  40  41
ENDBRANCH  33  35
ENDBRANCH  32  33
ENDBRANCH  31  32
ENDBRANCH  30  31
ENDBRANCH  29  30
ENDBRANCH   1  29
TORSDOF 18
ENDMDL
