MODEL 1
REMARK VINA RESULT:     -11.5      0.000      0.000
REMARK SMILES CCc1cn(C[C@H](NC(=O)c2ccco2)C(=O)OCCOCCOC(=O)c2ccc(-c3c4nc(c(-c5c(F)cccc5F)c5ccc([nH]5)c(-c5c(F)cccc5F)c5nc(c(-c6c(F)cccc6F)c6ccc3[nH]6)C=C5)C=C4)cc2)c(=O)[nH]c1=O
REMARK SMILES IDX 20 1 19 2 18 3 16 4 17 5 7 6 6 7 5 8 3 9 4 10 84 11 83 12
REMARK SMILES IDX 85 13 81 14 82 16 2 17 1 18 8 19 9 20 10 22 11 23 12 24
REMARK SMILES IDX 15 25 13 26 14 27 21 28 22 29 23 30 24 31 25 32 26 33 27 34
REMARK SMILES IDX 28 35 80 36 29 37 79 38 30 39 31 40 32 41 73 42 33 43 78 44
REMARK SMILES IDX 72 45 74 46 34 47 77 48 71 49 70 50 35 52 61 53 44 54 60 55
REMARK SMILES IDX 45 56 48 57 59 58 75 59 46 60 47 61 58 63 76 64 49 65 36 66
REMARK SMILES IDX 37 67 42 68 38 69 39 70 41 71 43 72 40 73 62 74 63 75 68 76
REMARK SMILES IDX 64 77 65 78 67 79 69 80 66 81 50 82 51 83 56 84 52 85 53 86
REMARK SMILES IDX 55 87 57 88 54 89
REMARK H PARENT 83 15 8 21 74 51 48 62
REMARK Flexibility Score: inf
ROOT
ATOM      1  C   UNL A   1      33.558  30.391  27.039  1.00  0.00     0.202 C 
ENDROOT
BRANCH   1   2
ATOM      2  C   UNL A   1      33.727  28.864  27.162  1.00  0.00     0.261 C 
BRANCH   2   3
ATOM      3  O   UNL A   1      32.769  28.205  26.322  1.00  0.00    -0.462 OA
BRANCH   3   4
ATOM      4  C   UNL A   1      31.776  27.485  26.865  1.00  0.00     0.330 C 
ATOM      5  O   UNL A   1      31.300  27.678  27.978  1.00  0.00    -0.250 OA
BRANCH   4   6
ATOM      6  C   UNL A   1      31.355  26.312  25.963  1.00  0.00     0.212 C 
BRANCH   6   7
ATOM      7  C   UNL A   1      30.659  26.845  24.686  1.00  0.00     0.164 C 
BRANCH   7   8
ATOM      8  N   UNL A   1      31.222  26.359  23.424  1.00  0.00    -0.298 N 
ATOM      9  C   UNL A   1      32.569  24.743  22.299  1.00  0.00     0.033 A 
ATOM     10  C   UNL A   1      31.964  25.194  23.406  1.00  0.00     0.100 A 
ATOM     11  C   UNL A   1      32.557  25.640  21.117  1.00  0.00     0.256 A 
ATOM     12  N   UNL A   1      31.644  26.650  21.155  1.00  0.00    -0.274 N 
ATOM     13  O   UNL A   1      33.311  25.480  20.163  1.00  0.00    -0.269 OA
ATOM     14  C   UNL A   1      30.924  27.033  22.253  1.00  0.00     0.328 A 
ATOM     15  H   UNL A   1      31.488  27.148  20.319  1.00  0.00     0.175 HD
ATOM     16  O   UNL A   1      30.097  27.937  22.179  1.00  0.00    -0.248 OA
BRANCH   9  17
ATOM     17  C   UNL A   1      33.211  23.395  22.119  1.00  0.00     0.039 C 
ATOM     18  C   UNL A   1      32.357  22.222  22.593  1.00  0.00     0.009 C 
ENDBRANCH   9  17
ENDBRANCH   7   8
ENDBRANCH   6   7
BRANCH   6  19
ATOM     19  N   UNL A   1      30.792  25.035  26.478  1.00  0.00    -0.334 N 
ATOM     20  C   UNL A   1      31.287  23.818  26.880  1.00  0.00     0.287 C 
ATOM     21  H   UNL A   1      29.810  25.072  26.550  1.00  0.00     0.164 HD
ATOM     22  O   UNL A   1      30.543  23.148  27.602  1.00  0.00    -0.266 OA
BRANCH  20  23
ATOM     23  C   UNL A   1      32.565  23.330  26.426  1.00  0.00     0.191 A 
ATOM     24  C   UNL A   1      33.818  23.910  26.373  1.00  0.00     0.056 A 
ATOM     25  O   UNL A   1      32.709  21.997  26.163  1.00  0.00    -0.459 OA
ATOM     26  C   UNL A   1      34.683  22.952  25.794  1.00  0.00     0.043 A 
ATOM     27  C   UNL A   1      33.987  21.778  25.779  1.00  0.00     0.196 A 
ENDBRANCH  20  23
ENDBRANCH   6  19
ENDBRANCH   4   6
ENDBRANCH   3   4
ENDBRANCH   2   3
ENDBRANCH   1   2
BRANCH   1  28
ATOM     28  O   UNL A   1      32.312  30.783  26.457  1.00  0.00    -0.374 OA
BRANCH  28  29
ATOM     29  C   UNL A   1      31.798  32.056  26.880  1.00  0.00     0.202 C 
BRANCH  29  30
ATOM     30  C   UNL A   1      32.859  33.060  27.364  1.00  0.00     0.261 C 
BRANCH  30  31
ATOM     31  O   UNL A   1      32.242  34.241  27.938  1.00  0.00    -0.460 OA
BRANCH  31  32
ATOM     32  C   UNL A   1      33.005  34.990  28.774  1.00  0.00     0.338 C 
ATOM     33  O   UNL A   1      32.704  36.085  29.226  1.00  0.00    -0.246 OA
BRANCH  32  34
ATOM     34  C   UNL A   1      34.233  34.261  29.214  1.00  0.00     0.060 A 
ATOM     35  C   UNL A   1      35.520  34.563  28.758  1.00  0.00     0.016 A 
ATOM     36  C   UNL A   1      34.072  33.214  30.133  1.00  0.00     0.016 A 
ATOM     37  C   UNL A   1      36.629  33.808  29.202  1.00  0.00     0.010 A 
ATOM     38  C   UNL A   1      35.172  32.453  30.560  1.00  0.00     0.010 A 
ATOM     39  C   UNL A   1      36.469  32.738  30.102  1.00  0.00    -0.014 A 
BRANCH  39  40
ATOM     40  C   UNL A   1      37.644  32.046  30.722  1.00  0.00     0.031 A 
ATOM     41  C   UNL A   1      38.399  30.912  30.078  1.00  0.00     0.074 A 
ATOM     42  C   UNL A   1      37.985  32.392  31.974  1.00  0.00     0.049 A 
ATOM     43  N   UNL A   1      39.437  30.227  30.498  1.00  0.00    -0.248 NA
ATOM     44  C   UNL A   1      37.902  30.473  28.781  1.00  0.00     0.031 C 
ATOM     45  C   UNL A   1      37.319  33.421  32.769  1.00  0.00     0.029 A 
ATOM     46  N   UNL A   1      38.954  31.891  32.803  1.00  0.00    -0.354 N 
ATOM     47  C   UNL A   1      39.716  29.291  29.503  1.00  0.00     0.074 A 
ATOM     48  C   UNL A   1      38.708  29.467  28.479  1.00  0.00     0.031 C 
ATOM     49  C   UNL A   1      37.890  33.466  33.981  1.00  0.00     0.029 A 
ATOM     50  C   UNL A   1      38.952  32.464  34.046  1.00  0.00     0.049 A 
ATOM     51  H   UNL A   1      39.589  31.189  32.531  1.00  0.00     0.167 HD
ATOM     52  C   UNL A   1      40.719  28.377  29.437  1.00  0.00     0.037 A 
ATOM     53  C   UNL A   1      39.715  32.213  35.124  1.00  0.00     0.037 A 
ATOM     54  C   UNL A   1      41.702  28.173  30.473  1.00  0.00     0.049 A 
ATOM     55  C   UNL A   1      40.811  31.191  35.054  1.00  0.00     0.074 A 
ATOM     56  C   UNL A   1      42.810  27.339  30.468  1.00  0.00     0.029 A 
ATOM     57  N   UNL A   1      41.674  28.784  31.717  1.00  0.00    -0.354 N 
ATOM     58  N   UNL A   1      41.155  30.410  34.060  1.00  0.00    -0.248 NA
ATOM     59  C   UNL A   1      41.639  31.035  36.258  1.00  0.00     0.031 C 
ATOM     60  C   UNL A   1      43.411  27.398  31.732  1.00  0.00     0.029 A 
ATOM     61  C   UNL A   1      42.715  28.313  32.504  1.00  0.00     0.049 A 
ATOM     62  H   UNL A   1      41.011  29.454  32.001  1.00  0.00     0.167 HD
ATOM     63  C   UNL A   1      42.252  29.684  34.509  1.00  0.00     0.074 A 
ATOM     64  C   UNL A   1      42.525  30.133  35.859  1.00  0.00     0.031 C 
ATOM     65  C   UNL A   1      42.970  28.736  33.857  1.00  0.00     0.037 A 
BRANCH  52  66
ATOM     66  C   UNL A   1      40.806  27.511  28.205  1.00  0.00     0.057 A 
ATOM     67  C   UNL A   1      41.539  27.923  27.083  1.00  0.00     0.134 A 
ATOM     68  C   UNL A   1      40.117  26.293  28.104  1.00  0.00     0.134 A 
ATOM     69  F   UNL A   1      42.211  29.084  27.097  1.00  0.00    -0.206 F 
ATOM     70  C   UNL A   1      41.590  27.157  25.915  1.00  0.00     0.040 A 
ATOM     71  C   UNL A   1      40.182  25.505  26.951  1.00  0.00     0.040 A 
ATOM     72  F   UNL A   1      39.392  25.834  29.135  1.00  0.00    -0.206 F 
ATOM     73  C   UNL A   1      40.917  25.940  25.850  1.00  0.00     0.006 A 
ENDBRANCH  52  66
BRANCH  53  74
ATOM     74  C   UNL A   1      39.475  32.995  36.358  1.00  0.00     0.057 A 
ATOM     75  C   UNL A   1      38.566  32.557  37.328  1.00  0.00     0.134 A 
ATOM     76  C   UNL A   1      40.109  34.223  36.564  1.00  0.00     0.134 A 
ATOM     77  F   UNL A   1      37.917  31.395  37.173  1.00  0.00    -0.206 F 
ATOM     78  C   UNL A   1      38.285  33.325  38.457  1.00  0.00     0.040 A 
ATOM     79  C   UNL A   1      39.856  34.989  37.701  1.00  0.00     0.040 A 
ATOM     80  F   UNL A   1      40.998  34.682  35.671  1.00  0.00    -0.206 F 
ATOM     81  C   UNL A   1      38.933  34.544  38.647  1.00  0.00     0.006 A 
ENDBRANCH  53  74
BRANCH  65  82
ATOM     82  C   UNL A   1      44.126  28.125  34.598  1.00  0.00     0.057 A 
ATOM     83  C   UNL A   1      43.960  26.955  35.349  1.00  0.00     0.134 A 
ATOM     84  C   UNL A   1      45.408  28.692  34.567  1.00  0.00     0.134 A 
ATOM     85  F   UNL A   1      42.759  26.362  35.431  1.00  0.00    -0.206 F 
ATOM     86  C   UNL A   1      45.025  26.366  36.033  1.00  0.00     0.040 A 
ATOM     87  C   UNL A   1      46.488  28.097  35.223  1.00  0.00     0.040 A 
ATOM     88  F   UNL A   1      45.642  29.805  33.855  1.00  0.00    -0.206 F 
ATOM     89  C   UNL A   1      46.296  26.932  35.963  1.00  0.00     0.006 A 
ENDBRANCH  65  82
ENDBRANCH  39  40
ENDBRANCH  32  34
ENDBRANCH  31  32
ENDBRANCH  30  31
ENDBRANCH  29  30
ENDBRANCH  28  29
ENDBRANCH   1  28
TORSDOF 19
ENDMDL
MODEL 2
REMARK VINA RESULT:     -11.3      4.665      9.820
REMARK SMILES CCc1cn(C[C@H](NC(=O)c2ccco2)C(=O)OCCOCCOC(=O)c2ccc(-c3c4nc(c(-c5c(F)cccc5F)c5ccc([nH]5)c(-c5c(F)cccc5F)c5nc(c(-c6c(F)cccc6F)c6ccc3[nH]6)C=C5)C=C4)cc2)c(=O)[nH]c1=O
REMARK SMILES IDX 20 1 19 2 18 3 16 4 17 5 7 6 6 7 5 8 3 9 4 10 84 11 83 12
REMARK SMILES IDX 85 13 81 14 82 16 2 17 1 18 8 19 9 20 10 22 11 23 12 24
REMARK SMILES IDX 15 25 13 26 14 27 21 28 22 29 23 30 24 31 25 32 26 33 27 34
REMARK SMILES IDX 28 35 80 36 29 37 79 38 30 39 31 40 32 41 73 42 33 43 78 44
REMARK SMILES IDX 72 45 74 46 34 47 77 48 71 49 70 50 35 52 61 53 44 54 60 55
REMARK SMILES IDX 45 56 48 57 59 58 75 59 46 60 47 61 58 63 76 64 49 65 36 66
REMARK SMILES IDX 37 67 42 68 38 69 39 70 41 71 43 72 40 73 62 74 63 75 68 76
REMARK SMILES IDX 64 77 65 78 67 79 69 80 66 81 50 82 51 83 56 84 52 85 53 86
REMARK SMILES IDX 55 87 57 88 54 89
REMARK H PARENT 83 15 8 21 74 51 48 62
REMARK Flexibility Score: inf
ROOT
ATOM      1  C   UNL A   1      36.753  22.341  23.942  1.00  0.00     0.202 C 
ENDROOT
BRANCH   1   2
ATOM      2  C   UNL A   1      35.684  23.212  24.631  1.00  0.00     0.261 C 
BRANCH   2   3
ATOM      3  O   UNL A   1      34.469  22.463  24.769  1.00  0.00    -0.462 OA
BRANCH   3   4
ATOM      4  C   UNL A   1      34.127  21.940  25.955  1.00  0.00     0.330 C 
ATOM      5  O   UNL A   1      34.897  21.779  26.897  1.00  0.00    -0.250 OA
BRANCH   4   6
ATOM      6  C   UNL A   1      32.663  21.469  25.979  1.00  0.00     0.212 C 
BRANCH   6   7
ATOM      7  C   UNL A   1      32.204  21.087  24.550  1.00  0.00     0.164 C 
BRANCH   7   8
ATOM      8  N   UNL A   1      32.498  19.708  24.151  1.00  0.00    -0.298 N 
ATOM      9  C   UNL A   1      33.186  17.518  24.801  1.00  0.00     0.033 A 
ATOM     10  C   UNL A   1      32.830  18.772  25.112  1.00  0.00     0.100 A 
ATOM     11  C   UNL A   1      33.378  17.214  23.361  1.00  0.00     0.256 A 
ATOM     12  N   UNL A   1      32.836  18.113  22.493  1.00  0.00    -0.274 N 
ATOM     13  O   UNL A   1      33.977  16.215  22.975  1.00  0.00    -0.269 OA
ATOM     14  C   UNL A   1      32.349  19.347  22.824  1.00  0.00     0.328 A 
ATOM     15  H   UNL A   1      32.790  17.850  21.545  1.00  0.00     0.175 HD
ATOM     16  O   UNL A   1      31.848  20.074  21.973  1.00  0.00    -0.248 OA
BRANCH   9  17
ATOM     17  C   UNL A   1      33.355  16.375  25.763  1.00  0.00     0.039 C 
ATOM     18  C   UNL A   1      32.439  15.183  25.495  1.00  0.00     0.009 C 
ENDBRANCH   9  17
ENDBRANCH   7   8
ENDBRANCH   6   7
BRANCH   6  19
ATOM     19  N   UNL A   1      31.605  22.101  26.811  1.00  0.00    -0.334 N 
ATOM     20  C   UNL A   1      30.899  23.280  26.799  1.00  0.00     0.287 C 
ATOM     21  H   UNL A   1      31.342  21.526  27.566  1.00  0.00     0.164 HD
ATOM     22  O   UNL A   1      29.838  23.276  27.431  1.00  0.00    -0.266 OA
BRANCH  20  23
ATOM     23  C   UNL A   1      31.404  24.462  26.148  1.00  0.00     0.191 A 
ATOM     24  C   UNL A   1      31.717  24.737  24.830  1.00  0.00     0.056 A 
ATOM     25  O   UNL A   1      31.425  25.641  26.839  1.00  0.00    -0.459 OA
ATOM     26  C   UNL A   1      32.206  26.065  24.799  1.00  0.00     0.043 A 
ATOM     27  C   UNL A   1      31.914  26.600  26.020  1.00  0.00     0.196 A 
ENDBRANCH  20  23
ENDBRANCH   6  19
ENDBRANCH   4   6
ENDBRANCH   3   4
ENDBRANCH   2   3
ENDBRANCH   1   2
BRANCH   1  28
ATOM     28  O   UNL A   1      37.643  21.698  24.858  1.00  0.00    -0.374 OA
BRANCH  28  29
ATOM     29  C   UNL A   1      37.451  20.284  25.024  1.00  0.00     0.202 C 
BRANCH  29  30
ATOM     30  C   UNL A   1      38.741  19.445  25.019  1.00  0.00     0.261 C 
BRANCH  30  31
ATOM     31  O   UNL A   1      39.423  19.522  26.297  1.00  0.00    -0.460 OA
BRANCH  31  32
ATOM     32  C   UNL A   1      40.765  19.722  26.268  1.00  0.00     0.338 C 
ATOM     33  O   UNL A   1      41.594  18.935  25.832  1.00  0.00    -0.246 OA
BRANCH  32  34
ATOM     34  C   UNL A   1      41.135  21.100  26.707  1.00  0.00     0.060 A 
ATOM     35  C   UNL A   1      41.769  21.384  27.921  1.00  0.00     0.016 A 
ATOM     36  C   UNL A   1      40.820  22.162  25.847  1.00  0.00     0.016 A 
ATOM     37  C   UNL A   1      42.062  22.720  28.277  1.00  0.00     0.010 A 
ATOM     38  C   UNL A   1      41.096  23.491  26.209  1.00  0.00     0.010 A 
ATOM     39  C   UNL A   1      41.722  23.791  27.431  1.00  0.00    -0.014 A 
BRANCH  39  40
ATOM     40  C   UNL A   1      42.184  25.189  27.704  1.00  0.00     0.031 A 
ATOM     41  C   UNL A   1      41.333  26.255  28.345  1.00  0.00     0.074 A 
ATOM     42  C   UNL A   1      43.400  25.545  27.258  1.00  0.00     0.049 A 
ATOM     43  N   UNL A   1      41.607  27.504  28.646  1.00  0.00    -0.248 NA
ATOM     44  C   UNL A   1      39.970  25.865  28.680  1.00  0.00     0.031 C 
ATOM     45  C   UNL A   1      44.327  24.660  26.558  1.00  0.00     0.029 A 
ATOM     46  N   UNL A   1      44.046  26.753  27.303  1.00  0.00    -0.354 N 
ATOM     47  C   UNL A   1      40.449  28.031  29.218  1.00  0.00     0.074 A 
ATOM     48  C   UNL A   1      39.456  26.979  29.178  1.00  0.00     0.031 C 
ATOM     49  C   UNL A   1      45.420  25.359  26.223  1.00  0.00     0.029 A 
ATOM     50  C   UNL A   1      45.263  26.739  26.678  1.00  0.00     0.049 A 
ATOM     51  H   UNL A   1      43.672  27.551  27.742  1.00  0.00     0.167 HD
ATOM     52  C   UNL A   1      40.231  29.267  29.737  1.00  0.00     0.037 A 
ATOM     53  C   UNL A   1      46.157  27.725  26.484  1.00  0.00     0.037 A 
ATOM     54  C   UNL A   1      41.206  30.330  29.743  1.00  0.00     0.049 A 
ATOM     55  C   UNL A   1      45.905  29.094  27.043  1.00  0.00     0.074 A 
ATOM     56  C   UNL A   1      41.120  31.587  30.321  1.00  0.00     0.029 A 
ATOM     57  N   UNL A   1      42.438  30.273  29.107  1.00  0.00    -0.354 N 
ATOM     58  N   UNL A   1      44.867  29.543  27.704  1.00  0.00    -0.248 NA
ATOM     59  C   UNL A   1      46.968  30.088  26.844  1.00  0.00     0.031 C 
ATOM     60  C   UNL A   1      42.269  32.311  29.979  1.00  0.00     0.029 A 
ATOM     61  C   UNL A   1      43.099  31.485  29.239  1.00  0.00     0.049 A 
ATOM     62  H   UNL A   1      42.790  29.487  28.632  1.00  0.00     0.167 HD
ATOM     63  C   UNL A   1      45.158  30.865  28.018  1.00  0.00     0.074 A 
ATOM     64  C   UNL A   1      46.480  31.137  27.490  1.00  0.00     0.031 C 
ATOM     65  C   UNL A   1      44.400  31.768  28.689  1.00  0.00     0.037 A 
BRANCH  52  66
ATOM     66  C   UNL A   1      38.877  29.552  30.337  1.00  0.00     0.057 A 
ATOM     67  C   UNL A   1      37.827  30.044  29.549  1.00  0.00     0.134 A 
ATOM     68  C   UNL A   1      38.625  29.395  31.708  1.00  0.00     0.134 A 
ATOM     69  F   UNL A   1      37.995  30.237  28.232  1.00  0.00    -0.206 F 
ATOM     70  C   UNL A   1      36.581  30.360  30.098  1.00  0.00     0.040 A 
ATOM     71  C   UNL A   1      37.376  29.681  32.264  1.00  0.00     0.040 A 
ATOM     72  F   UNL A   1      39.582  28.931  32.526  1.00  0.00    -0.206 F 
ATOM     73  C   UNL A   1      36.350  30.171  31.458  1.00  0.00     0.006 A 
ENDBRANCH  52  66
BRANCH  53  74
ATOM     74  C   UNL A   1      47.403  27.415  25.748  1.00  0.00     0.057 A 
ATOM     75  C   UNL A   1      47.471  27.530  24.355  1.00  0.00     0.134 A 
ATOM     76  C   UNL A   1      48.535  26.946  26.420  1.00  0.00     0.134 A 
ATOM     77  F   UNL A   1      46.408  27.959  23.659  1.00  0.00    -0.206 F 
ATOM     78  C   UNL A   1      48.619  27.171  23.653  1.00  0.00     0.040 A 
ATOM     79  C   UNL A   1      49.699  26.607  25.732  1.00  0.00     0.040 A 
ATOM     80  F   UNL A   1      48.527  26.828  27.756  1.00  0.00    -0.206 F 
ATOM     81  C   UNL A   1      49.740  26.711  24.343  1.00  0.00     0.006 A 
ENDBRANCH  53  74
BRANCH  65  82
ATOM     82  C   UNL A   1      44.989  33.135  28.895  1.00  0.00     0.057 A 
ATOM     83  C   UNL A   1      44.693  34.184  28.015  1.00  0.00     0.134 A 
ATOM     84  C   UNL A   1      45.848  33.418  29.967  1.00  0.00     0.134 A 
ATOM     85  F   UNL A   1      43.886  33.984  26.963  1.00  0.00    -0.206 F 
ATOM     86  C   UNL A   1      45.220  35.463  28.198  1.00  0.00     0.040 A 
ATOM     87  C   UNL A   1      46.358  34.701  30.176  1.00  0.00     0.040 A 
ATOM     88  F   UNL A   1      46.162  32.463  30.856  1.00  0.00    -0.206 F 
ATOM     89  C   UNL A   1      46.048  35.727  29.287  1.00  0.00     0.006 A 
ENDBRANCH  65  82
ENDBRANCH  39  40
ENDBRANCH  32  34
ENDBRANCH  31  32
ENDBRANCH  30  31
ENDBRANCH  29  30
ENDBRANCH  28  29
ENDBRANCH   1  28
TORSDOF 19
ENDMDL
MODEL 3
REMARK VINA RESULT:     -11.3      1.711      2.951
REMARK SMILES CCc1cn(C[C@H](NC(=O)c2ccco2)C(=O)OCCOCCOC(=O)c2ccc(-c3c4nc(c(-c5c(F)cccc5F)c5ccc([nH]5)c(-c5c(F)cccc5F)c5nc(c(-c6c(F)cccc6F)c6ccc3[nH]6)C=C5)C=C4)cc2)c(=O)[nH]c1=O
REMARK SMILES IDX 20 1 19 2 18 3 16 4 17 5 7 6 6 7 5 8 3 9 4 10 84 11 83 12
REMARK SMILES IDX 85 13 81 14 82 16 2 17 1 18 8 19 9 20 10 22 11 23 12 24
REMARK SMILES IDX 15 25 13 26 14 27 21 28 22 29 23 30 24 31 25 32 26 33 27 34
REMARK SMILES IDX 28 35 80 36 29 37 79 38 30 39 31 40 32 41 73 42 33 43 78 44
REMARK SMILES IDX 72 45 74 46 34 47 77 48 71 49 70 50 35 52 61 53 44 54 60 55
REMARK SMILES IDX 45 56 48 57 59 58 75 59 46 60 47 61 58 63 76 64 49 65 36 66
REMARK SMILES IDX 37 67 42 68 38 69 39 70 41 71 43 72 40 73 62 74 63 75 68 76
REMARK SMILES IDX 64 77 65 78 67 79 69 80 66 81 50 82 51 83 56 84 52 85 53 86
REMARK SMILES IDX 55 87 57 88 54 89
REMARK H PARENT 83 15 8 21 74 51 48 62
REMARK Flexibility Score: inf
ROOT
ATOM      1  C   UNL A   1      32.969  30.677  26.874  1.00  0.00     0.202 C 
ENDROOT
BRANCH   1   2
ATOM      2  C   UNL A   1      33.231  29.455  25.970  1.00  0.00     0.261 C 
BRANCH   2   3
ATOM      3  O   UNL A   1      32.342  29.489  24.846  1.00  0.00    -0.462 OA
BRANCH   3   4
ATOM      4  C   UNL A   1      32.644  28.816  23.725  1.00  0.00     0.330 C 
ATOM      5  O   UNL A   1      33.460  29.185  22.886  1.00  0.00    -0.250 OA
BRANCH   4   6
ATOM      6  C   UNL A   1      31.775  27.558  23.555  1.00  0.00     0.212 C 
BRANCH   6   7
ATOM      7  C   UNL A   1      30.823  27.729  22.346  1.00  0.00     0.164 C 
BRANCH   7   8
ATOM      8  N   UNL A   1      29.712  28.661  22.556  1.00  0.00    -0.298 N 
ATOM      9  C   UNL A   1      28.846  30.867  22.284  1.00  0.00     0.033 A 
ATOM     10  C   UNL A   1      29.792  29.947  22.056  1.00  0.00     0.100 A 
ATOM     11  C   UNL A   1      27.776  30.503  23.247  1.00  0.00     0.256 A 
ATOM     12  N   UNL A   1      27.660  29.174  23.521  1.00  0.00    -0.274 N 
ATOM     13  O   UNL A   1      27.038  31.341  23.755  1.00  0.00    -0.269 OA
ATOM     14  C   UNL A   1      28.562  28.207  23.176  1.00  0.00     0.328 A 
ATOM     15  H   UNL A   1      26.854  28.885  24.009  1.00  0.00     0.175 HD
ATOM     16  O   UNL A   1      28.351  27.027  23.439  1.00  0.00    -0.248 OA
BRANCH   9  17
ATOM     17  C   UNL A   1      28.730  32.211  21.619  1.00  0.00     0.039 C 
ATOM     18  C   UNL A   1      27.858  32.221  20.366  1.00  0.00     0.009 C 
ENDBRANCH   9  17
ENDBRANCH   7   8
ENDBRANCH   6   7
BRANCH   6  19
ATOM     19  N   UNL A   1      31.189  26.799  24.692  1.00  0.00    -0.334 N 
ATOM     20  C   UNL A   1      31.660  25.988  25.696  1.00  0.00     0.287 C 
ATOM     21  H   UNL A   1      30.211  26.906  24.737  1.00  0.00     0.164 HD
ATOM     22  O   UNL A   1      30.916  25.856  26.672  1.00  0.00    -0.266 OA
BRANCH  20  23
ATOM     23  C   UNL A   1      32.912  25.284  25.581  1.00  0.00     0.191 A 
ATOM     24  C   UNL A   1      34.049  25.523  24.833  1.00  0.00     0.056 A 
ATOM     25  O   UNL A   1      33.202  24.296  26.480  1.00  0.00    -0.459 OA
ATOM     26  C   UNL A   1      34.945  24.463  25.108  1.00  0.00     0.043 A 
ATOM     27  C   UNL A   1      34.427  23.804  26.186  1.00  0.00     0.196 A 
ENDBRANCH  20  23
ENDBRANCH   6  19
ENDBRANCH   4   6
ENDBRANCH   3   4
ENDBRANCH   2   3
ENDBRANCH   1   2
BRANCH   1  28
ATOM     28  O   UNL A   1      31.672  31.251  26.695  1.00  0.00    -0.374 OA
BRANCH  28  29
ATOM     29  C   UNL A   1      31.601  32.681  26.813  1.00  0.00     0.202 C 
BRANCH  29  30
ATOM     30  C   UNL A   1      32.726  33.324  27.642  1.00  0.00     0.261 C 
BRANCH  30  31
ATOM     31  O   UNL A   1      32.281  34.557  28.265  1.00  0.00    -0.460 OA
BRANCH  31  32
ATOM     32  C   UNL A   1      33.230  35.324  28.858  1.00  0.00     0.338 C 
ATOM     33  O   UNL A   1      33.121  36.511  29.129  1.00  0.00    -0.246 OA
BRANCH  32  34
ATOM     34  C   UNL A   1      34.412  34.518  29.290  1.00  0.00     0.060 A 
ATOM     35  C   UNL A   1      35.671  34.603  28.687  1.00  0.00     0.016 A 
ATOM     36  C   UNL A   1      34.234  33.626  30.358  1.00  0.00     0.016 A 
ATOM     37  C   UNL A   1      36.733  33.786  29.136  1.00  0.00     0.010 A 
ATOM     38  C   UNL A   1      35.285  32.802  30.792  1.00  0.00     0.010 A 
ATOM     39  C   UNL A   1      36.552  32.868  30.189  1.00  0.00    -0.014 A 
BRANCH  39  40
ATOM     40  C   UNL A   1      37.704  32.129  30.797  1.00  0.00     0.031 A 
ATOM     41  C   UNL A   1      38.424  30.984  30.132  1.00  0.00     0.074 A 
ATOM     42  C   UNL A   1      38.053  32.440  32.056  1.00  0.00     0.049 A 
ATOM     43  N   UNL A   1      39.439  30.259  30.541  1.00  0.00    -0.248 NA
ATOM     44  C   UNL A   1      37.916  30.586  28.826  1.00  0.00     0.031 C 
ATOM     45  C   UNL A   1      37.417  33.474  32.869  1.00  0.00     0.029 A 
ATOM     46  N   UNL A   1      39.004  31.893  32.876  1.00  0.00    -0.354 N 
ATOM     47  C   UNL A   1      39.691  29.334  29.528  1.00  0.00     0.074 A 
ATOM     48  C   UNL A   1      38.691  29.561  28.506  1.00  0.00     0.031 C 
ATOM     49  C   UNL A   1      37.988  33.478  34.083  1.00  0.00     0.029 A 
ATOM     50  C   UNL A   1      39.018  32.442  34.130  1.00  0.00     0.049 A 
ATOM     51  H   UNL A   1      39.617  31.177  32.592  1.00  0.00     0.167 HD
ATOM     52  C   UNL A   1      40.665  28.390  29.446  1.00  0.00     0.037 A 
ATOM     53  C   UNL A   1      39.771  32.147  35.204  1.00  0.00     0.037 A 
ATOM     54  C   UNL A   1      41.639  28.136  30.479  1.00  0.00     0.049 A 
ATOM     55  C   UNL A   1      40.834  31.092  35.116  1.00  0.00     0.074 A 
ATOM     56  C   UNL A   1      42.721  27.269  30.460  1.00  0.00     0.029 A 
ATOM     57  N   UNL A   1      41.628  28.724  31.735  1.00  0.00    -0.354 N 
ATOM     58  N   UNL A   1      41.155  30.320  34.108  1.00  0.00    -0.248 NA
ATOM     59  C   UNL A   1      41.654  30.888  36.317  1.00  0.00     0.031 C 
ATOM     60  C   UNL A   1      43.321  27.284  31.725  1.00  0.00     0.029 A 
ATOM     61  C   UNL A   1      42.652  28.206  32.513  1.00  0.00     0.049 A 
ATOM     62  H   UNL A   1      40.986  29.408  32.030  1.00  0.00     0.167 HD
ATOM     63  C   UNL A   1      42.228  29.552  34.544  1.00  0.00     0.074 A 
ATOM     64  C   UNL A   1      42.513  29.967  35.903  1.00  0.00     0.031 C 
ATOM     65  C   UNL A   1      42.918  28.594  33.875  1.00  0.00     0.037 A 
BRANCH  52  66
ATOM     66  C   UNL A   1      40.727  27.546  28.197  1.00  0.00     0.057 A 
ATOM     67  C   UNL A   1      40.076  26.306  28.131  1.00  0.00     0.134 A 
ATOM     68  C   UNL A   1      41.479  27.933  27.077  1.00  0.00     0.134 A 
ATOM     69  F   UNL A   1      39.352  25.860  29.168  1.00  0.00    -0.206 F 
ATOM     70  C   UNL A   1      40.164  25.489  27.000  1.00  0.00     0.040 A 
ATOM     71  C   UNL A   1      41.552  27.137  25.931  1.00  0.00     0.040 A 
ATOM     72  F   UNL A   1      42.131  29.105  27.068  1.00  0.00    -0.206 F 
ATOM     73  C   UNL A   1      40.897  25.907  25.893  1.00  0.00     0.006 A 
ENDBRANCH  52  66
BRANCH  53  74
ATOM     74  C   UNL A   1      39.553  32.912  36.453  1.00  0.00     0.057 A 
ATOM     75  C   UNL A   1      38.576  32.527  37.378  1.00  0.00     0.134 A 
ATOM     76  C   UNL A   1      40.280  34.076  36.717  1.00  0.00     0.134 A 
ATOM     77  F   UNL A   1      37.838  31.428  37.166  1.00  0.00    -0.206 F 
ATOM     78  C   UNL A   1      38.320  33.284  38.519  1.00  0.00     0.040 A 
ATOM     79  C   UNL A   1      40.051  34.829  37.867  1.00  0.00     0.040 A 
ATOM     80  F   UNL A   1      41.235  34.482  35.868  1.00  0.00    -0.206 F 
ATOM     81  C   UNL A   1      39.061  34.438  38.768  1.00  0.00     0.006 A 
ENDBRANCH  53  74
BRANCH  65  82
ATOM     82  C   UNL A   1      44.053  27.934  34.605  1.00  0.00     0.057 A 
ATOM     83  C   UNL A   1      45.336  28.496  34.597  1.00  0.00     0.134 A 
ATOM     84  C   UNL A   1      43.879  26.742  35.322  1.00  0.00     0.134 A 
ATOM     85  F   UNL A   1      45.578  29.632  33.924  1.00  0.00    -0.206 F 
ATOM     86  C   UNL A   1      46.399  27.904  35.280  1.00  0.00     0.040 A 
ATOM     87  C   UNL A   1      44.928  26.155  36.033  1.00  0.00     0.040 A 
ATOM     88  F   UNL A   1      42.673  26.156  35.384  1.00  0.00    -0.206 F 
ATOM     89  C   UNL A   1      46.194  26.735  36.009  1.00  0.00     0.006 A 
ENDBRANCH  65  82
ENDBRANCH  39  40
ENDBRANCH  32  34
ENDBRANCH  31  32
ENDBRANCH  30  31
ENDBRANCH  29  30
ENDBRANCH  28  29
ENDBRANCH   1  28
TORSDOF 19
ENDMDL
