MODEL 1
REMARK VINA RESULT:     -11.1      0.000      0.000
REMARK SMILES CCn1ccc2cc(S(=O)(=O)N3CCC[C@@H](C(=O)OCCOCCOC(=O)c4ccc(-c5c6nc(c(-c7c(F)cccc7F)c7ccc([nH]7)c(-c7c(F)cccc7F)c7nc(c(-c8c(F)cccc8F)c8ccc5[nH]8)C=C7)C=C6)cc4)C3)ccc21
REMARK SMILES IDX 21 1 20 2 19 3 17 4 18 5 16 6 12 7 13 8 82 9 14 10 15 11
REMARK SMILES IDX 9 12 10 13 11 14 8 15 3 16 4 17 85 18 5 19 6 20 84 21 7 22
REMARK SMILES IDX 83 23 2 24 1 25 22 26 23 27 24 28 25 29 26 30 27 31 28 32
REMARK SMILES IDX 29 33 81 34 30 35 80 36 31 37 32 38 33 39 74 40 34 41 79 42
REMARK SMILES IDX 73 43 75 44 35 45 78 46 72 47 71 48 36 50 62 51 45 52 61 53
REMARK SMILES IDX 46 54 49 55 60 56 76 57 47 58 48 59 59 61 77 62 50 63 37 64
REMARK SMILES IDX 38 65 43 66 39 67 40 68 42 69 44 70 41 71 63 72 64 73 69 74
REMARK SMILES IDX 65 75 66 76 68 77 70 78 67 79 51 80 52 81 57 82 53 83 54 84
REMARK SMILES IDX 56 85 58 86 55 87
REMARK H PARENT 75 49 49 60
REMARK Flexibility Score: inf
ROOT
ATOM      1  C   UNL A   1      43.163  18.492  25.798  1.00  0.00     0.202 C 
ENDROOT
BRANCH   1   2
ATOM      2  C   UNL A   1      42.563  19.896  25.890  1.00  0.00     0.261 C 
BRANCH   2   3
ATOM      3  O   UNL A   1      41.142  19.851  25.888  1.00  0.00    -0.463 OA
BRANCH   3   4
ATOM      4  C   UNL A   1      40.573  20.719  26.759  1.00  0.00     0.310 C 
ATOM      5  O   UNL A   1      40.519  20.583  27.973  1.00  0.00    -0.252 OA
BRANCH   4   6
ATOM      6  C   UNL A   1      40.019  21.900  26.007  1.00  0.00     0.114 C 
ATOM      7  N   UNL A   1      37.625  22.640  25.640  1.00  0.00    -0.197 NA
ATOM      8  C   UNL A   1      37.878  23.820  26.494  1.00  0.00     0.102 C 
ATOM      9  C   UNL A   1      38.607  21.535  25.593  1.00  0.00     0.117 C 
ATOM     10  C   UNL A   1      39.324  24.266  26.395  1.00  0.00     0.018 C 
ATOM     11  C   UNL A   1      40.216  23.144  26.867  1.00  0.00     0.018 C 
BRANCH   7  12
ATOM     12  S   UNL A   1      36.000  22.130  25.520  1.00  0.00     0.243 S 
ATOM     13  O   UNL A   1      35.507  21.965  26.869  1.00  0.00    -0.207 OA
ATOM     14  O   UNL A   1      35.951  21.048  24.556  1.00  0.00    -0.207 OA
BRANCH  12  15
ATOM     15  C   UNL A   1      35.083  23.490  24.811  1.00  0.00     0.083 A 
ATOM     16  N   UNL A   1      32.879  26.806  23.692  1.00  0.00    -0.348 N 
ATOM     17  C   UNL A   1      32.809  27.501  24.873  1.00  0.00     0.087 A 
ATOM     18  C   UNL A   1      33.629  25.659  23.866  1.00  0.00     0.048 A 
ATOM     19  C   UNL A   1      33.519  26.806  25.823  1.00  0.00     0.028 A 
ATOM     20  C   UNL A   1      34.022  25.630  25.208  1.00  0.00     0.001 A 
ATOM     21  C   UNL A   1      33.978  24.637  22.974  1.00  0.00     0.028 A 
ATOM     22  C   UNL A   1      34.768  24.537  25.687  1.00  0.00     0.032 A 
ATOM     23  C   UNL A   1      34.698  23.547  23.471  1.00  0.00     0.024 A 
BRANCH  16  24
ATOM     24  C   UNL A   1      32.168  27.189  22.484  1.00  0.00     0.119 C 
ATOM     25  C   UNL A   1      30.660  27.103  22.626  1.00  0.00     0.027 C 
ENDBRANCH  16  24
ENDBRANCH  12  15
ENDBRANCH   7  12
ENDBRANCH   4   6
ENDBRANCH   3   4
ENDBRANCH   2   3
ENDBRANCH   1   2
BRANCH   1  26
ATOM     26  O   UNL A   1      44.302  18.269  24.978  1.00  0.00    -0.374 OA
BRANCH  26  27
ATOM     27  C   UNL A   1      45.585  18.649  25.475  1.00  0.00     0.202 C 
BRANCH  27  28
ATOM     28  C   UNL A   1      46.379  19.798  24.816  1.00  0.00     0.261 C 
BRANCH  28  29
ATOM     29  O   UNL A   1      46.024  21.092  25.326  1.00  0.00    -0.460 OA
BRANCH  29  30
ATOM     30  C   UNL A   1      45.141  21.796  24.560  1.00  0.00     0.338 C 
ATOM     31  O   UNL A   1      44.679  21.484  23.477  1.00  0.00    -0.246 OA
BRANCH  30  32
ATOM     32  C   UNL A   1      44.521  22.770  25.484  1.00  0.00     0.060 A 
ATOM     33  C   UNL A   1      43.552  23.667  25.027  1.00  0.00     0.016 A 
ATOM     34  C   UNL A   1      45.234  23.006  26.671  1.00  0.00     0.016 A 
ATOM     35  C   UNL A   1      43.380  24.870  25.706  1.00  0.00     0.010 A 
ATOM     36  C   UNL A   1      45.106  24.233  27.305  1.00  0.00     0.010 A 
ATOM     37  C   UNL A   1      44.211  25.182  26.796  1.00  0.00    -0.014 A 
BRANCH  37  38
ATOM     38  C   UNL A   1      43.975  26.427  27.535  1.00  0.00     0.031 A 
ATOM     39  C   UNL A   1      45.007  27.461  27.218  1.00  0.00     0.074 A 
ATOM     40  C   UNL A   1      42.865  26.694  28.261  1.00  0.00     0.049 A 
ATOM     41  N   UNL A   1      45.765  28.126  28.027  1.00  0.00    -0.248 NA
ATOM     42  C   UNL A   1      45.326  27.676  25.792  1.00  0.00     0.031 C 
ATOM     43  C   UNL A   1      41.668  25.869  28.419  1.00  0.00     0.029 A 
ATOM     44  N   UNL A   1      42.522  27.822  28.955  1.00  0.00    -0.354 N 
ATOM     45  C   UNL A   1      46.528  28.971  27.220  1.00  0.00     0.074 A 
ATOM     46  C   UNL A   1      46.338  28.536  25.866  1.00  0.00     0.031 C 
ATOM     47  C   UNL A   1      40.670  26.587  28.978  1.00  0.00     0.029 A 
ATOM     48  C   UNL A   1      41.171  27.907  29.295  1.00  0.00     0.049 A 
ATOM     49  H   UNL A   1      43.176  28.517  29.196  1.00  0.00     0.167 HD
ATOM     50  C   UNL A   1      47.069  30.121  27.699  1.00  0.00     0.037 A 
ATOM     51  C   UNL A   1      40.489  29.000  29.729  1.00  0.00     0.037 A 
ATOM     52  C   UNL A   1      47.212  30.072  29.128  1.00  0.00     0.049 A 
ATOM     53  C   UNL A   1      41.487  29.990  30.192  1.00  0.00     0.074 A 
ATOM     54  C   UNL A   1      47.941  29.301  30.009  1.00  0.00     0.029 A 
ATOM     55  N   UNL A   1      46.264  30.710  29.886  1.00  0.00    -0.354 N 
ATOM     56  N   UNL A   1      42.221  29.827  31.256  1.00  0.00    -0.248 NA
ATOM     57  C   UNL A   1      42.006  30.919  29.201  1.00  0.00     0.031 C 
ATOM     58  C   UNL A   1      47.095  29.140  31.145  1.00  0.00     0.029 A 
ATOM     59  C   UNL A   1      45.928  29.868  30.912  1.00  0.00     0.049 A 
ATOM     60  H   UNL A   1      45.893  31.607  29.723  1.00  0.00     0.167 HD
ATOM     61  C   UNL A   1      43.477  30.280  30.884  1.00  0.00     0.074 A 
ATOM     62  C   UNL A   1      43.270  30.995  29.625  1.00  0.00     0.031 C 
ATOM     63  C   UNL A   1      44.604  29.790  31.474  1.00  0.00     0.037 A 
BRANCH  50  64
ATOM     64  C   UNL A   1      47.061  31.427  26.934  1.00  0.00     0.057 A 
ATOM     65  C   UNL A   1      45.895  32.121  26.546  1.00  0.00     0.134 A 
ATOM     66  C   UNL A   1      48.247  32.184  26.882  1.00  0.00     0.134 A 
ATOM     67  F   UNL A   1      44.678  31.564  26.559  1.00  0.00    -0.206 F 
ATOM     68  C   UNL A   1      45.895  33.476  26.212  1.00  0.00     0.040 A 
ATOM     69  C   UNL A   1      48.250  33.553  26.594  1.00  0.00     0.040 A 
ATOM     70  F   UNL A   1      49.428  31.636  27.206  1.00  0.00    -0.206 F 
ATOM     71  C   UNL A   1      47.068  34.209  26.278  1.00  0.00     0.006 A 
ENDBRANCH  50  64
BRANCH  51  72
ATOM     72  C   UNL A   1      39.078  29.371  29.454  1.00  0.00     0.057 A 
ATOM     73  C   UNL A   1      38.106  29.347  30.471  1.00  0.00     0.134 A 
ATOM     74  C   UNL A   1      38.586  29.504  28.147  1.00  0.00     0.134 A 
ATOM     75  F   UNL A   1      38.448  29.133  31.750  1.00  0.00    -0.206 F 
ATOM     76  C   UNL A   1      36.735  29.451  30.210  1.00  0.00     0.040 A 
ATOM     77  C   UNL A   1      37.213  29.603  27.869  1.00  0.00     0.040 A 
ATOM     78  F   UNL A   1      39.424  29.484  27.099  1.00  0.00    -0.206 F 
ATOM     79  C   UNL A   1      36.283  29.569  28.903  1.00  0.00     0.006 A 
ENDBRANCH  51  72
BRANCH  63  80
ATOM     80  C   UNL A   1      44.435  28.905  32.675  1.00  0.00     0.057 A 
ATOM     81  C   UNL A   1      44.620  29.461  33.943  1.00  0.00     0.134 A 
ATOM     82  C   UNL A   1      44.271  27.513  32.603  1.00  0.00     0.134 A 
ATOM     83  F   UNL A   1      44.837  30.778  34.078  1.00  0.00    -0.206 F 
ATOM     84  C   UNL A   1      44.646  28.671  35.093  1.00  0.00     0.040 A 
ATOM     85  C   UNL A   1      44.264  26.714  33.750  1.00  0.00     0.040 A 
ATOM     86  F   UNL A   1      44.180  26.885  31.424  1.00  0.00    -0.206 F 
ATOM     87  C   UNL A   1      44.465  27.296  34.999  1.00  0.00     0.006 A 
ENDBRANCH  63  80
ENDBRANCH  37  38
ENDBRANCH  30  32
ENDBRANCH  29  30
ENDBRANCH  28  29
ENDBRANCH  27  28
ENDBRANCH  26  27
ENDBRANCH   1  26
TORSDOF 17
ENDMDL
MODEL 2
REMARK VINA RESULT:     -10.6      3.240      5.496
REMARK SMILES CCn1ccc2cc(S(=O)(=O)N3CCC[C@@H](C(=O)OCCOCCOC(=O)c4ccc(-c5c6nc(c(-c7c(F)cccc7F)c7ccc([nH]7)c(-c7c(F)cccc7F)c7nc(c(-c8c(F)cccc8F)c8ccc5[nH]8)C=C7)C=C6)cc4)C3)ccc21
REMARK SMILES IDX 21 1 20 2 19 3 17 4 18 5 16 6 12 7 13 8 82 9 14 10 15 11
REMARK SMILES IDX 9 12 10 13 11 14 8 15 3 16 4 17 85 18 5 19 6 20 84 21 7 22
REMARK SMILES IDX 83 23 2 24 1 25 22 26 23 27 24 28 25 29 26 30 27 31 28 32
REMARK SMILES IDX 29 33 81 34 30 35 80 36 31 37 32 38 33 39 74 40 34 41 79 42
REMARK SMILES IDX 73 43 75 44 35 45 78 46 72 47 71 48 36 50 62 51 45 52 61 53
REMARK SMILES IDX 46 54 49 55 60 56 76 57 47 58 48 59 59 61 77 62 50 63 37 64
REMARK SMILES IDX 38 65 43 66 39 67 40 68 42 69 44 70 41 71 63 72 64 73 69 74
REMARK SMILES IDX 65 75 66 76 68 77 70 78 67 79 51 80 52 81 57 82 53 83 54 84
REMARK SMILES IDX 56 85 58 86 55 87
REMARK H PARENT 75 49 49 60
REMARK Flexibility Score: inf
ROOT
ATOM      1  C   UNL A   1      35.503  22.121  25.905  1.00  0.00     0.202 C 
ENDROOT
BRANCH   1   2
ATOM      2  C   UNL A   1      34.306  21.446  26.576  1.00  0.00     0.261 C 
BRANCH   2   3
ATOM      3  O   UNL A   1      33.084  22.069  26.198  1.00  0.00    -0.463 OA
BRANCH   3   4
ATOM      4  C   UNL A   1      32.377  21.360  25.285  1.00  0.00     0.310 C 
ATOM      5  O   UNL A   1      32.073  20.179  25.375  1.00  0.00    -0.252 OA
BRANCH   4   6
ATOM      6  C   UNL A   1      32.003  22.253  24.132  1.00  0.00     0.114 C 
ATOM      7  N   UNL A   1      32.411  24.727  23.768  1.00  0.00    -0.197 NA
ATOM      8  C   UNL A   1      33.348  24.392  22.675  1.00  0.00     0.102 C 
ATOM      9  C   UNL A   1      31.925  23.665  24.677  1.00  0.00     0.117 C 
ATOM     10  C   UNL A   1      32.944  23.105  21.982  1.00  0.00     0.018 C 
ATOM     11  C   UNL A   1      32.972  21.979  22.986  1.00  0.00     0.018 C 
BRANCH   7  12
ATOM     12  S   UNL A   1      32.644  26.238  24.526  1.00  0.00     0.243 S 
ATOM     13  O   UNL A   1      33.958  26.705  24.145  1.00  0.00    -0.207 OA
ATOM     14  O   UNL A   1      32.264  26.092  25.918  1.00  0.00    -0.207 OA
BRANCH  12  15
ATOM     15  C   UNL A   1      31.474  27.371  23.792  1.00  0.00     0.083 A 
ATOM     16  N   UNL A   1      28.375  29.619  22.229  1.00  0.00    -0.348 N 
ATOM     17  C   UNL A   1      27.278  28.953  22.716  1.00  0.00     0.087 A 
ATOM     18  C   UNL A   1      29.531  29.020  22.690  1.00  0.00     0.048 A 
ATOM     19  C   UNL A   1      27.721  27.915  23.501  1.00  0.00     0.028 A 
ATOM     20  C   UNL A   1      29.139  27.931  23.475  1.00  0.00     0.001 A 
ATOM     21  C   UNL A   1      30.881  29.324  22.471  1.00  0.00     0.028 A 
ATOM     22  C   UNL A   1      30.122  27.100  24.043  1.00  0.00     0.032 A 
ATOM     23  C   UNL A   1      31.843  28.474  23.022  1.00  0.00     0.024 A 
BRANCH  16  24
ATOM     24  C   UNL A   1      28.298  30.721  21.283  1.00  0.00     0.119 C 
ATOM     25  C   UNL A   1      28.513  32.077  21.928  1.00  0.00     0.027 C 
ENDBRANCH  16  24
ENDBRANCH  12  15
ENDBRANCH   7  12
ENDBRANCH   4   6
ENDBRANCH   3   4
ENDBRANCH   2   3
ENDBRANCH   1   2
BRANCH   1  26
ATOM     26  O   UNL A   1      36.767  21.473  25.912  1.00  0.00    -0.374 OA
BRANCH  26  27
ATOM     27  C   UNL A   1      37.917  22.217  25.509  1.00  0.00     0.202 C 
BRANCH  27  28
ATOM     28  C   UNL A   1      39.303  21.922  26.122  1.00  0.00     0.261 C 
BRANCH  28  29
ATOM     29  O   UNL A   1      39.597  22.737  27.266  1.00  0.00    -0.460 OA
BRANCH  29  30
ATOM     30  C   UNL A   1      40.687  23.550  27.137  1.00  0.00     0.338 C 
ATOM     31  O   UNL A   1      41.565  23.489  26.297  1.00  0.00    -0.246 OA
BRANCH  30  32
ATOM     32  C   UNL A   1      40.358  24.760  27.919  1.00  0.00     0.060 A 
ATOM     33  C   UNL A   1      39.274  25.567  27.559  1.00  0.00     0.016 A 
ATOM     34  C   UNL A   1      41.394  25.249  28.730  1.00  0.00     0.016 A 
ATOM     35  C   UNL A   1      39.291  26.910  27.921  1.00  0.00     0.010 A 
ATOM     36  C   UNL A   1      41.438  26.603  29.032  1.00  0.00     0.010 A 
ATOM     37  C   UNL A   1      40.408  27.441  28.589  1.00  0.00    -0.014 A 
BRANCH  37  38
ATOM     38  C   UNL A   1      40.381  28.845  29.014  1.00  0.00     0.031 A 
ATOM     39  C   UNL A   1      41.589  29.588  28.541  1.00  0.00     0.074 A 
ATOM     40  C   UNL A   1      39.319  29.457  29.588  1.00  0.00     0.049 A 
ATOM     41  N   UNL A   1      42.433  30.285  29.229  1.00  0.00    -0.248 NA
ATOM     42  C   UNL A   1      41.976  29.410  27.127  1.00  0.00     0.031 C 
ATOM     43  C   UNL A   1      37.990  28.904  29.847  1.00  0.00     0.029 A 
ATOM     44  N   UNL A   1      39.167  30.755  29.988  1.00  0.00    -0.354 N 
ATOM     45  C   UNL A   1      43.355  30.779  28.305  1.00  0.00     0.074 A 
ATOM     46  C   UNL A   1      43.124  30.081  27.073  1.00  0.00     0.031 C 
ATOM     47  C   UNL A   1      37.124  29.890  30.166  1.00  0.00     0.029 A 
ATOM     48  C   UNL A   1      37.845  31.143  30.212  1.00  0.00     0.049 A 
ATOM     49  H   UNL A   1      39.928  31.366  30.111  1.00  0.00     0.167 HD
ATOM     50  C   UNL A   1      44.082  31.900  28.550  1.00  0.00     0.037 A 
ATOM     51  C   UNL A   1      37.359  32.406  30.346  1.00  0.00     0.037 A 
ATOM     52  C   UNL A   1      44.178  32.160  29.960  1.00  0.00     0.049 A 
ATOM     53  C   UNL A   1      38.506  33.293  30.640  1.00  0.00     0.074 A 
ATOM     54  C   UNL A   1      44.735  31.502  31.036  1.00  0.00     0.029 A 
ATOM     55  N   UNL A   1      43.341  33.106  30.493  1.00  0.00    -0.354 N 
ATOM     56  N   UNL A   1      39.173  33.259  31.758  1.00  0.00    -0.248 NA
ATOM     57  C   UNL A   1      39.208  33.866  29.503  1.00  0.00     0.031 C 
ATOM     58  C   UNL A   1      43.846  31.753  32.122  1.00  0.00     0.029 A 
ATOM     59  C   UNL A   1      42.835  32.594  31.656  1.00  0.00     0.049 A 
ATOM     60  H   UNL A   1      43.141  33.990  30.109  1.00  0.00     0.167 HD
ATOM     61  C   UNL A   1      40.498  33.395  31.377  1.00  0.00     0.074 A 
ATOM     62  C   UNL A   1      40.454  33.824  29.980  1.00  0.00     0.031 C 
ATOM     63  C   UNL A   1      41.504  32.873  32.134  1.00  0.00     0.037 A 
BRANCH  50  64
ATOM     64  C   UNL A   1      44.327  32.976  27.513  1.00  0.00     0.057 A 
ATOM     65  C   UNL A   1      43.628  34.200  27.449  1.00  0.00     0.134 A 
ATOM     66  C   UNL A   1      45.521  32.935  26.770  1.00  0.00     0.134 A 
ATOM     67  F   UNL A   1      42.488  34.424  28.114  1.00  0.00    -0.206 F 
ATOM     68  C   UNL A   1      44.117  35.318  26.770  1.00  0.00     0.040 A 
ATOM     69  C   UNL A   1      46.042  34.062  26.126  1.00  0.00     0.040 A 
ATOM     70  F   UNL A   1      46.270  31.822  26.730  1.00  0.00    -0.206 F 
ATOM     71  C   UNL A   1      45.350  35.266  26.142  1.00  0.00     0.006 A 
ENDBRANCH  50  64
BRANCH  51  72
ATOM     72  C   UNL A   1      36.044  32.935  29.903  1.00  0.00     0.057 A 
ATOM     73  C   UNL A   1      35.678  32.935  28.544  1.00  0.00     0.134 A 
ATOM     74  C   UNL A   1      35.223  33.691  30.753  1.00  0.00     0.134 A 
ATOM     75  F   UNL A   1      36.437  32.323  27.624  1.00  0.00    -0.206 F 
ATOM     76  C   UNL A   1      34.568  33.636  28.061  1.00  0.00     0.040 A 
ATOM     77  C   UNL A   1      34.111  34.405  30.281  1.00  0.00     0.040 A 
ATOM     78  F   UNL A   1      35.515  33.802  32.058  1.00  0.00    -0.206 F 
ATOM     79  C   UNL A   1      33.784  34.384  28.928  1.00  0.00     0.006 A 
ENDBRANCH  51  72
BRANCH  63  80
ATOM     80  C   UNL A   1      41.150  32.331  33.489  1.00  0.00     0.057 A 
ATOM     81  C   UNL A   1      41.413  33.120  34.611  1.00  0.00     0.134 A 
ATOM     82  C   UNL A   1      40.728  31.012  33.717  1.00  0.00     0.134 A 
ATOM     83  F   UNL A   1      41.872  34.371  34.464  1.00  0.00    -0.206 F 
ATOM     84  C   UNL A   1      41.269  32.623  35.907  1.00  0.00     0.040 A 
ATOM     85  C   UNL A   1      40.550  30.511  35.010  1.00  0.00     0.040 A 
ATOM     86  F   UNL A   1      40.542  30.157  32.703  1.00  0.00    -0.206 F 
ATOM     87  C   UNL A   1      40.834  31.317  36.109  1.00  0.00     0.006 A 
ENDBRANCH  63  80
ENDBRANCH  37  38
ENDBRANCH  30  32
ENDBRANCH  29  30
ENDBRANCH  28  29
ENDBRANCH  27  28
ENDBRANCH  26  27
ENDBRANCH   1  26
TORSDOF 17
ENDMDL
MODEL 3
REMARK VINA RESULT:     -10.5      3.821      8.893
REMARK SMILES CCn1ccc2cc(S(=O)(=O)N3CCC[C@@H](C(=O)OCCOCCOC(=O)c4ccc(-c5c6nc(c(-c7c(F)cccc7F)c7ccc([nH]7)c(-c7c(F)cccc7F)c7nc(c(-c8c(F)cccc8F)c8ccc5[nH]8)C=C7)C=C6)cc4)C3)ccc21
REMARK SMILES IDX 21 1 20 2 19 3 17 4 18 5 16 6 12 7 13 8 82 9 14 10 15 11
REMARK SMILES IDX 9 12 10 13 11 14 8 15 3 16 4 17 85 18 5 19 6 20 84 21 7 22
REMARK SMILES IDX 83 23 2 24 1 25 22 26 23 27 24 28 25 29 26 30 27 31 28 32
REMARK SMILES IDX 29 33 81 34 30 35 80 36 31 37 32 38 33 39 74 40 34 41 79 42
REMARK SMILES IDX 73 43 75 44 35 45 78 46 72 47 71 48 36 50 62 51 45 52 61 53
REMARK SMILES IDX 46 54 49 55 60 56 76 57 47 58 48 59 59 61 77 62 50 63 37 64
REMARK SMILES IDX 38 65 43 66 39 67 40 68 42 69 44 70 41 71 63 72 64 73 69 74
REMARK SMILES IDX 65 75 66 76 68 77 70 78 67 79 51 80 52 81 57 82 53 83 54 84
REMARK SMILES IDX 56 85 58 86 55 87
REMARK H PARENT 75 49 49 60
REMARK Flexibility Score: inf
ROOT
ATOM      1  C   UNL A   1      31.699  29.685  25.984  1.00  0.00     0.202 C 
ENDROOT
BRANCH   1   2
ATOM      2  C   UNL A   1      31.121  30.380  24.750  1.00  0.00     0.261 C 
BRANCH   2   3
ATOM      3  O   UNL A   1      30.712  29.435  23.769  1.00  0.00    -0.463 OA
BRANCH   3   4
ATOM      4  C   UNL A   1      31.734  28.699  23.270  1.00  0.00     0.310 C 
ATOM      5  O   UNL A   1      32.836  29.125  22.953  1.00  0.00    -0.252 OA
BRANCH   4   6
ATOM      6  C   UNL A   1      31.317  27.255  23.172  1.00  0.00     0.114 C 
ATOM      7  N   UNL A   1      31.661  25.331  24.784  1.00  0.00    -0.197 NA
ATOM      8  C   UNL A   1      30.206  25.310  25.040  1.00  0.00     0.102 C 
ATOM      9  C   UNL A   1      32.267  26.463  24.048  1.00  0.00     0.117 C 
ATOM     10  C   UNL A   1      29.428  25.756  23.817  1.00  0.00     0.018 C 
ATOM     11  C   UNL A   1      29.824  27.171  23.473  1.00  0.00     0.018 C 
BRANCH   7  12
ATOM     12  S   UNL A   1      32.654  24.693  26.017  1.00  0.00     0.243 S 
ATOM     13  O   UNL A   1      31.883  24.721  27.239  1.00  0.00    -0.207 OA
ATOM     14  O   UNL A   1      33.946  25.344  25.919  1.00  0.00    -0.207 OA
BRANCH  12  15
ATOM     15  C   UNL A   1      32.918  22.969  25.627  1.00  0.00     0.083 A 
ATOM     16  N   UNL A   1      34.068  19.113  24.673  1.00  0.00    -0.348 N 
ATOM     17  C   UNL A   1      35.434  19.203  24.763  1.00  0.00     0.087 A 
ATOM     18  C   UNL A   1      33.495  20.326  25.003  1.00  0.00     0.048 A 
ATOM     19  C   UNL A   1      35.755  20.480  25.158  1.00  0.00     0.028 A 
ATOM     20  C   UNL A   1      34.543  21.206  25.290  1.00  0.00     0.001 A 
ATOM     21  C   UNL A   1      32.155  20.733  25.054  1.00  0.00     0.028 A 
ATOM     22  C   UNL A   1      34.253  22.543  25.617  1.00  0.00     0.032 A 
ATOM     23  C   UNL A   1      31.886  22.071  25.356  1.00  0.00     0.024 A 
BRANCH  16  24
ATOM     24  C   UNL A   1      33.364  17.935  24.191  1.00  0.00     0.119 C 
ATOM     25  C   UNL A   1      34.208  17.069  23.275  1.00  0.00     0.027 C 
ENDBRANCH  16  24
ENDBRANCH  12  15
ENDBRANCH   7  12
ENDBRANCH   4   6
ENDBRANCH   3   4
ENDBRANCH   2   3
ENDBRANCH   1   2
BRANCH   1  26
ATOM     26  O   UNL A   1      32.855  30.221  26.612  1.00  0.00    -0.374 OA
BRANCH  26  27
ATOM     27  C   UNL A   1      34.060  29.455  26.589  1.00  0.00     0.202 C 
BRANCH  27  28
ATOM     28  C   UNL A   1      35.071  29.540  27.753  1.00  0.00     0.261 C 
BRANCH  28  29
ATOM     29  O   UNL A   1      36.085  30.535  27.546  1.00  0.00    -0.460 OA
BRANCH  29  30
ATOM     30  C   UNL A   1      37.011  30.639  28.543  1.00  0.00     0.338 C 
ATOM     31  O   UNL A   1      36.932  31.290  29.568  1.00  0.00    -0.246 OA
BRANCH  30  32
ATOM     32  C   UNL A   1      37.909  29.480  28.356  1.00  0.00     0.060 A 
ATOM     33  C   UNL A   1      38.066  28.530  29.371  1.00  0.00     0.016 A 
ATOM     34  C   UNL A   1      38.858  29.616  27.330  1.00  0.00     0.016 A 
ATOM     35  C   UNL A   1      39.245  27.793  29.420  1.00  0.00     0.010 A 
ATOM     36  C   UNL A   1      40.058  28.926  27.422  1.00  0.00     0.010 A 
ATOM     37  C   UNL A   1      40.269  28.049  28.491  1.00  0.00    -0.014 A 
BRANCH  37  38
ATOM     38  C   UNL A   1      41.479  27.220  28.522  1.00  0.00     0.031 A 
ATOM     39  C   UNL A   1      42.286  27.467  29.757  1.00  0.00     0.074 A 
ATOM     40  C   UNL A   1      41.749  26.215  27.657  1.00  0.00     0.049 A 
ATOM     41  N   UNL A   1      43.534  27.789  29.860  1.00  0.00    -0.248 NA
ATOM     42  C   UNL A   1      41.557  27.492  31.041  1.00  0.00     0.031 C 
ATOM     43  C   UNL A   1      40.906  25.701  26.578  1.00  0.00     0.029 A 
ATOM     44  N   UNL A   1      42.816  25.361  27.612  1.00  0.00    -0.354 N 
ATOM     45  C   UNL A   1      43.787  27.880  31.229  1.00  0.00     0.074 A 
ATOM     46  C   UNL A   1      42.514  27.853  31.891  1.00  0.00     0.031 C 
ATOM     47  C   UNL A   1      41.387  24.524  26.125  1.00  0.00     0.029 A 
ATOM     48  C   UNL A   1      42.619  24.227  26.823  1.00  0.00     0.049 A 
ATOM     49  H   UNL A   1      43.656  25.532  28.096  1.00  0.00     0.167 HD
ATOM     50  C   UNL A   1      45.038  27.724  31.737  1.00  0.00     0.037 A 
ATOM     51  C   UNL A   1      43.364  23.090  26.798  1.00  0.00     0.037 A 
ATOM     52  C   UNL A   1      46.039  27.989  30.741  1.00  0.00     0.049 A 
ATOM     53  C   UNL A   1      44.666  23.398  27.430  1.00  0.00     0.074 A 
ATOM     54  C   UNL A   1      46.418  29.095  30.008  1.00  0.00     0.029 A 
ATOM     55  N   UNL A   1      46.623  26.914  30.122  1.00  0.00    -0.354 N 
ATOM     56  N   UNL A   1      45.556  24.185  26.895  1.00  0.00    -0.248 NA
ATOM     57  C   UNL A   1      44.759  23.226  28.871  1.00  0.00     0.031 C 
ATOM     58  C   UNL A   1      46.793  28.581  28.733  1.00  0.00     0.029 A 
ATOM     59  C   UNL A   1      46.675  27.192  28.783  1.00  0.00     0.049 A 
ATOM     60  H   UNL A   1      46.945  26.093  30.559  1.00  0.00     0.167 HD
ATOM     61  C   UNL A   1      46.037  24.937  27.955  1.00  0.00     0.074 A 
ATOM     62  C   UNL A   1      45.551  24.262  29.157  1.00  0.00     0.031 C 
ATOM     63  C   UNL A   1      46.537  26.190  27.757  1.00  0.00     0.037 A 
BRANCH  50  64
ATOM     64  C   UNL A   1      45.336  26.925  32.987  1.00  0.00     0.057 A 
ATOM     65  C   UNL A   1      45.135  25.534  33.114  1.00  0.00     0.134 A 
ATOM     66  C   UNL A   1      46.162  27.497  33.971  1.00  0.00     0.134 A 
ATOM     67  F   UNL A   1      44.399  24.822  32.252  1.00  0.00    -0.206 F 
ATOM     68  C   UNL A   1      45.768  24.763  34.091  1.00  0.00     0.040 A 
ATOM     69  C   UNL A   1      46.838  26.727  34.924  1.00  0.00     0.040 A 
ATOM     70  F   UNL A   1      46.417  28.815  33.976  1.00  0.00    -0.206 F 
ATOM     71  C   UNL A   1      46.659  25.351  34.973  1.00  0.00     0.006 A 
ENDBRANCH  50  64
BRANCH  51  72
ATOM     72  C   UNL A   1      42.903  21.695  26.580  1.00  0.00     0.057 A 
ATOM     73  C   UNL A   1      42.027  21.066  27.485  1.00  0.00     0.134 A 
ATOM     74  C   UNL A   1      43.505  20.853  25.633  1.00  0.00     0.134 A 
ATOM     75  F   UNL A   1      41.464  21.751  28.490  1.00  0.00    -0.206 F 
ATOM     76  C   UNL A   1      41.764  19.692  27.451  1.00  0.00     0.040 A 
ATOM     77  C   UNL A   1      43.255  19.472  25.592  1.00  0.00     0.040 A 
ATOM     78  F   UNL A   1      44.398  21.341  24.758  1.00  0.00    -0.206 F 
ATOM     79  C   UNL A   1      42.387  18.887  26.508  1.00  0.00     0.006 A 
ENDBRANCH  51  72
BRANCH  63  80
ATOM     80  C   UNL A   1      46.741  26.645  26.341  1.00  0.00     0.057 A 
ATOM     81  C   UNL A   1      48.015  26.525  25.780  1.00  0.00     0.134 A 
ATOM     82  C   UNL A   1      45.776  27.343  25.598  1.00  0.00     0.134 A 
ATOM     83  F   UNL A   1      48.998  25.918  26.461  1.00  0.00    -0.206 F 
ATOM     84  C   UNL A   1      48.323  27.077  24.536  1.00  0.00     0.040 A 
ATOM     85  C   UNL A   1      46.064  27.874  24.337  1.00  0.00     0.040 A 
ATOM     86  F   UNL A   1      44.557  27.586  26.096  1.00  0.00    -0.206 F 
ATOM     87  C   UNL A   1      47.346  27.750  23.811  1.00  0.00     0.006 A 
ENDBRANCH  63  80
ENDBRANCH  37  38
ENDBRANCH  30  32
ENDBRANCH  29  30
ENDBRANCH  28  29
ENDBRANCH  27  28
ENDBRANCH  26  27
ENDBRANCH   1  26
TORSDOF 17
ENDMDL
