MODEL 1
REMARK VINA RESULT:     -11.3      0.000      0.000
REMARK SMILES Cc1cccc(NC(=O)C[C@@H]2CCCCO2)c1C(=O)OCCOCCOC(=O)c1ccc(-c2c3nc(c(-c4c(F)cccc4F)c4ccc([nH]4)c(-c4c(F)cccc4F)c4nc(c(-c5c(F)cccc5F)c5ccc2[nH]5)C=C4)C=C3)cc1
REMARK SMILES IDX 22 1 21 2 20 3 18 4 19 5 17 6 1 7 2 8 3 9 4 10 6 11 5 12
REMARK SMILES IDX 7 13 8 14 9 16 10 17 11 18 12 19 16 20 13 21 15 22 14 23
REMARK SMILES IDX 23 24 24 25 25 26 26 27 27 28 28 29 29 30 30 31 82 32 31 33
REMARK SMILES IDX 81 34 32 35 33 36 34 37 75 38 35 39 80 40 74 41 76 42 36 43
REMARK SMILES IDX 79 44 73 45 72 46 37 48 63 49 46 50 62 51 47 52 50 53 61 54
REMARK SMILES IDX 77 55 48 56 49 57 60 59 78 60 51 61 38 62 39 63 44 64 40 65
REMARK SMILES IDX 41 66 43 67 45 68 42 69 64 70 65 71 70 72 66 73 67 74 69 75
REMARK SMILES IDX 71 76 68 77 52 78 53 79 58 80 54 81 55 82 57 83 59 84 56 85
REMARK H PARENT 7 15 76 47 50 58
REMARK Flexibility Score: inf
ROOT
ATOM      1  C   UNL A   1      36.506  21.843  24.371  1.00  0.00     0.202 C 
ENDROOT
BRANCH   1   2
ATOM      2  C   UNL A   1      36.710  22.951  23.392  1.00  0.00     0.261 C 
BRANCH   2   3
ATOM      3  O   UNL A   1      35.473  23.655  23.194  1.00  0.00    -0.460 OA
BRANCH   3   4
ATOM      4  C   UNL A   1      34.805  24.265  24.197  1.00  0.00     0.340 C 
ATOM      5  O   UNL A   1      35.279  24.687  25.233  1.00  0.00    -0.246 OA
BRANCH   4   6
ATOM      6  C   UNL A   1      33.341  24.292  23.868  1.00  0.00     0.086 A 
ATOM      7  C   UNL A   1      33.482  26.454  22.409  1.00  0.00     0.045 C 
ATOM      8  C   UNL A   1      32.762  25.257  22.989  1.00  0.00    -0.034 A 
ATOM      9  C   UNL A   1      31.385  25.200  22.733  1.00  0.00     0.004 A 
ATOM     10  C   UNL A   1      30.592  24.212  23.302  1.00  0.00     0.002 A 
ATOM     11  C   UNL A   1      32.492  23.380  24.564  1.00  0.00     0.056 A 
ATOM     12  C   UNL A   1      31.142  23.305  24.206  1.00  0.00     0.027 A 
BRANCH  11  13
ATOM     13  N   UNL A   1      33.001  22.667  25.681  1.00  0.00    -0.325 N 
ATOM     14  C   UNL A   1      33.340  21.348  25.849  1.00  0.00     0.227 C 
ATOM     15  H   UNL A   1      33.133  23.222  26.483  1.00  0.00     0.169 HD
ATOM     16  O   UNL A   1      33.612  20.955  26.990  1.00  0.00    -0.275 OA
BRANCH  14  17
ATOM     17  C   UNL A   1      33.374  20.357  24.706  1.00  0.00     0.132 C 
BRANCH  17  18
ATOM     18  C   UNL A   1      32.567  19.053  24.865  1.00  0.00     0.127 C 
ATOM     19  C   UNL A   1      33.459  17.911  25.376  1.00  0.00     0.033 C 
ATOM     20  O   UNL A   1      31.830  18.587  23.735  1.00  0.00    -0.378 OA
ATOM     21  C   UNL A   1      34.426  17.440  24.293  1.00  0.00     0.005 C 
ATOM     22  C   UNL A   1      32.585  18.066  22.654  1.00  0.00     0.160 C 
ATOM     23  C   UNL A   1      33.668  17.066  23.029  1.00  0.00     0.029 C 
ENDBRANCH  17  18
ENDBRANCH  14  17
ENDBRANCH  11  13
ENDBRANCH   4   6
ENDBRANCH   3   4
ENDBRANCH   2   3
ENDBRANCH   1   2
BRANCH   1  24
ATOM     24  O   UNL A   1      37.448  22.108  25.392  1.00  0.00    -0.374 OA
BRANCH  24  25
ATOM     25  C   UNL A   1      38.576  21.263  25.426  1.00  0.00     0.202 C 
BRANCH  25  26
ATOM     26  C   UNL A   1      39.691  21.848  26.297  1.00  0.00     0.261 C 
BRANCH  26  27
ATOM     27  O   UNL A   1      39.334  23.187  26.713  1.00  0.00    -0.460 OA
BRANCH  27  28
ATOM     28  C   UNL A   1      40.295  23.904  27.363  1.00  0.00     0.338 C 
ATOM     29  O   UNL A   1      41.246  23.429  27.966  1.00  0.00    -0.246 OA
BRANCH  28  30
ATOM     30  C   UNL A   1      39.875  25.333  27.486  1.00  0.00     0.060 A 
ATOM     31  C   UNL A   1      40.372  26.301  26.586  1.00  0.00     0.016 A 
ATOM     32  C   UNL A   1      39.290  25.742  28.680  1.00  0.00     0.016 A 
ATOM     33  C   UNL A   1      40.438  27.654  26.963  1.00  0.00     0.010 A 
ATOM     34  C   UNL A   1      39.458  27.048  29.087  1.00  0.00     0.010 A 
ATOM     35  C   UNL A   1      40.065  28.008  28.258  1.00  0.00    -0.014 A 
BRANCH  35  36
ATOM     36  C   UNL A   1      40.351  29.278  28.940  1.00  0.00     0.031 A 
ATOM     37  C   UNL A   1      39.235  30.234  29.130  1.00  0.00     0.074 A 
ATOM     38  C   UNL A   1      41.488  29.433  29.668  1.00  0.00     0.049 A 
ATOM     39  N   UNL A   1      39.374  31.386  29.683  1.00  0.00    -0.248 NA
ATOM     40  C   UNL A   1      37.861  30.003  28.677  1.00  0.00     0.031 C 
ATOM     41  C   UNL A   1      41.699  30.276  30.850  1.00  0.00     0.029 A 
ATOM     42  N   UNL A   1      42.738  28.828  29.501  1.00  0.00    -0.354 N 
ATOM     43  C   UNL A   1      38.125  31.876  29.969  1.00  0.00     0.074 A 
ATOM     44  C   UNL A   1      37.225  31.055  29.204  1.00  0.00     0.031 C 
ATOM     45  C   UNL A   1      43.012  30.348  31.132  1.00  0.00     0.029 A 
ATOM     46  C   UNL A   1      43.718  29.655  30.071  1.00  0.00     0.049 A 
ATOM     47  H   UNL A   1      42.902  27.966  29.057  1.00  0.00     0.167 HD
ATOM     48  C   UNL A   1      38.028  32.849  30.916  1.00  0.00     0.037 A 
ATOM     49  C   UNL A   1      44.742  30.127  29.312  1.00  0.00     0.037 A 
ATOM     50  C   UNL A   1      39.369  33.343  31.273  1.00  0.00     0.049 A 
ATOM     51  C   UNL A   1      44.569  31.612  29.195  1.00  0.00     0.074 A 
ATOM     52  C   UNL A   1      40.175  33.215  32.389  1.00  0.00     0.029 A 
ATOM     53  N   UNL A   1      40.194  33.831  30.253  1.00  0.00    -0.354 N 
ATOM     54  N   UNL A   1      43.407  32.187  29.357  1.00  0.00    -0.248 NA
ATOM     55  C   UNL A   1      45.657  32.571  29.046  1.00  0.00     0.031 C 
ATOM     56  C   UNL A   1      41.514  33.524  31.994  1.00  0.00     0.029 A 
ATOM     57  C   UNL A   1      41.515  33.888  30.653  1.00  0.00     0.049 A 
ATOM     58  H   UNL A   1      39.872  34.101  29.363  1.00  0.00     0.167 HD
ATOM     59  C   UNL A   1      43.577  33.529  29.449  1.00  0.00     0.074 A 
ATOM     60  C   UNL A   1      44.994  33.734  29.193  1.00  0.00     0.031 C 
ATOM     61  C   UNL A   1      42.555  34.377  29.747  1.00  0.00     0.037 A 
BRANCH  48  62
ATOM     62  C   UNL A   1      36.757  33.274  31.627  1.00  0.00     0.057 A 
ATOM     63  C   UNL A   1      35.769  34.000  30.935  1.00  0.00     0.134 A 
ATOM     64  C   UNL A   1      36.469  33.083  32.996  1.00  0.00     0.134 A 
ATOM     65  F   UNL A   1      35.904  34.298  29.635  1.00  0.00    -0.206 F 
ATOM     66  C   UNL A   1      34.593  34.474  31.543  1.00  0.00     0.040 A 
ATOM     67  C   UNL A   1      35.278  33.509  33.604  1.00  0.00     0.040 A 
ATOM     68  F   UNL A   1      37.338  32.527  33.845  1.00  0.00    -0.206 F 
ATOM     69  C   UNL A   1      34.334  34.214  32.880  1.00  0.00     0.006 A 
ENDBRANCH  48  62
BRANCH  49  70
ATOM     70  C   UNL A   1      45.199  29.115  28.313  1.00  0.00     0.057 A 
ATOM     71  C   UNL A   1      45.987  28.053  28.808  1.00  0.00     0.134 A 
ATOM     72  C   UNL A   1      44.489  28.864  27.131  1.00  0.00     0.134 A 
ATOM     73  F   UNL A   1      46.677  28.205  29.950  1.00  0.00    -0.206 F 
ATOM     74  C   UNL A   1      45.966  26.774  28.237  1.00  0.00     0.040 A 
ATOM     75  C   UNL A   1      44.449  27.579  26.562  1.00  0.00     0.040 A 
ATOM     76  F   UNL A   1      43.696  29.805  26.602  1.00  0.00    -0.206 F 
ATOM     77  C   UNL A   1      45.156  26.522  27.136  1.00  0.00     0.006 A 
ENDBRANCH  49  70
BRANCH  61  78
ATOM     78  C   UNL A   1      42.509  35.777  29.208  1.00  0.00     0.057 A 
ATOM     79  C   UNL A   1      43.288  36.824  29.732  1.00  0.00     0.134 A 
ATOM     80  C   UNL A   1      41.829  36.071  28.011  1.00  0.00     0.134 A 
ATOM     81  F   UNL A   1      44.093  36.650  30.790  1.00  0.00    -0.206 F 
ATOM     82  C   UNL A   1      43.325  38.093  29.153  1.00  0.00     0.040 A 
ATOM     83  C   UNL A   1      41.913  37.317  27.387  1.00  0.00     0.040 A 
ATOM     84  F   UNL A   1      41.087  35.154  27.373  1.00  0.00    -0.206 F 
ATOM     85  C   UNL A   1      42.646  38.340  27.970  1.00  0.00     0.006 A 
ENDBRANCH  61  78
ENDBRANCH  35  36
ENDBRANCH  28  30
ENDBRANCH  27  28
ENDBRANCH  26  27
ENDBRANCH  25  26
ENDBRANCH  24  25
ENDBRANCH   1  24
TORSDOF 17
ENDMDL
MODEL 2
REMARK VINA RESULT:     -11.2      1.952      3.935
REMARK SMILES Cc1cccc(NC(=O)C[C@@H]2CCCCO2)c1C(=O)OCCOCCOC(=O)c1ccc(-c2c3nc(c(-c4c(F)cccc4F)c4ccc([nH]4)c(-c4c(F)cccc4F)c4nc(c(-c5c(F)cccc5F)c5ccc2[nH]5)C=C4)C=C3)cc1
REMARK SMILES IDX 22 1 21 2 20 3 18 4 19 5 17 6 1 7 2 8 3 9 4 10 6 11 5 12
REMARK SMILES IDX 7 13 8 14 9 16 10 17 11 18 12 19 16 20 13 21 15 22 14 23
REMARK SMILES IDX 23 24 24 25 25 26 26 27 27 28 28 29 29 30 30 31 82 32 31 33
REMARK SMILES IDX 81 34 32 35 33 36 34 37 75 38 35 39 80 40 74 41 76 42 36 43
REMARK SMILES IDX 79 44 73 45 72 46 37 48 63 49 46 50 62 51 47 52 50 53 61 54
REMARK SMILES IDX 77 55 48 56 49 57 60 59 78 60 51 61 38 62 39 63 44 64 40 65
REMARK SMILES IDX 41 66 43 67 45 68 42 69 64 70 65 71 70 72 66 73 67 74 69 75
REMARK SMILES IDX 71 76 68 77 52 78 53 79 58 80 54 81 55 82 57 83 59 84 56 85
REMARK H PARENT 7 15 76 47 50 58
REMARK Flexibility Score: inf
ROOT
ATOM      1  C   UNL A   1      36.652  22.955  23.127  1.00  0.00     0.202 C 
ENDROOT
BRANCH   1   2
ATOM      2  C   UNL A   1      35.728  23.732  24.004  1.00  0.00     0.261 C 
BRANCH   2   3
ATOM      3  O   UNL A   1      34.685  24.318  23.209  1.00  0.00    -0.460 OA
BRANCH   3   4
ATOM      4  C   UNL A   1      33.649  23.605  22.714  1.00  0.00     0.340 C 
ATOM      5  O   UNL A   1      33.523  23.205  21.574  1.00  0.00    -0.246 OA
BRANCH   4   6
ATOM      6  C   UNL A   1      32.617  23.426  23.789  1.00  0.00     0.086 A 
ATOM      7  C   UNL A   1      33.382  21.012  24.430  1.00  0.00     0.045 C 
ATOM      8  C   UNL A   1      32.552  22.264  24.616  1.00  0.00    -0.034 A 
ATOM      9  C   UNL A   1      31.558  22.188  25.601  1.00  0.00     0.004 A 
ATOM     10  C   UNL A   1      30.659  23.228  25.792  1.00  0.00     0.002 A 
ATOM     11  C   UNL A   1      31.595  24.417  23.894  1.00  0.00     0.056 A 
ATOM     12  C   UNL A   1      30.681  24.338  24.949  1.00  0.00     0.027 A 
BRANCH  11  13
ATOM     13  N   UNL A   1      31.450  25.381  22.861  1.00  0.00    -0.325 N 
ATOM     14  C   UNL A   1      31.197  26.730  22.895  1.00  0.00     0.227 C 
ATOM     15  H   UNL A   1      31.547  25.013  21.954  1.00  0.00     0.169 HD
ATOM     16  O   UNL A   1      30.960  27.307  21.828  1.00  0.00    -0.275 OA
BRANCH  14  17
ATOM     17  C   UNL A   1      31.177  27.529  24.180  1.00  0.00     0.132 C 
BRANCH  17  18
ATOM     18  C   UNL A   1      32.533  27.904  24.811  1.00  0.00     0.127 C 
ATOM     19  C   UNL A   1      32.690  27.263  26.200  1.00  0.00     0.033 C 
ATOM     20  O   UNL A   1      32.858  29.291  24.909  1.00  0.00    -0.378 OA
ATOM     21  C   UNL A   1      31.778  27.933  27.223  1.00  0.00     0.005 C 
ATOM     22  C   UNL A   1      32.130  30.050  25.859  1.00  0.00     0.160 C 
ATOM     23  C   UNL A   1      32.016  29.435  27.245  1.00  0.00     0.029 C 
ENDBRANCH  17  18
ENDBRANCH  14  17
ENDBRANCH  11  13
ENDBRANCH   4   6
ENDBRANCH   3   4
ENDBRANCH   2   3
ENDBRANCH   1   2
BRANCH   1  24
ATOM     24  O   UNL A   1      37.057  21.865  23.933  1.00  0.00    -0.374 OA
BRANCH  24  25
ATOM     25  C   UNL A   1      37.294  22.156  25.291  1.00  0.00     0.202 C 
BRANCH  25  26
ATOM     26  C   UNL A   1      38.550  21.447  25.807  1.00  0.00     0.261 C 
BRANCH  26  27
ATOM     27  O   UNL A   1      39.679  22.349  25.747  1.00  0.00    -0.460 OA
BRANCH  27  28
ATOM     28  C   UNL A   1      40.143  22.831  26.935  1.00  0.00     0.338 C 
ATOM     29  O   UNL A   1      40.538  22.150  27.869  1.00  0.00    -0.246 OA
BRANCH  28  30
ATOM     30  C   UNL A   1      39.833  24.289  27.053  1.00  0.00     0.060 A 
ATOM     31  C   UNL A   1      40.405  25.213  26.152  1.00  0.00     0.016 A 
ATOM     32  C   UNL A   1      39.278  24.744  28.245  1.00  0.00     0.016 A 
ATOM     33  C   UNL A   1      40.574  26.558  26.527  1.00  0.00     0.010 A 
ATOM     34  C   UNL A   1      39.544  26.035  28.649  1.00  0.00     0.010 A 
ATOM     35  C   UNL A   1      40.226  26.943  27.820  1.00  0.00    -0.014 A 
BRANCH  35  36
ATOM     36  C   UNL A   1      40.607  28.189  28.499  1.00  0.00     0.031 A 
ATOM     37  C   UNL A   1      39.568  29.231  28.679  1.00  0.00     0.074 A 
ATOM     38  C   UNL A   1      41.747  28.258  29.234  1.00  0.00     0.049 A 
ATOM     39  N   UNL A   1      39.794  30.370  29.228  1.00  0.00    -0.248 NA
ATOM     40  C   UNL A   1      38.183  29.107  28.218  1.00  0.00     0.031 C 
ATOM     41  C   UNL A   1      42.017  29.086  30.414  1.00  0.00     0.029 A 
ATOM     42  N   UNL A   1      42.947  27.556  29.076  1.00  0.00    -0.354 N 
ATOM     43  C   UNL A   1      38.585  30.958  29.505  1.00  0.00     0.074 A 
ATOM     44  C   UNL A   1      37.628  30.208  28.737  1.00  0.00     0.031 C 
ATOM     45  C   UNL A   1      43.330  29.055  30.704  1.00  0.00     0.029 A 
ATOM     46  C   UNL A   1      43.985  28.305  29.650  1.00  0.00     0.049 A 
ATOM     47  H   UNL A   1      43.045  26.681  28.636  1.00  0.00     0.167 HD
ATOM     48  C   UNL A   1      38.559  31.940  30.449  1.00  0.00     0.037 A 
ATOM     49  C   UNL A   1      45.048  28.692  28.896  1.00  0.00     0.037 A 
ATOM     50  C   UNL A   1      39.933  32.328  30.812  1.00  0.00     0.049 A 
ATOM     51  C   UNL A   1      44.994  30.186  28.773  1.00  0.00     0.074 A 
ATOM     52  C   UNL A   1      40.719  32.141  31.934  1.00  0.00     0.029 A 
ATOM     53  N   UNL A   1      40.800  32.746  29.796  1.00  0.00    -0.354 N 
ATOM     54  N   UNL A   1      43.879  30.851  28.925  1.00  0.00    -0.248 NA
ATOM     55  C   UNL A   1      46.154  31.056  28.628  1.00  0.00     0.031 C 
ATOM     56  C   UNL A   1      42.081  32.343  31.546  1.00  0.00     0.029 A 
ATOM     57  C   UNL A   1      42.119  32.700  30.204  1.00  0.00     0.049 A 
ATOM     58  H   UNL A   1      40.505  33.036  28.903  1.00  0.00     0.167 HD
ATOM     59  C   UNL A   1      44.154  32.176  29.014  1.00  0.00     0.074 A 
ATOM     60  C   UNL A   1      45.583  32.267  28.767  1.00  0.00     0.031 C 
ATOM     61  C   UNL A   1      43.199  33.102  29.303  1.00  0.00     0.037 A 
BRANCH  48  62
ATOM     62  C   UNL A   1      37.322  32.465  31.150  1.00  0.00     0.057 A 
ATOM     63  C   UNL A   1      36.411  33.286  30.456  1.00  0.00     0.134 A 
ATOM     64  C   UNL A   1      36.999  32.282  32.512  1.00  0.00     0.134 A 
ATOM     65  F   UNL A   1      36.590  33.589  29.162  1.00  0.00    -0.206 F 
ATOM     66  C   UNL A   1      35.274  33.854  31.056  1.00  0.00     0.040 A 
ATOM     67  C   UNL A   1      35.842  32.804  33.111  1.00  0.00     0.040 A 
ATOM     68  F   UNL A   1      37.803  31.640  33.363  1.00  0.00    -0.206 F 
ATOM     69  C   UNL A   1      34.974  33.600  32.386  1.00  0.00     0.006 A 
ENDBRANCH  48  62
BRANCH  49  70
ATOM     70  C   UNL A   1      45.430  27.644  27.904  1.00  0.00     0.057 A 
ATOM     71  C   UNL A   1      45.005  27.852  26.573  1.00  0.00     0.134 A 
ATOM     72  C   UNL A   1      46.560  26.833  28.075  1.00  0.00     0.134 A 
ATOM     73  F   UNL A   1      43.946  28.638  26.322  1.00  0.00    -0.206 F 
ATOM     74  C   UNL A   1      45.739  27.394  25.471  1.00  0.00     0.040 A 
ATOM     75  C   UNL A   1      47.311  26.383  26.975  1.00  0.00     0.040 A 
ATOM     76  F   UNL A   1      47.050  26.600  29.300  1.00  0.00    -0.206 F 
ATOM     77  C   UNL A   1      46.924  26.696  25.672  1.00  0.00     0.006 A 
ENDBRANCH  49  70
BRANCH  61  78
ATOM     78  C   UNL A   1      43.267  34.500  28.759  1.00  0.00     0.057 A 
ATOM     79  C   UNL A   1      43.329  34.784  27.384  1.00  0.00     0.134 A 
ATOM     80  C   UNL A   1      43.067  35.613  29.597  1.00  0.00     0.134 A 
ATOM     81  F   UNL A   1      43.384  33.814  26.460  1.00  0.00    -0.206 F 
ATOM     82  C   UNL A   1      43.276  36.085  26.884  1.00  0.00     0.040 A 
ATOM     83  C   UNL A   1      42.944  36.912  29.101  1.00  0.00     0.040 A 
ATOM     84  F   UNL A   1      42.940  35.488  30.927  1.00  0.00    -0.206 F 
ATOM     85  C   UNL A   1      43.070  37.154  27.742  1.00  0.00     0.006 A 
ENDBRANCH  61  78
ENDBRANCH  35  36
ENDBRANCH  28  30
ENDBRANCH  27  28
ENDBRANCH  26  27
ENDBRANCH  25  26
ENDBRANCH  24  25
ENDBRANCH   1  24
TORSDOF 17
ENDMDL
MODEL 3
REMARK VINA RESULT:     -11.2      4.058      9.222
REMARK SMILES Cc1cccc(NC(=O)C[C@@H]2CCCCO2)c1C(=O)OCCOCCOC(=O)c1ccc(-c2c3nc(c(-c4c(F)cccc4F)c4ccc([nH]4)c(-c4c(F)cccc4F)c4nc(c(-c5c(F)cccc5F)c5ccc2[nH]5)C=C4)C=C3)cc1
REMARK SMILES IDX 22 1 21 2 20 3 18 4 19 5 17 6 1 7 2 8 3 9 4 10 6 11 5 12
REMARK SMILES IDX 7 13 8 14 9 16 10 17 11 18 12 19 16 20 13 21 15 22 14 23
REMARK SMILES IDX 23 24 24 25 25 26 26 27 27 28 28 29 29 30 30 31 82 32 31 33
REMARK SMILES IDX 81 34 32 35 33 36 34 37 75 38 35 39 80 40 74 41 76 42 36 43
REMARK SMILES IDX 79 44 73 45 72 46 37 48 63 49 46 50 62 51 47 52 50 53 61 54
REMARK SMILES IDX 77 55 48 56 49 57 60 59 78 60 51 61 38 62 39 63 44 64 40 65
REMARK SMILES IDX 41 66 43 67 45 68 42 69 64 70 65 71 70 72 66 73 67 74 69 75
REMARK SMILES IDX 71 76 68 77 52 78 53 79 58 80 54 81 55 82 57 83 59 84 56 85
REMARK H PARENT 7 15 76 47 50 58
REMARK Flexibility Score: inf
ROOT
ATOM      1  C   UNL A   1      32.046  28.173  27.024  1.00  0.00     0.202 C 
ENDROOT
BRANCH   1   2
ATOM      2  C   UNL A   1      30.971  27.168  26.776  1.00  0.00     0.261 C 
BRANCH   2   3
ATOM      3  O   UNL A   1      31.539  25.849  26.745  1.00  0.00    -0.460 OA
BRANCH   3   4
ATOM      4  C   UNL A   1      31.261  24.951  25.775  1.00  0.00     0.340 C 
ATOM      5  O   UNL A   1      30.695  23.886  25.913  1.00  0.00    -0.246 OA
BRANCH   4   6
ATOM      6  C   UNL A   1      31.824  25.443  24.473  1.00  0.00     0.086 A 
ATOM      7  C   UNL A   1      34.267  25.684  25.364  1.00  0.00     0.045 C 
ATOM      8  C   UNL A   1      33.213  25.705  24.278  1.00  0.00    -0.034 A 
ATOM      9  C   UNL A   1      33.648  26.154  23.024  1.00  0.00     0.004 A 
ATOM     10  C   UNL A   1      32.755  26.325  21.975  1.00  0.00     0.002 A 
ATOM     11  C   UNL A   1      30.898  25.768  23.437  1.00  0.00     0.056 A 
ATOM     12  C   UNL A   1      31.390  26.128  22.178  1.00  0.00     0.027 A 
BRANCH  11  13
ATOM     13  N   UNL A   1      29.512  25.845  23.737  1.00  0.00    -0.325 N 
ATOM     14  C   UNL A   1      28.638  26.902  23.768  1.00  0.00     0.227 C 
ATOM     15  H   UNL A   1      29.104  24.979  23.967  1.00  0.00     0.169 HD
ATOM     16  O   UNL A   1      27.504  26.710  24.223  1.00  0.00    -0.275 OA
BRANCH  14  17
ATOM     17  C   UNL A   1      29.010  28.289  23.291  1.00  0.00     0.132 C 
BRANCH  17  18
ATOM     18  C   UNL A   1      27.973  29.058  22.448  1.00  0.00     0.127 C 
ATOM     19  C   UNL A   1      28.662  30.064  21.511  1.00  0.00     0.033 C 
ATOM     20  O   UNL A   1      26.919  29.728  23.140  1.00  0.00    -0.378 OA
ATOM     21  C   UNL A   1      29.230  31.245  22.291  1.00  0.00     0.005 C 
ATOM     22  C   UNL A   1      27.276  30.884  23.878  1.00  0.00     0.160 C 
ATOM     23  C   UNL A   1      28.149  31.890  23.143  1.00  0.00     0.029 C 
ENDBRANCH  17  18
ENDBRANCH  14  17
ENDBRANCH  11  13
ENDBRANCH   4   6
ENDBRANCH   3   4
ENDBRANCH   2   3
ENDBRANCH   1   2
BRANCH   1  24
ATOM     24  O   UNL A   1      31.838  29.154  26.026  1.00  0.00    -0.374 OA
BRANCH  24  25
ATOM     25  C   UNL A   1      32.454  30.401  26.248  1.00  0.00     0.202 C 
BRANCH  25  26
ATOM     26  C   UNL A   1      33.454  30.335  27.407  1.00  0.00     0.261 C 
BRANCH  26  27
ATOM     27  O   UNL A   1      34.430  31.394  27.270  1.00  0.00    -0.460 OA
BRANCH  27  28
ATOM     28  C   UNL A   1      35.294  31.571  28.311  1.00  0.00     0.338 C 
ATOM     29  O   UNL A   1      35.504  32.629  28.884  1.00  0.00    -0.246 OA
BRANCH  28  30
ATOM     30  C   UNL A   1      36.161  30.363  28.468  1.00  0.00     0.060 A 
ATOM     31  C   UNL A   1      36.257  29.715  29.718  1.00  0.00     0.016 A 
ATOM     32  C   UNL A   1      37.118  30.114  27.489  1.00  0.00     0.016 A 
ATOM     33  C   UNL A   1      37.399  28.960  30.041  1.00  0.00     0.010 A 
ATOM     34  C   UNL A   1      38.280  29.467  27.849  1.00  0.00     0.010 A 
ATOM     35  C   UNL A   1      38.455  28.919  29.132  1.00  0.00    -0.014 A 
BRANCH  35  36
ATOM     36  C   UNL A   1      39.827  28.467  29.398  1.00  0.00     0.031 A 
ATOM     37  C   UNL A   1      40.208  27.102  28.962  1.00  0.00     0.074 A 
ATOM     38  C   UNL A   1      40.803  29.359  29.711  1.00  0.00     0.049 A 
ATOM     39  N   UNL A   1      41.368  26.590  29.169  1.00  0.00    -0.248 NA
ATOM     40  C   UNL A   1      39.305  26.166  28.288  1.00  0.00     0.031 C 
ATOM     41  C   UNL A   1      42.239  29.268  29.426  1.00  0.00     0.029 A 
ATOM     42  N   UNL A   1      40.701  30.592  30.362  1.00  0.00    -0.354 N 
ATOM     43  C   UNL A   1      41.483  25.464  28.393  1.00  0.00     0.074 A 
ATOM     44  C   UNL A   1      40.139  25.166  27.978  1.00  0.00     0.031 C 
ATOM     45  C   UNL A   1      42.901  30.220  30.106  1.00  0.00     0.029 A 
ATOM     46  C   UNL A   1      41.936  30.890  30.958  1.00  0.00     0.049 A 
ATOM     47  H   UNL A   1      39.896  31.157  30.397  1.00  0.00     0.167 HD
ATOM     48  C   UNL A   1      42.737  25.008  28.119  1.00  0.00     0.037 A 
ATOM     49  C   UNL A   1      42.018  31.098  32.298  1.00  0.00     0.037 A 
ATOM     50  C   UNL A   1      43.726  25.723  28.945  1.00  0.00     0.049 A 
ATOM     51  C   UNL A   1      42.813  29.968  32.882  1.00  0.00     0.074 A 
ATOM     52  C   UNL A   1      44.694  26.672  28.677  1.00  0.00     0.029 A 
ATOM     53  N   UNL A   1      43.569  25.710  30.335  1.00  0.00    -0.354 N 
ATOM     54  N   UNL A   1      42.919  28.814  32.277  1.00  0.00    -0.248 NA
ATOM     55  C   UNL A   1      43.654  30.062  34.069  1.00  0.00     0.031 C 
ATOM     56  C   UNL A   1      45.033  27.306  29.913  1.00  0.00     0.029 A 
ATOM     57  C   UNL A   1      44.308  26.709  30.938  1.00  0.00     0.049 A 
ATOM     58  H   UNL A   1      43.003  25.068  30.822  1.00  0.00     0.167 HD
ATOM     59  C   UNL A   1      43.882  28.075  32.883  1.00  0.00     0.074 A 
ATOM     60  C   UNL A   1      44.278  28.869  34.034  1.00  0.00     0.031 C 
ATOM     61  C   UNL A   1      44.301  26.877  32.392  1.00  0.00     0.037 A 
BRANCH  48  62
ATOM     62  C   UNL A   1      43.105  24.025  27.026  1.00  0.00     0.057 A 
ATOM     63  C   UNL A   1      43.559  24.492  25.777  1.00  0.00     0.134 A 
ATOM     64  C   UNL A   1      42.965  22.621  27.090  1.00  0.00     0.134 A 
ATOM     65  F   UNL A   1      43.714  25.802  25.537  1.00  0.00    -0.206 F 
ATOM     66  C   UNL A   1      43.866  23.642  24.700  1.00  0.00     0.040 A 
ATOM     67  C   UNL A   1      43.313  21.758  26.039  1.00  0.00     0.040 A 
ATOM     68  F   UNL A   1      42.432  21.998  28.145  1.00  0.00    -0.206 F 
ATOM     69  C   UNL A   1      43.760  22.266  24.834  1.00  0.00     0.006 A 
ENDBRANCH  48  62
BRANCH  49  70
ATOM     70  C   UNL A   1      40.818  31.818  32.818  1.00  0.00     0.057 A 
ATOM     71  C   UNL A   1      40.765  33.209  32.579  1.00  0.00     0.134 A 
ATOM     72  C   UNL A   1      39.589  31.174  33.009  1.00  0.00     0.134 A 
ATOM     73  F   UNL A   1      41.899  33.896  32.360  1.00  0.00    -0.206 F 
ATOM     74  C   UNL A   1      39.557  33.895  32.404  1.00  0.00     0.040 A 
ATOM     75  C   UNL A   1      38.371  31.852  32.819  1.00  0.00     0.040 A 
ATOM     76  F   UNL A   1      39.539  29.852  33.217  1.00  0.00    -0.206 F 
ATOM     77  C   UNL A   1      38.353  33.204  32.478  1.00  0.00     0.006 A 
ENDBRANCH  49  70
BRANCH  61  78
ATOM     78  C   UNL A   1      44.783  25.780  33.295  1.00  0.00     0.057 A 
ATOM     79  C   UNL A   1      43.945  25.117  34.208  1.00  0.00     0.134 A 
ATOM     80  C   UNL A   1      46.063  25.216  33.130  1.00  0.00     0.134 A 
ATOM     81  F   UNL A   1      42.658  25.459  34.369  1.00  0.00    -0.206 F 
ATOM     82  C   UNL A   1      44.372  24.022  34.960  1.00  0.00     0.040 A 
ATOM     83  C   UNL A   1      46.477  24.080  33.828  1.00  0.00     0.040 A 
ATOM     84  F   UNL A   1      46.951  25.714  32.258  1.00  0.00    -0.206 F 
ATOM     85  C   UNL A   1      45.638  23.492  34.763  1.00  0.00     0.006 A 
ENDBRANCH  61  78
ENDBRANCH  35  36
ENDBRANCH  28  30
ENDBRANCH  27  28
ENDBRANCH  26  27
ENDBRANCH  25  26
ENDBRANCH  24  25
ENDBRANCH   1  24
TORSDOF 17
ENDMDL
