MODEL 1
REMARK VINA RESULT:     -11.7      0.000      0.000
REMARK SMILES CC1=C([C@H](NC(=O)[C@@H]2[C@H](C)c3cc(F)ccc3N2C)C(=O)OCCOCCOC(=O)c2ccc(-c3c4nc(c(-c5c(F)cccc5F)c5ccc([nH]5)c(-c5c(F)cccc5F)c5nc(c(-c6c(F)cccc6F)c6ccc3[nH]6)C=C5)C=C4)cc2)[C@@H](C)N=N1
REMARK SMILES IDX 25 1 24 2 23 3 22 4 20 5 21 6 4 7 3 8 1 9 2 10 88 11 85 12
REMARK SMILES IDX 87 13 86 14 5 15 6 16 7 18 8 19 9 20 18 21 11 22 10 23 17 24
REMARK SMILES IDX 19 25 12 26 16 27 13 28 15 29 14 30 26 31 27 32 28 33 29 34
REMARK SMILES IDX 30 35 31 36 32 37 84 38 33 39 83 40 34 41 35 42 36 43 77 44
REMARK SMILES IDX 37 45 82 46 76 47 78 48 38 49 81 50 75 51 74 52 39 54 65 55
REMARK SMILES IDX 48 56 64 57 49 58 52 59 63 60 79 61 50 62 51 63 62 65 80 66
REMARK SMILES IDX 53 67 40 68 41 69 46 70 42 71 43 72 45 73 47 74 44 75 66 76
REMARK SMILES IDX 67 77 72 78 68 79 69 80 71 81 73 82 70 83 54 84 55 85 60 86
REMARK SMILES IDX 56 87 57 88 59 89 61 90 58 91
REMARK H PARENT 5 17 78 53 52 64
REMARK Flexibility Score: inf
ROOT
ATOM      1  O   UNL A   1      39.157  22.312  25.905  1.00  0.00    -0.374 OA
ENDROOT
BRANCH   1   2
ATOM      2  C   UNL A   1      37.748  22.183  25.762  1.00  0.00     0.202 C 
BRANCH   2   3
ATOM      3  C   UNL A   1      37.028  23.047  24.720  1.00  0.00     0.261 C 
BRANCH   3   4
ATOM      4  O   UNL A   1      36.264  24.120  25.276  1.00  0.00    -0.461 OA
BRANCH   4   5
ATOM      5  C   UNL A   1      35.177  23.688  25.975  1.00  0.00     0.333 C 
ATOM      6  O   UNL A   1      35.219  23.167  27.086  1.00  0.00    -0.249 OA
BRANCH   5   7
ATOM      7  C   UNL A   1      33.877  23.801  25.163  1.00  0.00     0.223 C 
BRANCH   7   8
ATOM      8  C   UNL A   1      33.064  22.551  25.215  1.00  0.00     0.012 C 
ATOM      9  C   UNL A   1      31.201  23.193  26.839  1.00  0.00     0.069 C 
ATOM     10  C   UNL A   1      31.940  22.301  25.901  1.00  0.00     0.064 C 
ATOM     11  N   UNL A   1      31.404  21.076  25.603  1.00  0.00    -0.160 NA
ATOM     12  C   UNL A   1      33.291  21.319  24.394  1.00  0.00     0.156 C 
ATOM     13  N   UNL A   1      32.099  20.495  24.729  1.00  0.00    -0.181 NA
ATOM     14  C   UNL A   1      34.526  20.496  24.749  1.00  0.00     0.040 C 
ENDBRANCH   7   8
BRANCH   7  15
ATOM     15  N   UNL A   1      34.135  24.168  23.779  1.00  0.00    -0.337 N 
ATOM     16  C   UNL A   1      33.577  25.194  23.055  1.00  0.00     0.244 C 
ATOM     17  H   UNL A   1      34.791  23.611  23.300  1.00  0.00     0.164 HD
ATOM     18  O   UNL A   1      34.029  25.391  21.927  1.00  0.00    -0.273 OA
BRANCH  16  19
ATOM     19  C   UNL A   1      32.473  26.059  23.712  1.00  0.00     0.178 C 
ATOM     20  C   UNL A   1      31.066  25.408  23.882  1.00  0.00     0.050 C 
ATOM     21  N   UNL A   1      32.278  27.328  22.973  1.00  0.00    -0.362 N 
ATOM     22  C   UNL A   1      30.179  26.597  23.619  1.00  0.00    -0.016 A 
ATOM     23  C   UNL A   1      30.708  24.228  22.992  1.00  0.00     0.015 C 
ATOM     24  C   UNL A   1      30.937  27.659  23.107  1.00  0.00     0.041 A 
ATOM     25  C   UNL A   1      33.313  28.313  22.770  1.00  0.00     0.144 C 
ATOM     26  C   UNL A   1      28.812  26.708  23.822  1.00  0.00     0.045 A 
ATOM     27  C   UNL A   1      30.320  28.859  22.791  1.00  0.00     0.029 A 
ATOM     28  C   UNL A   1      28.206  27.917  23.499  1.00  0.00     0.123 A 
ATOM     29  C   UNL A   1      28.942  28.988  22.992  1.00  0.00     0.041 A 
ATOM     30  F   UNL A   1      26.885  28.058  23.678  1.00  0.00    -0.207 F 
ENDBRANCH  16  19
ENDBRANCH   7  15
ENDBRANCH   5   7
ENDBRANCH   4   5
ENDBRANCH   3   4
ENDBRANCH   2   3
ENDBRANCH   1   2
BRANCH   1  31
ATOM     31  C   UNL A   1      39.941  21.135  26.126  1.00  0.00     0.202 C 
BRANCH  31  32
ATOM     32  C   UNL A   1      41.477  21.231  26.108  1.00  0.00     0.261 C 
BRANCH  32  33
ATOM     33  O   UNL A   1      41.924  22.490  26.635  1.00  0.00    -0.460 OA
BRANCH  33  34
ATOM     34  C   UNL A   1      42.650  23.247  25.772  1.00  0.00     0.338 C 
ATOM     35  O   UNL A   1      43.026  22.954  24.650  1.00  0.00    -0.246 OA
BRANCH  34  36
ATOM     36  C   UNL A   1      42.544  24.628  26.283  1.00  0.00     0.060 A 
ATOM     37  C   UNL A   1      43.212  24.995  27.451  1.00  0.00     0.016 A 
ATOM     38  C   UNL A   1      41.518  25.426  25.746  1.00  0.00     0.016 A 
ATOM     39  C   UNL A   1      42.782  26.128  28.127  1.00  0.00     0.010 A 
ATOM     40  C   UNL A   1      41.070  26.542  26.447  1.00  0.00     0.010 A 
ATOM     41  C   UNL A   1      41.680  26.874  27.654  1.00  0.00    -0.014 A 
BRANCH  41  42
ATOM     42  C   UNL A   1      41.392  28.128  28.355  1.00  0.00     0.031 A 
ATOM     43  C   UNL A   1      42.455  29.132  28.105  1.00  0.00     0.074 A 
ATOM     44  C   UNL A   1      40.301  28.472  29.071  1.00  0.00     0.049 A 
ATOM     45  N   UNL A   1      43.327  29.573  28.947  1.00  0.00    -0.248 NA
ATOM     46  C   UNL A   1      42.677  29.561  26.716  1.00  0.00     0.031 C 
ATOM     47  C   UNL A   1      39.021  27.768  29.157  1.00  0.00     0.029 A 
ATOM     48  N   UNL A   1      40.085  29.601  29.825  1.00  0.00    -0.354 N 
ATOM     49  C   UNL A   1      44.084  30.501  28.241  1.00  0.00     0.074 A 
ATOM     50  C   UNL A   1      43.761  30.326  26.850  1.00  0.00     0.031 C 
ATOM     51  C   UNL A   1      38.104  28.580  29.737  1.00  0.00     0.029 A 
ATOM     52  C   UNL A   1      38.760  29.798  30.192  1.00  0.00     0.049 A 
ATOM     53  H   UNL A   1      40.808  30.217  30.082  1.00  0.00     0.167 HD
ATOM     54  C   UNL A   1      44.689  31.530  28.888  1.00  0.00     0.037 A 
ATOM     55  C   UNL A   1      38.228  30.889  30.800  1.00  0.00     0.037 A 
ATOM     56  C   UNL A   1      44.750  31.297  30.307  1.00  0.00     0.049 A 
ATOM     57  C   UNL A   1      39.304  31.625  31.499  1.00  0.00     0.074 A 
ATOM     58  C   UNL A   1      45.538  30.607  31.200  1.00  0.00     0.029 A 
ATOM     59  N   UNL A   1      43.601  31.640  30.960  1.00  0.00    -0.354 N 
ATOM     60  N   UNL A   1      39.907  31.184  32.566  1.00  0.00    -0.248 NA
ATOM     61  C   UNL A   1      39.918  32.789  30.867  1.00  0.00     0.031 C 
ATOM     62  C   UNL A   1      44.766  30.462  32.394  1.00  0.00     0.029 A 
ATOM     63  C   UNL A   1      43.531  31.075  32.202  1.00  0.00     0.049 A 
ATOM     64  H   UNL A   1      42.906  32.224  30.581  1.00  0.00     0.167 HD
ATOM     65  C   UNL A   1      41.173  31.723  32.481  1.00  0.00     0.074 A 
ATOM     66  C   UNL A   1      41.065  32.835  31.549  1.00  0.00     0.031 C 
ATOM     67  C   UNL A   1      42.260  31.003  32.880  1.00  0.00     0.037 A 
BRANCH  54  68
ATOM     68  C   UNL A   1      44.731  32.946  28.352  1.00  0.00     0.057 A 
ATOM     69  C   UNL A   1      43.652  33.852  28.419  1.00  0.00     0.134 A 
ATOM     70  C   UNL A   1      45.984  33.528  28.087  1.00  0.00     0.134 A 
ATOM     71  F   UNL A   1      42.413  33.475  28.748  1.00  0.00    -0.206 F 
ATOM     72  C   UNL A   1      43.810  35.232  28.260  1.00  0.00     0.040 A 
ATOM     73  C   UNL A   1      46.160  34.914  27.978  1.00  0.00     0.040 A 
ATOM     74  F   UNL A   1      47.092  32.775  28.012  1.00  0.00    -0.206 F 
ATOM     75  C   UNL A   1      45.071  35.771  28.074  1.00  0.00     0.006 A 
ENDBRANCH  54  68
BRANCH  55  76
ATOM     76  C   UNL A   1      36.865  31.465  30.712  1.00  0.00     0.057 A 
ATOM     77  C   UNL A   1      36.408  32.058  29.525  1.00  0.00     0.134 A 
ATOM     78  C   UNL A   1      36.100  31.719  31.863  1.00  0.00     0.134 A 
ATOM     79  F   UNL A   1      37.101  31.934  28.384  1.00  0.00    -0.206 F 
ATOM     80  C   UNL A   1      35.277  32.880  29.488  1.00  0.00     0.040 A 
ATOM     81  C   UNL A   1      34.968  32.544  31.841  1.00  0.00     0.040 A 
ATOM     82  F   UNL A   1      36.473  31.228  33.053  1.00  0.00    -0.206 F 
ATOM     83  C   UNL A   1      34.561  33.140  30.652  1.00  0.00     0.006 A 
ENDBRANCH  55  76
BRANCH  67  84
ATOM     84  C   UNL A   1      42.049  29.974  33.939  1.00  0.00     0.057 A 
ATOM     85  C   UNL A   1      41.781  28.661  33.537  1.00  0.00     0.134 A 
ATOM     86  C   UNL A   1      42.076  30.232  35.316  1.00  0.00     0.134 A 
ATOM     87  F   UNL A   1      41.707  28.355  32.231  1.00  0.00    -0.206 F 
ATOM     88  C   UNL A   1      41.565  27.639  34.459  1.00  0.00     0.040 A 
ATOM     89  C   UNL A   1      41.897  29.207  36.251  1.00  0.00     0.040 A 
ATOM     90  F   UNL A   1      42.253  31.474  35.788  1.00  0.00    -0.206 F 
ATOM     91  C   UNL A   1      41.637  27.907  35.823  1.00  0.00     0.006 A 
ENDBRANCH  67  84
ENDBRANCH  41  42
ENDBRANCH  34  36
ENDBRANCH  33  34
ENDBRANCH  32  33
ENDBRANCH  31  32
ENDBRANCH   1  31
TORSDOF 17
ENDMDL
MODEL 2
REMARK VINA RESULT:     -11.5      2.887      8.060
REMARK SMILES CC1=C([C@H](NC(=O)[C@@H]2[C@H](C)c3cc(F)ccc3N2C)C(=O)OCCOCCOC(=O)c2ccc(-c3c4nc(c(-c5c(F)cccc5F)c5ccc([nH]5)c(-c5c(F)cccc5F)c5nc(c(-c6c(F)cccc6F)c6ccc3[nH]6)C=C5)C=C4)cc2)[C@@H](C)N=N1
REMARK SMILES IDX 25 1 24 2 23 3 22 4 20 5 21 6 4 7 3 8 1 9 2 10 88 11 85 12
REMARK SMILES IDX 87 13 86 14 5 15 6 16 7 18 8 19 9 20 18 21 11 22 10 23 17 24
REMARK SMILES IDX 19 25 12 26 16 27 13 28 15 29 14 30 26 31 27 32 28 33 29 34
REMARK SMILES IDX 30 35 31 36 32 37 84 38 33 39 83 40 34 41 35 42 36 43 77 44
REMARK SMILES IDX 37 45 82 46 76 47 78 48 38 49 81 50 75 51 74 52 39 54 65 55
REMARK SMILES IDX 48 56 64 57 49 58 52 59 63 60 79 61 50 62 51 63 62 65 80 66
REMARK SMILES IDX 53 67 40 68 41 69 46 70 42 71 43 72 45 73 47 74 44 75 66 76
REMARK SMILES IDX 67 77 72 78 68 79 69 80 71 81 73 82 70 83 54 84 55 85 60 86
REMARK SMILES IDX 56 87 57 88 59 89 61 90 58 91
REMARK H PARENT 5 17 78 53 52 64
REMARK Flexibility Score: inf
ROOT
ATOM      1  O   UNL A   1      32.600  29.366  25.375  1.00  0.00    -0.374 OA
ENDROOT
BRANCH   1   2
ATOM      2  C   UNL A   1      32.734  29.324  23.960  1.00  0.00     0.202 C 
BRANCH   2   3
ATOM      3  C   UNL A   1      33.799  28.410  23.344  1.00  0.00     0.261 C 
BRANCH   3   4
ATOM      4  O   UNL A   1      34.055  27.221  24.095  1.00  0.00    -0.461 OA
BRANCH   4   5
ATOM      5  C   UNL A   1      33.785  26.084  23.393  1.00  0.00     0.333 C 
ATOM      6  O   UNL A   1      33.730  26.011  22.169  1.00  0.00    -0.249 OA
BRANCH   5   7
ATOM      7  C   UNL A   1      33.419  24.906  24.309  1.00  0.00     0.223 C 
BRANCH   7   8
ATOM      8  C   UNL A   1      32.103  25.101  24.987  1.00  0.00     0.012 C 
ATOM      9  C   UNL A   1      30.453  24.553  23.117  1.00  0.00     0.069 C 
ATOM     10  C   UNL A   1      30.867  24.939  24.495  1.00  0.00     0.064 C 
ATOM     11  N   UNL A   1      29.898  25.087  25.453  1.00  0.00    -0.160 NA
ATOM     12  C   UNL A   1      31.900  25.420  26.435  1.00  0.00     0.156 C 
ATOM     13  N   UNL A   1      30.422  25.318  26.574  1.00  0.00    -0.181 NA
ATOM     14  C   UNL A   1      32.301  26.825  26.874  1.00  0.00     0.040 C 
ENDBRANCH   7   8
BRANCH   7  15
ATOM     15  N   UNL A   1      34.454  24.648  25.299  1.00  0.00    -0.337 N 
ATOM     16  C   UNL A   1      35.120  23.472  25.542  1.00  0.00     0.244 C 
ATOM     17  H   UNL A   1      34.708  25.412  25.866  1.00  0.00     0.164 HD
ATOM     18  O   UNL A   1      36.043  23.512  26.357  1.00  0.00    -0.273 OA
BRANCH  16  19
ATOM     19  C   UNL A   1      34.715  22.204  24.751  1.00  0.00     0.178 C 
ATOM     20  C   UNL A   1      33.358  21.534  25.128  1.00  0.00     0.050 C 
ATOM     21  N   UNL A   1      35.758  21.156  24.847  1.00  0.00    -0.362 N 
ATOM     22  C   UNL A   1      33.713  20.079  24.957  1.00  0.00    -0.016 A 
ATOM     23  C   UNL A   1      32.775  21.816  26.504  1.00  0.00     0.015 C 
ATOM     24  C   UNL A   1      35.097  19.937  24.796  1.00  0.00     0.041 A 
ATOM     25  C   UNL A   1      37.121  21.330  24.407  1.00  0.00     0.144 C 
ATOM     26  C   UNL A   1      32.861  18.984  24.950  1.00  0.00     0.045 A 
ATOM     27  C   UNL A   1      35.647  18.677  24.623  1.00  0.00     0.029 A 
ATOM     28  C   UNL A   1      33.426  17.726  24.777  1.00  0.00     0.123 A 
ATOM     29  C   UNL A   1      34.803  17.563  24.611  1.00  0.00     0.041 A 
ATOM     30  F   UNL A   1      32.634  16.646  24.770  1.00  0.00    -0.207 F 
ENDBRANCH  16  19
ENDBRANCH   7  15
ENDBRANCH   5   7
ENDBRANCH   4   5
ENDBRANCH   3   4
ENDBRANCH   2   3
ENDBRANCH   1   2
BRANCH   1  31
ATOM     31  C   UNL A   1      31.860  30.437  25.969  1.00  0.00     0.202 C 
BRANCH  31  32
ATOM     32  C   UNL A   1      32.554  31.378  26.970  1.00  0.00     0.261 C 
BRANCH  32  33
ATOM     33  O   UNL A   1      33.852  30.881  27.333  1.00  0.00    -0.460 OA
BRANCH  33  34
ATOM     34  C   UNL A   1      34.593  31.722  28.101  1.00  0.00     0.338 C 
ATOM     35  O   UNL A   1      34.198  32.551  28.903  1.00  0.00    -0.246 OA
BRANCH  34  36
ATOM     36  C   UNL A   1      35.959  31.160  28.084  1.00  0.00     0.060 A 
ATOM     37  C   UNL A   1      36.159  29.813  27.781  1.00  0.00     0.016 A 
ATOM     38  C   UNL A   1      36.968  31.932  28.687  1.00  0.00     0.016 A 
ATOM     39  C   UNL A   1      37.352  29.222  28.169  1.00  0.00     0.010 A 
ATOM     40  C   UNL A   1      38.149  31.324  29.103  1.00  0.00     0.010 A 
ATOM     41  C   UNL A   1      38.328  29.961  28.874  1.00  0.00    -0.014 A 
BRANCH  41  42
ATOM     42  C   UNL A   1      39.608  29.290  29.113  1.00  0.00     0.031 A 
ATOM     43  C   UNL A   1      39.943  29.286  30.558  1.00  0.00     0.074 A 
ATOM     44  C   UNL A   1      40.406  28.643  28.238  1.00  0.00     0.049 A 
ATOM     45  N   UNL A   1      40.879  29.951  31.145  1.00  0.00    -0.248 NA
ATOM     46  C   UNL A   1      39.020  28.595  31.471  1.00  0.00     0.031 C 
ATOM     47  C   UNL A   1      40.103  28.250  26.862  1.00  0.00     0.029 A 
ATOM     48  N   UNL A   1      41.661  28.119  28.441  1.00  0.00    -0.354 N 
ATOM     49  C   UNL A   1      40.794  29.598  32.487  1.00  0.00     0.074 A 
ATOM     50  C   UNL A   1      39.542  28.911  32.657  1.00  0.00     0.031 C 
ATOM     51  C   UNL A   1      41.045  27.377  26.430  1.00  0.00     0.029 A 
ATOM     52  C   UNL A   1      42.090  27.260  27.437  1.00  0.00     0.049 A 
ATOM     53  H   UNL A   1      42.208  28.334  29.230  1.00  0.00     0.167 HD
ATOM     54  C   UNL A   1      41.896  29.642  33.280  1.00  0.00     0.037 A 
ATOM     55  C   UNL A   1      43.205  26.486  27.438  1.00  0.00     0.037 A 
ATOM     56  C   UNL A   1      42.950  30.415  32.676  1.00  0.00     0.049 A 
ATOM     57  C   UNL A   1      44.183  27.049  28.395  1.00  0.00     0.074 A 
ATOM     58  C   UNL A   1      43.304  31.738  32.544  1.00  0.00     0.029 A 
ATOM     59  N   UNL A   1      43.695  29.704  31.781  1.00  0.00    -0.354 N 
ATOM     60  N   UNL A   1      44.822  28.167  28.203  1.00  0.00    -0.248 NA
ATOM     61  C   UNL A   1      44.293  26.486  29.737  1.00  0.00     0.031 C 
ATOM     62  C   UNL A   1      44.227  31.805  31.455  1.00  0.00     0.029 A 
ATOM     63  C   UNL A   1      44.419  30.519  30.957  1.00  0.00     0.049 A 
ATOM     64  H   UNL A   1      43.710  28.721  31.735  1.00  0.00     0.167 HD
ATOM     65  C   UNL A   1      45.035  28.653  29.475  1.00  0.00     0.074 A 
ATOM     66  C   UNL A   1      44.874  27.512  30.363  1.00  0.00     0.031 C 
ATOM     67  C   UNL A   1      44.958  29.990  29.728  1.00  0.00     0.037 A 
BRANCH  54  68
ATOM     68  C   UNL A   1      42.232  28.580  34.307  1.00  0.00     0.057 A 
ATOM     69  C   UNL A   1      41.968  28.700  35.687  1.00  0.00     0.134 A 
ATOM     70  C   UNL A   1      42.497  27.273  33.860  1.00  0.00     0.134 A 
ATOM     71  F   UNL A   1      41.612  29.856  36.256  1.00  0.00    -0.206 F 
ATOM     72  C   UNL A   1      41.944  27.602  36.552  1.00  0.00     0.040 A 
ATOM     73  C   UNL A   1      42.425  26.161  34.709  1.00  0.00     0.040 A 
ATOM     74  F   UNL A   1      42.750  27.025  32.566  1.00  0.00    -0.206 F 
ATOM     75  C   UNL A   1      42.138  26.323  36.059  1.00  0.00     0.006 A 
ENDBRANCH  54  68
BRANCH  55  76
ATOM     76  C   UNL A   1      43.465  25.180  26.786  1.00  0.00     0.057 A 
ATOM     77  C   UNL A   1      44.020  25.114  25.500  1.00  0.00     0.134 A 
ATOM     78  C   UNL A   1      42.899  23.990  27.276  1.00  0.00     0.134 A 
ATOM     79  F   UNL A   1      44.526  26.209  24.912  1.00  0.00    -0.206 F 
ATOM     80  C   UNL A   1      43.989  23.946  24.731  1.00  0.00     0.040 A 
ATOM     81  C   UNL A   1      42.856  22.815  26.514  1.00  0.00     0.040 A 
ATOM     82  F   UNL A   1      42.310  23.958  28.480  1.00  0.00    -0.206 F 
ATOM     83  C   UNL A   1      43.390  22.795  25.230  1.00  0.00     0.006 A 
ENDBRANCH  55  76
BRANCH  67  84
ATOM     84  C   UNL A   1      45.274  30.918  28.604  1.00  0.00     0.057 A 
ATOM     85  C   UNL A   1      44.217  31.374  27.809  1.00  0.00     0.134 A 
ATOM     86  C   UNL A   1      46.564  31.353  28.269  1.00  0.00     0.134 A 
ATOM     87  F   UNL A   1      42.961  30.968  28.057  1.00  0.00    -0.206 F 
ATOM     88  C   UNL A   1      44.422  32.239  26.736  1.00  0.00     0.040 A 
ATOM     89  C   UNL A   1      46.779  32.248  27.217  1.00  0.00     0.040 A 
ATOM     90  F   UNL A   1      47.642  30.908  28.931  1.00  0.00    -0.206 F 
ATOM     91  C   UNL A   1      45.706  32.691  26.445  1.00  0.00     0.006 A 
ENDBRANCH  67  84
ENDBRANCH  41  42
ENDBRANCH  34  36
ENDBRANCH  33  34
ENDBRANCH  32  33
ENDBRANCH  31  32
ENDBRANCH   1  31
TORSDOF 17
ENDMDL
MODEL 3
REMARK VINA RESULT:     -11.5      3.665      8.496
REMARK SMILES CC1=C([C@H](NC(=O)[C@@H]2[C@H](C)c3cc(F)ccc3N2C)C(=O)OCCOCCOC(=O)c2ccc(-c3c4nc(c(-c5c(F)cccc5F)c5ccc([nH]5)c(-c5c(F)cccc5F)c5nc(c(-c6c(F)cccc6F)c6ccc3[nH]6)C=C5)C=C4)cc2)[C@@H](C)N=N1
REMARK SMILES IDX 25 1 24 2 23 3 22 4 20 5 21 6 4 7 3 8 1 9 2 10 88 11 85 12
REMARK SMILES IDX 87 13 86 14 5 15 6 16 7 18 8 19 9 20 18 21 11 22 10 23 17 24
REMARK SMILES IDX 19 25 12 26 16 27 13 28 15 29 14 30 26 31 27 32 28 33 29 34
REMARK SMILES IDX 30 35 31 36 32 37 84 38 33 39 83 40 34 41 35 42 36 43 77 44
REMARK SMILES IDX 37 45 82 46 76 47 78 48 38 49 81 50 75 51 74 52 39 54 65 55
REMARK SMILES IDX 48 56 64 57 49 58 52 59 63 60 79 61 50 62 51 63 62 65 80 66
REMARK SMILES IDX 53 67 40 68 41 69 46 70 42 71 43 72 45 73 47 74 44 75 66 76
REMARK SMILES IDX 67 77 72 78 68 79 69 80 71 81 73 82 70 83 54 84 55 85 60 86
REMARK SMILES IDX 56 87 57 88 59 89 61 90 58 91
REMARK H PARENT 5 17 78 53 52 64
REMARK Flexibility Score: inf
ROOT
ATOM      1  O   UNL A   1      33.266  31.669  27.796  1.00  0.00    -0.374 OA
ENDROOT
BRANCH   1   2
ATOM      2  C   UNL A   1      33.011  30.464  27.087  1.00  0.00     0.202 C 
BRANCH   2   3
ATOM      3  C   UNL A   1      33.964  29.278  27.275  1.00  0.00     0.261 C 
BRANCH   3   4
ATOM      4  O   UNL A   1      33.445  28.030  26.809  1.00  0.00    -0.461 OA
BRANCH   4   5
ATOM      5  C   UNL A   1      33.630  27.847  25.471  1.00  0.00     0.333 C 
ATOM      6  O   UNL A   1      34.309  28.571  24.751  1.00  0.00    -0.249 OA
BRANCH   5   7
ATOM      7  C   UNL A   1      32.778  26.694  24.917  1.00  0.00     0.223 C 
BRANCH   7   8
ATOM      8  C   UNL A   1      31.946  27.112  23.751  1.00  0.00     0.012 C 
ATOM      9  C   UNL A   1      33.202  26.055  21.794  1.00  0.00     0.069 C 
ATOM     10  C   UNL A   1      32.113  26.833  22.450  1.00  0.00     0.064 C 
ATOM     11  N   UNL A   1      31.075  27.284  21.679  1.00  0.00    -0.160 NA
ATOM     12  C   UNL A   1      30.651  27.860  23.817  1.00  0.00     0.156 C 
ATOM     13  N   UNL A   1      30.201  27.835  22.400  1.00  0.00    -0.181 NA
ATOM     14  C   UNL A   1      30.744  29.324  24.238  1.00  0.00     0.040 C 
ENDBRANCH   7   8
BRANCH   7  15
ATOM     15  N   UNL A   1      31.932  26.104  25.944  1.00  0.00    -0.337 N 
ATOM     16  C   UNL A   1      31.798  24.778  26.274  1.00  0.00     0.244 C 
ATOM     17  H   UNL A   1      31.387  26.735  26.467  1.00  0.00     0.164 HD
ATOM     18  O   UNL A   1      31.106  24.515  27.258  1.00  0.00    -0.273 OA
BRANCH  16  19
ATOM     19  C   UNL A   1      32.557  23.718  25.438  1.00  0.00     0.178 C 
ATOM     20  C   UNL A   1      31.993  23.393  24.021  1.00  0.00     0.050 C 
ATOM     21  N   UNL A   1      32.661  22.434  26.168  1.00  0.00    -0.362 N 
ATOM     22  C   UNL A   1      32.265  21.912  23.949  1.00  0.00    -0.016 A 
ATOM     23  C   UNL A   1      30.534  23.713  23.737  1.00  0.00     0.015 C 
ATOM     24  C   UNL A   1      32.648  21.432  25.208  1.00  0.00     0.041 A 
ATOM     25  C   UNL A   1      33.306  22.283  27.451  1.00  0.00     0.144 C 
ATOM     26  C   UNL A   1      32.174  21.077  22.846  1.00  0.00     0.045 A 
ATOM     27  C   UNL A   1      32.948  20.089  25.374  1.00  0.00     0.029 A 
ATOM     28  C   UNL A   1      32.476  19.732  23.027  1.00  0.00     0.123 A 
ATOM     29  C   UNL A   1      32.862  19.233  24.272  1.00  0.00     0.041 A 
ATOM     30  F   UNL A   1      32.393  18.894  21.984  1.00  0.00    -0.207 F 
ENDBRANCH  16  19
ENDBRANCH   7  15
ENDBRANCH   5   7
ENDBRANCH   4   5
ENDBRANCH   3   4
ENDBRANCH   2   3
ENDBRANCH   1   2
BRANCH   1  31
ATOM     31  C   UNL A   1      34.580  31.903  28.314  1.00  0.00     0.202 C 
BRANCH  31  32
ATOM     32  C   UNL A   1      34.765  32.189  29.815  1.00  0.00     0.261 C 
BRANCH  32  33
ATOM     33  O   UNL A   1      36.149  32.110  30.190  1.00  0.00    -0.460 OA
BRANCH  33  34
ATOM     34  C   UNL A   1      37.020  32.620  29.281  1.00  0.00     0.338 C 
ATOM     35  O   UNL A   1      37.133  33.777  28.915  1.00  0.00    -0.246 OA
BRANCH  34  36
ATOM     36  C   UNL A   1      38.067  31.589  29.126  1.00  0.00     0.060 A 
ATOM     37  C   UNL A   1      37.755  30.356  28.553  1.00  0.00     0.016 A 
ATOM     38  C   UNL A   1      39.254  31.778  29.853  1.00  0.00     0.016 A 
ATOM     39  C   UNL A   1      38.606  29.286  28.792  1.00  0.00     0.010 A 
ATOM     40  C   UNL A   1      40.086  30.693  30.116  1.00  0.00     0.010 A 
ATOM     41  C   UNL A   1      39.745  29.440  29.613  1.00  0.00    -0.014 A 
BRANCH  41  42
ATOM     42  C   UNL A   1      40.654  28.294  29.688  1.00  0.00     0.031 A 
ATOM     43  C   UNL A   1      41.152  28.101  31.072  1.00  0.00     0.074 A 
ATOM     44  C   UNL A   1      40.987  27.407  28.727  1.00  0.00     0.049 A 
ATOM     45  N   UNL A   1      42.349  28.301  31.507  1.00  0.00    -0.248 NA
ATOM     46  C   UNL A   1      40.160  27.819  32.121  1.00  0.00     0.031 C 
ATOM     47  C   UNL A   1      40.364  27.223  27.416  1.00  0.00     0.029 A 
ATOM     48  N   UNL A   1      41.929  26.407  28.765  1.00  0.00    -0.354 N 
ATOM     49  C   UNL A   1      42.311  27.967  32.856  1.00  0.00     0.074 A 
ATOM     50  C   UNL A   1      40.923  27.850  33.215  1.00  0.00     0.031 C 
ATOM     51  C   UNL A   1      40.793  26.055  26.879  1.00  0.00     0.029 A 
ATOM     52  C   UNL A   1      41.825  25.483  27.733  1.00  0.00     0.049 A 
ATOM     53  H   UNL A   1      42.618  26.350  29.466  1.00  0.00     0.167 HD
ATOM     54  C   UNL A   1      43.431  27.527  33.486  1.00  0.00     0.037 A 
ATOM     55  C   UNL A   1      42.511  24.319  27.598  1.00  0.00     0.037 A 
ATOM     56  C   UNL A   1      44.616  27.819  32.723  1.00  0.00     0.049 A 
ATOM     57  C   UNL A   1      43.754  24.396  28.395  1.00  0.00     0.074 A 
ATOM     58  C   UNL A   1      45.462  28.883  32.510  1.00  0.00     0.029 A 
ATOM     59  N   UNL A   1      44.872  26.896  31.751  1.00  0.00    -0.354 N 
ATOM     60  N   UNL A   1      44.764  25.159  28.089  1.00  0.00    -0.248 NA
ATOM     61  C   UNL A   1      43.805  23.791  29.722  1.00  0.00     0.031 C 
ATOM     62  C   UNL A   1      46.172  28.602  31.302  1.00  0.00     0.029 A 
ATOM     63  C   UNL A   1      45.747  27.370  30.814  1.00  0.00     0.049 A 
ATOM     64  H   UNL A   1      44.474  25.997  31.727  1.00  0.00     0.167 HD
ATOM     65  C   UNL A   1      45.330  25.469  29.307  1.00  0.00     0.074 A 
ATOM     66  C   UNL A   1      44.837  24.465  30.236  1.00  0.00     0.031 C 
ATOM     67  C   UNL A   1      45.846  26.710  29.536  1.00  0.00     0.037 A 
BRANCH  54  68
ATOM     68  C   UNL A   1      43.436  26.385  34.482  1.00  0.00     0.057 A 
ATOM     69  C   UNL A   1      43.566  25.026  34.129  1.00  0.00     0.134 A 
ATOM     70  C   UNL A   1      43.673  26.675  35.838  1.00  0.00     0.134 A 
ATOM     71  F   UNL A   1      43.461  24.594  32.868  1.00  0.00    -0.206 F 
ATOM     72  C   UNL A   1      43.929  24.036  35.046  1.00  0.00     0.040 A 
ATOM     73  C   UNL A   1      44.087  25.699  36.752  1.00  0.00     0.040 A 
ATOM     74  F   UNL A   1      43.594  27.934  36.297  1.00  0.00    -0.206 F 
ATOM     75  C   UNL A   1      44.225  24.375  36.356  1.00  0.00     0.006 A 
ENDBRANCH  54  68
BRANCH  55  76
ATOM     76  C   UNL A   1      42.117  23.046  26.948  1.00  0.00     0.057 A 
ATOM     77  C   UNL A   1      40.928  22.394  27.303  1.00  0.00     0.134 A 
ATOM     78  C   UNL A   1      43.034  22.293  26.196  1.00  0.00     0.134 A 
ATOM     79  F   UNL A   1      40.015  23.000  28.076  1.00  0.00    -0.206 F 
ATOM     80  C   UNL A   1      40.675  21.061  26.959  1.00  0.00     0.040 A 
ATOM     81  C   UNL A   1      42.797  20.956  25.850  1.00  0.00     0.040 A 
ATOM     82  F   UNL A   1      44.217  22.814  25.838  1.00  0.00    -0.206 F 
ATOM     83  C   UNL A   1      41.619  20.331  26.245  1.00  0.00     0.006 A 
ENDBRANCH  55  76
BRANCH  67  84
ATOM     84  C   UNL A   1      46.360  27.465  28.356  1.00  0.00     0.057 A 
ATOM     85  C   UNL A   1      45.486  28.341  27.704  1.00  0.00     0.134 A 
ATOM     86  C   UNL A   1      47.655  27.344  27.835  1.00  0.00     0.134 A 
ATOM     87  F   UNL A   1      44.220  28.478  28.133  1.00  0.00    -0.206 F 
ATOM     88  C   UNL A   1      45.880  29.082  26.592  1.00  0.00     0.040 A 
ATOM     89  C   UNL A   1      48.074  28.108  26.742  1.00  0.00     0.040 A 
ATOM     90  F   UNL A   1      48.535  26.474  28.353  1.00  0.00    -0.206 F 
ATOM     91  C   UNL A   1      47.184  28.978  26.115  1.00  0.00     0.006 A 
ENDBRANCH  67  84
ENDBRANCH  41  42
ENDBRANCH  34  36
ENDBRANCH  33  34
ENDBRANCH  32  33
ENDBRANCH  31  32
ENDBRANCH   1  31
TORSDOF 17
ENDMDL
