MODEL 1
REMARK VINA RESULT:      -8.8      0.000      0.000
REMARK SMILES COc1cc(C(=O)OCCOCCOC(=O)c2ccc(-c3c4nc(c(-c5c(F)cccc5F)c5ccc([nH]5)c(-c5c(F)cccc5F)c5nc(c(-c6c(F)cccc6F)c6ccc3[nH]6)C=C5)C=C4)cc2)cc(OC)c1OCc1csc(C)n1
REMARK SMILES IDX 10 1 9 2 8 3 6 4 7 5 5 6 3 7 4 8 75 9 72 10 71 11 2 12 1 13
REMARK SMILES IDX 76 14 77 15 78 16 79 17 83 18 80 19 81 20 82 21 73 22 74 23
REMARK SMILES IDX 11 24 12 25 13 26 14 27 15 28 16 29 17 30 18 31 70 32 19 33
REMARK SMILES IDX 69 34 20 35 21 36 22 37 63 38 23 39 68 40 62 41 64 42 24 43
REMARK SMILES IDX 67 44 61 45 60 46 25 48 51 49 34 50 50 51 35 52 38 53 49 54
REMARK SMILES IDX 65 55 36 56 37 57 48 59 66 60 39 61 26 62 27 63 32 64 28 65
REMARK SMILES IDX 29 66 31 67 33 68 30 69 52 70 53 71 58 72 54 73 55 74 57 75
REMARK SMILES IDX 59 76 56 77 40 78 41 79 46 80 42 81 43 82 45 83 47 84 44 85
REMARK H PARENT 64 47 38 58
REMARK Flexibility Score: inf
ROOT
ATOM      1  C   UNL A   1      33.574  35.158  32.634  1.00  0.00     0.202 C 
ENDROOT
BRANCH   1   2
ATOM      2  C   UNL A   1      33.980  33.775  33.153  1.00  0.00     0.261 C 
BRANCH   2   3
ATOM      3  O   UNL A   1      35.347  33.467  32.829  1.00  0.00    -0.460 OA
BRANCH   3   4
ATOM      4  C   UNL A   1      36.271  34.190  33.509  1.00  0.00     0.338 C 
ATOM      5  O   UNL A   1      36.513  35.378  33.386  1.00  0.00    -0.246 OA
BRANCH   4   6
ATOM      6  C   UNL A   1      36.827  33.380  34.612  1.00  0.00     0.067 A 
ATOM      7  C   UNL A   1      37.824  31.274  35.281  1.00  0.00     0.165 A 
ATOM      8  C   UNL A   1      37.296  32.106  34.290  1.00  0.00     0.066 A 
ATOM      9  C   UNL A   1      37.842  31.699  36.626  1.00  0.00     0.203 A 
ATOM     10  C   UNL A   1      37.442  33.024  36.927  1.00  0.00     0.165 A 
ATOM     11  C   UNL A   1      36.938  33.856  35.914  1.00  0.00     0.066 A 
BRANCH   7  12
ATOM     12  O   UNL A   1      38.438  30.094  34.936  1.00  0.00    -0.493 OA
ATOM     13  C   UNL A   1      39.287  30.170  33.791  1.00  0.00     0.278 C 
ENDBRANCH   7  12
BRANCH   9  14
ATOM     14  O   UNL A   1      38.200  30.912  37.687  1.00  0.00    -0.480 OA
BRANCH  14  15
ATOM     15  C   UNL A   1      37.231  30.176  38.446  1.00  0.00     0.287 C 
BRANCH  15  16
ATOM     16  C   UNL A   1      36.837  30.710  39.800  1.00  0.00     0.089 A 
ATOM     17  C   UNL A   1      35.673  31.414  40.058  1.00  0.00     0.094 A 
ATOM     18  N   UNL A   1      37.665  30.564  40.909  1.00  0.00    -0.243 NA
ATOM     19  S   UNL A   1      35.633  31.938  41.686  1.00  0.00    -0.127 S 
ATOM     20  C   UNL A   1      37.159  31.195  41.947  1.00  0.00     0.090 A 
ATOM     21  C   UNL A   1      37.837  31.329  43.265  1.00  0.00     0.079 C 
ENDBRANCH  15  16
ENDBRANCH  14  15
ENDBRANCH   9  14
BRANCH  10  22
ATOM     22  O   UNL A   1      37.456  33.666  38.142  1.00  0.00    -0.493 OA
ATOM     23  C   UNL A   1      38.702  33.947  38.764  1.00  0.00     0.278 C 
ENDBRANCH  10  22
ENDBRANCH   4   6
ENDBRANCH   3   4
ENDBRANCH   2   3
ENDBRANCH   1   2
BRANCH   1  24
ATOM     24  O   UNL A   1      32.318  35.255  31.964  1.00  0.00    -0.374 OA
BRANCH  24  25
ATOM     25  C   UNL A   1      32.268  36.031  30.767  1.00  0.00     0.202 C 
BRANCH  25  26
ATOM     26  C   UNL A   1      33.551  36.120  29.933  1.00  0.00     0.261 C 
BRANCH  26  27
ATOM     27  O   UNL A   1      33.345  35.726  28.566  1.00  0.00    -0.460 OA
BRANCH  27  28
ATOM     28  C   UNL A   1      33.156  34.398  28.379  1.00  0.00     0.338 C 
ATOM     29  O   UNL A   1      32.152  33.839  27.977  1.00  0.00    -0.246 OA
BRANCH  28  30
ATOM     30  C   UNL A   1      34.434  33.690  28.577  1.00  0.00     0.060 A 
ATOM     31  C   UNL A   1      34.485  32.690  29.558  1.00  0.00     0.016 A 
ATOM     32  C   UNL A   1      35.579  34.047  27.864  1.00  0.00     0.016 A 
ATOM     33  C   UNL A   1      35.696  32.074  29.865  1.00  0.00     0.010 A 
ATOM     34  C   UNL A   1      36.794  33.435  28.179  1.00  0.00     0.010 A 
ATOM     35  C   UNL A   1      36.864  32.471  29.203  1.00  0.00    -0.014 A 
BRANCH  35  36
ATOM     36  C   UNL A   1      38.189  32.010  29.679  1.00  0.00     0.031 A 
ATOM     37  C   UNL A   1      38.693  30.671  29.220  1.00  0.00     0.074 A 
ATOM     38  C   UNL A   1      38.924  32.759  30.520  1.00  0.00     0.049 A 
ATOM     39  N   UNL A   1      39.744  29.998  29.612  1.00  0.00    -0.248 NA
ATOM     40  C   UNL A   1      37.896  29.996  28.183  1.00  0.00     0.031 C 
ATOM     41  C   UNL A   1      38.563  34.092  31.000  1.00  0.00     0.029 A 
ATOM     42  N   UNL A   1      40.118  32.488  31.139  1.00  0.00    -0.354 N 
ATOM     43  C   UNL A   1      39.727  28.817  28.881  1.00  0.00     0.074 A 
ATOM     44  C   UNL A   1      38.547  28.851  28.044  1.00  0.00     0.031 C 
ATOM     45  C   UNL A   1      39.503  34.511  31.865  1.00  0.00     0.029 A 
ATOM     46  C   UNL A   1      40.505  33.459  32.029  1.00  0.00     0.049 A 
ATOM     47  H   UNL A   1      40.645  31.676  30.962  1.00  0.00     0.167 HD
ATOM     48  C   UNL A   1      40.619  27.799  28.901  1.00  0.00     0.037 A 
ATOM     49  C   UNL A   1      41.529  33.476  32.905  1.00  0.00     0.037 A 
ATOM     50  C   UNL A   1      41.788  27.770  29.739  1.00  0.00     0.049 A 
ATOM     51  C   UNL A   1      42.467  32.299  32.967  1.00  0.00     0.074 A 
ATOM     52  C   UNL A   1      42.756  26.785  29.835  1.00  0.00     0.029 A 
ATOM     53  N   UNL A   1      42.146  28.773  30.627  1.00  0.00    -0.354 N 
ATOM     54  N   UNL A   1      42.449  31.188  32.270  1.00  0.00    -0.248 NA
ATOM     55  C   UNL A   1      43.569  32.376  33.938  1.00  0.00     0.031 C 
ATOM     56  C   UNL A   1      43.674  27.171  30.817  1.00  0.00     0.029 A 
ATOM     57  C   UNL A   1      43.311  28.423  31.289  1.00  0.00     0.049 A 
ATOM     58  H   UNL A   1      41.647  29.609  30.768  1.00  0.00     0.167 HD
ATOM     59  C   UNL A   1      43.553  30.454  32.691  1.00  0.00     0.074 A 
ATOM     60  C   UNL A   1      44.222  31.247  33.700  1.00  0.00     0.031 C 
ATOM     61  C   UNL A   1      43.977  29.235  32.274  1.00  0.00     0.037 A 
BRANCH  48  62
ATOM     62  C   UNL A   1      40.349  26.624  28.009  1.00  0.00     0.057 A 
ATOM     63  C   UNL A   1      40.962  26.490  26.756  1.00  0.00     0.134 A 
ATOM     64  C   UNL A   1      39.490  25.597  28.420  1.00  0.00     0.134 A 
ATOM     65  F   UNL A   1      41.784  27.445  26.296  1.00  0.00    -0.206 F 
ATOM     66  C   UNL A   1      40.711  25.389  25.935  1.00  0.00     0.040 A 
ATOM     67  C   UNL A   1      39.253  24.478  27.620  1.00  0.00     0.040 A 
ATOM     68  F   UNL A   1      38.873  25.659  29.610  1.00  0.00    -0.206 F 
ATOM     69  C   UNL A   1      39.860  24.375  26.369  1.00  0.00     0.006 A 
ENDBRANCH  48  62
BRANCH  49  70
ATOM     70  C   UNL A   1      41.708  34.633  33.817  1.00  0.00     0.057 A 
ATOM     71  C   UNL A   1      41.056  34.693  35.054  1.00  0.00     0.134 A 
ATOM     72  C   UNL A   1      42.518  35.721  33.464  1.00  0.00     0.134 A 
ATOM     73  F   UNL A   1      40.250  33.693  35.440  1.00  0.00    -0.206 F 
ATOM     74  C   UNL A   1      41.184  35.799  35.896  1.00  0.00     0.040 A 
ATOM     75  C   UNL A   1      42.676  36.820  34.308  1.00  0.00     0.040 A 
ATOM     76  F   UNL A   1      43.171  35.727  32.293  1.00  0.00    -0.206 F 
ATOM     77  C   UNL A   1      42.000  36.865  35.525  1.00  0.00     0.006 A 
ENDBRANCH  49  70
BRANCH  61  78
ATOM     78  C   UNL A   1      45.253  28.705  32.860  1.00  0.00     0.057 A 
ATOM     79  C   UNL A   1      45.270  27.885  33.994  1.00  0.00     0.134 A 
ATOM     80  C   UNL A   1      46.480  28.966  32.233  1.00  0.00     0.134 A 
ATOM     81  F   UNL A   1      44.131  27.605  34.647  1.00  0.00    -0.206 F 
ATOM     82  C   UNL A   1      46.461  27.355  34.494  1.00  0.00     0.040 A 
ATOM     83  C   UNL A   1      47.674  28.421  32.707  1.00  0.00     0.040 A 
ATOM     84  F   UNL A   1      46.534  29.736  31.136  1.00  0.00    -0.206 F 
ATOM     85  C   UNL A   1      47.666  27.616  33.843  1.00  0.00     0.006 A 
ENDBRANCH  61  78
ENDBRANCH  35  36
ENDBRANCH  28  30
ENDBRANCH  27  28
ENDBRANCH  26  27
ENDBRANCH  25  26
ENDBRANCH  24  25
ENDBRANCH   1  24
TORSDOF 19
ENDMDL
MODEL 2
REMARK VINA RESULT:      -8.8      5.041     10.377
REMARK SMILES COc1cc(C(=O)OCCOCCOC(=O)c2ccc(-c3c4nc(c(-c5c(F)cccc5F)c5ccc([nH]5)c(-c5c(F)cccc5F)c5nc(c(-c6c(F)cccc6F)c6ccc3[nH]6)C=C5)C=C4)cc2)cc(OC)c1OCc1csc(C)n1
REMARK SMILES IDX 10 1 9 2 8 3 6 4 7 5 5 6 3 7 4 8 75 9 72 10 71 11 2 12 1 13
REMARK SMILES IDX 76 14 77 15 78 16 79 17 83 18 80 19 81 20 82 21 73 22 74 23
REMARK SMILES IDX 11 24 12 25 13 26 14 27 15 28 16 29 17 30 18 31 70 32 19 33
REMARK SMILES IDX 69 34 20 35 21 36 22 37 63 38 23 39 68 40 62 41 64 42 24 43
REMARK SMILES IDX 67 44 61 45 60 46 25 48 51 49 34 50 50 51 35 52 38 53 49 54
REMARK SMILES IDX 65 55 36 56 37 57 48 59 66 60 39 61 26 62 27 63 32 64 28 65
REMARK SMILES IDX 29 66 31 67 33 68 30 69 52 70 53 71 58 72 54 73 55 74 57 75
REMARK SMILES IDX 59 76 56 77 40 78 41 79 46 80 42 81 43 82 45 83 47 84 44 85
REMARK H PARENT 64 47 38 58
REMARK Flexibility Score: inf
ROOT
ATOM      1  C   UNL A   1      31.945  28.946  26.798  1.00  0.00     0.202 C 
ENDROOT
BRANCH   1   2
ATOM      2  C   UNL A   1      31.714  28.327  25.415  1.00  0.00     0.261 C 
BRANCH   2   3
ATOM      3  O   UNL A   1      30.467  27.614  25.356  1.00  0.00    -0.460 OA
BRANCH   3   4
ATOM      4  C   UNL A   1      30.294  26.860  24.242  1.00  0.00     0.338 C 
ATOM      5  O   UNL A   1      30.049  27.256  23.115  1.00  0.00    -0.246 OA
BRANCH   4   6
ATOM      6  C   UNL A   1      30.662  25.458  24.523  1.00  0.00     0.067 A 
ATOM      7  C   UNL A   1      30.790  23.684  26.172  1.00  0.00     0.165 A 
ATOM      8  C   UNL A   1      30.454  24.996  25.823  1.00  0.00     0.066 A 
ATOM      9  C   UNL A   1      31.389  22.832  25.221  1.00  0.00     0.203 A 
ATOM     10  C   UNL A   1      31.519  23.284  23.886  1.00  0.00     0.165 A 
ATOM     11  C   UNL A   1      31.151  24.597  23.547  1.00  0.00     0.066 A 
BRANCH   7  12
ATOM     12  O   UNL A   1      30.427  23.183  27.398  1.00  0.00    -0.493 OA
ATOM     13  C   UNL A   1      29.126  22.599  27.450  1.00  0.00     0.278 C 
ENDBRANCH   7  12
BRANCH   9  14
ATOM     14  O   UNL A   1      31.887  21.587  25.497  1.00  0.00    -0.480 OA
BRANCH  14  15
ATOM     15  C   UNL A   1      33.062  21.401  26.298  1.00  0.00     0.287 C 
BRANCH  15  16
ATOM     16  C   UNL A   1      34.325  22.107  25.877  1.00  0.00     0.089 A 
ATOM     17  C   UNL A   1      35.003  23.032  26.654  1.00  0.00     0.094 A 
ATOM     18  N   UNL A   1      34.890  21.903  24.623  1.00  0.00    -0.243 NA
ATOM     19  S   UNL A   1      36.329  23.686  25.793  1.00  0.00    -0.127 S 
ATOM     20  C   UNL A   1      35.924  22.699  24.447  1.00  0.00     0.090 A 
ATOM     21  C   UNL A   1      36.695  22.814  23.179  1.00  0.00     0.079 C 
ENDBRANCH  15  16
ENDBRANCH  14  15
ENDBRANCH   9  14
BRANCH  10  22
ATOM     22  O   UNL A   1      31.992  22.599  22.793  1.00  0.00    -0.493 OA
ATOM     23  C   UNL A   1      33.063  23.151  22.039  1.00  0.00     0.278 C 
ENDBRANCH  10  22
ENDBRANCH   4   6
ENDBRANCH   3   4
ENDBRANCH   2   3
ENDBRANCH   1   2
BRANCH   1  24
ATOM     24  O   UNL A   1      32.346  30.315  26.836  1.00  0.00    -0.374 OA
BRANCH  24  25
ATOM     25  C   UNL A   1      31.443  31.281  26.296  1.00  0.00     0.202 C 
BRANCH  25  26
ATOM     26  C   UNL A   1      31.485  32.692  26.892  1.00  0.00     0.261 C 
BRANCH  26  27
ATOM     27  O   UNL A   1      32.790  33.287  26.804  1.00  0.00    -0.460 OA
BRANCH  27  28
ATOM     28  C   UNL A   1      33.271  33.778  27.971  1.00  0.00     0.338 C 
ATOM     29  O   UNL A   1      32.736  34.576  28.718  1.00  0.00    -0.246 OA
BRANCH  28  30
ATOM     30  C   UNL A   1      34.513  33.066  28.326  1.00  0.00     0.060 A 
ATOM     31  C   UNL A   1      34.454  31.672  28.461  1.00  0.00     0.016 A 
ATOM     32  C   UNL A   1      35.696  33.758  28.590  1.00  0.00     0.016 A 
ATOM     33  C   UNL A   1      35.569  30.967  28.908  1.00  0.00     0.010 A 
ATOM     34  C   UNL A   1      36.809  33.051  29.048  1.00  0.00     0.010 A 
ATOM     35  C   UNL A   1      36.740  31.658  29.241  1.00  0.00    -0.014 A 
BRANCH  35  36
ATOM     36  C   UNL A   1      37.845  30.965  29.945  1.00  0.00     0.031 A 
ATOM     37  C   UNL A   1      38.106  31.304  31.385  1.00  0.00     0.074 A 
ATOM     38  C   UNL A   1      38.615  30.064  29.310  1.00  0.00     0.049 A 
ATOM     39  N   UNL A   1      39.096  30.942  32.159  1.00  0.00    -0.248 NA
ATOM     40  C   UNL A   1      37.119  32.180  32.037  1.00  0.00     0.031 C 
ATOM     41  C   UNL A   1      38.433  29.620  27.929  1.00  0.00     0.029 A 
ATOM     42  N   UNL A   1      39.724  29.382  29.742  1.00  0.00    -0.354 N 
ATOM     43  C   UNL A   1      38.859  31.555  33.383  1.00  0.00     0.074 A 
ATOM     44  C   UNL A   1      37.649  32.335  33.241  1.00  0.00     0.031 C 
ATOM     45  C   UNL A   1      39.418  28.760  27.617  1.00  0.00     0.029 A 
ATOM     46  C   UNL A   1      40.319  28.629  28.760  1.00  0.00     0.049 A 
ATOM     47  H   UNL A   1      40.061  29.429  30.666  1.00  0.00     0.167 HD
ATOM     48  C   UNL A   1      39.582  31.468  34.524  1.00  0.00     0.037 A 
ATOM     49  C   UNL A   1      41.480  27.945  28.774  1.00  0.00     0.037 A 
ATOM     50  C   UNL A   1      40.786  30.693  34.658  1.00  0.00     0.049 A 
ATOM     51  C   UNL A   1      42.311  27.925  30.031  1.00  0.00     0.074 A 
ATOM     52  C   UNL A   1      41.594  30.538  35.771  1.00  0.00     0.029 A 
ATOM     53  N   UNL A   1      41.357  29.943  33.640  1.00  0.00    -0.354 N 
ATOM     54  N   UNL A   1      42.079  28.502  31.186  1.00  0.00    -0.248 NA
ATOM     55  C   UNL A   1      43.565  27.158  29.988  1.00  0.00     0.031 C 
ATOM     56  C   UNL A   1      42.680  29.733  35.413  1.00  0.00     0.029 A 
ATOM     57  C   UNL A   1      42.516  29.338  34.095  1.00  0.00     0.049 A 
ATOM     58  H   UNL A   1      40.993  29.854  32.730  1.00  0.00     0.167 HD
ATOM     59  C   UNL A   1      43.135  28.138  32.014  1.00  0.00     0.074 A 
ATOM     60  C   UNL A   1      44.007  27.288  31.231  1.00  0.00     0.031 C 
ATOM     61  C   UNL A   1      43.360  28.474  33.309  1.00  0.00     0.037 A 
BRANCH  48  62
ATOM     62  C   UNL A   1      39.101  32.252  35.710  1.00  0.00     0.057 A 
ATOM     63  C   UNL A   1      39.473  33.587  35.914  1.00  0.00     0.134 A 
ATOM     64  C   UNL A   1      38.228  31.676  36.642  1.00  0.00     0.134 A 
ATOM     65  F   UNL A   1      40.317  34.195  35.067  1.00  0.00    -0.206 F 
ATOM     66  C   UNL A   1      39.015  34.313  37.015  1.00  0.00     0.040 A 
ATOM     67  C   UNL A   1      37.741  32.399  37.731  1.00  0.00     0.040 A 
ATOM     68  F   UNL A   1      37.828  30.402  36.504  1.00  0.00    -0.206 F 
ATOM     69  C   UNL A   1      38.140  33.720  37.924  1.00  0.00     0.006 A 
ENDBRANCH  48  62
BRANCH  49  70
ATOM     70  C   UNL A   1      41.947  27.247  27.550  1.00  0.00     0.057 A 
ATOM     71  C   UNL A   1      42.694  27.913  26.571  1.00  0.00     0.134 A 
ATOM     72  C   UNL A   1      41.636  25.901  27.316  1.00  0.00     0.134 A 
ATOM     73  F   UNL A   1      43.004  29.208  26.726  1.00  0.00    -0.206 F 
ATOM     74  C   UNL A   1      43.095  27.274  25.397  1.00  0.00     0.040 A 
ATOM     75  C   UNL A   1      42.055  25.243  26.160  1.00  0.00     0.040 A 
ATOM     76  F   UNL A   1      40.924  25.204  28.214  1.00  0.00    -0.206 F 
ATOM     77  C   UNL A   1      42.779  25.933  25.191  1.00  0.00     0.006 A 
ENDBRANCH  49  70
BRANCH  61  78
ATOM     78  C   UNL A   1      44.560  27.878  33.984  1.00  0.00     0.057 A 
ATOM     79  C   UNL A   1      45.817  28.493  33.952  1.00  0.00     0.134 A 
ATOM     80  C   UNL A   1      44.435  26.702  34.738  1.00  0.00     0.134 A 
ATOM     81  F   UNL A   1      46.006  29.616  33.240  1.00  0.00    -0.206 F 
ATOM     82  C   UNL A   1      46.911  27.954  34.631  1.00  0.00     0.040 A 
ATOM     83  C   UNL A   1      45.514  26.168  35.443  1.00  0.00     0.040 A 
ATOM     84  F   UNL A   1      43.257  26.067  34.819  1.00  0.00    -0.206 F 
ATOM     85  C   UNL A   1      46.758  26.793  35.388  1.00  0.00     0.006 A 
ENDBRANCH  61  78
ENDBRANCH  35  36
ENDBRANCH  28  30
ENDBRANCH  27  28
ENDBRANCH  26  27
ENDBRANCH  25  26
ENDBRANCH  24  25
ENDBRANCH   1  24
TORSDOF 19
ENDMDL
MODEL 3
REMARK VINA RESULT:      -8.8      5.039      9.172
REMARK SMILES COc1cc(C(=O)OCCOCCOC(=O)c2ccc(-c3c4nc(c(-c5c(F)cccc5F)c5ccc([nH]5)c(-c5c(F)cccc5F)c5nc(c(-c6c(F)cccc6F)c6ccc3[nH]6)C=C5)C=C4)cc2)cc(OC)c1OCc1csc(C)n1
REMARK SMILES IDX 10 1 9 2 8 3 6 4 7 5 5 6 3 7 4 8 75 9 72 10 71 11 2 12 1 13
REMARK SMILES IDX 76 14 77 15 78 16 79 17 83 18 80 19 81 20 82 21 73 22 74 23
REMARK SMILES IDX 11 24 12 25 13 26 14 27 15 28 16 29 17 30 18 31 70 32 19 33
REMARK SMILES IDX 69 34 20 35 21 36 22 37 63 38 23 39 68 40 62 41 64 42 24 43
REMARK SMILES IDX 67 44 61 45 60 46 25 48 51 49 34 50 50 51 35 52 38 53 49 54
REMARK SMILES IDX 65 55 36 56 37 57 48 59 66 60 39 61 26 62 27 63 32 64 28 65
REMARK SMILES IDX 29 66 31 67 33 68 30 69 52 70 53 71 58 72 54 73 55 74 57 75
REMARK SMILES IDX 59 76 56 77 40 78 41 79 46 80 42 81 43 82 45 83 47 84 44 85
REMARK H PARENT 64 47 38 58
REMARK Flexibility Score: inf
ROOT
ATOM      1  C   UNL A   1      32.699  27.064  24.714  1.00  0.00     0.202 C 
ENDROOT
BRANCH   1   2
ATOM      2  C   UNL A   1      32.916  26.223  23.452  1.00  0.00     0.261 C 
BRANCH   2   3
ATOM      3  O   UNL A   1      32.782  24.817  23.722  1.00  0.00    -0.460 OA
BRANCH   3   4
ATOM      4  C   UNL A   1      33.456  24.006  22.869  1.00  0.00     0.338 C 
ATOM      5  O   UNL A   1      33.496  24.085  21.654  1.00  0.00    -0.246 OA
BRANCH   4   6
ATOM      6  C   UNL A   1      34.346  23.106  23.632  1.00  0.00     0.067 A 
ATOM      7  C   UNL A   1      36.520  22.793  24.658  1.00  0.00     0.165 A 
ATOM      8  C   UNL A   1      35.615  23.589  23.951  1.00  0.00     0.066 A 
ATOM      9  C   UNL A   1      36.172  21.473  25.014  1.00  0.00     0.203 A 
ATOM     10  C   UNL A   1      34.853  21.023  24.759  1.00  0.00     0.165 A 
ATOM     11  C   UNL A   1      33.948  21.848  24.070  1.00  0.00     0.066 A 
BRANCH   7  12
ATOM     12  O   UNL A   1      37.699  23.329  25.117  1.00  0.00    -0.493 OA
ATOM     13  C   UNL A   1      37.598  24.037  26.352  1.00  0.00     0.278 C 
ENDBRANCH   7  12
BRANCH   9  14
ATOM     14  O   UNL A   1      37.030  20.566  25.575  1.00  0.00    -0.480 OA
BRANCH  14  15
ATOM     15  C   UNL A   1      38.197  20.099  24.884  1.00  0.00     0.287 C 
BRANCH  15  16
ATOM     16  C   UNL A   1      39.510  20.108  25.625  1.00  0.00     0.089 A 
ATOM     17  C   UNL A   1      40.001  21.189  26.338  1.00  0.00     0.094 A 
ATOM     18  N   UNL A   1      40.365  19.011  25.604  1.00  0.00    -0.243 NA
ATOM     19  S   UNL A   1      41.562  20.848  26.949  1.00  0.00    -0.127 S 
ATOM     20  C   UNL A   1      41.487  19.289  26.234  1.00  0.00     0.090 A 
ATOM     21  C   UNL A   1      42.660  18.376  26.311  1.00  0.00     0.079 C 
ENDBRANCH  15  16
ENDBRANCH  14  15
ENDBRANCH   9  14
BRANCH  10  22
ATOM     22  O   UNL A   1      34.281  19.819  25.090  1.00  0.00    -0.493 OA
ATOM     23  C   UNL A   1      32.873  19.746  25.268  1.00  0.00     0.278 C 
ENDBRANCH  10  22
ENDBRANCH   4   6
ENDBRANCH   3   4
ENDBRANCH   2   3
ENDBRANCH   1   2
BRANCH   1  24
ATOM     24  O   UNL A   1      31.894  28.234  24.582  1.00  0.00    -0.374 OA
BRANCH  24  25
ATOM     25  C   UNL A   1      32.508  29.492  24.865  1.00  0.00     0.202 C 
BRANCH  25  26
ATOM     26  C   UNL A   1      31.734  30.466  25.761  1.00  0.00     0.261 C 
BRANCH  26  27
ATOM     27  O   UNL A   1      32.334  30.612  27.058  1.00  0.00    -0.460 OA
BRANCH  27  28
ATOM     28  C   UNL A   1      32.989  31.781  27.253  1.00  0.00     0.338 C 
ATOM     29  O   UNL A   1      32.531  32.908  27.201  1.00  0.00    -0.246 OA
BRANCH  28  30
ATOM     30  C   UNL A   1      34.359  31.502  27.722  1.00  0.00     0.060 A 
ATOM     31  C   UNL A   1      34.743  30.161  27.863  1.00  0.00     0.016 A 
ATOM     32  C   UNL A   1      35.226  32.533  28.085  1.00  0.00     0.016 A 
ATOM     33  C   UNL A   1      35.983  29.844  28.413  1.00  0.00     0.010 A 
ATOM     34  C   UNL A   1      36.465  32.214  28.645  1.00  0.00     0.010 A 
ATOM     35  C   UNL A   1      36.834  30.869  28.843  1.00  0.00    -0.014 A 
BRANCH  35  36
ATOM     36  C   UNL A   1      38.039  30.556  29.647  1.00  0.00     0.031 A 
ATOM     37  C   UNL A   1      39.057  29.609  29.079  1.00  0.00     0.074 A 
ATOM     38  C   UNL A   1      38.215  31.089  30.868  1.00  0.00     0.049 A 
ATOM     39  N   UNL A   1      40.108  29.077  29.648  1.00  0.00    -0.248 NA
ATOM     40  C   UNL A   1      38.857  29.201  27.678  1.00  0.00     0.031 C 
ATOM     41  C   UNL A   1      37.321  32.053  31.508  1.00  0.00     0.029 A 
ATOM     42  N   UNL A   1      39.199  30.870  31.799  1.00  0.00    -0.354 N 
ATOM     43  C   UNL A   1      40.685  28.261  28.682  1.00  0.00     0.074 A 
ATOM     44  C   UNL A   1      39.853  28.346  27.502  1.00  0.00     0.031 C 
ATOM     45  C   UNL A   1      37.782  32.319  32.742  1.00  0.00     0.029 A 
ATOM     46  C   UNL A   1      38.977  31.514  32.992  1.00  0.00     0.049 A 
ATOM     47  H   UNL A   1      39.987  30.306  31.629  1.00  0.00     0.167 HD
ATOM     48  C   UNL A   1      41.811  27.515  28.772  1.00  0.00     0.037 A 
ATOM     49  C   UNL A   1      39.640  31.430  34.161  1.00  0.00     0.037 A 
ATOM     50  C   UNL A   1      42.631  27.432  29.951  1.00  0.00     0.049 A 
ATOM     51  C   UNL A   1      40.846  30.532  34.263  1.00  0.00     0.074 A 
ATOM     52  C   UNL A   1      43.792  26.705  30.145  1.00  0.00     0.029 A 
ATOM     53  N   UNL A   1      42.372  28.100  31.138  1.00  0.00    -0.354 N 
ATOM     54  N   UNL A   1      41.390  29.769  33.346  1.00  0.00    -0.248 NA
ATOM     55  C   UNL A   1      41.532  30.485  35.563  1.00  0.00     0.031 C 
ATOM     56  C   UNL A   1      44.210  26.895  31.465  1.00  0.00     0.029 A 
ATOM     57  C   UNL A   1      43.342  27.787  32.075  1.00  0.00     0.049 A 
ATOM     58  H   UNL A   1      41.612  28.705  31.293  1.00  0.00     0.167 HD
ATOM     59  C   UNL A   1      42.499  29.181  33.945  1.00  0.00     0.074 A 
ATOM     60  C   UNL A   1      42.553  29.680  35.303  1.00  0.00     0.031 C 
ATOM     61  C   UNL A   1      43.395  28.312  33.416  1.00  0.00     0.037 A 
BRANCH  48  62
ATOM     62  C   UNL A   1      42.205  26.711  27.568  1.00  0.00     0.057 A 
ATOM     63  C   UNL A   1      41.757  25.397  27.378  1.00  0.00     0.134 A 
ATOM     64  C   UNL A   1      43.016  27.267  26.571  1.00  0.00     0.134 A 
ATOM     65  F   UNL A   1      40.990  24.799  28.302  1.00  0.00    -0.206 F 
ATOM     66  C   UNL A   1      42.123  24.657  26.251  1.00  0.00     0.040 A 
ATOM     67  C   UNL A   1      43.365  26.547  25.427  1.00  0.00     0.040 A 
ATOM     68  F   UNL A   1      43.476  28.522  26.687  1.00  0.00    -0.206 F 
ATOM     69  C   UNL A   1      42.923  25.235  25.268  1.00  0.00     0.006 A 
ENDBRANCH  48  62
BRANCH  49  70
ATOM     70  C   UNL A   1      39.163  32.191  35.343  1.00  0.00     0.057 A 
ATOM     71  C   UNL A   1      39.522  33.529  35.540  1.00  0.00     0.134 A 
ATOM     72  C   UNL A   1      38.356  31.592  36.319  1.00  0.00     0.134 A 
ATOM     73  F   UNL A   1      40.312  34.153  34.654  1.00  0.00    -0.206 F 
ATOM     74  C   UNL A   1      39.116  34.237  36.672  1.00  0.00     0.040 A 
ATOM     75  C   UNL A   1      37.920  32.296  37.441  1.00  0.00     0.040 A 
ATOM     76  F   UNL A   1      37.975  30.313  36.190  1.00  0.00    -0.206 F 
ATOM     77  C   UNL A   1      38.308  33.621  37.625  1.00  0.00     0.006 A 
ENDBRANCH  49  70
BRANCH  61  78
ATOM     78  C   UNL A   1      44.546  27.886  34.281  1.00  0.00     0.057 A 
ATOM     79  C   UNL A   1      44.475  26.768  35.120  1.00  0.00     0.134 A 
ATOM     80  C   UNL A   1      45.768  28.570  34.216  1.00  0.00     0.134 A 
ATOM     81  F   UNL A   1      43.330  26.076  35.235  1.00  0.00    -0.206 F 
ATOM     82  C   UNL A   1      45.573  26.354  35.877  1.00  0.00     0.040 A 
ATOM     83  C   UNL A   1      46.880  28.150  34.947  1.00  0.00     0.040 A 
ATOM     84  F   UNL A   1      45.907  29.644  33.424  1.00  0.00    -0.206 F 
ATOM     85  C   UNL A   1      46.783  27.041  35.783  1.00  0.00     0.006 A 
ENDBRANCH  61  78
ENDBRANCH  35  36
ENDBRANCH  28  30
ENDBRANCH  27  28
ENDBRANCH  26  27
ENDBRANCH  25  26
ENDBRANCH  24  25
ENDBRANCH   1  24
TORSDOF 19
ENDMDL
