MODEL 1
REMARK VINA RESULT:     -12.8      0.000      0.000
REMARK SMILES O=C(OCCOCCOC(=O)c1nccnc1C(=O)Nc1n[nH]c2ncccc12)c1ccc(-c2c3nc(c(-c4c(F)cccc4F)c4ccc([nH]4)c(-c4c(F)cccc4F)c4nc(c(-c5c(F)cccc5F)c5ccc2[nH]5)C=C4)C=C3)cc1
REMARK SMILES IDX 6 1 5 2 4 3 3 4 2 5 1 6 30 7 31 8 83 9 32 10 82 11 33 12
REMARK SMILES IDX 34 13 35 14 76 15 36 16 81 17 75 18 77 19 37 20 80 21 74 22
REMARK SMILES IDX 73 23 38 25 64 26 47 27 63 28 48 29 51 30 62 31 78 32 49 33
REMARK SMILES IDX 50 34 61 36 79 37 52 38 39 39 40 40 45 41 41 42 42 43 44 44
REMARK SMILES IDX 46 45 43 46 65 47 66 48 71 49 67 50 68 51 70 52 72 53 69 54
REMARK SMILES IDX 53 55 54 56 59 57 55 58 56 59 58 60 60 61 57 62 7 63 8 64
REMARK SMILES IDX 9 65 10 66 11 67 12 68 13 69 17 70 14 71 16 72 15 73 18 74
REMARK SMILES IDX 19 75 20 76 21 78 22 79 29 80 23 81 24 82 28 83 25 85 27 86
REMARK SMILES IDX 26 87
REMARK H PARENT 77 24 51 35 20 77 23 84
REMARK Flexibility Score: inf
ROOT
ATOM      1  O   UNL A   1      40.091  21.430  26.634  1.00  0.00    -0.374 OA
ENDROOT
BRANCH   1   2
ATOM      2  C   UNL A   1      41.162  20.575  26.277  1.00  0.00     0.202 C 
BRANCH   2   3
ATOM      3  C   UNL A   1      42.470  21.265  25.888  1.00  0.00     0.261 C 
BRANCH   3   4
ATOM      4  O   UNL A   1      42.227  22.513  25.210  1.00  0.00    -0.460 OA
BRANCH   4   5
ATOM      5  C   UNL A   1      42.976  23.640  25.347  1.00  0.00     0.338 C 
ATOM      6  O   UNL A   1      43.941  23.834  24.616  1.00  0.00    -0.246 OA
BRANCH   5   7
ATOM      7  C   UNL A   1      42.678  24.631  26.415  1.00  0.00     0.060 A 
ATOM      8  C   UNL A   1      41.963  24.288  27.555  1.00  0.00     0.016 A 
ATOM      9  C   UNL A   1      43.210  25.918  26.342  1.00  0.00     0.016 A 
ATOM     10  C   UNL A   1      41.656  25.184  28.545  1.00  0.00     0.010 A 
ATOM     11  C   UNL A   1      42.988  26.824  27.389  1.00  0.00     0.010 A 
ATOM     12  C   UNL A   1      42.194  26.454  28.488  1.00  0.00    -0.014 A 
BRANCH  12  13
ATOM     13  C   UNL A   1      41.745  27.375  29.541  1.00  0.00     0.031 A 
ATOM     14  C   UNL A   1      42.604  27.497  30.756  1.00  0.00     0.074 A 
ATOM     15  C   UNL A   1      40.735  28.231  29.292  1.00  0.00     0.049 A 
ATOM     16  N   UNL A   1      42.383  28.152  31.859  1.00  0.00    -0.248 NA
ATOM     17  C   UNL A   1      43.898  26.788  30.719  1.00  0.00     0.031 C 
ATOM     18  C   UNL A   1      39.981  28.316  28.033  1.00  0.00     0.029 A 
ATOM     19  N   UNL A   1      40.202  29.231  30.058  1.00  0.00    -0.354 N 
ATOM     20  C   UNL A   1      43.481  27.893  32.666  1.00  0.00     0.074 A 
ATOM     21  C   UNL A   1      44.368  27.021  31.932  1.00  0.00     0.031 C 
ATOM     22  C   UNL A   1      39.108  29.333  28.107  1.00  0.00     0.029 A 
ATOM     23  C   UNL A   1      39.161  29.892  29.449  1.00  0.00     0.049 A 
ATOM     24  H   UNL A   1      40.532  29.456  30.958  1.00  0.00     0.167 HD
ATOM     25  C   UNL A   1      43.707  28.345  33.917  1.00  0.00     0.037 A 
ATOM     26  C   UNL A   1      38.310  30.801  29.958  1.00  0.00     0.037 A 
ATOM     27  C   UNL A   1      42.797  29.228  34.594  1.00  0.00     0.049 A 
ATOM     28  C   UNL A   1      38.509  31.189  31.398  1.00  0.00     0.074 A 
ATOM     29  C   UNL A   1      42.830  29.679  35.898  1.00  0.00     0.029 A 
ATOM     30  N   UNL A   1      41.687  29.807  33.992  1.00  0.00    -0.354 N 
ATOM     31  N   UNL A   1      39.462  30.825  32.227  1.00  0.00    -0.248 NA
ATOM     32  C   UNL A   1      37.509  32.085  31.985  1.00  0.00     0.031 C 
ATOM     33  C   UNL A   1      41.713  30.498  36.096  1.00  0.00     0.029 A 
ATOM     34  C   UNL A   1      41.018  30.605  34.899  1.00  0.00     0.049 A 
ATOM     35  H   UNL A   1      41.416  29.669  33.055  1.00  0.00     0.167 HD
ATOM     36  C   UNL A   1      39.185  31.458  33.429  1.00  0.00     0.074 A 
ATOM     37  C   UNL A   1      37.992  32.255  33.207  1.00  0.00     0.031 C 
ATOM     38  C   UNL A   1      39.837  31.383  34.616  1.00  0.00     0.037 A 
BRANCH  25  39
ATOM     39  C   UNL A   1      44.916  27.815  34.623  1.00  0.00     0.057 A 
ATOM     40  C   UNL A   1      44.892  26.629  35.367  1.00  0.00     0.134 A 
ATOM     41  C   UNL A   1      46.112  28.545  34.609  1.00  0.00     0.134 A 
ATOM     42  F   UNL A   1      43.765  25.908  35.460  1.00  0.00    -0.206 F 
ATOM     43  C   UNL A   1      46.007  26.201  36.092  1.00  0.00     0.040 A 
ATOM     44  C   UNL A   1      47.241  28.112  35.307  1.00  0.00     0.040 A 
ATOM     45  F   UNL A   1      46.198  29.700  33.933  1.00  0.00    -0.206 F 
ATOM     46  C   UNL A   1      47.187  26.940  36.059  1.00  0.00     0.006 A 
ENDBRANCH  25  39
BRANCH  26  47
ATOM     47  C   UNL A   1      37.155  31.306  29.165  1.00  0.00     0.057 A 
ATOM     48  C   UNL A   1      37.132  32.602  28.635  1.00  0.00     0.134 A 
ATOM     49  C   UNL A   1      36.009  30.521  28.968  1.00  0.00     0.134 A 
ATOM     50  F   UNL A   1      38.184  33.417  28.801  1.00  0.00    -0.206 F 
ATOM     51  C   UNL A   1      36.009  33.107  27.975  1.00  0.00     0.040 A 
ATOM     52  C   UNL A   1      34.894  30.999  28.279  1.00  0.00     0.040 A 
ATOM     53  F   UNL A   1      35.952  29.269  29.448  1.00  0.00    -0.206 F 
ATOM     54  C   UNL A   1      34.885  32.303  27.793  1.00  0.00     0.006 A 
ENDBRANCH  26  47
BRANCH  38  55
ATOM     55  C   UNL A   1      39.286  32.219  35.730  1.00  0.00     0.057 A 
ATOM     56  C   UNL A   1      39.676  33.549  35.919  1.00  0.00     0.134 A 
ATOM     57  C   UNL A   1      38.330  31.688  36.604  1.00  0.00     0.134 A 
ATOM     58  F   UNL A   1      40.600  34.108  35.120  1.00  0.00    -0.206 F 
ATOM     59  C   UNL A   1      39.160  34.314  36.963  1.00  0.00     0.040 A 
ATOM     60  C   UNL A   1      37.781  32.453  37.630  1.00  0.00     0.040 A 
ATOM     61  F   UNL A   1      37.908  30.422  36.465  1.00  0.00    -0.206 F 
ATOM     62  C   UNL A   1      38.203  33.768  37.816  1.00  0.00     0.006 A 
ENDBRANCH  38  55
ENDBRANCH  12  13
ENDBRANCH   5   7
ENDBRANCH   4   5
ENDBRANCH   3   4
ENDBRANCH   2   3
ENDBRANCH   1   2
BRANCH   1  63
ATOM     63  C   UNL A   1      38.922  21.495  25.816  1.00  0.00     0.202 C 
BRANCH  63  64
ATOM     64  C   UNL A   1      38.126  23.006  25.973  1.00  0.00     0.261 C 
BRANCH  64  65
ATOM     65  O   UNL A   1      36.053  23.359  26.243  1.00  0.00    -0.458 OA
BRANCH  65  66
ATOM     66  C   UNL A   1      34.676  23.118  26.508  1.00  0.00     0.359 C 
ATOM     67  O   UNL A   1      34.308  22.835  27.645  1.00  0.00    -0.244 OA
BRANCH  66  68
ATOM     68  C   UNL A   1      33.678  23.080  25.366  1.00  0.00     0.179 A 
ATOM     69  N   UNL A   1      34.286  22.749  24.179  1.00  0.00    -0.245 NA
ATOM     70  C   UNL A   1      32.327  23.456  25.391  1.00  0.00     0.161 A 
ATOM     71  C   UNL A   1      33.533  22.824  23.061  1.00  0.00     0.132 A 
ATOM     72  N   UNL A   1      31.585  23.534  24.237  1.00  0.00    -0.247 NA
ATOM     73  C   UNL A   1      32.211  23.213  23.088  1.00  0.00     0.132 A 
BRANCH  70  74
ATOM     74  C   UNL A   1      31.517  23.830  26.595  1.00  0.00     0.278 C 
ATOM     75  O   UNL A   1      30.936  22.968  27.254  1.00  0.00    -0.267 OA
ATOM     76  N   UNL A   1      31.454  25.126  26.993  1.00  0.00    -0.303 N 
ATOM     77  H   UNL A   1      31.107  25.324  27.893  1.00  0.00     0.172 HD
BRANCH  76  78
ATOM     78  C   UNL A   1      31.847  26.165  26.208  1.00  0.00     0.164 A 
ATOM     79  N   UNL A   1      33.509  26.637  26.190  1.00  0.00    -0.155 NA
ATOM     80  C   UNL A   1      30.936  26.938  24.619  1.00  0.00     0.063 A 
ATOM     81  N   UNL A   1      33.751  27.675  24.666  1.00  0.00    -0.259 N 
ATOM     82  C   UNL A   1      32.177  27.849  23.727  1.00  0.00     0.157 A 
ATOM     83  C   UNL A   1      29.653  26.994  24.053  1.00  0.00     0.017 A 
ATOM     84  H   UNL A   1      34.607  28.079  24.397  1.00  0.00     0.192 HD
ATOM     85  N   UNL A   1      31.911  28.667  22.701  1.00  0.00    -0.237 NA
ATOM     86  C   UNL A   1      29.507  27.908  22.990  1.00  0.00     0.021 A 
ATOM     87  C   UNL A   1      30.574  28.660  22.417  1.00  0.00     0.113 A 
ENDBRANCH  76  78
ENDBRANCH  70  74
ENDBRANCH  66  68
ENDBRANCH  65  66
ENDBRANCH  64  65
ENDBRANCH  63  64
ENDBRANCH   1  63
TORSDOF 16
ENDMDL
MODEL 2
REMARK VINA RESULT:     -12.7      2.970      7.623
REMARK SMILES O=C(OCCOCCOC(=O)c1nccnc1C(=O)Nc1n[nH]c2ncccc12)c1ccc(-c2c3nc(c(-c4c(F)cccc4F)c4ccc([nH]4)c(-c4c(F)cccc4F)c4nc(c(-c5c(F)cccc5F)c5ccc2[nH]5)C=C4)C=C3)cc1
REMARK SMILES IDX 6 1 5 2 4 3 3 4 2 5 1 6 30 7 31 8 83 9 32 10 82 11 33 12
REMARK SMILES IDX 34 13 35 14 76 15 36 16 81 17 75 18 77 19 37 20 80 21 74 22
REMARK SMILES IDX 73 23 38 25 64 26 47 27 63 28 48 29 51 30 62 31 78 32 49 33
REMARK SMILES IDX 50 34 61 36 79 37 52 38 39 39 40 40 45 41 41 42 42 43 44 44
REMARK SMILES IDX 46 45 43 46 65 47 66 48 71 49 67 50 68 51 70 52 72 53 69 54
REMARK SMILES IDX 53 55 54 56 59 57 55 58 56 59 58 60 60 61 57 62 7 63 8 64
REMARK SMILES IDX 9 65 10 66 11 67 12 68 13 69 17 70 14 71 16 72 15 73 18 74
REMARK SMILES IDX 19 75 20 76 21 78 22 79 29 80 23 81 24 82 28 83 25 85 27 86
REMARK SMILES IDX 26 87
REMARK H PARENT 77 24 51 35 20 77 23 84
REMARK Flexibility Score: inf
ROOT
ATOM      1  O   UNL A   1      31.990  30.652  26.829  1.00  0.00    -0.374 OA
ENDROOT
BRANCH   1   2
ATOM      2  C   UNL A   1      31.462  31.966  26.863  1.00  0.00     0.202 C 
BRANCH   2   3
ATOM      3  C   UNL A   1      32.486  33.100  26.892  1.00  0.00     0.261 C 
BRANCH   3   4
ATOM      4  O   UNL A   1      32.206  34.038  27.949  1.00  0.00    -0.460 OA
BRANCH   4   5
ATOM      5  C   UNL A   1      33.139  34.635  28.738  1.00  0.00     0.338 C 
ATOM      6  O   UNL A   1      33.016  35.812  29.061  1.00  0.00    -0.246 OA
BRANCH   5   7
ATOM      7  C   UNL A   1      34.352  33.896  29.181  1.00  0.00     0.060 A 
ATOM      8  C   UNL A   1      34.267  32.701  29.883  1.00  0.00     0.016 A 
ATOM      9  C   UNL A   1      35.618  34.341  28.802  1.00  0.00     0.016 A 
ATOM     10  C   UNL A   1      35.366  32.010  30.321  1.00  0.00     0.010 A 
ATOM     11  C   UNL A   1      36.753  33.599  29.159  1.00  0.00     0.010 A 
ATOM     12  C   UNL A   1      36.621  32.434  29.934  1.00  0.00    -0.014 A 
BRANCH  12  13
ATOM     13  C   UNL A   1      37.744  31.689  30.518  1.00  0.00     0.031 A 
ATOM     14  C   UNL A   1      37.979  31.843  31.984  1.00  0.00     0.074 A 
ATOM     15  C   UNL A   1      38.364  30.739  29.792  1.00  0.00     0.049 A 
ATOM     16  N   UNL A   1      38.952  31.383  32.716  1.00  0.00    -0.248 NA
ATOM     17  C   UNL A   1      36.970  32.616  32.733  1.00  0.00     0.031 C 
ATOM     18  C   UNL A   1      38.040  30.380  28.403  1.00  0.00     0.029 A 
ATOM     19  N   UNL A   1      39.355  29.859  30.131  1.00  0.00    -0.354 N 
ATOM     20  C   UNL A   1      38.703  31.853  33.996  1.00  0.00     0.074 A 
ATOM     21  C   UNL A   1      37.490  32.636  33.948  1.00  0.00     0.031 C 
ATOM     22  C   UNL A   1      38.798  29.338  28.026  1.00  0.00     0.029 A 
ATOM     23  C   UNL A   1      39.733  29.033  29.098  1.00  0.00     0.049 A 
ATOM     24  H   UNL A   1      39.759  29.821  31.028  1.00  0.00     0.167 HD
ATOM     25  C   UNL A   1      39.443  31.648  35.106  1.00  0.00     0.037 A 
ATOM     26  C   UNL A   1      40.767  28.176  29.021  1.00  0.00     0.037 A 
ATOM     27  C   UNL A   1      40.634  30.843  35.102  1.00  0.00     0.049 A 
ATOM     28  C   UNL A   1      41.652  28.067  30.234  1.00  0.00     0.074 A 
ATOM     29  C   UNL A   1      41.548  30.637  36.114  1.00  0.00     0.029 A 
ATOM     30  N   UNL A   1      41.059  30.095  34.011  1.00  0.00    -0.354 N 
ATOM     31  N   UNL A   1      41.513  28.635  31.411  1.00  0.00    -0.248 NA
ATOM     32  C   UNL A   1      42.846  27.227  30.105  1.00  0.00     0.031 C 
ATOM     33  C   UNL A   1      42.551  29.795  35.620  1.00  0.00     0.029 A 
ATOM     34  C   UNL A   1      42.229  29.430  34.320  1.00  0.00     0.049 A 
ATOM     35  H   UNL A   1      40.594  30.045  33.144  1.00  0.00     0.167 HD
ATOM     36  C   UNL A   1      42.593  28.210  32.169  1.00  0.00     0.074 A 
ATOM     37  C   UNL A   1      43.358  27.310  31.325  1.00  0.00     0.031 C 
ATOM     38  C   UNL A   1      42.942  28.539  33.438  1.00  0.00     0.037 A 
BRANCH  25  39
ATOM     39  C   UNL A   1      39.022  32.373  36.346  1.00  0.00     0.057 A 
ATOM     40  C   UNL A   1      38.131  31.820  37.275  1.00  0.00     0.134 A 
ATOM     41  C   UNL A   1      39.469  33.680  36.580  1.00  0.00     0.134 A 
ATOM     42  F   UNL A   1      37.629  30.590  37.085  1.00  0.00    -0.206 F 
ATOM     43  C   UNL A   1      37.681  32.549  38.378  1.00  0.00     0.040 A 
ATOM     44  C   UNL A   1      39.047  34.409  37.694  1.00  0.00     0.040 A 
ATOM     45  F   UNL A   1      40.306  34.278  35.720  1.00  0.00    -0.206 F 
ATOM     46  C   UNL A   1      38.143  33.846  38.592  1.00  0.00     0.006 A 
ENDBRANCH  25  39
BRANCH  26  47
ATOM     47  C   UNL A   1      41.086  27.464  27.753  1.00  0.00     0.057 A 
ATOM     48  C   UNL A   1      41.870  28.051  26.753  1.00  0.00     0.134 A 
ATOM     49  C   UNL A   1      40.561  26.192  27.480  1.00  0.00     0.134 A 
ATOM     50  F   UNL A   1      42.390  29.275  26.935  1.00  0.00    -0.206 F 
ATOM     51  C   UNL A   1      42.090  27.421  25.525  1.00  0.00     0.040 A 
ATOM     52  C   UNL A   1      40.802  25.535  26.273  1.00  0.00     0.040 A 
ATOM     53  F   UNL A   1      39.798  25.563  28.388  1.00  0.00    -0.206 F 
ATOM     54  C   UNL A   1      41.556  26.157  25.283  1.00  0.00     0.006 A 
ENDBRANCH  26  47
BRANCH  38  55
ATOM     55  C   UNL A   1      44.174  27.882  33.979  1.00  0.00     0.057 A 
ATOM     56  C   UNL A   1      45.431  28.494  33.905  1.00  0.00     0.134 A 
ATOM     57  C   UNL A   1      44.090  26.634  34.608  1.00  0.00     0.134 A 
ATOM     58  F   UNL A   1      45.574  29.685  33.301  1.00  0.00    -0.206 F 
ATOM     59  C   UNL A   1      46.571  27.869  34.407  1.00  0.00     0.040 A 
ATOM     60  C   UNL A   1      45.217  26.016  35.144  1.00  0.00     0.040 A 
ATOM     61  F   UNL A   1      42.911  26.005  34.720  1.00  0.00    -0.206 F 
ATOM     62  C   UNL A   1      46.463  26.630  35.036  1.00  0.00     0.006 A 
ENDBRANCH  38  55
ENDBRANCH  12  13
ENDBRANCH   5   7
ENDBRANCH   4   5
ENDBRANCH   3   4
ENDBRANCH   2   3
ENDBRANCH   1   2
BRANCH   1  63
ATOM     63  C   UNL A   1      33.368  30.425  27.128  1.00  0.00     0.202 C 
BRANCH  63  64
ATOM     64  C   UNL A   1      33.900  28.907  26.534  1.00  0.00     0.261 C 
BRANCH  64  65
ATOM     65  O   UNL A   1      34.073  28.292  24.512  1.00  0.00    -0.458 OA
BRANCH  65  66
ATOM     66  C   UNL A   1      33.716  27.791  23.229  1.00  0.00     0.359 C 
ATOM     67  O   UNL A   1      33.540  28.567  22.293  1.00  0.00    -0.244 OA
BRANCH  66  68
ATOM     68  C   UNL A   1      33.426  26.314  23.044  1.00  0.00     0.179 A 
ATOM     69  N   UNL A   1      33.658  25.915  21.750  1.00  0.00    -0.245 NA
ATOM     70  C   UNL A   1      32.858  25.426  23.969  1.00  0.00     0.161 A 
ATOM     71  C   UNL A   1      33.299  24.656  21.421  1.00  0.00     0.132 A 
ATOM     72  N   UNL A   1      32.492  24.152  23.606  1.00  0.00    -0.247 NA
ATOM     73  C   UNL A   1      32.724  23.793  22.328  1.00  0.00     0.132 A 
BRANCH  70  74
ATOM     74  C   UNL A   1      32.556  25.698  25.412  1.00  0.00     0.278 C 
ATOM     75  O   UNL A   1      33.335  25.344  26.295  1.00  0.00    -0.267 OA
ATOM     76  N   UNL A   1      31.432  26.378  25.752  1.00  0.00    -0.303 N 
ATOM     77  H   UNL A   1      31.358  26.735  26.666  1.00  0.00     0.172 HD
BRANCH  76  78
ATOM     78  C   UNL A   1      30.402  26.591  24.889  1.00  0.00     0.164 A 
ATOM     79  N   UNL A   1      29.056  25.506  24.886  1.00  0.00    -0.155 NA
ATOM     80  C   UNL A   1      29.882  28.268  23.959  1.00  0.00     0.063 A 
ATOM     81  N   UNL A   1      27.668  26.381  24.012  1.00  0.00    -0.259 N 
ATOM     82  C   UNL A   1      28.189  28.056  23.454  1.00  0.00     0.157 A 
ATOM     83  C   UNL A   1      30.454  29.493  23.578  1.00  0.00     0.017 A 
ATOM     84  H   UNL A   1      26.773  25.999  23.867  1.00  0.00     0.192 HD
ATOM     85  N   UNL A   1      27.543  28.894  22.634  1.00  0.00    -0.237 NA
ATOM     86  C   UNL A   1      29.673  30.271  22.700  1.00  0.00     0.021 A 
ATOM     87  C   UNL A   1      28.349  29.944  22.288  1.00  0.00     0.113 A 
ENDBRANCH  76  78
ENDBRANCH  70  74
ENDBRANCH  66  68
ENDBRANCH  65  66
ENDBRANCH  64  65
ENDBRANCH  63  64
ENDBRANCH   1  63
TORSDOF 16
ENDMDL
MODEL 3
REMARK VINA RESULT:     -12.7      2.862      7.876
REMARK SMILES O=C(OCCOCCOC(=O)c1nccnc1C(=O)Nc1n[nH]c2ncccc12)c1ccc(-c2c3nc(c(-c4c(F)cccc4F)c4ccc([nH]4)c(-c4c(F)cccc4F)c4nc(c(-c5c(F)cccc5F)c5ccc2[nH]5)C=C4)C=C3)cc1
REMARK SMILES IDX 6 1 5 2 4 3 3 4 2 5 1 6 30 7 31 8 83 9 32 10 82 11 33 12
REMARK SMILES IDX 34 13 35 14 76 15 36 16 81 17 75 18 77 19 37 20 80 21 74 22
REMARK SMILES IDX 73 23 38 25 64 26 47 27 63 28 48 29 51 30 62 31 78 32 49 33
REMARK SMILES IDX 50 34 61 36 79 37 52 38 39 39 40 40 45 41 41 42 42 43 44 44
REMARK SMILES IDX 46 45 43 46 65 47 66 48 71 49 67 50 68 51 70 52 72 53 69 54
REMARK SMILES IDX 53 55 54 56 59 57 55 58 56 59 58 60 60 61 57 62 7 63 8 64
REMARK SMILES IDX 9 65 10 66 11 67 12 68 13 69 17 70 14 71 16 72 15 73 18 74
REMARK SMILES IDX 19 75 20 76 21 78 22 79 29 80 23 81 24 82 28 83 25 85 27 86
REMARK SMILES IDX 26 87
REMARK H PARENT 77 24 51 35 20 77 23 84
REMARK Flexibility Score: inf
ROOT
ATOM      1  O   UNL A   1      32.036  30.722  26.874  1.00  0.00    -0.374 OA
ENDROOT
BRANCH   1   2
ATOM      2  C   UNL A   1      31.403  31.989  26.876  1.00  0.00     0.202 C 
BRANCH   2   3
ATOM      3  C   UNL A   1      32.332  33.203  26.848  1.00  0.00     0.261 C 
BRANCH   3   4
ATOM      4  O   UNL A   1      32.210  33.991  28.048  1.00  0.00    -0.460 OA
BRANCH   4   5
ATOM      5  C   UNL A   1      33.233  34.622  28.681  1.00  0.00     0.338 C 
ATOM      6  O   UNL A   1      33.201  35.837  28.853  1.00  0.00    -0.246 OA
BRANCH   5   7
ATOM      7  C   UNL A   1      34.436  33.870  29.130  1.00  0.00     0.060 A 
ATOM      8  C   UNL A   1      34.335  32.651  29.788  1.00  0.00     0.016 A 
ATOM      9  C   UNL A   1      35.710  34.329  28.801  1.00  0.00     0.016 A 
ATOM     10  C   UNL A   1      35.422  31.947  30.232  1.00  0.00     0.010 A 
ATOM     11  C   UNL A   1      36.837  33.576  29.162  1.00  0.00     0.010 A 
ATOM     12  C   UNL A   1      36.687  32.385  29.893  1.00  0.00    -0.014 A 
BRANCH  12  13
ATOM     13  C   UNL A   1      37.795  31.622  30.481  1.00  0.00     0.031 A 
ATOM     14  C   UNL A   1      38.027  31.770  31.948  1.00  0.00     0.074 A 
ATOM     15  C   UNL A   1      38.403  30.662  29.756  1.00  0.00     0.049 A 
ATOM     16  N   UNL A   1      38.990  31.294  32.683  1.00  0.00    -0.248 NA
ATOM     17  C   UNL A   1      37.027  32.559  32.693  1.00  0.00     0.031 C 
ATOM     18  C   UNL A   1      38.079  30.310  28.366  1.00  0.00     0.029 A 
ATOM     19  N   UNL A   1      39.378  29.766  30.098  1.00  0.00    -0.354 N 
ATOM     20  C   UNL A   1      38.743  31.767  33.963  1.00  0.00     0.074 A 
ATOM     21  C   UNL A   1      37.543  32.569  33.910  1.00  0.00     0.031 C 
ATOM     22  C   UNL A   1      38.821  29.256  27.990  1.00  0.00     0.029 A 
ATOM     23  C   UNL A   1      39.747  28.936  29.066  1.00  0.00     0.049 A 
ATOM     24  H   UNL A   1      39.778  29.721  30.997  1.00  0.00     0.167 HD
ATOM     25  C   UNL A   1      39.475  31.548  35.076  1.00  0.00     0.037 A 
ATOM     26  C   UNL A   1      40.767  28.062  28.992  1.00  0.00     0.037 A 
ATOM     27  C   UNL A   1      40.652  30.725  35.075  1.00  0.00     0.049 A 
ATOM     28  C   UNL A   1      41.645  27.937  30.208  1.00  0.00     0.074 A 
ATOM     29  C   UNL A   1      41.560  30.502  36.091  1.00  0.00     0.029 A 
ATOM     30  N   UNL A   1      41.070  29.971  33.985  1.00  0.00    -0.354 N 
ATOM     31  N   UNL A   1      41.511  28.506  31.385  1.00  0.00    -0.248 NA
ATOM     32  C   UNL A   1      42.826  27.079  30.083  1.00  0.00     0.031 C 
ATOM     33  C   UNL A   1      42.550  29.645  35.600  1.00  0.00     0.029 A 
ATOM     34  C   UNL A   1      42.228  29.287  34.298  1.00  0.00     0.049 A 
ATOM     35  H   UNL A   1      40.607  29.929  33.116  1.00  0.00     0.167 HD
ATOM     36  C   UNL A   1      42.581  28.063  32.147  1.00  0.00     0.074 A 
ATOM     37  C   UNL A   1      43.335  27.152  31.305  1.00  0.00     0.031 C 
ATOM     38  C   UNL A   1      42.930  28.385  33.418  1.00  0.00     0.037 A 
BRANCH  25  39
ATOM     39  C   UNL A   1      39.061  32.279  36.315  1.00  0.00     0.057 A 
ATOM     40  C   UNL A   1      38.154  31.741  37.237  1.00  0.00     0.134 A 
ATOM     41  C   UNL A   1      39.531  33.577  36.554  1.00  0.00     0.134 A 
ATOM     42  F   UNL A   1      37.629  30.522  37.041  1.00  0.00    -0.206 F 
ATOM     43  C   UNL A   1      37.711  32.476  38.338  1.00  0.00     0.040 A 
ATOM     44  C   UNL A   1      39.117  34.311  37.667  1.00  0.00     0.040 A 
ATOM     45  F   UNL A   1      40.385  34.160  35.701  1.00  0.00    -0.206 F 
ATOM     46  C   UNL A   1      38.197  33.764  38.559  1.00  0.00     0.006 A 
ENDBRANCH  25  39
BRANCH  26  47
ATOM     47  C   UNL A   1      41.080  27.346  27.725  1.00  0.00     0.057 A 
ATOM     48  C   UNL A   1      40.631  26.042  27.483  1.00  0.00     0.134 A 
ATOM     49  C   UNL A   1      41.895  27.928  26.742  1.00  0.00     0.134 A 
ATOM     50  F   UNL A   1      39.865  25.413  28.387  1.00  0.00    -0.206 F 
ATOM     51  C   UNL A   1      41.006  25.336  26.336  1.00  0.00     0.040 A 
ATOM     52  C   UNL A   1      42.247  27.249  25.575  1.00  0.00     0.040 A 
ATOM     53  F   UNL A   1      42.366  29.174  26.901  1.00  0.00    -0.206 F 
ATOM     54  C   UNL A   1      41.815  25.941  25.376  1.00  0.00     0.006 A 
ENDBRANCH  26  47
BRANCH  38  55
ATOM     55  C   UNL A   1      44.149  27.708  33.963  1.00  0.00     0.057 A 
ATOM     56  C   UNL A   1      44.083  26.456  34.586  1.00  0.00     0.134 A 
ATOM     57  C   UNL A   1      45.407  28.309  33.834  1.00  0.00     0.134 A 
ATOM     58  F   UNL A   1      42.902  25.838  34.750  1.00  0.00    -0.206 F 
ATOM     59  C   UNL A   1      45.225  25.840  35.094  1.00  0.00     0.040 A 
ATOM     60  C   UNL A   1      46.560  27.687  34.307  1.00  0.00     0.040 A 
ATOM     61  F   UNL A   1      45.534  29.503  33.236  1.00  0.00    -0.206 F 
ATOM     62  C   UNL A   1      46.469  26.452  34.948  1.00  0.00     0.006 A 
ENDBRANCH  38  55
ENDBRANCH  12  13
ENDBRANCH   5   7
ENDBRANCH   4   5
ENDBRANCH   3   4
ENDBRANCH   2   3
ENDBRANCH   1   2
BRANCH   1  63
ATOM     63  C   UNL A   1      33.457  30.630  26.980  1.00  0.00     0.202 C 
BRANCH  63  64
ATOM     64  C   UNL A   1      33.977  28.998  27.085  1.00  0.00     0.261 C 
BRANCH  64  65
ATOM     65  O   UNL A   1      33.516  27.402  25.767  1.00  0.00    -0.458 OA
BRANCH  65  66
ATOM     66  C   UNL A   1      33.648  26.192  25.031  1.00  0.00     0.359 C 
ATOM     67  O   UNL A   1      34.434  25.326  25.407  1.00  0.00    -0.244 OA
BRANCH  66  68
ATOM     68  C   UNL A   1      32.917  26.021  23.713  1.00  0.00     0.179 A 
ATOM     69  N   UNL A   1      33.791  25.766  22.683  1.00  0.00    -0.245 NA
ATOM     70  C   UNL A   1      31.553  26.219  23.453  1.00  0.00     0.161 A 
ATOM     71  C   UNL A   1      33.279  25.739  21.435  1.00  0.00     0.132 A 
ATOM     72  N   UNL A   1      31.059  26.196  22.171  1.00  0.00    -0.247 NA
ATOM     73  C   UNL A   1      31.941  25.953  21.182  1.00  0.00     0.132 A 
BRANCH  70  74
ATOM     74  C   UNL A   1      30.474  26.490  24.457  1.00  0.00     0.278 C 
ATOM     75  O   UNL A   1      29.860  27.556  24.447  1.00  0.00    -0.267 OA
ATOM     76  N   UNL A   1      30.138  25.539  25.364  1.00  0.00    -0.303 N 
ATOM     77  H   UNL A   1      29.297  25.644  25.865  1.00  0.00     0.172 HD
BRANCH  76  78
ATOM     78  C   UNL A   1      30.909  24.446  25.617  1.00  0.00     0.164 A 
ATOM     79  N   UNL A   1      31.187  23.960  27.251  1.00  0.00    -0.155 NA
ATOM     80  C   UNL A   1      31.364  22.938  24.406  1.00  0.00     0.063 A 
ATOM     81  N   UNL A   1      31.793  22.203  27.188  1.00  0.00    -0.259 N 
ATOM     82  C   UNL A   1      31.896  21.601  25.452  1.00  0.00     0.157 A 
ATOM     83  C   UNL A   1      31.414  22.657  23.031  1.00  0.00     0.017 A 
ATOM     84  H   UNL A   1      32.028  21.666  27.979  1.00  0.00     0.192 HD
ATOM     85  N   UNL A   1      32.464  20.476  24.997  1.00  0.00    -0.237 NA
ATOM     86  C   UNL A   1      32.053  21.448  22.690  1.00  0.00     0.021 A 
ATOM     87  C   UNL A   1      32.528  20.489  23.632  1.00  0.00     0.113 A 
ENDBRANCH  76  78
ENDBRANCH  70  74
ENDBRANCH  66  68
ENDBRANCH  65  66
ENDBRANCH  64  65
ENDBRANCH  63  64
ENDBRANCH   1  63
TORSDOF 16
ENDMDL
