MODEL 1
REMARK VINA RESULT:     -11.2      0.000      0.000
REMARK SMILES Cc1cc(C(=O)N[C@@H]2CC2(C)C)sc1/C=C/C(=O)OCCOCCOC(=O)c1ccc(-c2c3nc(c(-c4c(F)cccc4F)c4ccc([nH]4)c(-c4c(F)cccc4F)c4nc(c(-c5c(F)cccc5F)c5ccc2[nH]5)C=C4)C=C3)cc1
REMARK SMILES IDX 21 1 20 2 19 3 17 4 18 5 16 6 15 7 14 8 1 9 2 10 3 11 4 12
REMARK SMILES IDX 13 13 5 14 6 15 7 16 8 18 9 19 10 20 11 21 12 22 22 23 23 24
REMARK SMILES IDX 24 25 25 26 26 27 27 28 28 29 29 30 81 31 30 32 80 33 31 34
REMARK SMILES IDX 32 35 33 36 74 37 34 38 79 39 73 40 75 41 35 42 78 43 72 44
REMARK SMILES IDX 71 45 36 47 62 48 45 49 61 50 46 51 49 52 60 53 76 54 47 55
REMARK SMILES IDX 48 56 59 58 77 59 50 60 37 61 38 62 43 63 39 64 40 65 42 66
REMARK SMILES IDX 44 67 41 68 63 69 64 70 69 71 65 72 66 73 68 74 70 75 67 76
REMARK SMILES IDX 51 77 52 78 57 79 53 80 54 81 56 82 58 83 55 84
REMARK H PARENT 7 17 75 46 49 57
REMARK Flexibility Score: inf
ROOT
ATOM      1  C   UNL A   1      42.435  19.475  26.186  1.00  0.00     0.202 C 
ENDROOT
BRANCH   1   2
ATOM      2  C   UNL A   1      41.263  20.047  26.985  1.00  0.00     0.261 C 
BRANCH   2   3
ATOM      3  O   UNL A   1      40.187  20.414  26.104  1.00  0.00    -0.460 OA
BRANCH   3   4
ATOM      4  C   UNL A   1      39.718  21.670  26.271  1.00  0.00     0.330 C 
ATOM      5  O   UNL A   1      40.357  22.648  26.630  1.00  0.00    -0.247 OA
BRANCH   4   6
ATOM      6  C   UNL A   1      38.312  21.795  25.857  1.00  0.00     0.095 C 
ATOM      7  C   UNL A   1      37.536  22.891  25.888  1.00  0.00     0.027 C 
BRANCH   7   8
ATOM      8  C   UNL A   1      36.220  22.793  25.346  1.00  0.00     0.031 A 
ATOM      9  C   UNL A   1      36.598  23.030  22.811  1.00  0.00     0.046 C 
ATOM     10  C   UNL A   1      35.788  22.732  24.028  1.00  0.00    -0.032 A 
ATOM     11  C   UNL A   1      34.462  22.175  23.982  1.00  0.00     0.029 A 
ATOM     12  C   UNL A   1      33.934  21.901  25.238  1.00  0.00     0.093 A 
ATOM     13  S   UNL A   1      34.837  22.776  26.377  1.00  0.00    -0.130 S 
BRANCH  12  14
ATOM     14  C   UNL A   1      32.709  21.171  25.498  1.00  0.00     0.261 C 
ATOM     15  O   UNL A   1      31.657  21.792  25.710  1.00  0.00    -0.268 OA
ATOM     16  N   UNL A   1      32.524  19.803  25.447  1.00  0.00    -0.348 N 
ATOM     17  H   UNL A   1      31.573  19.609  25.603  1.00  0.00     0.164 HD
BRANCH  16  18
ATOM     18  C   UNL A   1      33.214  18.565  25.249  1.00  0.00     0.088 C 
ATOM     19  C   UNL A   1      34.481  18.289  24.515  1.00  0.00     0.034 C 
ATOM     20  C   UNL A   1      33.190  17.666  24.024  1.00  0.00    -0.013 C 
ATOM     21  C   UNL A   1      33.113  16.167  24.189  1.00  0.00     0.013 C 
ATOM     22  C   UNL A   1      32.534  18.138  22.757  1.00  0.00     0.013 C 
ENDBRANCH  16  18
ENDBRANCH  12  14
ENDBRANCH   7   8
ENDBRANCH   4   6
ENDBRANCH   3   4
ENDBRANCH   2   3
ENDBRANCH   1   2
BRANCH   1  23
ATOM     23  O   UNL A   1      42.959  20.317  25.159  1.00  0.00    -0.374 OA
BRANCH  23  24
ATOM     24  C   UNL A   1      43.560  21.550  25.552  1.00  0.00     0.202 C 
BRANCH  24  25
ATOM     25  C   UNL A   1      44.118  22.424  24.422  1.00  0.00     0.261 C 
BRANCH  25  26
ATOM     26  O   UNL A   1      43.777  23.812  24.585  1.00  0.00    -0.460 OA
BRANCH  26  27
ATOM     27  C   UNL A   1      44.582  24.500  25.427  1.00  0.00     0.338 C 
ATOM     28  O   UNL A   1      45.803  24.577  25.391  1.00  0.00    -0.246 OA
BRANCH  27  29
ATOM     29  C   UNL A   1      43.772  25.320  26.344  1.00  0.00     0.060 A 
ATOM     30  C   UNL A   1      44.021  26.699  26.372  1.00  0.00     0.016 A 
ATOM     31  C   UNL A   1      42.840  24.749  27.214  1.00  0.00     0.016 A 
ATOM     32  C   UNL A   1      43.370  27.507  27.302  1.00  0.00     0.010 A 
ATOM     33  C   UNL A   1      42.195  25.562  28.153  1.00  0.00     0.010 A 
ATOM     34  C   UNL A   1      42.481  26.937  28.223  1.00  0.00    -0.014 A 
BRANCH  34  35
ATOM     35  C   UNL A   1      41.957  27.759  29.340  1.00  0.00     0.031 A 
ATOM     36  C   UNL A   1      42.649  27.710  30.674  1.00  0.00     0.074 A 
ATOM     37  C   UNL A   1      40.893  28.561  29.162  1.00  0.00     0.049 A 
ATOM     38  N   UNL A   1      42.344  28.320  31.790  1.00  0.00    -0.248 NA
ATOM     39  C   UNL A   1      43.845  26.856  30.759  1.00  0.00     0.031 C 
ATOM     40  C   UNL A   1      40.158  28.725  27.909  1.00  0.00     0.029 A 
ATOM     41  N   UNL A   1      40.242  29.386  30.045  1.00  0.00    -0.354 N 
ATOM     42  C   UNL A   1      43.304  27.923  32.712  1.00  0.00     0.074 A 
ATOM     43  C   UNL A   1      44.185  26.996  32.033  1.00  0.00     0.031 C 
ATOM     44  C   UNL A   1      39.148  29.590  28.107  1.00  0.00     0.029 A 
ATOM     45  C   UNL A   1      39.149  30.017  29.505  1.00  0.00     0.049 A 
ATOM     46  H   UNL A   1      40.532  29.512  30.977  1.00  0.00     0.167 HD
ATOM     47  C   UNL A   1      43.446  28.304  34.003  1.00  0.00     0.037 A 
ATOM     48  C   UNL A   1      38.243  30.830  30.079  1.00  0.00     0.037 A 
ATOM     49  C   UNL A   1      42.572  29.225  34.679  1.00  0.00     0.049 A 
ATOM     50  C   UNL A   1      38.383  31.185  31.535  1.00  0.00     0.074 A 
ATOM     51  C   UNL A   1      42.645  29.686  35.982  1.00  0.00     0.029 A 
ATOM     52  N   UNL A   1      41.459  29.821  34.106  1.00  0.00    -0.354 N 
ATOM     53  N   UNL A   1      39.308  30.825  32.390  1.00  0.00    -0.248 NA
ATOM     54  C   UNL A   1      37.351  32.065  32.106  1.00  0.00     0.031 C 
ATOM     55  C   UNL A   1      41.551  30.527  36.211  1.00  0.00     0.029 A 
ATOM     56  C   UNL A   1      40.823  30.627  35.035  1.00  0.00     0.049 A 
ATOM     57  H   UNL A   1      41.165  29.691  33.176  1.00  0.00     0.167 HD
ATOM     58  C   UNL A   1      38.988  31.453  33.588  1.00  0.00     0.074 A 
ATOM     59  C   UNL A   1      37.788  32.225  33.347  1.00  0.00     0.031 C 
ATOM     60  C   UNL A   1      39.632  31.395  34.779  1.00  0.00     0.037 A 
BRANCH  47  61
ATOM     61  C   UNL A   1      44.583  27.703  34.777  1.00  0.00     0.057 A 
ATOM     62  C   UNL A   1      44.470  26.459  35.409  1.00  0.00     0.134 A 
ATOM     63  C   UNL A   1      45.814  28.365  34.866  1.00  0.00     0.134 A 
ATOM     64  F   UNL A   1      43.313  25.780  35.374  1.00  0.00    -0.206 F 
ATOM     65  C   UNL A   1      45.536  25.903  36.120  1.00  0.00     0.040 A 
ATOM     66  C   UNL A   1      46.894  27.808  35.553  1.00  0.00     0.040 A 
ATOM     67  F   UNL A   1      45.990  29.558  34.279  1.00  0.00    -0.206 F 
ATOM     68  C   UNL A   1      46.754  26.575  36.188  1.00  0.00     0.006 A 
ENDBRANCH  47  61
BRANCH  48  69
ATOM     69  C   UNL A   1      37.109  31.358  29.280  1.00  0.00     0.057 A 
ATOM     70  C   UNL A   1      37.123  32.663  28.775  1.00  0.00     0.134 A 
ATOM     71  C   UNL A   1      35.977  30.577  29.020  1.00  0.00     0.134 A 
ATOM     72  F   UNL A   1      38.170  33.467  29.012  1.00  0.00    -0.206 F 
ATOM     73  C   UNL A   1      36.045  33.179  28.054  1.00  0.00     0.040 A 
ATOM     74  C   UNL A   1      34.902  31.071  28.280  1.00  0.00     0.040 A 
ATOM     75  F   UNL A   1      35.903  29.318  29.476  1.00  0.00    -0.206 F 
ATOM     76  C   UNL A   1      34.932  32.379  27.799  1.00  0.00     0.006 A 
ENDBRANCH  48  69
BRANCH  60  77
ATOM     77  C   UNL A   1      39.073  32.217  35.904  1.00  0.00     0.057 A 
ATOM     78  C   UNL A   1      38.201  31.672  36.855  1.00  0.00     0.134 A 
ATOM     79  C   UNL A   1      39.446  33.558  36.062  1.00  0.00     0.134 A 
ATOM     80  F   UNL A   1      37.795  30.397  36.754  1.00  0.00    -0.206 F 
ATOM     81  C   UNL A   1      37.702  32.438  37.911  1.00  0.00     0.040 A 
ATOM     82  C   UNL A   1      38.974  34.327  37.126  1.00  0.00     0.040 A 
ATOM     83  F   UNL A   1      40.286  34.137  35.191  1.00  0.00    -0.206 F 
ATOM     84  C   UNL A   1      38.096  33.768  38.052  1.00  0.00     0.006 A 
ENDBRANCH  60  77
ENDBRANCH  34  35
ENDBRANCH  27  29
ENDBRANCH  26  27
ENDBRANCH  25  26
ENDBRANCH  24  25
ENDBRANCH  23  24
ENDBRANCH   1  23
TORSDOF 17
ENDMDL
MODEL 2
REMARK VINA RESULT:     -11.2      1.875      3.106
REMARK SMILES Cc1cc(C(=O)N[C@@H]2CC2(C)C)sc1/C=C/C(=O)OCCOCCOC(=O)c1ccc(-c2c3nc(c(-c4c(F)cccc4F)c4ccc([nH]4)c(-c4c(F)cccc4F)c4nc(c(-c5c(F)cccc5F)c5ccc2[nH]5)C=C4)C=C3)cc1
REMARK SMILES IDX 21 1 20 2 19 3 17 4 18 5 16 6 15 7 14 8 1 9 2 10 3 11 4 12
REMARK SMILES IDX 13 13 5 14 6 15 7 16 8 18 9 19 10 20 11 21 12 22 22 23 23 24
REMARK SMILES IDX 24 25 25 26 26 27 27 28 28 29 29 30 81 31 30 32 80 33 31 34
REMARK SMILES IDX 32 35 33 36 74 37 34 38 79 39 73 40 75 41 35 42 78 43 72 44
REMARK SMILES IDX 71 45 36 47 62 48 45 49 61 50 46 51 49 52 60 53 76 54 47 55
REMARK SMILES IDX 48 56 59 58 77 59 50 60 37 61 38 62 43 63 39 64 40 65 42 66
REMARK SMILES IDX 44 67 41 68 63 69 64 70 69 71 65 72 66 73 68 74 70 75 67 76
REMARK SMILES IDX 51 77 52 78 57 79 53 80 54 81 56 82 58 83 55 84
REMARK H PARENT 7 17 75 46 49 57
REMARK Flexibility Score: inf
ROOT
ATOM      1  C   UNL A   1      40.590  20.496  26.284  1.00  0.00     0.202 C 
ENDROOT
BRANCH   1   2
ATOM      2  C   UNL A   1      40.014  21.904  26.444  1.00  0.00     0.261 C 
BRANCH   2   3
ATOM      3  O   UNL A   1      38.608  21.908  26.142  1.00  0.00    -0.460 OA
BRANCH   3   4
ATOM      4  C   UNL A   1      38.036  23.132  26.110  1.00  0.00     0.330 C 
ATOM      5  O   UNL A   1      38.593  24.205  26.292  1.00  0.00    -0.247 OA
BRANCH   4   6
ATOM      6  C   UNL A   1      36.622  23.071  25.710  1.00  0.00     0.095 C 
ATOM      7  C   UNL A   1      35.571  22.678  26.449  1.00  0.00     0.027 C 
BRANCH   7   8
ATOM      8  C   UNL A   1      34.271  22.791  25.873  1.00  0.00     0.031 A 
ATOM      9  C   UNL A   1      33.967  20.555  24.636  1.00  0.00     0.046 C 
ATOM     10  C   UNL A   1      33.502  21.861  25.188  1.00  0.00    -0.032 A 
ATOM     11  C   UNL A   1      32.121  22.264  25.216  1.00  0.00     0.029 A 
ATOM     12  C   UNL A   1      31.913  23.481  25.853  1.00  0.00     0.093 A 
ATOM     13  S   UNL A   1      33.406  24.284  25.926  1.00  0.00    -0.130 S 
BRANCH  12  14
ATOM     14  C   UNL A   1      30.623  24.045  26.198  1.00  0.00     0.261 C 
ATOM     15  O   UNL A   1      30.064  23.702  27.249  1.00  0.00    -0.268 OA
ATOM     16  N   UNL A   1      29.938  25.037  25.522  1.00  0.00    -0.348 N 
ATOM     17  H   UNL A   1      29.125  25.258  26.030  1.00  0.00     0.164 HD
BRANCH  16  18
ATOM     18  C   UNL A   1      29.980  25.860  24.352  1.00  0.00     0.088 C 
ATOM     19  C   UNL A   1      31.081  26.056  23.367  1.00  0.00     0.034 C 
ATOM     20  C   UNL A   1      30.609  27.233  24.197  1.00  0.00    -0.013 C 
ATOM     21  C   UNL A   1      29.893  28.308  23.414  1.00  0.00     0.013 C 
ATOM     22  C   UNL A   1      31.464  27.799  25.297  1.00  0.00     0.013 C 
ENDBRANCH  16  18
ENDBRANCH  12  14
ENDBRANCH   7   8
ENDBRANCH   4   6
ENDBRANCH   3   4
ENDBRANCH   2   3
ENDBRANCH   1   2
BRANCH   1  23
ATOM     23  O   UNL A   1      41.833  20.407  25.587  1.00  0.00    -0.374 OA
BRANCH  23  24
ATOM     24  C   UNL A   1      42.924  21.188  26.071  1.00  0.00     0.202 C 
BRANCH  24  25
ATOM     25  C   UNL A   1      43.748  21.933  25.013  1.00  0.00     0.261 C 
BRANCH  25  26
ATOM     26  O   UNL A   1      43.193  23.222  24.695  1.00  0.00    -0.460 OA
BRANCH  26  27
ATOM     27  C   UNL A   1      43.957  24.275  25.063  1.00  0.00     0.338 C 
ATOM     28  O   UNL A   1      45.052  24.593  24.613  1.00  0.00    -0.246 OA
BRANCH  27  29
ATOM     29  C   UNL A   1      43.215  25.137  25.999  1.00  0.00     0.060 A 
ATOM     30  C   UNL A   1      43.556  26.496  26.039  1.00  0.00     0.016 A 
ATOM     31  C   UNL A   1      42.259  24.619  26.875  1.00  0.00     0.016 A 
ATOM     32  C   UNL A   1      42.972  27.335  26.985  1.00  0.00     0.010 A 
ATOM     33  C   UNL A   1      41.680  25.462  27.831  1.00  0.00     0.010 A 
ATOM     34  C   UNL A   1      42.058  26.814  27.912  1.00  0.00    -0.014 A 
BRANCH  34  35
ATOM     35  C   UNL A   1      41.604  27.656  29.045  1.00  0.00     0.031 A 
ATOM     36  C   UNL A   1      42.331  27.572  30.358  1.00  0.00     0.074 A 
ATOM     37  C   UNL A   1      40.573  28.506  28.898  1.00  0.00     0.049 A 
ATOM     38  N   UNL A   1      42.085  28.192  31.483  1.00  0.00    -0.248 NA
ATOM     39  C   UNL A   1      43.489  26.665  30.408  1.00  0.00     0.031 C 
ATOM     40  C   UNL A   1      39.811  28.706  27.667  1.00  0.00     0.029 A 
ATOM     41  N   UNL A   1      39.986  29.357  29.801  1.00  0.00    -0.354 N 
ATOM     42  C   UNL A   1      43.053  27.750  32.377  1.00  0.00     0.074 A 
ATOM     43  C   UNL A   1      43.871  26.786  31.672  1.00  0.00     0.031 C 
ATOM     44  C   UNL A   1      38.847  29.615  27.894  1.00  0.00     0.029 A 
ATOM     45  C   UNL A   1      38.907  30.038  29.292  1.00  0.00     0.049 A 
ATOM     46  H   UNL A   1      40.307  29.468  30.724  1.00  0.00     0.167 HD
ATOM     47  C   UNL A   1      43.249  28.121  33.664  1.00  0.00     0.037 A 
ATOM     48  C   UNL A   1      38.056  30.890  29.893  1.00  0.00     0.037 A 
ATOM     49  C   UNL A   1      42.437  29.079  34.366  1.00  0.00     0.049 A 
ATOM     50  C   UNL A   1      38.253  31.235  31.345  1.00  0.00     0.074 A 
ATOM     51  C   UNL A   1      42.567  29.533  35.667  1.00  0.00     0.029 A 
ATOM     52  N   UNL A   1      41.335  29.726  33.826  1.00  0.00    -0.354 N 
ATOM     53  N   UNL A   1      39.185  30.831  32.173  1.00  0.00    -0.248 NA
ATOM     54  C   UNL A   1      37.279  32.159  31.946  1.00  0.00     0.031 C 
ATOM     55  C   UNL A   1      41.519  30.422  35.928  1.00  0.00     0.029 A 
ATOM     56  C   UNL A   1      40.764  30.557  34.774  1.00  0.00     0.049 A 
ATOM     57  H   UNL A   1      41.010  29.612  32.904  1.00  0.00     0.167 HD
ATOM     58  C   UNL A   1      38.928  31.469  33.380  1.00  0.00     0.074 A 
ATOM     59  C   UNL A   1      37.757  32.296  33.174  1.00  0.00     0.031 C 
ATOM     60  C   UNL A   1      39.602  31.379  34.553  1.00  0.00     0.037 A 
BRANCH  47  61
ATOM     61  C   UNL A   1      44.379  27.467  34.405  1.00  0.00     0.057 A 
ATOM     62  C   UNL A   1      45.656  28.038  34.455  1.00  0.00     0.134 A 
ATOM     63  C   UNL A   1      44.176  26.269  35.101  1.00  0.00     0.134 A 
ATOM     64  F   UNL A   1      45.919  29.178  33.798  1.00  0.00    -0.206 F 
ATOM     65  C   UNL A   1      46.700  27.427  35.154  1.00  0.00     0.040 A 
ATOM     66  C   UNL A   1      45.205  25.663  35.824  1.00  0.00     0.040 A 
ATOM     67  F   UNL A   1      42.975  25.673  35.098  1.00  0.00    -0.206 F 
ATOM     68  C   UNL A   1      46.474  26.240  35.847  1.00  0.00     0.006 A 
ENDBRANCH  47  61
BRANCH  48  69
ATOM     69  C   UNL A   1      36.925  31.472  29.127  1.00  0.00     0.057 A 
ATOM     70  C   UNL A   1      36.951  32.800  28.691  1.00  0.00     0.134 A 
ATOM     71  C   UNL A   1      35.784  30.717  28.832  1.00  0.00     0.134 A 
ATOM     72  F   UNL A   1      38.008  33.580  28.965  1.00  0.00    -0.206 F 
ATOM     73  C   UNL A   1      35.876  33.364  28.002  1.00  0.00     0.040 A 
ATOM     74  C   UNL A   1      34.712  31.261  28.123  1.00  0.00     0.040 A 
ATOM     75  F   UNL A   1      35.697  29.437  29.222  1.00  0.00    -0.206 F 
ATOM     76  C   UNL A   1      34.754  32.591  27.711  1.00  0.00     0.006 A 
ENDBRANCH  48  69
BRANCH  60  77
ATOM     77  C   UNL A   1      39.113  32.223  35.694  1.00  0.00     0.057 A 
ATOM     78  C   UNL A   1      39.502  33.559  35.846  1.00  0.00     0.134 A 
ATOM     79  C   UNL A   1      38.207  31.702  36.628  1.00  0.00     0.134 A 
ATOM     80  F   UNL A   1      40.376  34.114  34.993  1.00  0.00    -0.206 F 
ATOM     81  C   UNL A   1      39.025  34.343  36.899  1.00  0.00     0.040 A 
ATOM     82  C   UNL A   1      37.704  32.482  37.670  1.00  0.00     0.040 A 
ATOM     83  F   UNL A   1      37.786  30.432  36.533  1.00  0.00    -0.206 F 
ATOM     84  C   UNL A   1      38.116  33.806  37.810  1.00  0.00     0.006 A 
ENDBRANCH  60  77
ENDBRANCH  34  35
ENDBRANCH  27  29
ENDBRANCH  26  27
ENDBRANCH  25  26
ENDBRANCH  24  25
ENDBRANCH  23  24
ENDBRANCH   1  23
TORSDOF 17
ENDMDL
MODEL 3
REMARK VINA RESULT:     -11.1      0.504      6.245
REMARK SMILES Cc1cc(C(=O)N[C@@H]2CC2(C)C)sc1/C=C/C(=O)OCCOCCOC(=O)c1ccc(-c2c3nc(c(-c4c(F)cccc4F)c4ccc([nH]4)c(-c4c(F)cccc4F)c4nc(c(-c5c(F)cccc5F)c5ccc2[nH]5)C=C4)C=C3)cc1
REMARK SMILES IDX 21 1 20 2 19 3 17 4 18 5 16 6 15 7 14 8 1 9 2 10 3 11 4 12
REMARK SMILES IDX 13 13 5 14 6 15 7 16 8 18 9 19 10 20 11 21 12 22 22 23 23 24
REMARK SMILES IDX 24 25 25 26 26 27 27 28 28 29 29 30 81 31 30 32 80 33 31 34
REMARK SMILES IDX 32 35 33 36 74 37 34 38 79 39 73 40 75 41 35 42 78 43 72 44
REMARK SMILES IDX 71 45 36 47 62 48 45 49 61 50 46 51 49 52 60 53 76 54 47 55
REMARK SMILES IDX 48 56 59 58 77 59 50 60 37 61 38 62 43 63 39 64 40 65 42 66
REMARK SMILES IDX 44 67 41 68 63 69 64 70 69 71 65 72 66 73 68 74 70 75 67 76
REMARK SMILES IDX 51 77 52 78 57 79 53 80 54 81 56 82 58 83 55 84
REMARK H PARENT 7 17 75 46 49 57
REMARK Flexibility Score: inf
ROOT
ATOM      1  C   UNL A   1      42.304  20.613  26.628  1.00  0.00     0.202 C 
ENDROOT
BRANCH   1   2
ATOM      2  C   UNL A   1      40.843  20.835  27.022  1.00  0.00     0.261 C 
BRANCH   2   3
ATOM      3  O   UNL A   1      40.213  21.754  26.113  1.00  0.00    -0.460 OA
BRANCH   3   4
ATOM      4  C   UNL A   1      39.372  22.641  26.692  1.00  0.00     0.330 C 
ATOM      5  O   UNL A   1      39.666  23.502  27.509  1.00  0.00    -0.247 OA
BRANCH   4   6
ATOM      6  C   UNL A   1      38.009  22.548  26.146  1.00  0.00     0.095 C 
ATOM      7  C   UNL A   1      37.128  23.543  25.952  1.00  0.00     0.027 C 
BRANCH   7   8
ATOM      8  C   UNL A   1      35.890  23.224  25.319  1.00  0.00     0.031 A 
ATOM      9  C   UNL A   1      36.523  23.030  22.832  1.00  0.00     0.046 C 
ATOM     10  C   UNL A   1      35.610  22.883  24.003  1.00  0.00    -0.032 A 
ATOM     11  C   UNL A   1      34.342  22.205  23.941  1.00  0.00     0.029 A 
ATOM     12  C   UNL A   1      33.703  22.115  25.172  1.00  0.00     0.093 A 
ATOM     13  S   UNL A   1      34.408  23.264  26.202  1.00  0.00    -0.130 S 
BRANCH  12  14
ATOM     14  C   UNL A   1      32.515  21.333  25.452  1.00  0.00     0.261 C 
ATOM     15  O   UNL A   1      31.435  21.906  25.655  1.00  0.00    -0.268 OA
ATOM     16  N   UNL A   1      32.397  19.956  25.430  1.00  0.00    -0.348 N 
ATOM     17  H   UNL A   1      31.456  19.720  25.594  1.00  0.00     0.164 HD
BRANCH  16  18
ATOM     18  C   UNL A   1      33.146  18.749  25.255  1.00  0.00     0.088 C 
ATOM     19  C   UNL A   1      34.427  18.521  24.530  1.00  0.00     0.034 C 
ATOM     20  C   UNL A   1      33.169  17.830  24.046  1.00  0.00    -0.013 C 
ATOM     21  C   UNL A   1      33.162  16.331  24.237  1.00  0.00     0.013 C 
ATOM     22  C   UNL A   1      32.496  18.247  22.769  1.00  0.00     0.013 C 
ENDBRANCH  16  18
ENDBRANCH  12  14
ENDBRANCH   7   8
ENDBRANCH   4   6
ENDBRANCH   3   4
ENDBRANCH   2   3
ENDBRANCH   1   2
BRANCH   1  23
ATOM     23  O   UNL A   1      43.042  21.786  26.284  1.00  0.00    -0.374 OA
BRANCH  23  24
ATOM     24  C   UNL A   1      44.100  21.652  25.336  1.00  0.00     0.202 C 
BRANCH  24  25
ATOM     25  C   UNL A   1      44.240  22.783  24.311  1.00  0.00     0.261 C 
BRANCH  25  26
ATOM     26  O   UNL A   1      43.503  23.960  24.690  1.00  0.00    -0.460 OA
BRANCH  26  27
ATOM     27  C   UNL A   1      44.260  24.975  25.168  1.00  0.00     0.338 C 
ATOM     28  O   UNL A   1      45.354  25.342  24.758  1.00  0.00    -0.246 OA
BRANCH  27  29
ATOM     29  C   UNL A   1      43.509  25.731  26.184  1.00  0.00     0.060 A 
ATOM     30  C   UNL A   1      43.825  27.087  26.348  1.00  0.00     0.016 A 
ATOM     31  C   UNL A   1      42.568  25.116  27.013  1.00  0.00     0.016 A 
ATOM     32  C   UNL A   1      43.233  27.823  27.372  1.00  0.00     0.010 A 
ATOM     33  C   UNL A   1      41.981  25.855  28.047  1.00  0.00     0.010 A 
ATOM     34  C   UNL A   1      42.335  27.201  28.251  1.00  0.00    -0.014 A 
BRANCH  34  35
ATOM     35  C   UNL A   1      41.874  27.926  29.460  1.00  0.00     0.031 A 
ATOM     36  C   UNL A   1      40.643  28.785  29.373  1.00  0.00     0.074 A 
ATOM     37  C   UNL A   1      42.527  27.798  30.628  1.00  0.00     0.049 A 
ATOM     38  N   UNL A   1      40.083  29.527  30.294  1.00  0.00    -0.248 NA
ATOM     39  C   UNL A   1      39.955  28.813  28.073  1.00  0.00     0.031 C 
ATOM     40  C   UNL A   1      43.709  26.968  30.850  1.00  0.00     0.029 A 
ATOM     41  N   UNL A   1      42.287  28.377  31.849  1.00  0.00    -0.354 N 
ATOM     42  C   UNL A   1      38.980  30.113  29.686  1.00  0.00     0.074 A 
ATOM     43  C   UNL A   1      38.967  29.664  28.310  1.00  0.00     0.031 C 
ATOM     44  C   UNL A   1      44.099  27.098  32.129  1.00  0.00     0.029 A 
ATOM     45  C   UNL A   1      43.212  28.043  32.807  1.00  0.00     0.049 A 
ATOM     46  H   UNL A   1      41.524  28.974  32.021  1.00  0.00     0.167 HD
ATOM     47  C   UNL A   1      38.055  30.940  30.228  1.00  0.00     0.037 A 
ATOM     48  C   UNL A   1      43.339  28.467  34.078  1.00  0.00     0.037 A 
ATOM     49  C   UNL A   1      38.066  31.386  31.596  1.00  0.00     0.049 A 
ATOM     50  C   UNL A   1      42.337  29.441  34.639  1.00  0.00     0.074 A 
ATOM     51  C   UNL A   1      37.164  32.212  32.243  1.00  0.00     0.029 A 
ATOM     52  N   UNL A   1      39.038  31.049  32.528  1.00  0.00    -0.354 N 
ATOM     53  N   UNL A   1      41.284  29.968  34.064  1.00  0.00    -0.248 NA
ATOM     54  C   UNL A   1      42.541  29.876  36.029  1.00  0.00     0.031 C 
ATOM     55  C   UNL A   1      37.611  32.409  33.553  1.00  0.00     0.029 A 
ATOM     56  C   UNL A   1      38.768  31.668  33.737  1.00  0.00     0.049 A 
ATOM     57  H   UNL A   1      39.804  30.456  32.355  1.00  0.00     0.167 HD
ATOM     58  C   UNL A   1      40.686  30.773  35.026  1.00  0.00     0.074 A 
ATOM     59  C   UNL A   1      41.489  30.657  36.225  1.00  0.00     0.031 C 
ATOM     60  C   UNL A   1      39.572  31.538  34.924  1.00  0.00     0.037 A 
BRANCH  47  61
ATOM     61  C   UNL A   1      36.961  31.435  29.328  1.00  0.00     0.057 A 
ATOM     62  C   UNL A   1      35.862  30.635  28.993  1.00  0.00     0.134 A 
ATOM     63  C   UNL A   1      36.994  32.738  28.816  1.00  0.00     0.134 A 
ATOM     64  F   UNL A   1      35.778  29.373  29.439  1.00  0.00    -0.206 F 
ATOM     65  C   UNL A   1      34.844  31.107  28.161  1.00  0.00     0.040 A 
ATOM     66  C   UNL A   1      35.971  33.229  28.004  1.00  0.00     0.040 A 
ATOM     67  F   UNL A   1      38.017  33.558  29.103  1.00  0.00    -0.206 F 
ATOM     68  C   UNL A   1      34.893  32.410  27.670  1.00  0.00     0.006 A 
ENDBRANCH  47  61
BRANCH  48  69
ATOM     69  C   UNL A   1      44.468  27.983  34.912  1.00  0.00     0.057 A 
ATOM     70  C   UNL A   1      44.319  26.888  35.769  1.00  0.00     0.134 A 
ATOM     71  C   UNL A   1      45.715  28.617  34.884  1.00  0.00     0.134 A 
ATOM     72  F   UNL A   1      43.140  26.254  35.857  1.00  0.00    -0.206 F 
ATOM     73  C   UNL A   1      45.366  26.450  36.584  1.00  0.00     0.040 A 
ATOM     74  C   UNL A   1      46.777  28.176  35.674  1.00  0.00     0.040 A 
ATOM     75  F   UNL A   1      45.921  29.673  34.082  1.00  0.00    -0.206 F 
ATOM     76  C   UNL A   1      46.601  27.092  36.533  1.00  0.00     0.006 A 
ENDBRANCH  48  69
BRANCH  60  77
ATOM     77  C   UNL A   1      39.134  32.282  36.152  1.00  0.00     0.057 A 
ATOM     78  C   UNL A   1      39.579  33.581  36.428  1.00  0.00     0.134 A 
ATOM     79  C   UNL A   1      38.221  31.707  37.046  1.00  0.00     0.134 A 
ATOM     80  F   UNL A   1      40.462  34.183  35.618  1.00  0.00    -0.206 F 
ATOM     81  C   UNL A   1      39.149  34.273  37.562  1.00  0.00     0.040 A 
ATOM     82  C   UNL A   1      37.765  32.398  38.170  1.00  0.00     0.040 A 
ATOM     83  F   UNL A   1      37.748  30.469  36.834  1.00  0.00    -0.206 F 
ATOM     84  C   UNL A   1      38.233  33.684  38.432  1.00  0.00     0.006 A 
ENDBRANCH  60  77
ENDBRANCH  34  35
ENDBRANCH  27  29
ENDBRANCH  26  27
ENDBRANCH  25  26
ENDBRANCH  24  25
ENDBRANCH  23  24
ENDBRANCH   1  23
TORSDOF 17
ENDMDL
