MODEL 1
REMARK VINA RESULT:     -10.2      0.000      0.000
REMARK SMILES C[C@H]1[C@@H](C(=O)OCCOCCOC(=O)c2ccc(-c3c4nc(c(-c5c(F)cccc5F)c5ccc([nH]5)c(-c5c(F)cccc5F)c5nc(c(-c6c(F)cccc6F)c6ccc3[nH]6)C=C5)C=C4)cc2)CC[N@@H+]1CC1(O)CCCC1
REMARK SMILES IDX 8 1 7 2 6 3 4 4 5 5 3 6 1 7 2 8 71 9 69 10 70 11 72 13 73 14
REMARK SMILES IDX 75 15 78 16 76 17 77 18 74 19 9 21 10 22 11 23 12 24 13 25
REMARK SMILES IDX 14 26 15 27 16 28 68 29 17 30 67 31 18 32 19 33 20 34 61 35
REMARK SMILES IDX 21 36 66 37 60 38 62 39 22 40 65 41 59 42 58 43 23 45 49 46
REMARK SMILES IDX 32 47 48 48 33 49 36 50 47 51 63 52 34 53 35 54 46 56 64 57
REMARK SMILES IDX 37 58 24 59 25 60 30 61 26 62 27 63 29 64 31 65 28 66 50 67
REMARK SMILES IDX 51 68 56 69 52 70 53 71 55 72 57 73 54 74 38 75 39 76 44 77
REMARK SMILES IDX 40 78 41 79 43 80 45 81 42 82
REMARK H PARENT 71 12 74 20 62 44 36 55
REMARK Flexibility Score: inf
ROOT
ATOM      1  C   UNL A   1      32.121  29.555  27.129  1.00  0.00     0.202 C 
ENDROOT
BRANCH   1   2
ATOM      2  C   UNL A   1      31.775  28.341  26.265  1.00  0.00     0.261 C 
BRANCH   2   3
ATOM      3  O   UNL A   1      31.313  28.785  24.976  1.00  0.00    -0.463 OA
BRANCH   3   4
ATOM      4  C   UNL A   1      30.879  27.819  24.144  1.00  0.00     0.315 C 
ATOM      5  O   UNL A   1      30.171  28.023  23.161  1.00  0.00    -0.252 OA
BRANCH   4   6
ATOM      6  C   UNL A   1      31.378  26.428  24.474  1.00  0.00     0.162 C 
ATOM      7  C   UNL A   1      33.355  26.397  22.716  1.00  0.00     0.076 C 
ATOM      8  C   UNL A   1      32.668  25.779  23.932  1.00  0.00     0.195 C 
ATOM      9  N   UNL A   1      32.314  24.394  23.569  1.00  0.00    -0.330 N 
ATOM     10  C   UNL A   1      30.263  25.412  24.195  1.00  0.00     0.083 C 
ATOM     11  C   UNL A   1      30.882  24.356  23.302  1.00  0.00     0.263 C 
ATOM     12  H   UNL A   1      32.841  24.162  22.726  1.00  0.00     0.348 HD
BRANCH   9  13
ATOM     13  C   UNL A   1      32.803  23.311  24.445  1.00  0.00     0.297 C 
BRANCH  13  14
ATOM     14  C   UNL A   1      34.310  22.925  24.504  1.00  0.00     0.113 C 
ATOM     15  C   UNL A   1      35.196  23.892  25.291  1.00  0.00     0.041 C 
ATOM     16  C   UNL A   1      34.971  22.980  23.121  1.00  0.00     0.041 C 
ATOM     17  C   UNL A   1      36.616  23.643  24.792  1.00  0.00     0.003 C 
ATOM     18  C   UNL A   1      36.471  22.991  23.423  1.00  0.00     0.003 C 
BRANCH  14  19
ATOM     19  O   UNL A   1      34.447  21.582  24.982  1.00  0.00    -0.384 OA
ATOM     20  H   UNL A   1      33.778  21.411  25.662  1.00  0.00     0.211 HD
ENDBRANCH  14  19
ENDBRANCH  13  14
ENDBRANCH   9  13
ENDBRANCH   4   6
ENDBRANCH   3   4
ENDBRANCH   2   3
ENDBRANCH   1   2
BRANCH   1  21
ATOM     21  O   UNL A   1      32.335  30.775  26.414  1.00  0.00    -0.374 OA
BRANCH  21  22
ATOM     22  C   UNL A   1      31.390  31.821  26.644  1.00  0.00     0.202 C 
BRANCH  22  23
ATOM     23  C   UNL A   1      31.979  33.218  26.855  1.00  0.00     0.261 C 
BRANCH  23  24
ATOM     24  O   UNL A   1      32.255  33.442  28.246  1.00  0.00    -0.460 OA
BRANCH  24  25
ATOM     25  C   UNL A   1      33.310  34.252  28.476  1.00  0.00     0.338 C 
ATOM     26  O   UNL A   1      33.280  35.450  28.727  1.00  0.00    -0.246 OA
BRANCH  25  27
ATOM     27  C   UNL A   1      34.547  33.458  28.576  1.00  0.00     0.060 A 
ATOM     28  C   UNL A   1      34.432  32.201  29.181  1.00  0.00     0.016 A 
ATOM     29  C   UNL A   1      35.792  33.933  28.153  1.00  0.00     0.016 A 
ATOM     30  C   UNL A   1      35.571  31.465  29.473  1.00  0.00     0.010 A 
ATOM     31  C   UNL A   1      36.941  33.189  28.446  1.00  0.00     0.010 A 
ATOM     32  C   UNL A   1      36.833  31.988  29.168  1.00  0.00    -0.014 A 
BRANCH  32  33
ATOM     33  C   UNL A   1      38.010  31.369  29.823  1.00  0.00     0.031 A 
ATOM     34  C   UNL A   1      38.274  31.687  31.271  1.00  0.00     0.074 A 
ATOM     35  C   UNL A   1      38.747  30.447  29.180  1.00  0.00     0.049 A 
ATOM     36  N   UNL A   1      39.168  31.182  32.083  1.00  0.00    -0.248 NA
ATOM     37  C   UNL A   1      37.411  32.706  31.890  1.00  0.00     0.031 C 
ATOM     38  C   UNL A   1      38.553  30.031  27.793  1.00  0.00     0.029 A 
ATOM     39  N   UNL A   1      39.791  29.678  29.624  1.00  0.00    -0.354 N 
ATOM     40  C   UNL A   1      38.972  31.820  33.302  1.00  0.00     0.074 A 
ATOM     41  C   UNL A   1      37.908  32.780  33.115  1.00  0.00     0.031 C 
ATOM     42  C   UNL A   1      39.446  29.069  27.501  1.00  0.00     0.029 A 
ATOM     43  C   UNL A   1      40.281  28.818  28.673  1.00  0.00     0.049 A 
ATOM     44  H   UNL A   1      40.154  29.737  30.537  1.00  0.00     0.167 HD
ATOM     45  C   UNL A   1      39.608  31.612  34.479  1.00  0.00     0.037 A 
ATOM     46  C   UNL A   1      41.291  27.932  28.746  1.00  0.00     0.037 A 
ATOM     47  C   UNL A   1      40.663  30.651  34.662  1.00  0.00     0.049 A 
ATOM     48  C   UNL A   1      42.020  27.757  30.051  1.00  0.00     0.074 A 
ATOM     49  C   UNL A   1      41.370  30.354  35.814  1.00  0.00     0.029 A 
ATOM     50  N   UNL A   1      41.166  29.833  33.661  1.00  0.00    -0.354 N 
ATOM     51  N   UNL A   1      41.810  28.346  31.204  1.00  0.00    -0.248 NA
ATOM     52  C   UNL A   1      43.120  26.782  30.068  1.00  0.00     0.031 C 
ATOM     53  C   UNL A   1      42.334  29.392  35.498  1.00  0.00     0.029 A 
ATOM     54  C   UNL A   1      42.190  29.047  34.163  1.00  0.00     0.049 A 
ATOM     55  H   UNL A   1      40.843  29.815  32.732  1.00  0.00     0.167 HD
ATOM     56  C   UNL A   1      42.728  27.793  32.089  1.00  0.00     0.074 A 
ATOM     57  C   UNL A   1      43.484  26.809  31.341  1.00  0.00     0.031 C 
ATOM     58  C   UNL A   1      42.929  28.072  33.401  1.00  0.00     0.037 A 
BRANCH  45  59
ATOM     59  C   UNL A   1      39.194  32.458  35.648  1.00  0.00     0.057 A 
ATOM     60  C   UNL A   1      39.685  33.758  35.837  1.00  0.00     0.134 A 
ATOM     61  C   UNL A   1      38.276  31.973  36.588  1.00  0.00     0.134 A 
ATOM     62  F   UNL A   1      40.580  34.278  34.984  1.00  0.00    -0.206 F 
ATOM     63  C   UNL A   1      39.298  34.532  36.932  1.00  0.00     0.040 A 
ATOM     64  C   UNL A   1      37.860  32.748  37.672  1.00  0.00     0.040 A 
ATOM     65  F   UNL A   1      37.765  30.739  36.467  1.00  0.00    -0.206 F 
ATOM     66  C   UNL A   1      38.377  34.030  37.850  1.00  0.00     0.006 A 
ENDBRANCH  45  59
BRANCH  46  67
ATOM     67  C   UNL A   1      41.671  27.137  27.550  1.00  0.00     0.057 A 
ATOM     68  C   UNL A   1      41.141  25.862  27.321  1.00  0.00     0.134 A 
ATOM     69  C   UNL A   1      42.590  27.630  26.616  1.00  0.00     0.134 A 
ATOM     70  F   UNL A   1      40.271  25.326  28.190  1.00  0.00    -0.206 F 
ATOM     71  C   UNL A   1      41.526  25.098  26.219  1.00  0.00     0.040 A 
ATOM     72  C   UNL A   1      42.965  26.887  25.494  1.00  0.00     0.040 A 
ATOM     73  F   UNL A   1      43.132  28.846  26.775  1.00  0.00    -0.206 F 
ATOM     74  C   UNL A   1      42.438  25.612  25.299  1.00  0.00     0.006 A 
ENDBRANCH  46  67
BRANCH  58  75
ATOM     75  C   UNL A   1      43.983  27.276  34.116  1.00  0.00     0.057 A 
ATOM     76  C   UNL A   1      45.308  27.716  34.212  1.00  0.00     0.134 A 
ATOM     77  C   UNL A   1      43.658  26.059  34.733  1.00  0.00     0.134 A 
ATOM     78  F   UNL A   1      45.686  28.866  33.635  1.00  0.00    -0.206 F 
ATOM     79  C   UNL A   1      46.282  26.960  34.867  1.00  0.00     0.040 A 
ATOM     80  C   UNL A   1      44.616  25.309  35.416  1.00  0.00     0.040 A 
ATOM     81  F   UNL A   1      42.404  25.586  34.690  1.00  0.00    -0.206 F 
ATOM     82  C   UNL A   1      45.935  25.754  35.475  1.00  0.00     0.006 A 
ENDBRANCH  58  75
ENDBRANCH  32  33
ENDBRANCH  25  27
ENDBRANCH  24  25
ENDBRANCH  23  24
ENDBRANCH  22  23
ENDBRANCH  21  22
ENDBRANCH   1  21
TORSDOF 17
ENDMDL
MODEL 2
REMARK VINA RESULT:     -10.1      4.384      9.634
REMARK SMILES C[C@H]1[C@@H](C(=O)OCCOCCOC(=O)c2ccc(-c3c4nc(c(-c5c(F)cccc5F)c5ccc([nH]5)c(-c5c(F)cccc5F)c5nc(c(-c6c(F)cccc6F)c6ccc3[nH]6)C=C5)C=C4)cc2)CC[N@@H+]1CC1(O)CCCC1
REMARK SMILES IDX 8 1 7 2 6 3 4 4 5 5 3 6 1 7 2 8 71 9 69 10 70 11 72 13 73 14
REMARK SMILES IDX 75 15 78 16 76 17 77 18 74 19 9 21 10 22 11 23 12 24 13 25
REMARK SMILES IDX 14 26 15 27 16 28 68 29 17 30 67 31 18 32 19 33 20 34 61 35
REMARK SMILES IDX 21 36 66 37 60 38 62 39 22 40 65 41 59 42 58 43 23 45 49 46
REMARK SMILES IDX 32 47 48 48 33 49 36 50 47 51 63 52 34 53 35 54 46 56 64 57
REMARK SMILES IDX 37 58 24 59 25 60 30 61 26 62 27 63 29 64 31 65 28 66 50 67
REMARK SMILES IDX 51 68 56 69 52 70 53 71 55 72 57 73 54 74 38 75 39 76 44 77
REMARK SMILES IDX 40 78 41 79 43 80 45 81 42 82
REMARK H PARENT 71 12 74 20 62 44 36 55
REMARK Flexibility Score: inf
ROOT
ATOM      1  C   UNL A   1      46.309  20.846  24.611  1.00  0.00     0.202 C 
ENDROOT
BRANCH   1   2
ATOM      2  C   UNL A   1      45.984  19.408  25.018  1.00  0.00     0.261 C 
BRANCH   2   3
ATOM      3  O   UNL A   1      44.652  19.075  24.581  1.00  0.00    -0.463 OA
BRANCH   3   4
ATOM      4  C   UNL A   1      43.762  18.818  25.558  1.00  0.00     0.315 C 
ATOM      5  O   UNL A   1      43.900  17.938  26.403  1.00  0.00    -0.252 OA
BRANCH   4   6
ATOM      6  C   UNL A   1      42.567  19.748  25.585  1.00  0.00     0.162 C 
ATOM      7  C   UNL A   1      43.727  21.683  26.966  1.00  0.00     0.076 C 
ATOM      8  C   UNL A   1      42.565  21.202  26.100  1.00  0.00     0.195 C 
ATOM      9  N   UNL A   1      41.337  21.354  26.905  1.00  0.00    -0.330 N 
ATOM     10  C   UNL A   1      41.405  19.056  26.310  1.00  0.00     0.083 C 
ATOM     11  C   UNL A   1      40.947  20.031  27.376  1.00  0.00     0.263 C 
ATOM     12  H   UNL A   1      41.569  21.960  27.692  1.00  0.00     0.348 HD
BRANCH   9  13
ATOM     13  C   UNL A   1      40.236  22.148  26.327  1.00  0.00     0.297 C 
BRANCH  13  14
ATOM     14  C   UNL A   1      40.018  23.642  26.706  1.00  0.00     0.113 C 
ATOM     15  C   UNL A   1      40.324  23.992  28.163  1.00  0.00     0.041 C 
ATOM     16  C   UNL A   1      38.541  24.048  26.612  1.00  0.00     0.041 C 
ATOM     17  C   UNL A   1      39.569  25.288  28.440  1.00  0.00     0.003 C 
ATOM     18  C   UNL A   1      38.462  25.359  27.396  1.00  0.00     0.003 C 
BRANCH  14  19
ATOM     19  O   UNL A   1      40.742  24.483  25.802  1.00  0.00    -0.384 OA
ATOM     20  H   UNL A   1      41.056  23.955  25.051  1.00  0.00     0.211 HD
ENDBRANCH  14  19
ENDBRANCH  13  14
ENDBRANCH   9  13
ENDBRANCH   4   6
ENDBRANCH   3   4
ENDBRANCH   2   3
ENDBRANCH   1   2
BRANCH   1  21
ATOM     21  O   UNL A   1      45.292  21.517  23.862  1.00  0.00    -0.374 OA
BRANCH  21  22
ATOM     22  C   UNL A   1      45.266  22.942  23.958  1.00  0.00     0.202 C 
BRANCH  22  23
ATOM     23  C   UNL A   1      46.484  23.589  24.622  1.00  0.00     0.261 C 
BRANCH  23  24
ATOM     24  O   UNL A   1      46.079  24.372  25.757  1.00  0.00    -0.460 OA
BRANCH  24  25
ATOM     25  C   UNL A   1      45.861  25.674  25.478  1.00  0.00     0.338 C 
ATOM     26  O   UNL A   1      46.374  26.334  24.584  1.00  0.00    -0.246 OA
BRANCH  25  27
ATOM     27  C   UNL A   1      44.746  26.187  26.293  1.00  0.00     0.060 A 
ATOM     28  C   UNL A   1      44.630  27.579  26.384  1.00  0.00     0.016 A 
ATOM     29  C   UNL A   1      43.872  25.353  26.997  1.00  0.00     0.016 A 
ATOM     30  C   UNL A   1      43.722  28.144  27.266  1.00  0.00     0.010 A 
ATOM     31  C   UNL A   1      42.953  25.924  27.886  1.00  0.00     0.010 A 
ATOM     32  C   UNL A   1      42.928  27.318  28.070  1.00  0.00    -0.014 A 
BRANCH  32  33
ATOM     33  C   UNL A   1      42.264  27.932  29.243  1.00  0.00     0.031 A 
ATOM     34  C   UNL A   1      42.966  27.879  30.575  1.00  0.00     0.074 A 
ATOM     35  C   UNL A   1      41.127  28.634  29.098  1.00  0.00     0.049 A 
ATOM     36  N   UNL A   1      42.639  28.441  31.710  1.00  0.00    -0.248 NA
ATOM     37  C   UNL A   1      44.207  27.090  30.633  1.00  0.00     0.031 C 
ATOM     38  C   UNL A   1      40.385  28.789  27.849  1.00  0.00     0.029 A 
ATOM     39  N   UNL A   1      40.413  29.368  30.010  1.00  0.00    -0.354 N 
ATOM     40  C   UNL A   1      43.631  28.075  32.611  1.00  0.00     0.074 A 
ATOM     41  C   UNL A   1      44.548  27.208  31.907  1.00  0.00     0.031 C 
ATOM     42  C   UNL A   1      39.322  29.582  28.071  1.00  0.00     0.029 A 
ATOM     43  C   UNL A   1      39.302  29.972  29.479  1.00  0.00     0.049 A 
ATOM     44  H   UNL A   1      40.673  29.452  30.956  1.00  0.00     0.167 HD
ATOM     45  C   UNL A   1      43.778  28.445  33.905  1.00  0.00     0.037 A 
ATOM     46  C   UNL A   1      38.376  30.751  30.067  1.00  0.00     0.037 A 
ATOM     47  C   UNL A   1      42.867  29.314  34.601  1.00  0.00     0.049 A 
ATOM     48  C   UNL A   1      38.532  31.104  31.522  1.00  0.00     0.074 A 
ATOM     49  C   UNL A   1      42.927  29.758  35.910  1.00  0.00     0.029 A 
ATOM     50  N   UNL A   1      41.724  29.867  34.041  1.00  0.00    -0.354 N 
ATOM     51  N   UNL A   1      39.487  30.776  32.357  1.00  0.00    -0.248 NA
ATOM     52  C   UNL A   1      37.485  31.950  32.112  1.00  0.00     0.031 C 
ATOM     53  C   UNL A   1      41.793  30.540  36.156  1.00  0.00     0.029 A 
ATOM     54  C   UNL A   1      41.058  30.630  34.985  1.00  0.00     0.049 A 
ATOM     55  H   UNL A   1      41.431  29.736  33.111  1.00  0.00     0.167 HD
ATOM     56  C   UNL A   1      39.175  31.396  33.561  1.00  0.00     0.074 A 
ATOM     57  C   UNL A   1      37.949  32.136  33.339  1.00  0.00     0.031 C 
ATOM     58  C   UNL A   1      39.839  31.360  34.742  1.00  0.00     0.037 A 
BRANCH  45  59
ATOM     59  C   UNL A   1      44.955  27.888  34.654  1.00  0.00     0.057 A 
ATOM     60  C   UNL A   1      44.884  26.678  35.357  1.00  0.00     0.134 A 
ATOM     61  C   UNL A   1      46.182  28.564  34.655  1.00  0.00     0.134 A 
ATOM     62  F   UNL A   1      43.735  25.989  35.412  1.00  0.00    -0.206 F 
ATOM     63  C   UNL A   1      45.983  26.174  36.056  1.00  0.00     0.040 A 
ATOM     64  C   UNL A   1      47.296  28.056  35.327  1.00  0.00     0.040 A 
ATOM     65  F   UNL A   1      46.320  29.726  34.000  1.00  0.00    -0.206 F 
ATOM     66  C   UNL A   1      47.196  26.861  36.036  1.00  0.00     0.006 A 
ENDBRANCH  45  59
BRANCH  46  67
ATOM     67  C   UNL A   1      37.221  31.256  29.281  1.00  0.00     0.057 A 
ATOM     68  C   UNL A   1      36.105  30.451  29.024  1.00  0.00     0.134 A 
ATOM     69  C   UNL A   1      37.215  32.553  28.753  1.00  0.00     0.134 A 
ATOM     70  F   UNL A   1      36.058  29.193  29.485  1.00  0.00    -0.206 F 
ATOM     71  C   UNL A   1      35.036  30.909  28.253  1.00  0.00     0.040 A 
ATOM     72  C   UNL A   1      36.141  33.034  28.003  1.00  0.00     0.040 A 
ATOM     73  F   UNL A   1      38.252  33.375  28.968  1.00  0.00    -0.206 F 
ATOM     74  C   UNL A   1      35.050  32.207  27.743  1.00  0.00     0.006 A 
ENDBRANCH  46  67
BRANCH  58  75
ATOM     75  C   UNL A   1      39.272  32.172  35.871  1.00  0.00     0.057 A 
ATOM     76  C   UNL A   1      39.629  33.510  36.077  1.00  0.00     0.134 A 
ATOM     77  C   UNL A   1      38.338  31.610  36.753  1.00  0.00     0.134 A 
ATOM     78  F   UNL A   1      40.525  34.105  35.275  1.00  0.00    -0.206 F 
ATOM     79  C   UNL A   1      39.107  34.250  37.138  1.00  0.00     0.040 A 
ATOM     80  C   UNL A   1      37.786  32.348  37.800  1.00  0.00     0.040 A 
ATOM     81  F   UNL A   1      37.942  30.337  36.605  1.00  0.00    -0.206 F 
ATOM     82  C   UNL A   1      38.178  33.670  38.001  1.00  0.00     0.006 A 
ENDBRANCH  58  75
ENDBRANCH  32  33
ENDBRANCH  25  27
ENDBRANCH  24  25
ENDBRANCH  23  24
ENDBRANCH  22  23
ENDBRANCH  21  22
ENDBRANCH   1  21
TORSDOF 17
ENDMDL
MODEL 3
REMARK VINA RESULT:     -10.1      4.157      9.338
REMARK SMILES C[C@H]1[C@@H](C(=O)OCCOCCOC(=O)c2ccc(-c3c4nc(c(-c5c(F)cccc5F)c5ccc([nH]5)c(-c5c(F)cccc5F)c5nc(c(-c6c(F)cccc6F)c6ccc3[nH]6)C=C5)C=C4)cc2)CC[N@@H+]1CC1(O)CCCC1
REMARK SMILES IDX 8 1 7 2 6 3 4 4 5 5 3 6 1 7 2 8 71 9 69 10 70 11 72 13 73 14
REMARK SMILES IDX 75 15 78 16 76 17 77 18 74 19 9 21 10 22 11 23 12 24 13 25
REMARK SMILES IDX 14 26 15 27 16 28 68 29 17 30 67 31 18 32 19 33 20 34 61 35
REMARK SMILES IDX 21 36 66 37 60 38 62 39 22 40 65 41 59 42 58 43 23 45 49 46
REMARK SMILES IDX 32 47 48 48 33 49 36 50 47 51 63 52 34 53 35 54 46 56 64 57
REMARK SMILES IDX 37 58 24 59 25 60 30 61 26 62 27 63 29 64 31 65 28 66 50 67
REMARK SMILES IDX 51 68 56 69 52 70 53 71 55 72 57 73 54 74 38 75 39 76 44 77
REMARK SMILES IDX 40 78 41 79 43 80 45 81 42 82
REMARK H PARENT 71 12 74 20 62 44 36 55
REMARK Flexibility Score: inf
ROOT
ATOM      1  C   UNL A   1      36.733  23.219  24.443  1.00  0.00     0.202 C 
ENDROOT
BRANCH   1   2
ATOM      2  C   UNL A   1      35.286  23.117  24.930  1.00  0.00     0.261 C 
BRANCH   2   3
ATOM      3  O   UNL A   1      34.658  24.410  24.841  1.00  0.00    -0.463 OA
BRANCH   3   4
ATOM      4  C   UNL A   1      33.555  24.475  24.070  1.00  0.00     0.315 C 
ATOM      5  O   UNL A   1      32.942  23.493  23.661  1.00  0.00    -0.252 OA
BRANCH   4   6
ATOM      6  C   UNL A   1      33.071  25.879  23.776  1.00  0.00     0.162 C 
ATOM      7  C   UNL A   1      30.734  25.649  24.994  1.00  0.00     0.076 C 
ATOM      8  C   UNL A   1      31.798  26.534  24.349  1.00  0.00     0.195 C 
ATOM      9  N   UNL A   1      31.150  27.236  23.224  1.00  0.00    -0.330 N 
ATOM     10  C   UNL A   1      32.981  26.073  22.256  1.00  0.00     0.083 C 
ATOM     11  C   UNL A   1      31.582  26.591  21.990  1.00  0.00     0.263 C 
ATOM     12  H   UNL A   1      30.143  27.134  23.348  1.00  0.00     0.348 HD
BRANCH   9  13
ATOM     13  C   UNL A   1      31.226  28.710  23.204  1.00  0.00     0.297 C 
BRANCH  13  14
ATOM     14  C   UNL A   1      30.016  29.585  22.765  1.00  0.00     0.113 C 
ATOM     15  C   UNL A   1      29.667  30.732  23.715  1.00  0.00     0.041 C 
ATOM     16  C   UNL A   1      28.702  28.791  22.770  1.00  0.00     0.041 C 
ATOM     17  C   UNL A   1      28.218  31.093  23.406  1.00  0.00     0.003 C 
ATOM     18  C   UNL A   1      27.615  29.866  22.733  1.00  0.00     0.003 C 
BRANCH  14  19
ATOM     19  O   UNL A   1      30.217  30.055  21.427  1.00  0.00    -0.384 OA
ATOM     20  H   UNL A   1      30.223  31.025  21.424  1.00  0.00     0.211 HD
ENDBRANCH  14  19
ENDBRANCH  13  14
ENDBRANCH   9  13
ENDBRANCH   4   6
ENDBRANCH   3   4
ENDBRANCH   2   3
ENDBRANCH   1   2
BRANCH   1  21
ATOM     21  O   UNL A   1      37.299  22.004  23.945  1.00  0.00    -0.374 OA
BRANCH  21  22
ATOM     22  C   UNL A   1      37.170  20.853  24.781  1.00  0.00     0.202 C 
BRANCH  22  23
ATOM     23  C   UNL A   1      38.418  19.976  24.908  1.00  0.00     0.261 C 
BRANCH  23  24
ATOM     24  O   UNL A   1      39.120  20.276  26.125  1.00  0.00    -0.460 OA
BRANCH  24  25
ATOM     25  C   UNL A   1      40.435  19.974  26.091  1.00  0.00     0.338 C 
ATOM     26  O   UNL A   1      40.952  18.980  25.597  1.00  0.00    -0.246 OA
BRANCH  25  27
ATOM     27  C   UNL A   1      41.231  21.116  26.574  1.00  0.00     0.060 A 
ATOM     28  C   UNL A   1      41.345  21.252  27.963  1.00  0.00     0.016 A 
ATOM     29  C   UNL A   1      41.802  22.062  25.717  1.00  0.00     0.016 A 
ATOM     30  C   UNL A   1      41.925  22.390  28.503  1.00  0.00     0.010 A 
ATOM     31  C   UNL A   1      42.389  23.209  26.263  1.00  0.00     0.010 A 
ATOM     32  C   UNL A   1      42.387  23.403  27.656  1.00  0.00    -0.014 A 
BRANCH  32  33
ATOM     33  C   UNL A   1      42.641  24.735  28.252  1.00  0.00     0.031 A 
ATOM     34  C   UNL A   1      44.065  25.129  28.549  1.00  0.00     0.074 A 
ATOM     35  C   UNL A   1      41.642  25.621  28.404  1.00  0.00     0.049 A 
ATOM     36  N   UNL A   1      44.541  26.275  28.961  1.00  0.00    -0.248 NA
ATOM     37  C   UNL A   1      45.090  24.092  28.348  1.00  0.00     0.031 C 
ATOM     38  C   UNL A   1      40.234  25.363  28.108  1.00  0.00     0.029 A 
ATOM     39  N   UNL A   1      41.667  26.927  28.821  1.00  0.00    -0.354 N 
ATOM     40  C   UNL A   1      45.915  26.097  29.066  1.00  0.00     0.074 A 
ATOM     41  C   UNL A   1      46.194  24.722  28.719  1.00  0.00     0.031 C 
ATOM     42  C   UNL A   1      39.529  26.483  28.343  1.00  0.00     0.029 A 
ATOM     43  C   UNL A   1      40.433  27.527  28.822  1.00  0.00     0.049 A 
ATOM     44  H   UNL A   1      42.492  27.389  29.094  1.00  0.00     0.167 HD
ATOM     45  C   UNL A   1      46.864  27.002  29.402  1.00  0.00     0.037 A 
ATOM     46  C   UNL A   1      40.079  28.777  29.172  1.00  0.00     0.037 A 
ATOM     47  C   UNL A   1      46.583  28.371  29.741  1.00  0.00     0.049 A 
ATOM     48  C   UNL A   1      41.147  29.750  29.595  1.00  0.00     0.074 A 
ATOM     49  C   UNL A   1      47.471  29.374  30.089  1.00  0.00     0.029 A 
ATOM     50  N   UNL A   1      45.313  28.929  29.779  1.00  0.00    -0.354 N 
ATOM     51  N   UNL A   1      42.444  29.579  29.665  1.00  0.00    -0.248 NA
ATOM     52  C   UNL A   1      40.699  31.097  29.975  1.00  0.00     0.031 C 
ATOM     53  C   UNL A   1      46.733  30.525  30.385  1.00  0.00     0.029 A 
ATOM     54  C   UNL A   1      45.391  30.256  30.166  1.00  0.00     0.049 A 
ATOM     55  H   UNL A   1      44.481  28.451  29.562  1.00  0.00     0.167 HD
ATOM     56  C   UNL A   1      42.971  30.800  30.067  1.00  0.00     0.074 A 
ATOM     57  C   UNL A   1      41.851  31.708  30.207  1.00  0.00     0.031 C 
ATOM     58  C   UNL A   1      44.263  31.143  30.298  1.00  0.00     0.037 A 
BRANCH  45  59
ATOM     59  C   UNL A   1      48.288  26.528  29.442  1.00  0.00     0.057 A 
ATOM     60  C   UNL A   1      48.829  25.889  30.567  1.00  0.00     0.134 A 
ATOM     61  C   UNL A   1      49.126  26.696  28.333  1.00  0.00     0.134 A 
ATOM     62  F   UNL A   1      48.086  25.711  31.670  1.00  0.00    -0.206 F 
ATOM     63  C   UNL A   1      50.157  25.460  30.596  1.00  0.00     0.040 A 
ATOM     64  C   UNL A   1      50.448  26.246  28.339  1.00  0.00     0.040 A 
ATOM     65  F   UNL A   1      48.673  27.298  27.223  1.00  0.00    -0.206 F 
ATOM     66  C   UNL A   1      50.969  25.631  29.476  1.00  0.00     0.006 A 
ENDBRANCH  45  59
BRANCH  46  67
ATOM     67  C   UNL A   1      38.651  29.183  29.133  1.00  0.00     0.057 A 
ATOM     68  C   UNL A   1      38.060  29.666  27.960  1.00  0.00     0.134 A 
ATOM     69  C   UNL A   1      37.848  29.115  30.279  1.00  0.00     0.134 A 
ATOM     70  F   UNL A   1      38.782  29.774  26.835  1.00  0.00    -0.206 F 
ATOM     71  C   UNL A   1      36.729  30.086  27.931  1.00  0.00     0.040 A 
ATOM     72  C   UNL A   1      36.508  29.506  30.257  1.00  0.00     0.040 A 
ATOM     73  F   UNL A   1      38.352  28.658  31.433  1.00  0.00    -0.206 F 
ATOM     74  C   UNL A   1      35.947  30.002  29.082  1.00  0.00     0.006 A 
ENDBRANCH  46  67
BRANCH  58  75
ATOM     75  C   UNL A   1      44.533  32.567  30.691  1.00  0.00     0.057 A 
ATOM     76  C   UNL A   1      44.763  33.569  29.740  1.00  0.00     0.134 A 
ATOM     77  C   UNL A   1      44.543  32.943  32.041  1.00  0.00     0.134 A 
ATOM     78  F   UNL A   1      44.777  33.274  28.431  1.00  0.00    -0.206 F 
ATOM     79  C   UNL A   1      45.028  34.886  30.117  1.00  0.00     0.040 A 
ATOM     80  C   UNL A   1      44.776  34.262  32.430  1.00  0.00     0.040 A 
ATOM     81  F   UNL A   1      44.317  32.036  33.003  1.00  0.00    -0.206 F 
ATOM     82  C   UNL A   1      45.030  35.237  31.467  1.00  0.00     0.006 A 
ENDBRANCH  58  75
ENDBRANCH  32  33
ENDBRANCH  25  27
ENDBRANCH  24  25
ENDBRANCH  23  24
ENDBRANCH  22  23
ENDBRANCH  21  22
ENDBRANCH   1  21
TORSDOF 17
ENDMDL
