MODEL 1
REMARK VINA RESULT:     -11.7      0.000      0.000
REMARK SMILES C[C@@H]1OCC[C@@H]1c1nnc(-c2cccc(C(=O)OCCOCCOC(=O)c3ccc(-c4c5nc(c(-c6c(F)cccc6F)c6ccc([nH]6)c(-c6c(F)cccc6F)c6nc(c(-c7c(F)cccc7F)c7ccc4[nH]7)C=C6)C=C5)cc3)c2)o1
REMARK SMILES IDX 21 1 20 2 19 3 18 4 16 5 17 6 15 7 11 8 12 9 81 10 13 11
REMARK SMILES IDX 14 12 10 13 7 14 8 15 82 16 9 17 6 18 1 19 2 20 3 21 4 22
REMARK SMILES IDX 5 23 22 24 23 25 24 26 25 27 26 28 27 29 28 30 80 31 29 32
REMARK SMILES IDX 79 33 30 34 31 35 32 36 73 37 33 38 78 39 72 40 74 41 34 42
REMARK SMILES IDX 77 43 71 44 70 45 35 47 61 48 44 49 60 50 45 51 48 52 59 53
REMARK SMILES IDX 75 54 46 55 47 56 58 58 76 59 49 60 36 61 37 62 42 63 38 64
REMARK SMILES IDX 39 65 41 66 43 67 40 68 62 69 63 70 68 71 64 72 65 73 67 74
REMARK SMILES IDX 69 75 66 76 50 77 51 78 56 79 52 80 53 81 55 82 57 83 54 84
REMARK H PARENT 74 46 48 57
REMARK Flexibility Score: inf
ROOT
ATOM      1  O   UNL A   1      46.619  21.324  24.654  1.00  0.00    -0.374 OA
ENDROOT
BRANCH   1   2
ATOM      2  C   UNL A   1      45.514  20.631  25.233  1.00  0.00     0.202 C 
BRANCH   2   3
ATOM      3  C   UNL A   1      45.035  19.379  24.492  1.00  0.00     0.261 C 
BRANCH   3   4
ATOM      4  O   UNL A   1      43.611  19.212  24.618  1.00  0.00    -0.460 OA
BRANCH   4   5
ATOM      5  C   UNL A   1      43.186  18.797  25.836  1.00  0.00     0.338 C 
ATOM      6  O   UNL A   1      43.652  17.888  26.507  1.00  0.00    -0.246 OA
BRANCH   5   7
ATOM      7  C   UNL A   1      42.170  19.739  26.359  1.00  0.00     0.060 A 
ATOM      8  C   UNL A   1      40.029  20.876  26.260  1.00  0.00     0.040 A 
ATOM      9  C   UNL A   1      40.404  21.643  27.375  1.00  0.00     0.014 A 
ATOM     10  C   UNL A   1      40.926  19.926  25.744  1.00  0.00     0.029 A 
ATOM     11  C   UNL A   1      41.641  21.447  27.991  1.00  0.00     0.002 A 
ATOM     12  C   UNL A   1      42.519  20.492  27.487  1.00  0.00     0.016 A 
BRANCH   8  13
ATOM     13  C   UNL A   1      38.721  21.082  25.669  1.00  0.00     0.247 A 
ATOM     14  C   UNL A   1      37.072  22.225  24.969  1.00  0.00     0.222 A 
ATOM     15  N   UNL A   1      36.837  20.975  24.623  1.00  0.00    -0.112 NA
ATOM     16  O   UNL A   1      38.262  22.372  25.630  1.00  0.00    -0.420 OA
ATOM     17  N   UNL A   1      37.914  20.237  25.064  1.00  0.00    -0.108 NA
BRANCH  14  18
ATOM     18  C   UNL A   1      36.292  23.436  24.640  1.00  0.00     0.109 C 
ATOM     19  C   UNL A   1      34.706  23.128  26.688  1.00  0.00     0.039 C 
ATOM     20  C   UNL A   1      35.459  24.071  25.752  1.00  0.00     0.127 C 
ATOM     21  O   UNL A   1      34.456  24.862  25.070  1.00  0.00    -0.378 OA
ATOM     22  C   UNL A   1      34.397  24.455  23.695  1.00  0.00     0.161 C 
ATOM     23  C   UNL A   1      35.255  23.216  23.558  1.00  0.00     0.044 C 
ENDBRANCH  14  18
ENDBRANCH   8  13
ENDBRANCH   5   7
ENDBRANCH   4   5
ENDBRANCH   3   4
ENDBRANCH   2   3
ENDBRANCH   1   2
BRANCH   1  24
ATOM     24  C   UNL A   1      46.403  22.676  24.248  1.00  0.00     0.202 C 
BRANCH  24  25
ATOM     25  C   UNL A   1      45.731  23.601  25.272  1.00  0.00     0.261 C 
BRANCH  25  26
ATOM     26  O   UNL A   1      44.677  24.385  24.683  1.00  0.00    -0.460 OA
BRANCH  26  27
ATOM     27  C   UNL A   1      43.423  23.991  25.003  1.00  0.00     0.338 C 
ATOM     28  O   UNL A   1      42.878  22.935  24.719  1.00  0.00    -0.246 OA
BRANCH  27  29
ATOM     29  C   UNL A   1      42.822  24.968  25.929  1.00  0.00     0.060 A 
ATOM     30  C   UNL A   1      43.421  26.233  26.026  1.00  0.00     0.016 A 
ATOM     31  C   UNL A   1      41.728  24.636  26.729  1.00  0.00     0.016 A 
ATOM     32  C   UNL A   1      42.944  27.161  26.951  1.00  0.00     0.010 A 
ATOM     33  C   UNL A   1      41.260  25.564  27.662  1.00  0.00     0.010 A 
ATOM     34  C   UNL A   1      41.882  26.819  27.796  1.00  0.00    -0.014 A 
BRANCH  34  35
ATOM     35  C   UNL A   1      41.492  27.716  28.910  1.00  0.00     0.031 A 
ATOM     36  C   UNL A   1      42.236  27.624  30.212  1.00  0.00     0.074 A 
ATOM     37  C   UNL A   1      40.476  28.585  28.771  1.00  0.00     0.049 A 
ATOM     38  N   UNL A   1      41.991  28.216  31.352  1.00  0.00    -0.248 NA
ATOM     39  C   UNL A   1      43.412  26.739  30.232  1.00  0.00     0.031 C 
ATOM     40  C   UNL A   1      39.706  28.796  27.546  1.00  0.00     0.029 A 
ATOM     41  N   UNL A   1      39.903  29.437  29.682  1.00  0.00    -0.354 N 
ATOM     42  C   UNL A   1      42.970  27.765  32.228  1.00  0.00     0.074 A 
ATOM     43  C   UNL A   1      43.798  26.833  31.495  1.00  0.00     0.031 C 
ATOM     44  C   UNL A   1      38.745  29.703  27.788  1.00  0.00     0.029 A 
ATOM     45  C   UNL A   1      38.807  30.104  29.192  1.00  0.00     0.049 A 
ATOM     46  H   UNL A   1      40.245  29.558  30.596  1.00  0.00     0.167 HD
ATOM     47  C   UNL A   1      43.160  28.100  33.526  1.00  0.00     0.037 A 
ATOM     48  C   UNL A   1      37.933  30.916  29.818  1.00  0.00     0.037 A 
ATOM     49  C   UNL A   1      42.334  29.030  34.250  1.00  0.00     0.049 A 
ATOM     50  C   UNL A   1      38.119  31.215  31.283  1.00  0.00     0.074 A 
ATOM     51  C   UNL A   1      42.459  29.455  35.561  1.00  0.00     0.029 A 
ATOM     52  N   UNL A   1      41.223  29.673  33.725  1.00  0.00    -0.354 N 
ATOM     53  N   UNL A   1      39.058  30.801  32.099  1.00  0.00    -0.248 NA
ATOM     54  C   UNL A   1      37.122  32.093  31.914  1.00  0.00     0.031 C 
ATOM     55  C   UNL A   1      41.393  30.314  35.845  1.00  0.00     0.029 A 
ATOM     56  C   UNL A   1      40.637  30.470  34.695  1.00  0.00     0.049 A 
ATOM     57  H   UNL A   1      40.899  29.578  32.801  1.00  0.00     0.167 HD
ATOM     58  C   UNL A   1      38.785  31.391  33.327  1.00  0.00     0.074 A 
ATOM     59  C   UNL A   1      37.596  32.197  33.148  1.00  0.00     0.031 C 
ATOM     60  C   UNL A   1      39.460  31.278  34.497  1.00  0.00     0.037 A 
BRANCH  47  61
ATOM     61  C   UNL A   1      44.290  27.435  34.256  1.00  0.00     0.057 A 
ATOM     62  C   UNL A   1      44.163  26.157  34.815  1.00  0.00     0.134 A 
ATOM     63  C   UNL A   1      45.535  28.069  34.370  1.00  0.00     0.134 A 
ATOM     64  F   UNL A   1      42.994  25.500  34.751  1.00  0.00    -0.206 F 
ATOM     65  C   UNL A   1      45.225  25.543  35.480  1.00  0.00     0.040 A 
ATOM     66  C   UNL A   1      46.611  27.454  35.011  1.00  0.00     0.040 A 
ATOM     67  F   UNL A   1      45.726  29.292  33.854  1.00  0.00    -0.206 F 
ATOM     68  C   UNL A   1      46.456  26.189  35.573  1.00  0.00     0.006 A 
ENDBRANCH  47  61
BRANCH  48  69
ATOM     69  C   UNL A   1      36.785  31.488  29.070  1.00  0.00     0.057 A 
ATOM     70  C   UNL A   1      36.775  32.831  28.674  1.00  0.00     0.134 A 
ATOM     71  C   UNL A   1      35.663  30.713  28.751  1.00  0.00     0.134 A 
ATOM     72  F   UNL A   1      37.811  33.630  28.972  1.00  0.00    -0.206 F 
ATOM     73  C   UNL A   1      35.685  33.386  28.001  1.00  0.00     0.040 A 
ATOM     74  C   UNL A   1      34.578  31.249  28.055  1.00  0.00     0.040 A 
ATOM     75  F   UNL A   1      35.612  29.420  29.102  1.00  0.00    -0.206 F 
ATOM     76  C   UNL A   1      34.584  32.592  27.685  1.00  0.00     0.006 A 
ENDBRANCH  48  69
BRANCH  60  77
ATOM     77  C   UNL A   1      38.964  32.077  35.667  1.00  0.00     0.057 A 
ATOM     78  C   UNL A   1      38.176  31.507  36.674  1.00  0.00     0.134 A 
ATOM     79  C   UNL A   1      39.333  33.421  35.816  1.00  0.00     0.134 A 
ATOM     80  F   UNL A   1      37.778  30.229  36.584  1.00  0.00    -0.206 F 
ATOM     81  C   UNL A   1      37.762  32.249  37.781  1.00  0.00     0.040 A 
ATOM     82  C   UNL A   1      38.947  34.165  36.932  1.00  0.00     0.040 A 
ATOM     83  F   UNL A   1      40.095  34.025  34.892  1.00  0.00    -0.206 F 
ATOM     84  C   UNL A   1      38.155  33.579  37.917  1.00  0.00     0.006 A 
ENDBRANCH  60  77
ENDBRANCH  34  35
ENDBRANCH  27  29
ENDBRANCH  26  27
ENDBRANCH  25  26
ENDBRANCH  24  25
ENDBRANCH   1  24
TORSDOF 16
ENDMDL
MODEL 2
REMARK VINA RESULT:     -11.3      4.813     11.148
REMARK SMILES C[C@@H]1OCC[C@@H]1c1nnc(-c2cccc(C(=O)OCCOCCOC(=O)c3ccc(-c4c5nc(c(-c6c(F)cccc6F)c6ccc([nH]6)c(-c6c(F)cccc6F)c6nc(c(-c7c(F)cccc7F)c7ccc4[nH]7)C=C6)C=C5)cc3)c2)o1
REMARK SMILES IDX 21 1 20 2 19 3 18 4 16 5 17 6 15 7 11 8 12 9 81 10 13 11
REMARK SMILES IDX 14 12 10 13 7 14 8 15 82 16 9 17 6 18 1 19 2 20 3 21 4 22
REMARK SMILES IDX 5 23 22 24 23 25 24 26 25 27 26 28 27 29 28 30 80 31 29 32
REMARK SMILES IDX 79 33 30 34 31 35 32 36 73 37 33 38 78 39 72 40 74 41 34 42
REMARK SMILES IDX 77 43 71 44 70 45 35 47 61 48 44 49 60 50 45 51 48 52 59 53
REMARK SMILES IDX 75 54 46 55 47 56 58 58 76 59 49 60 36 61 37 62 42 63 38 64
REMARK SMILES IDX 39 65 41 66 43 67 40 68 62 69 63 70 68 71 64 72 65 73 67 74
REMARK SMILES IDX 69 75 66 76 50 77 51 78 56 79 52 80 53 81 55 82 57 83 54 84
REMARK H PARENT 74 46 48 57
REMARK Flexibility Score: inf
ROOT
ATOM      1  O   UNL A   1      34.785  36.250  33.287  1.00  0.00    -0.374 OA
ENDROOT
BRANCH   1   2
ATOM      2  C   UNL A   1      35.557  35.051  33.236  1.00  0.00     0.202 C 
BRANCH   2   3
ATOM      3  C   UNL A   1      35.366  34.071  34.399  1.00  0.00     0.261 C 
BRANCH   3   4
ATOM      4  O   UNL A   1      35.938  32.785  34.097  1.00  0.00    -0.460 OA
BRANCH   4   5
ATOM      5  C   UNL A   1      37.232  32.629  34.470  1.00  0.00     0.338 C 
ATOM      6  O   UNL A   1      37.864  33.331  35.245  1.00  0.00    -0.246 OA
BRANCH   5   7
ATOM      7  C   UNL A   1      37.750  31.343  33.951  1.00  0.00     0.060 A 
ATOM      8  C   UNL A   1      39.492  29.681  33.653  1.00  0.00     0.040 A 
ATOM      9  C   UNL A   1      38.639  28.964  32.799  1.00  0.00     0.014 A 
ATOM     10  C   UNL A   1      39.046  30.885  34.221  1.00  0.00     0.029 A 
ATOM     11  C   UNL A   1      37.346  29.417  32.539  1.00  0.00     0.002 A 
ATOM     12  C   UNL A   1      36.900  30.602  33.119  1.00  0.00     0.016 A 
BRANCH   8  13
ATOM     13  C   UNL A   1      40.817  29.159  33.928  1.00  0.00     0.247 A 
ATOM     14  C   UNL A   1      42.229  27.750  34.662  1.00  0.00     0.222 A 
ATOM     15  N   UNL A   1      42.917  28.667  34.014  1.00  0.00    -0.112 NA
ATOM     16  O   UNL A   1      40.881  27.991  34.640  1.00  0.00    -0.420 OA
ATOM     17  N   UNL A   1      41.999  29.573  33.525  1.00  0.00    -0.108 NA
BRANCH  14  18
ATOM     18  C   UNL A   1      42.712  26.497  35.280  1.00  0.00     0.109 C 
ATOM     19  C   UNL A   1      43.966  25.762  33.114  1.00  0.00     0.039 C 
ATOM     20  C   UNL A   1      43.913  25.804  34.640  1.00  0.00     0.127 C 
ATOM     21  O   UNL A   1      43.842  24.430  35.088  1.00  0.00    -0.378 OA
ATOM     22  C   UNL A   1      42.530  24.178  35.612  1.00  0.00     0.161 C 
ATOM     23  C   UNL A   1      41.680  25.388  35.291  1.00  0.00     0.044 C 
ENDBRANCH  14  18
ENDBRANCH   8  13
ENDBRANCH   5   7
ENDBRANCH   4   5
ENDBRANCH   3   4
ENDBRANCH   2   3
ENDBRANCH   1   2
BRANCH   1  24
ATOM     24  C   UNL A   1      33.428  36.172  32.850  1.00  0.00     0.202 C 
BRANCH  24  25
ATOM     25  C   UNL A   1      33.186  36.278  31.339  1.00  0.00     0.261 C 
BRANCH  25  26
ATOM     26  O   UNL A   1      32.762  35.026  30.770  1.00  0.00    -0.460 OA
BRANCH  26  27
ATOM     27  C   UNL A   1      33.193  34.795  29.508  1.00  0.00     0.338 C 
ATOM     28  O   UNL A   1      32.736  35.248  28.469  1.00  0.00    -0.246 OA
BRANCH  27  29
ATOM     29  C   UNL A   1      34.451  34.027  29.553  1.00  0.00     0.060 A 
ATOM     30  C   UNL A   1      34.561  33.005  30.505  1.00  0.00     0.016 A 
ATOM     31  C   UNL A   1      35.523  34.339  28.715  1.00  0.00     0.016 A 
ATOM     32  C   UNL A   1      35.761  32.308  30.646  1.00  0.00     0.010 A 
ATOM     33  C   UNL A   1      36.728  33.647  28.866  1.00  0.00     0.010 A 
ATOM     34  C   UNL A   1      36.860  32.649  29.849  1.00  0.00    -0.014 A 
BRANCH  34  35
ATOM     35  C   UNL A   1      38.193  32.056  30.117  1.00  0.00     0.031 A 
ATOM     36  C   UNL A   1      39.188  32.841  30.924  1.00  0.00     0.074 A 
ATOM     37  C   UNL A   1      38.518  30.846  29.631  1.00  0.00     0.049 A 
ATOM     38  N   UNL A   1      40.444  32.578  31.176  1.00  0.00    -0.248 NA
ATOM     39  C   UNL A   1      38.702  34.095  31.522  1.00  0.00     0.031 C 
ATOM     40  C   UNL A   1      37.625  29.972  28.871  1.00  0.00     0.029 A 
ATOM     41  N   UNL A   1      39.702  30.154  29.687  1.00  0.00    -0.354 N 
ATOM     42  C   UNL A   1      40.904  33.638  31.947  1.00  0.00     0.074 A 
ATOM     43  C   UNL A   1      39.799  34.559  32.102  1.00  0.00     0.031 C 
ATOM     44  C   UNL A   1      38.301  28.868  28.511  1.00  0.00     0.029 A 
ATOM     45  C   UNL A   1      39.682  28.977  28.980  1.00  0.00     0.049 A 
ATOM     46  H   UNL A   1      40.488  30.471  30.187  1.00  0.00     0.167 HD
ATOM     47  C   UNL A   1      42.135  33.824  32.478  1.00  0.00     0.037 A 
ATOM     48  C   UNL A   1      40.675  28.107  28.712  1.00  0.00     0.037 A 
ATOM     49  C   UNL A   1      43.230  32.903  32.323  1.00  0.00     0.049 A 
ATOM     50  C   UNL A   1      42.056  28.374  29.249  1.00  0.00     0.074 A 
ATOM     51  C   UNL A   1      44.510  32.989  32.842  1.00  0.00     0.029 A 
ATOM     52  N   UNL A   1      43.175  31.729  31.585  1.00  0.00    -0.354 N 
ATOM     53  N   UNL A   1      42.478  29.367  29.993  1.00  0.00    -0.248 NA
ATOM     54  C   UNL A   1      43.102  27.397  28.906  1.00  0.00     0.031 C 
ATOM     55  C   UNL A   1      45.244  31.895  32.376  1.00  0.00     0.029 A 
ATOM     56  C   UNL A   1      44.407  31.097  31.613  1.00  0.00     0.049 A 
ATOM     57  H   UNL A   1      42.379  31.396  31.112  1.00  0.00     0.167 HD
ATOM     58  C   UNL A   1      43.824  29.121  30.234  1.00  0.00     0.074 A 
ATOM     59  C   UNL A   1      44.148  27.881  29.561  1.00  0.00     0.031 C 
ATOM     60  C   UNL A   1      44.711  29.855  30.950  1.00  0.00     0.037 A 
BRANCH  47  61
ATOM     61  C   UNL A   1      42.372  35.086  33.253  1.00  0.00     0.057 A 
ATOM     62  C   UNL A   1      43.024  36.192  32.692  1.00  0.00     0.134 A 
ATOM     63  C   UNL A   1      41.909  35.210  34.570  1.00  0.00     0.134 A 
ATOM     64  F   UNL A   1      43.503  36.134  31.439  1.00  0.00    -0.206 F 
ATOM     65  C   UNL A   1      43.227  37.366  33.419  1.00  0.00     0.040 A 
ATOM     66  C   UNL A   1      42.084  36.388  35.298  1.00  0.00     0.040 A 
ATOM     67  F   UNL A   1      41.272  34.192  35.167  1.00  0.00    -0.206 F 
ATOM     68  C   UNL A   1      42.750  37.468  34.724  1.00  0.00     0.006 A 
ENDBRANCH  47  61
BRANCH  48  69
ATOM     69  C   UNL A   1      40.407  26.911  27.873  1.00  0.00     0.057 A 
ATOM     70  C   UNL A   1      39.681  25.824  28.373  1.00  0.00     0.134 A 
ATOM     71  C   UNL A   1      40.886  26.819  26.560  1.00  0.00     0.134 A 
ATOM     72  F   UNL A   1      39.217  25.843  29.631  1.00  0.00    -0.206 F 
ATOM     73  C   UNL A   1      39.455  24.681  27.603  1.00  0.00     0.040 A 
ATOM     74  C   UNL A   1      40.645  25.694  25.771  1.00  0.00     0.040 A 
ATOM     75  F   UNL A   1      41.588  27.828  26.024  1.00  0.00    -0.206 F 
ATOM     76  C   UNL A   1      39.934  24.617  26.296  1.00  0.00     0.006 A 
ENDBRANCH  48  69
BRANCH  60  77
ATOM     77  C   UNL A   1      46.106  29.318  31.088  1.00  0.00     0.057 A 
ATOM     78  C   UNL A   1      47.079  29.518  30.101  1.00  0.00     0.134 A 
ATOM     79  C   UNL A   1      46.496  28.646  32.254  1.00  0.00     0.134 A 
ATOM     80  F   UNL A   1      46.767  30.143  28.956  1.00  0.00    -0.206 F 
ATOM     81  C   UNL A   1      48.386  29.056  30.264  1.00  0.00     0.040 A 
ATOM     82  C   UNL A   1      47.806  28.203  32.440  1.00  0.00     0.040 A 
ATOM     83  F   UNL A   1      45.614  28.429  33.243  1.00  0.00    -0.206 F 
ATOM     84  C   UNL A   1      48.754  28.405  31.440  1.00  0.00     0.006 A 
ENDBRANCH  60  77
ENDBRANCH  34  35
ENDBRANCH  27  29
ENDBRANCH  26  27
ENDBRANCH  25  26
ENDBRANCH  24  25
ENDBRANCH   1  24
TORSDOF 16
ENDMDL
MODEL 3
REMARK VINA RESULT:     -11.3      4.525     10.512
REMARK SMILES C[C@@H]1OCC[C@@H]1c1nnc(-c2cccc(C(=O)OCCOCCOC(=O)c3ccc(-c4c5nc(c(-c6c(F)cccc6F)c6ccc([nH]6)c(-c6c(F)cccc6F)c6nc(c(-c7c(F)cccc7F)c7ccc4[nH]7)C=C6)C=C5)cc3)c2)o1
REMARK SMILES IDX 21 1 20 2 19 3 18 4 16 5 17 6 15 7 11 8 12 9 81 10 13 11
REMARK SMILES IDX 14 12 10 13 7 14 8 15 82 16 9 17 6 18 1 19 2 20 3 21 4 22
REMARK SMILES IDX 5 23 22 24 23 25 24 26 25 27 26 28 27 29 28 30 80 31 29 32
REMARK SMILES IDX 79 33 30 34 31 35 32 36 73 37 33 38 78 39 72 40 74 41 34 42
REMARK SMILES IDX 77 43 71 44 70 45 35 47 61 48 44 49 60 50 45 51 48 52 59 53
REMARK SMILES IDX 75 54 46 55 47 56 58 58 76 59 49 60 36 61 37 62 42 63 38 64
REMARK SMILES IDX 39 65 41 66 43 67 40 68 62 69 63 70 68 71 64 72 65 73 67 74
REMARK SMILES IDX 69 75 66 76 50 77 51 78 56 79 52 80 53 81 55 82 57 83 54 84
REMARK H PARENT 74 46 48 57
REMARK Flexibility Score: inf
ROOT
ATOM      1  O   UNL A   1      35.236  33.856  29.072  1.00  0.00    -0.374 OA
ENDROOT
BRANCH   1   2
ATOM      2  C   UNL A   1      34.768  33.072  27.975  1.00  0.00     0.202 C 
BRANCH   2   3
ATOM      3  C   UNL A   1      34.174  31.703  28.324  1.00  0.00     0.261 C 
BRANCH   3   4
ATOM      4  O   UNL A   1      33.955  30.913  27.141  1.00  0.00    -0.460 OA
BRANCH   4   5
ATOM      5  C   UNL A   1      34.594  29.717  27.121  1.00  0.00     0.338 C 
ATOM      6  O   UNL A   1      35.770  29.508  27.380  1.00  0.00    -0.246 OA
BRANCH   5   7
ATOM      7  C   UNL A   1      33.611  28.629  26.926  1.00  0.00     0.060 A 
ATOM      8  C   UNL A   1      32.947  26.441  26.113  1.00  0.00     0.040 A 
ATOM      9  C   UNL A   1      31.627  26.716  26.503  1.00  0.00     0.014 A 
ATOM     10  C   UNL A   1      33.942  27.411  26.317  1.00  0.00     0.029 A 
ATOM     11  C   UNL A   1      31.302  27.925  27.117  1.00  0.00     0.002 A 
ATOM     12  C   UNL A   1      32.294  28.877  27.334  1.00  0.00     0.016 A 
BRANCH   8  13
ATOM     13  C   UNL A   1      33.253  25.158  25.510  1.00  0.00     0.247 A 
ATOM     14  C   UNL A   1      34.398  23.399  25.179  1.00  0.00     0.222 A 
ATOM     15  N   UNL A   1      33.268  23.239  24.522  1.00  0.00    -0.112 NA
ATOM     16  O   UNL A   1      34.456  24.595  25.844  1.00  0.00    -0.420 OA
ATOM     17  N   UNL A   1      32.519  24.374  24.750  1.00  0.00    -0.108 NA
BRANCH  14  18
ATOM     18  C   UNL A   1      35.504  22.435  25.362  1.00  0.00     0.109 C 
ATOM     19  C   UNL A   1      36.523  22.961  23.019  1.00  0.00     0.039 C 
ATOM     20  C   UNL A   1      36.745  22.598  24.486  1.00  0.00     0.127 C 
ATOM     21  O   UNL A   1      37.390  21.303  24.497  1.00  0.00    -0.378 OA
ATOM     22  C   UNL A   1      36.460  20.322  24.980  1.00  0.00     0.161 C 
ATOM     23  C   UNL A   1      35.110  20.999  25.083  1.00  0.00     0.044 C 
ENDBRANCH  14  18
ENDBRANCH   8  13
ENDBRANCH   5   7
ENDBRANCH   4   5
ENDBRANCH   3   4
ENDBRANCH   2   3
ENDBRANCH   1   2
BRANCH   1  24
ATOM     24  C   UNL A   1      34.264  34.299  30.020  1.00  0.00     0.202 C 
BRANCH  24  25
ATOM     25  C   UNL A   1      34.492  33.887  31.480  1.00  0.00     0.261 C 
BRANCH  25  26
ATOM     26  O   UNL A   1      34.852  32.499  31.601  1.00  0.00    -0.460 OA
BRANCH  26  27
ATOM     27  C   UNL A   1      35.842  32.238  32.486  1.00  0.00     0.338 C 
ATOM     28  O   UNL A   1      35.832  32.428  33.694  1.00  0.00    -0.246 OA
BRANCH  27  29
ATOM     29  C   UNL A   1      36.924  31.501  31.809  1.00  0.00     0.060 A 
ATOM     30  C   UNL A   1      37.893  30.878  32.608  1.00  0.00     0.016 A 
ATOM     31  C   UNL A   1      37.021  31.468  30.417  1.00  0.00     0.016 A 
ATOM     32  C   UNL A   1      38.984  30.243  32.015  1.00  0.00     0.010 A 
ATOM     33  C   UNL A   1      38.121  30.841  29.826  1.00  0.00     0.010 A 
ATOM     34  C   UNL A   1      39.120  30.251  30.622  1.00  0.00    -0.014 A 
BRANCH  34  35
ATOM     35  C   UNL A   1      40.365  29.754  29.987  1.00  0.00     0.031 A 
ATOM     36  C   UNL A   1      41.499  30.714  29.762  1.00  0.00     0.074 A 
ATOM     37  C   UNL A   1      40.475  28.472  29.598  1.00  0.00     0.049 A 
ATOM     38  N   UNL A   1      42.623  30.534  29.119  1.00  0.00    -0.248 NA
ATOM     39  C   UNL A   1      41.338  32.061  30.334  1.00  0.00     0.031 C 
ATOM     40  C   UNL A   1      39.462  27.438  29.800  1.00  0.00     0.029 A 
ATOM     41  N   UNL A   1      41.487  27.830  28.930  1.00  0.00    -0.354 N 
ATOM     42  C   UNL A   1      43.298  31.746  29.195  1.00  0.00     0.074 A 
ATOM     43  C   UNL A   1      42.447  32.660  29.926  1.00  0.00     0.031 C 
ATOM     44  C   UNL A   1      39.893  26.293  29.245  1.00  0.00     0.029 A 
ATOM     45  C   UNL A   1      41.193  26.525  28.615  1.00  0.00     0.049 A 
ATOM     46  H   UNL A   1      42.340  28.262  28.699  1.00  0.00     0.167 HD
ATOM     47  C   UNL A   1      44.517  32.065  28.702  1.00  0.00     0.037 A 
ATOM     48  C   UNL A   1      41.878  25.634  27.873  1.00  0.00     0.037 A 
ATOM     49  C   UNL A   1      45.361  31.151  27.978  1.00  0.00     0.049 A 
ATOM     50  C   UNL A   1      43.198  26.036  27.268  1.00  0.00     0.074 A 
ATOM     51  C   UNL A   1      46.624  31.371  27.457  1.00  0.00     0.029 A 
ATOM     52  N   UNL A   1      45.021  29.843  27.665  1.00  0.00    -0.354 N 
ATOM     53  N   UNL A   1      43.838  27.176  27.361  1.00  0.00    -0.248 NA
ATOM     54  C   UNL A   1      43.890  25.026  26.453  1.00  0.00     0.031 C 
ATOM     55  C   UNL A   1      47.026  30.214  26.784  1.00  0.00     0.029 A 
ATOM     56  C   UNL A   1      46.039  29.254  26.934  1.00  0.00     0.049 A 
ATOM     57  H   UNL A   1      44.182  29.400  27.924  1.00  0.00     0.167 HD
ATOM     58  C   UNL A   1      45.019  27.012  26.646  1.00  0.00     0.074 A 
ATOM     59  C   UNL A   1      45.009  25.660  26.130  1.00  0.00     0.031 C 
ATOM     60  C   UNL A   1      46.022  27.901  26.438  1.00  0.00     0.037 A 
BRANCH  47  61
ATOM     61  C   UNL A   1      45.000  33.471  28.903  1.00  0.00     0.057 A 
ATOM     62  C   UNL A   1      45.798  33.834  29.996  1.00  0.00     0.134 A 
ATOM     63  C   UNL A   1      44.692  34.470  27.969  1.00  0.00     0.134 A 
ATOM     64  F   UNL A   1      46.119  32.928  30.933  1.00  0.00    -0.206 F 
ATOM     65  C   UNL A   1      46.253  35.142  30.165  1.00  0.00     0.040 A 
ATOM     66  C   UNL A   1      45.163  35.776  28.115  1.00  0.00     0.040 A 
ATOM     67  F   UNL A   1      43.937  34.190  26.896  1.00  0.00    -0.206 F 
ATOM     68  C   UNL A   1      45.941  36.116  29.219  1.00  0.00     0.006 A 
ENDBRANCH  47  61
BRANCH  48  69
ATOM     69  C   UNL A   1      41.321  24.279  27.638  1.00  0.00     0.057 A 
ATOM     70  C   UNL A   1      40.285  24.071  26.718  1.00  0.00     0.134 A 
ATOM     71  C   UNL A   1      41.794  23.163  28.339  1.00  0.00     0.134 A 
ATOM     72  F   UNL A   1      39.773  25.105  26.034  1.00  0.00    -0.206 F 
ATOM     73  C   UNL A   1      39.731  22.806  26.516  1.00  0.00     0.040 A 
ATOM     74  C   UNL A   1      41.267  21.889  28.127  1.00  0.00     0.040 A 
ATOM     75  F   UNL A   1      42.785  23.296  29.232  1.00  0.00    -0.206 F 
ATOM     76  C   UNL A   1      40.226  21.709  27.219  1.00  0.00     0.006 A 
ENDBRANCH  48  69
BRANCH  60  77
ATOM     77  C   UNL A   1      47.216  27.431  25.661  1.00  0.00     0.057 A 
ATOM     78  C   UNL A   1      47.317  27.612  24.275  1.00  0.00     0.134 A 
ATOM     79  C   UNL A   1      48.307  26.846  26.318  1.00  0.00     0.134 A 
ATOM     80  F   UNL A   1      46.303  28.154  23.585  1.00  0.00    -0.206 F 
ATOM     81  C   UNL A   1      48.456  27.215  23.571  1.00  0.00     0.040 A 
ATOM     82  C   UNL A   1      49.460  26.470  25.629  1.00  0.00     0.040 A 
ATOM     83  F   UNL A   1      48.278  26.653  27.646  1.00  0.00    -0.206 F 
ATOM     84  C   UNL A   1      49.534  26.651  24.250  1.00  0.00     0.006 A 
ENDBRANCH  60  77
ENDBRANCH  34  35
ENDBRANCH  27  29
ENDBRANCH  26  27
ENDBRANCH  25  26
ENDBRANCH  24  25
ENDBRANCH   1  24
TORSDOF 16
ENDMDL
