MODEL 1
REMARK VINA RESULT:     -10.1      0.000      0.000
REMARK SMILES CCc1n[nH]c(C(=O)N(C)[C@H]2COC[C@H]2C(=O)OCCOCCOC(=O)c2ccc(-c3c4nc(c(-c5c(F)cccc5F)c5ccc([nH]5)c(-c5c(F)cccc5F)c5nc(c(-c6c(F)cccc6F)c6ccc3[nH]6)C=C5)C=C4)cc2)n1
REMARK SMILES IDX 20 1 19 2 18 3 16 4 17 5 15 6 11 7 12 8 13 9 14 10 9 11
REMARK SMILES IDX 10 12 7 13 8 14 6 15 3 16 4 17 81 18 5 19 2 21 1 22 21 23
REMARK SMILES IDX 22 24 23 25 24 26 25 27 26 28 27 29 28 30 80 31 29 32 79 33
REMARK SMILES IDX 30 34 31 35 32 36 73 37 33 38 78 39 72 40 74 41 34 42 77 43
REMARK SMILES IDX 71 44 70 45 35 47 61 48 44 49 60 50 45 51 48 52 59 53 75 54
REMARK SMILES IDX 46 55 47 56 58 58 76 59 49 60 36 61 37 62 42 63 38 64 39 65
REMARK SMILES IDX 41 66 43 67 40 68 62 69 63 70 68 71 64 72 65 73 67 74 69 75
REMARK SMILES IDX 66 76 50 77 51 78 56 79 52 80 53 81 55 82 57 83 54 84
REMARK H PARENT 5 20 74 46 48 57
REMARK Flexibility Score: inf
ROOT
ATOM      1  C   UNL A   1      34.355  29.912  27.169  1.00  0.00     0.202 C 
ENDROOT
BRANCH   1   2
ATOM      2  C   UNL A   1      33.220  29.130  26.513  1.00  0.00     0.261 C 
BRANCH   2   3
ATOM      3  O   UNL A   1      33.788  28.137  25.637  1.00  0.00    -0.463 OA
BRANCH   3   4
ATOM      4  C   UNL A   1      33.483  28.239  24.329  1.00  0.00     0.313 C 
ATOM      5  O   UNL A   1      33.077  29.261  23.788  1.00  0.00    -0.252 OA
BRANCH   4   6
ATOM      6  C   UNL A   1      33.662  26.960  23.560  1.00  0.00     0.150 C 
ATOM      7  C   UNL A   1      32.819  25.693  23.716  1.00  0.00     0.127 C 
ATOM      8  C   UNL A   1      33.395  24.912  22.517  1.00  0.00     0.186 C 
ATOM      9  O   UNL A   1      33.618  25.874  21.468  1.00  0.00    -0.378 OA
ATOM     10  C   UNL A   1      33.774  27.168  22.071  1.00  0.00     0.177 C 
BRANCH   7  11
ATOM     11  N   UNL A   1      31.334  25.642  23.664  1.00  0.00    -0.333 N 
ATOM     12  C   UNL A   1      30.615  24.459  23.212  1.00  0.00     0.147 C 
BRANCH  11  13
ATOM     13  C   UNL A   1      30.650  26.756  24.223  1.00  0.00     0.291 C 
ATOM     14  O   UNL A   1      30.570  26.865  25.450  1.00  0.00    -0.265 OA
BRANCH  13  15
ATOM     15  C   UNL A   1      29.983  27.738  23.381  1.00  0.00     0.214 A 
ATOM     16  C   UNL A   1      28.769  29.258  22.525  1.00  0.00     0.151 A 
ATOM     17  N   UNL A   1      29.809  29.205  21.685  1.00  0.00    -0.158 NA
ATOM     18  N   UNL A   1      28.822  28.343  23.551  1.00  0.00    -0.207 NA
ATOM     19  N   UNL A   1      30.558  28.239  22.245  1.00  0.00    -0.255 N 
ATOM     20  H   UNL A   1      31.418  27.929  21.879  1.00  0.00     0.192 HD
BRANCH  16  21
ATOM     21  C   UNL A   1      27.656  30.244  22.418  1.00  0.00     0.076 C 
ATOM     22  C   UNL A   1      27.656  31.327  23.488  1.00  0.00     0.012 C 
ENDBRANCH  16  21
ENDBRANCH  13  15
ENDBRANCH  11  13
ENDBRANCH   7  11
ENDBRANCH   4   6
ENDBRANCH   3   4
ENDBRANCH   2   3
ENDBRANCH   1   2
BRANCH   1  23
ATOM     23  O   UNL A   1      33.947  31.141  27.769  1.00  0.00    -0.374 OA
BRANCH  23  24
ATOM     24  C   UNL A   1      32.657  31.628  27.395  1.00  0.00     0.202 C 
BRANCH  24  25
ATOM     25  C   UNL A   1      32.565  33.145  27.199  1.00  0.00     0.261 C 
BRANCH  25  26
ATOM     26  O   UNL A   1      32.233  33.817  28.428  1.00  0.00    -0.460 OA
BRANCH  26  27
ATOM     27  C   UNL A   1      33.102  34.782  28.812  1.00  0.00     0.338 C 
ATOM     28  O   UNL A   1      32.878  35.976  28.947  1.00  0.00    -0.246 OA
BRANCH  27  29
ATOM     29  C   UNL A   1      34.366  34.152  29.233  1.00  0.00     0.060 A 
ATOM     30  C   UNL A   1      34.363  33.328  30.367  1.00  0.00     0.016 A 
ATOM     31  C   UNL A   1      35.548  34.385  28.539  1.00  0.00     0.016 A 
ATOM     32  C   UNL A   1      35.546  32.727  30.807  1.00  0.00     0.010 A 
ATOM     33  C   UNL A   1      36.729  33.799  28.996  1.00  0.00     0.010 A 
ATOM     34  C   UNL A   1      36.746  32.962  30.127  1.00  0.00    -0.014 A 
BRANCH  34  35
ATOM     35  C   UNL A   1      38.043  32.421  30.622  1.00  0.00     0.031 A 
ATOM     36  C   UNL A   1      38.601  31.164  30.009  1.00  0.00     0.074 A 
ATOM     37  C   UNL A   1      38.703  33.008  31.640  1.00  0.00     0.049 A 
ATOM     38  N   UNL A   1      39.642  30.455  30.366  1.00  0.00    -0.248 NA
ATOM     39  C   UNL A   1      37.874  30.624  28.848  1.00  0.00     0.031 C 
ATOM     40  C   UNL A   1      38.288  34.226  32.333  1.00  0.00     0.029 A 
ATOM     41  N   UNL A   1      39.864  32.641  32.281  1.00  0.00    -0.354 N 
ATOM     42  C   UNL A   1      39.677  29.372  29.497  1.00  0.00     0.074 A 
ATOM     43  C   UNL A   1      38.535  29.500  28.616  1.00  0.00     0.031 C 
ATOM     44  C   UNL A   1      39.184  34.512  33.294  1.00  0.00     0.029 A 
ATOM     45  C   UNL A   1      40.212  33.474  33.317  1.00  0.00     0.049 A 
ATOM     46  H   UNL A   1      40.396  31.854  32.021  1.00  0.00     0.167 HD
ATOM     47  C   UNL A   1      40.583  28.369  29.426  1.00  0.00     0.037 A 
ATOM     48  C   UNL A   1      41.229  33.397  34.200  1.00  0.00     0.037 A 
ATOM     49  C   UNL A   1      41.745  28.256  30.267  1.00  0.00     0.049 A 
ATOM     50  C   UNL A   1      42.197  32.243  34.130  1.00  0.00     0.074 A 
ATOM     51  C   UNL A   1      42.756  27.312  30.214  1.00  0.00     0.029 A 
ATOM     52  N   UNL A   1      42.049  29.111  31.314  1.00  0.00    -0.354 N 
ATOM     53  N   UNL A   1      42.247  31.255  33.271  1.00  0.00    -0.248 NA
ATOM     54  C   UNL A   1      43.246  32.191  35.162  1.00  0.00     0.031 C 
ATOM     55  C   UNL A   1      43.645  27.565  31.262  1.00  0.00     0.029 A 
ATOM     56  C   UNL A   1      43.215  28.695  31.937  1.00  0.00     0.049 A 
ATOM     57  H   UNL A   1      41.518  29.897  31.575  1.00  0.00     0.167 HD
ATOM     58  C   UNL A   1      43.342  30.482  33.641  1.00  0.00     0.074 A 
ATOM     59  C   UNL A   1      43.938  31.122  34.795  1.00  0.00     0.031 C 
ATOM     60  C   UNL A   1      43.809  29.343  33.077  1.00  0.00     0.037 A 
BRANCH  47  61
ATOM     61  C   UNL A   1      40.350  27.296  28.404  1.00  0.00     0.057 A 
ATOM     62  C   UNL A   1      40.940  27.338  27.135  1.00  0.00     0.134 A 
ATOM     63  C   UNL A   1      39.557  26.183  28.713  1.00  0.00     0.134 A 
ATOM     64  F   UNL A   1      41.702  28.382  26.773  1.00  0.00    -0.206 F 
ATOM     65  C   UNL A   1      40.731  26.323  26.200  1.00  0.00     0.040 A 
ATOM     66  C   UNL A   1      39.362  25.150  27.796  1.00  0.00     0.040 A 
ATOM     67  F   UNL A   1      38.970  26.078  29.914  1.00  0.00    -0.206 F 
ATOM     68  C   UNL A   1      39.945  25.221  26.533  1.00  0.00     0.006 A 
ENDBRANCH  47  61
BRANCH  48  69
ATOM     69  C   UNL A   1      41.394  34.435  35.252  1.00  0.00     0.057 A 
ATOM     70  C   UNL A   1      40.731  34.328  36.481  1.00  0.00     0.134 A 
ATOM     71  C   UNL A   1      42.172  35.579  35.037  1.00  0.00     0.134 A 
ATOM     72  F   UNL A   1      39.949  33.269  36.734  1.00  0.00    -0.206 F 
ATOM     73  C   UNL A   1      40.816  35.331  37.449  1.00  0.00     0.040 A 
ATOM     74  C   UNL A   1      42.286  36.578  36.006  1.00  0.00     0.040 A 
ATOM     75  F   UNL A   1      42.829  35.745  33.879  1.00  0.00    -0.206 F 
ATOM     76  C   UNL A   1      41.599  36.459  37.212  1.00  0.00     0.006 A 
ENDBRANCH  48  69
BRANCH  60  77
ATOM     77  C   UNL A   1      45.043  28.724  33.670  1.00  0.00     0.057 A 
ATOM     78  C   UNL A   1      46.328  29.109  33.270  1.00  0.00     0.134 A 
ATOM     79  C   UNL A   1      44.942  27.778  34.700  1.00  0.00     0.134 A 
ATOM     80  F   UNL A   1      46.493  29.999  32.281  1.00  0.00    -0.206 F 
ATOM     81  C   UNL A   1      47.469  28.566  33.862  1.00  0.00     0.040 A 
ATOM     82  C   UNL A   1      46.077  27.248  35.317  1.00  0.00     0.040 A 
ATOM     83  F   UNL A   1      43.741  27.371  35.137  1.00  0.00    -0.206 F 
ATOM     84  C   UNL A   1      47.345  27.640  34.896  1.00  0.00     0.006 A 
ENDBRANCH  60  77
ENDBRANCH  34  35
ENDBRANCH  27  29
ENDBRANCH  26  27
ENDBRANCH  25  26
ENDBRANCH  24  25
ENDBRANCH  23  24
ENDBRANCH   1  23
TORSDOF 18
ENDMDL
MODEL 2
REMARK VINA RESULT:     -10.0      2.079      6.812
REMARK SMILES CCc1n[nH]c(C(=O)N(C)[C@H]2COC[C@H]2C(=O)OCCOCCOC(=O)c2ccc(-c3c4nc(c(-c5c(F)cccc5F)c5ccc([nH]5)c(-c5c(F)cccc5F)c5nc(c(-c6c(F)cccc6F)c6ccc3[nH]6)C=C5)C=C4)cc2)n1
REMARK SMILES IDX 20 1 19 2 18 3 16 4 17 5 15 6 11 7 12 8 13 9 14 10 9 11
REMARK SMILES IDX 10 12 7 13 8 14 6 15 3 16 4 17 81 18 5 19 2 21 1 22 21 23
REMARK SMILES IDX 22 24 23 25 24 26 25 27 26 28 27 29 28 30 80 31 29 32 79 33
REMARK SMILES IDX 30 34 31 35 32 36 73 37 33 38 78 39 72 40 74 41 34 42 77 43
REMARK SMILES IDX 71 44 70 45 35 47 61 48 44 49 60 50 45 51 48 52 59 53 75 54
REMARK SMILES IDX 46 55 47 56 58 58 76 59 49 60 36 61 37 62 42 63 38 64 39 65
REMARK SMILES IDX 41 66 43 67 40 68 62 69 63 70 68 71 64 72 65 73 67 74 69 75
REMARK SMILES IDX 66 76 50 77 51 78 56 79 52 80 53 81 55 82 57 83 54 84
REMARK H PARENT 5 20 74 46 48 57
REMARK Flexibility Score: inf
ROOT
ATOM      1  C   UNL A   1      34.621  32.578  29.061  1.00  0.00     0.202 C 
ENDROOT
BRANCH   1   2
ATOM      2  C   UNL A   1      34.087  32.066  27.725  1.00  0.00     0.261 C 
BRANCH   2   3
ATOM      3  O   UNL A   1      33.492  30.770  27.932  1.00  0.00    -0.463 OA
BRANCH   3   4
ATOM      4  C   UNL A   1      32.593  30.364  27.014  1.00  0.00     0.313 C 
ATOM      5  O   UNL A   1      31.819  31.109  26.423  1.00  0.00    -0.252 OA
BRANCH   4   6
ATOM      6  C   UNL A   1      32.593  28.880  26.778  1.00  0.00     0.150 C 
ATOM      7  C   UNL A   1      31.750  28.136  25.740  1.00  0.00     0.127 C 
ATOM      8  C   UNL A   1      32.400  26.747  25.903  1.00  0.00     0.186 C 
ATOM      9  O   UNL A   1      33.808  26.972  26.111  1.00  0.00    -0.378 OA
ATOM     10  C   UNL A   1      33.977  28.297  26.640  1.00  0.00     0.177 C 
BRANCH   7  11
ATOM     11  N   UNL A   1      31.678  28.475  24.294  1.00  0.00    -0.333 N 
ATOM     12  C   UNL A   1      32.825  28.992  23.563  1.00  0.00     0.147 C 
BRANCH  11  13
ATOM     13  C   UNL A   1      30.472  28.122  23.629  1.00  0.00     0.291 C 
ATOM     14  O   UNL A   1      30.343  26.983  23.170  1.00  0.00    -0.265 OA
BRANCH  13  15
ATOM     15  C   UNL A   1      29.410  29.095  23.415  1.00  0.00     0.214 A 
ATOM     16  C   UNL A   1      28.202  30.804  23.051  1.00  0.00     0.151 A 
ATOM     17  N   UNL A   1      27.365  29.793  22.794  1.00  0.00    -0.158 NA
ATOM     18  N   UNL A   1      29.450  30.412  23.475  1.00  0.00    -0.207 NA
ATOM     19  N   UNL A   1      28.148  28.727  23.033  1.00  0.00    -0.255 N 
ATOM     20  H   UNL A   1      27.849  27.794  22.944  1.00  0.00     0.192 HD
BRANCH  16  21
ATOM     21  C   UNL A   1      27.862  32.242  22.856  1.00  0.00     0.076 C 
ATOM     22  C   UNL A   1      29.009  33.211  23.104  1.00  0.00     0.012 C 
ENDBRANCH  16  21
ENDBRANCH  13  15
ENDBRANCH  11  13
ENDBRANCH   7  11
ENDBRANCH   4   6
ENDBRANCH   3   4
ENDBRANCH   2   3
ENDBRANCH   1   2
BRANCH   1  23
ATOM     23  O   UNL A   1      34.544  33.996  29.215  1.00  0.00    -0.374 OA
BRANCH  23  24
ATOM     24  C   UNL A   1      33.270  34.590  28.964  1.00  0.00     0.202 C 
BRANCH  24  25
ATOM     25  C   UNL A   1      32.914  35.776  29.866  1.00  0.00     0.261 C 
BRANCH  25  26
ATOM     26  O   UNL A   1      32.254  35.344  31.070  1.00  0.00    -0.460 OA
BRANCH  26  27
ATOM     27  C   UNL A   1      32.750  35.864  32.219  1.00  0.00     0.338 C 
ATOM     28  O   UNL A   1      32.253  36.734  32.918  1.00  0.00    -0.246 OA
BRANCH  27  29
ATOM     29  C   UNL A   1      33.932  35.084  32.628  1.00  0.00     0.060 A 
ATOM     30  C   UNL A   1      35.199  35.671  32.512  1.00  0.00     0.016 A 
ATOM     31  C   UNL A   1      33.802  33.782  33.097  1.00  0.00     0.016 A 
ATOM     32  C   UNL A   1      36.345  34.956  32.874  1.00  0.00     0.010 A 
ATOM     33  C   UNL A   1      34.952  33.067  33.437  1.00  0.00     0.010 A 
ATOM     34  C   UNL A   1      36.232  33.640  33.336  1.00  0.00    -0.014 A 
BRANCH  34  35
ATOM     35  C   UNL A   1      37.434  32.813  33.637  1.00  0.00     0.031 A 
ATOM     36  C   UNL A   1      38.205  33.064  34.905  1.00  0.00     0.074 A 
ATOM     37  C   UNL A   1      37.873  31.876  32.772  1.00  0.00     0.049 A 
ATOM     38  N   UNL A   1      39.342  32.551  35.304  1.00  0.00    -0.248 NA
ATOM     39  C   UNL A   1      37.625  34.040  35.841  1.00  0.00     0.031 C 
ATOM     40  C   UNL A   1      37.234  31.520  31.507  1.00  0.00     0.029 A 
ATOM     41  N   UNL A   1      38.979  31.059  32.827  1.00  0.00    -0.354 N 
ATOM     42  C   UNL A   1      39.627  33.163  36.517  1.00  0.00     0.074 A 
ATOM     43  C   UNL A   1      38.562  34.108  36.775  1.00  0.00     0.031 C 
ATOM     44  C   UNL A   1      37.950  30.552  30.909  1.00  0.00     0.029 A 
ATOM     45  C   UNL A   1      39.124  30.249  31.726  1.00  0.00     0.049 A 
ATOM     46  H   UNL A   1      39.608  31.055  33.584  1.00  0.00     0.167 HD
ATOM     47  C   UNL A   1      40.672  32.949  37.352  1.00  0.00     0.037 A 
ATOM     48  C   UNL A   1      40.103  29.380  31.399  1.00  0.00     0.037 A 
ATOM     49  C   UNL A   1      41.712  31.982  37.127  1.00  0.00     0.049 A 
ATOM     50  C   UNL A   1      41.281  29.197  32.323  1.00  0.00     0.074 A 
ATOM     51  C   UNL A   1      42.768  31.647  37.957  1.00  0.00     0.029 A 
ATOM     52  N   UNL A   1      41.830  31.196  35.993  1.00  0.00    -0.354 N 
ATOM     53  N   UNL A   1      41.511  29.745  33.491  1.00  0.00    -0.248 NA
ATOM     54  C   UNL A   1      42.341  28.279  31.875  1.00  0.00     0.031 C 
ATOM     55  C   UNL A   1      43.556  30.697  37.302  1.00  0.00     0.029 A 
ATOM     56  C   UNL A   1      42.963  30.403  36.085  1.00  0.00     0.049 A 
ATOM     57  H   UNL A   1      41.203  31.200  35.234  1.00  0.00     0.167 HD
ATOM     58  C   UNL A   1      42.722  29.220  33.927  1.00  0.00     0.074 A 
ATOM     59  C   UNL A   1      43.175  28.299  32.906  1.00  0.00     0.031 C 
ATOM     60  C   UNL A   1      43.400  29.481  35.071  1.00  0.00     0.037 A 
BRANCH  47  61
ATOM     61  C   UNL A   1      40.752  33.791  38.591  1.00  0.00     0.057 A 
ATOM     62  C   UNL A   1      40.065  33.454  39.764  1.00  0.00     0.134 A 
ATOM     63  C   UNL A   1      41.563  34.932  38.621  1.00  0.00     0.134 A 
ATOM     64  F   UNL A   1      39.263  32.379  39.797  1.00  0.00    -0.206 F 
ATOM     65  C   UNL A   1      40.164  34.235  40.916  1.00  0.00     0.040 A 
ATOM     66  C   UNL A   1      41.691  35.707  39.775  1.00  0.00     0.040 A 
ATOM     67  F   UNL A   1      42.254  35.306  37.534  1.00  0.00    -0.206 F 
ATOM     68  C   UNL A   1      40.984  35.362  40.925  1.00  0.00     0.006 A 
ENDBRANCH  47  61
BRANCH  48  69
ATOM     69  C   UNL A   1      40.037  28.613  30.128  1.00  0.00     0.057 A 
ATOM     70  C   UNL A   1      40.661  29.086  28.966  1.00  0.00     0.134 A 
ATOM     71  C   UNL A   1      39.309  27.422  30.027  1.00  0.00     0.134 A 
ATOM     72  F   UNL A   1      41.350  30.236  28.993  1.00  0.00    -0.206 F 
ATOM     73  C   UNL A   1      40.545  28.415  27.747  1.00  0.00     0.040 A 
ATOM     74  C   UNL A   1      39.205  26.727  28.820  1.00  0.00     0.040 A 
ATOM     75  F   UNL A   1      38.683  26.917  31.102  1.00  0.00    -0.206 F 
ATOM     76  C   UNL A   1      39.817  27.230  27.674  1.00  0.00     0.006 A 
ENDBRANCH  48  69
BRANCH  60  77
ATOM     77  C   UNL A   1      44.687  28.742  35.304  1.00  0.00     0.057 A 
ATOM     78  C   UNL A   1      45.924  29.275  34.922  1.00  0.00     0.134 A 
ATOM     79  C   UNL A   1      44.693  27.512  35.976  1.00  0.00     0.134 A 
ATOM     80  F   UNL A   1      45.987  30.442  34.264  1.00  0.00    -0.206 F 
ATOM     81  C   UNL A   1      47.121  28.606  35.189  1.00  0.00     0.040 A 
ATOM     82  C   UNL A   1      45.885  26.847  36.271  1.00  0.00     0.040 A 
ATOM     83  F   UNL A   1      43.543  26.949  36.378  1.00  0.00    -0.206 F 
ATOM     84  C   UNL A   1      47.103  27.393  35.873  1.00  0.00     0.006 A 
ENDBRANCH  60  77
ENDBRANCH  34  35
ENDBRANCH  27  29
ENDBRANCH  26  27
ENDBRANCH  25  26
ENDBRANCH  24  25
ENDBRANCH  23  24
ENDBRANCH   1  23
TORSDOF 18
ENDMDL
MODEL 3
REMARK VINA RESULT:     -10.0      5.481     10.240
REMARK SMILES CCc1n[nH]c(C(=O)N(C)[C@H]2COC[C@H]2C(=O)OCCOCCOC(=O)c2ccc(-c3c4nc(c(-c5c(F)cccc5F)c5ccc([nH]5)c(-c5c(F)cccc5F)c5nc(c(-c6c(F)cccc6F)c6ccc3[nH]6)C=C5)C=C4)cc2)n1
REMARK SMILES IDX 20 1 19 2 18 3 16 4 17 5 15 6 11 7 12 8 13 9 14 10 9 11
REMARK SMILES IDX 10 12 7 13 8 14 6 15 3 16 4 17 81 18 5 19 2 21 1 22 21 23
REMARK SMILES IDX 22 24 23 25 24 26 25 27 26 28 27 29 28 30 80 31 29 32 79 33
REMARK SMILES IDX 30 34 31 35 32 36 73 37 33 38 78 39 72 40 74 41 34 42 77 43
REMARK SMILES IDX 71 44 70 45 35 47 61 48 44 49 60 50 45 51 48 52 59 53 75 54
REMARK SMILES IDX 46 55 47 56 58 58 76 59 49 60 36 61 37 62 42 63 38 64 39 65
REMARK SMILES IDX 41 66 43 67 40 68 62 69 63 70 68 71 64 72 65 73 67 74 69 75
REMARK SMILES IDX 66 76 50 77 51 78 56 79 52 80 53 81 55 82 57 83 54 84
REMARK H PARENT 5 20 74 46 48 57
REMARK Flexibility Score: inf
ROOT
ATOM      1  C   UNL A   1      38.005  22.150  25.523  1.00  0.00     0.202 C 
ENDROOT
BRANCH   1   2
ATOM      2  C   UNL A   1      36.958  23.254  25.398  1.00  0.00     0.261 C 
BRANCH   2   3
ATOM      3  O   UNL A   1      35.775  22.703  24.787  1.00  0.00    -0.463 OA
BRANCH   3   4
ATOM      4  C   UNL A   1      35.486  23.124  23.541  1.00  0.00     0.313 C 
ATOM      5  O   UNL A   1      36.320  23.325  22.665  1.00  0.00    -0.252 OA
BRANCH   4   6
ATOM      6  C   UNL A   1      34.021  23.360  23.302  1.00  0.00     0.150 C 
ATOM      7  C   UNL A   1      32.871  22.773  24.124  1.00  0.00     0.127 C 
ATOM      8  C   UNL A   1      31.725  23.581  23.482  1.00  0.00     0.186 C 
ATOM      9  O   UNL A   1      32.240  24.904  23.236  1.00  0.00    -0.378 OA
ATOM     10  C   UNL A   1      33.670  24.817  23.134  1.00  0.00     0.177 C 
BRANCH   7  11
ATOM     11  N   UNL A   1      32.752  22.849  25.604  1.00  0.00    -0.333 N 
ATOM     12  C   UNL A   1      32.126  23.979  26.273  1.00  0.00     0.147 C 
BRANCH  11  13
ATOM     13  C   UNL A   1      33.146  21.687  26.323  1.00  0.00     0.291 C 
ATOM     14  O   UNL A   1      33.284  21.750  27.549  1.00  0.00    -0.265 OA
BRANCH  13  15
ATOM     15  C   UNL A   1      33.458  20.441  25.639  1.00  0.00     0.214 A 
ATOM     16  C   UNL A   1      33.487  18.649  24.496  1.00  0.00     0.151 A 
ATOM     17  N   UNL A   1      34.787  18.931  24.634  1.00  0.00    -0.158 NA
ATOM     18  N   UNL A   1      32.646  19.530  25.136  1.00  0.00    -0.207 NA
ATOM     19  N   UNL A   1      34.743  20.061  25.360  1.00  0.00    -0.255 N 
ATOM     20  H   UNL A   1      35.541  20.556  25.655  1.00  0.00     0.192 HD
BRANCH  16  21
ATOM     21  C   UNL A   1      32.957  17.518  23.683  1.00  0.00     0.076 C 
ATOM     22  C   UNL A   1      34.017  16.578  23.126  1.00  0.00     0.012 C 
ENDBRANCH  16  21
ENDBRANCH  13  15
ENDBRANCH  11  13
ENDBRANCH   7  11
ENDBRANCH   4   6
ENDBRANCH   3   4
ENDBRANCH   2   3
ENDBRANCH   1   2
BRANCH   1  23
ATOM     23  O   UNL A   1      37.615  20.908  24.936  1.00  0.00    -0.374 OA
BRANCH  23  24
ATOM     24  C   UNL A   1      38.422  19.775  25.260  1.00  0.00     0.202 C 
BRANCH  24  25
ATOM     25  C   UNL A   1      39.837  20.101  25.751  1.00  0.00     0.261 C 
BRANCH  25  26
ATOM     26  O   UNL A   1      40.543  18.914  26.155  1.00  0.00    -0.460 OA
BRANCH  26  27
ATOM     27  C   UNL A   1      41.894  19.005  26.119  1.00  0.00     0.338 C 
ATOM     28  O   UNL A   1      42.688  18.153  25.751  1.00  0.00    -0.246 OA
BRANCH  27  29
ATOM     29  C   UNL A   1      42.291  20.390  26.430  1.00  0.00     0.060 A 
ATOM     30  C   UNL A   1      42.758  21.206  25.391  1.00  0.00     0.016 A 
ATOM     31  C   UNL A   1      42.232  20.876  27.732  1.00  0.00     0.016 A 
ATOM     32  C   UNL A   1      43.161  22.520  25.651  1.00  0.00     0.010 A 
ATOM     33  C   UNL A   1      42.656  22.180  27.987  1.00  0.00     0.010 A 
ATOM     34  C   UNL A   1      43.119  23.020  26.958  1.00  0.00    -0.014 A 
BRANCH  34  35
ATOM     35  C   UNL A   1      43.632  24.378  27.290  1.00  0.00     0.031 A 
ATOM     36  C   UNL A   1      42.668  25.440  27.746  1.00  0.00     0.074 A 
ATOM     37  C   UNL A   1      44.936  24.689  27.145  1.00  0.00     0.049 A 
ATOM     38  N   UNL A   1      42.877  26.714  27.967  1.00  0.00    -0.248 NA
ATOM     39  C   UNL A   1      41.277  25.012  27.962  1.00  0.00     0.031 C 
ATOM     40  C   UNL A   1      45.986  23.768  26.714  1.00  0.00     0.029 A 
ATOM     41  N   UNL A   1      45.596  25.881  27.333  1.00  0.00    -0.354 N 
ATOM     42  C   UNL A   1      41.641  27.244  28.317  1.00  0.00     0.074 A 
ATOM     43  C   UNL A   1      40.682  26.161  28.248  1.00  0.00     0.031 C 
ATOM     44  C   UNL A   1      47.159  24.425  26.680  1.00  0.00     0.029 A 
ATOM     45  C   UNL A   1      46.938  25.823  27.042  1.00  0.00     0.049 A 
ATOM     46  H   UNL A   1      45.149  26.700  27.647  1.00  0.00     0.167 HD
ATOM     47  C   UNL A   1      41.331  28.511  28.678  1.00  0.00     0.037 A 
ATOM     48  C   UNL A   1      47.878  26.791  27.043  1.00  0.00     0.037 A 
ATOM     49  C   UNL A   1      42.283  29.584  28.792  1.00  0.00     0.049 A 
ATOM     50  C   UNL A   1      47.497  28.205  27.402  1.00  0.00     0.074 A 
ATOM     51  C   UNL A   1      42.068  30.881  29.224  1.00  0.00     0.029 A 
ATOM     52  N   UNL A   1      43.627  29.486  28.472  1.00  0.00    -0.354 N 
ATOM     53  N   UNL A   1      46.335  28.680  27.780  1.00  0.00    -0.248 NA
ATOM     54  C   UNL A   1      48.560  29.221  27.323  1.00  0.00     0.031 C 
ATOM     55  C   UNL A   1      43.271  31.584  29.114  1.00  0.00     0.029 A 
ATOM     56  C   UNL A   1      44.246  30.711  28.662  1.00  0.00     0.049 A 
ATOM     57  H   UNL A   1      44.075  28.668  28.156  1.00  0.00     0.167 HD
ATOM     58  C   UNL A   1      46.534  30.037  28.010  1.00  0.00     0.074 A 
ATOM     59  C   UNL A   1      47.930  30.310  27.742  1.00  0.00     0.031 C 
ATOM     60  C   UNL A   1      45.638  30.973  28.404  1.00  0.00     0.037 A 
BRANCH  47  61
ATOM     61  C   UNL A   1      39.891  28.816  28.968  1.00  0.00     0.057 A 
ATOM     62  C   UNL A   1      38.992  29.185  27.960  1.00  0.00     0.134 A 
ATOM     63  C   UNL A   1      39.390  28.695  30.270  1.00  0.00     0.134 A 
ATOM     64  F   UNL A   1      39.412  29.329  26.694  1.00  0.00    -0.206 F 
ATOM     65  C   UNL A   1      37.650  29.447  28.241  1.00  0.00     0.040 A 
ATOM     66  C   UNL A   1      38.045  28.928  30.559  1.00  0.00     0.040 A 
ATOM     67  F   UNL A   1      40.197  28.337  31.281  1.00  0.00    -0.206 F 
ATOM     68  C   UNL A   1      37.172  29.312  29.543  1.00  0.00     0.006 A 
ENDBRANCH  47  61
BRANCH  48  69
ATOM     69  C   UNL A   1      49.285  26.476  26.679  1.00  0.00     0.057 A 
ATOM     70  C   UNL A   1      49.753  26.673  25.373  1.00  0.00     0.134 A 
ATOM     71  C   UNL A   1      50.176  25.924  27.606  1.00  0.00     0.134 A 
ATOM     72  F   UNL A   1      48.937  27.171  24.433  1.00  0.00    -0.206 F 
ATOM     73  C   UNL A   1      51.048  26.312  24.997  1.00  0.00     0.040 A 
ATOM     74  C   UNL A   1      51.483  25.582  27.250  1.00  0.00     0.040 A 
ATOM     75  F   UNL A   1      49.789  25.707  28.872  1.00  0.00    -0.206 F 
ATOM     76  C   UNL A   1      51.917  25.767  25.940  1.00  0.00     0.006 A 
ENDBRANCH  48  69
BRANCH  60  77
ATOM     77  C   UNL A   1      46.135  32.376  28.605  1.00  0.00     0.057 A 
ATOM     78  C   UNL A   1      46.113  33.321  27.573  1.00  0.00     0.134 A 
ATOM     79  C   UNL A   1      46.582  32.802  29.863  1.00  0.00     0.134 A 
ATOM     80  F   UNL A   1      45.710  32.975  26.342  1.00  0.00    -0.206 F 
ATOM     81  C   UNL A   1      46.529  34.638  27.781  1.00  0.00     0.040 A 
ATOM     82  C   UNL A   1      46.976  34.122  30.089  1.00  0.00     0.040 A 
ATOM     83  F   UNL A   1      46.620  31.949  30.898  1.00  0.00    -0.206 F 
ATOM     84  C   UNL A   1      46.953  35.044  29.045  1.00  0.00     0.006 A 
ENDBRANCH  60  77
ENDBRANCH  34  35
ENDBRANCH  27  29
ENDBRANCH  26  27
ENDBRANCH  25  26
ENDBRANCH  24  25
ENDBRANCH  23  24
ENDBRANCH   1  23
TORSDOF 18
ENDMDL
