MODEL 1
REMARK VINA RESULT:      -9.6      0.000      0.000
REMARK SMILES Cc1cc(F)cc(N[C@H](C(=O)OCCOCCOC(=O)c2ccc(-c3c4nc(c(-c5c(F)cccc5F)c5ccc([nH]5)c(-c5c(F)cccc5F)c5nc(c(-c6c(F)cccc6F)c6ccc3[nH]6)C=C5)C=C4)cc2)c2cc(C)cc(C)c2)c1
REMARK SMILES IDX 15 1 14 2 13 3 12 4 10 5 11 6 9 7 8 8 7 10 1 11 2 12 3 13
REMARK SMILES IDX 83 14 4 15 5 16 6 17 75 18 76 19 82 20 77 21 80 22 78 23
REMARK SMILES IDX 79 24 81 25 16 26 17 27 18 28 19 29 20 30 21 31 22 32 74 33
REMARK SMILES IDX 23 34 73 35 24 36 25 37 26 38 67 39 27 40 72 41 66 42 68 43
REMARK SMILES IDX 28 44 71 45 65 46 64 47 29 49 55 50 38 51 54 52 39 53 42 54
REMARK SMILES IDX 53 55 69 56 40 57 41 58 52 60 70 61 43 62 30 63 31 64 36 65
REMARK SMILES IDX 32 66 33 67 35 68 37 69 34 70 56 71 57 72 62 73 58 74 59 75
REMARK SMILES IDX 61 76 63 77 60 78 44 79 45 80 50 81 46 82 47 83 49 84 51 85
REMARK SMILES IDX 48 86
REMARK H PARENT 8 9 68 48 42 59
REMARK Flexibility Score: inf
ROOT
ATOM      1  O   UNL A   1      46.244  19.123  24.747  1.00  0.00    -0.374 OA
ENDROOT
BRANCH   1   2
ATOM      2  C   UNL A   1      46.477  20.514  24.557  1.00  0.00     0.202 C 
BRANCH   2   3
ATOM      3  C   UNL A   1      45.769  21.492  25.499  1.00  0.00     0.261 C 
BRANCH   3   4
ATOM      4  O   UNL A   1      46.487  22.713  25.701  1.00  0.00    -0.461 OA
BRANCH   4   5
ATOM      5  C   UNL A   1      46.171  23.687  24.796  1.00  0.00     0.333 C 
ATOM      6  O   UNL A   1      45.304  23.551  23.936  1.00  0.00    -0.249 OA
BRANCH   5   7
ATOM      7  C   UNL A   1      46.943  24.999  25.039  1.00  0.00     0.221 C 
BRANCH   7   8
ATOM      8  N   UNL A   1      47.903  25.372  23.968  1.00  0.00    -0.369 N 
ATOM      9  H   UNL A   1      47.707  24.985  23.084  1.00  0.00     0.161 HD
BRANCH   8  10
ATOM     10  C   UNL A   1      49.026  26.173  24.013  1.00  0.00     0.038 A 
ATOM     11  C   UNL A   1      50.809  28.659  21.681  1.00  0.00     0.044 C 
ATOM     12  C   UNL A   1      50.507  27.778  22.856  1.00  0.00    -0.046 A 
ATOM     13  C   UNL A   1      51.408  27.726  23.918  1.00  0.00     0.042 A 
ATOM     14  C   UNL A   1      49.345  26.978  22.901  1.00  0.00     0.029 A 
ATOM     15  C   UNL A   1      51.099  26.956  25.022  1.00  0.00     0.125 A 
ATOM     16  F   UNL A   1      51.946  26.915  26.059  1.00  0.00    -0.207 F 
ATOM     17  C   UNL A   1      49.914  26.227  25.083  1.00  0.00     0.065 A 
ENDBRANCH   8  10
ENDBRANCH   7   8
BRANCH   7  18
ATOM     18  C   UNL A   1      46.037  26.152  25.458  1.00  0.00    -0.014 A 
ATOM     19  C   UNL A   1      44.643  26.048  25.320  1.00  0.00     0.010 A 
ATOM     20  C   UNL A   1      46.550  27.336  26.004  1.00  0.00     0.010 A 
ATOM     21  C   UNL A   1      43.788  27.121  25.553  1.00  0.00    -0.051 A 
ATOM     22  C   UNL A   1      45.690  28.385  26.370  1.00  0.00    -0.051 A 
ATOM     23  C   UNL A   1      42.359  27.006  25.118  1.00  0.00     0.044 C 
ATOM     24  C   UNL A   1      44.318  28.290  26.086  1.00  0.00     0.006 A 
ATOM     25  C   UNL A   1      46.213  29.620  27.041  1.00  0.00     0.044 C 
ENDBRANCH   7  18
ENDBRANCH   5   7
ENDBRANCH   4   5
ENDBRANCH   3   4
ENDBRANCH   2   3
ENDBRANCH   1   2
BRANCH   1  26
ATOM     26  C   UNL A   1      45.243  18.739  25.693  1.00  0.00     0.202 C 
BRANCH  26  27
ATOM     27  C   UNL A   1      43.853  18.425  25.127  1.00  0.00     0.261 C 
BRANCH  27  28
ATOM     28  O   UNL A   1      43.087  19.630  24.935  1.00  0.00    -0.460 OA
BRANCH  28  29
ATOM     29  C   UNL A   1      41.992  19.747  25.721  1.00  0.00     0.338 C 
ATOM     30  O   UNL A   1      41.186  18.874  26.009  1.00  0.00    -0.246 OA
BRANCH  29  31
ATOM     31  C   UNL A   1      42.004  21.063  26.382  1.00  0.00     0.060 A 
ATOM     32  C   UNL A   1      42.258  22.190  25.587  1.00  0.00     0.016 A 
ATOM     33  C   UNL A   1      41.832  21.188  27.760  1.00  0.00     0.016 A 
ATOM     34  C   UNL A   1      42.387  23.444  26.175  1.00  0.00     0.010 A 
ATOM     35  C   UNL A   1      41.981  22.445  28.353  1.00  0.00     0.010 A 
ATOM     36  C   UNL A   1      42.294  23.569  27.567  1.00  0.00    -0.014 A 
BRANCH  36  37
ATOM     37  C   UNL A   1      42.695  24.838  28.215  1.00  0.00     0.031 A 
ATOM     38  C   UNL A   1      41.650  25.895  28.436  1.00  0.00     0.074 A 
ATOM     39  C   UNL A   1      43.962  25.036  28.618  1.00  0.00     0.049 A 
ATOM     40  N   UNL A   1      41.779  27.102  28.919  1.00  0.00    -0.248 NA
ATOM     41  C   UNL A   1      40.272  25.540  28.055  1.00  0.00     0.031 C 
ATOM     42  C   UNL A   1      45.048  24.066  28.503  1.00  0.00     0.029 A 
ATOM     43  N   UNL A   1      44.546  26.134  29.197  1.00  0.00    -0.354 N 
ATOM     44  C   UNL A   1      40.504  27.654  28.895  1.00  0.00     0.074 A 
ATOM     45  C   UNL A   1      39.620  26.660  28.326  1.00  0.00     0.031 C 
ATOM     46  C   UNL A   1      46.176  24.619  28.982  1.00  0.00     0.029 A 
ATOM     47  C   UNL A   1      45.894  25.990  29.405  1.00  0.00     0.049 A 
ATOM     48  H   UNL A   1      44.045  26.946  29.441  1.00  0.00     0.167 HD
ATOM     49  C   UNL A   1      40.107  28.878  29.315  1.00  0.00     0.037 A 
ATOM     50  C   UNL A   1      46.801  26.878  29.857  1.00  0.00     0.037 A 
ATOM     51  C   UNL A   1      40.990  29.864  29.878  1.00  0.00     0.049 A 
ATOM     52  C   UNL A   1      46.348  28.262  30.241  1.00  0.00     0.074 A 
ATOM     53  C   UNL A   1      40.684  31.127  30.351  1.00  0.00     0.029 A 
ATOM     54  N   UNL A   1      42.357  29.696  30.038  1.00  0.00    -0.354 N 
ATOM     55  N   UNL A   1      45.140  28.771  30.230  1.00  0.00    -0.248 NA
ATOM     56  C   UNL A   1      47.388  29.195  30.698  1.00  0.00     0.031 C 
ATOM     57  C   UNL A   1      41.875  31.743  30.753  1.00  0.00     0.029 A 
ATOM     58  C   UNL A   1      42.915  30.843  30.575  1.00  0.00     0.049 A 
ATOM     59  H   UNL A   1      42.858  28.881  29.804  1.00  0.00     0.167 HD
ATOM     60  C   UNL A   1      45.270  30.073  30.698  1.00  0.00     0.074 A 
ATOM     61  C   UNL A   1      46.673  30.271  30.997  1.00  0.00     0.031 C 
ATOM     62  C   UNL A   1      44.314  31.020  30.866  1.00  0.00     0.037 A 
BRANCH  49  63
ATOM     63  C   UNL A   1      38.657  29.227  29.152  1.00  0.00     0.057 A 
ATOM     64  C   UNL A   1      37.762  29.197  30.230  1.00  0.00     0.134 A 
ATOM     65  C   UNL A   1      38.155  29.620  27.905  1.00  0.00     0.134 A 
ATOM     66  F   UNL A   1      38.176  28.813  31.446  1.00  0.00    -0.206 F 
ATOM     67  C   UNL A   1      36.416  29.527  30.068  1.00  0.00     0.040 A 
ATOM     68  C   UNL A   1      36.816  29.974  27.736  1.00  0.00     0.040 A 
ATOM     69  F   UNL A   1      38.959  29.670  26.832  1.00  0.00    -0.206 F 
ATOM     70  C   UNL A   1      35.941  29.924  28.819  1.00  0.00     0.006 A 
ENDBRANCH  49  63
BRANCH  50  71
ATOM     71  C   UNL A   1      48.232  26.497  29.950  1.00  0.00     0.057 A 
ATOM     72  C   UNL A   1      48.721  25.771  31.042  1.00  0.00     0.134 A 
ATOM     73  C   UNL A   1      49.150  26.867  28.959  1.00  0.00     0.134 A 
ATOM     74  F   UNL A   1      47.896  25.409  32.035  1.00  0.00    -0.206 F 
ATOM     75  C   UNL A   1      50.073  25.440  31.153  1.00  0.00     0.040 A 
ATOM     76  C   UNL A   1      50.499  26.523  29.044  1.00  0.00     0.040 A 
ATOM     77  F   UNL A   1      48.744  27.565  27.887  1.00  0.00    -0.206 F 
ATOM     78  C   UNL A   1      50.965  25.813  30.149  1.00  0.00     0.006 A 
ENDBRANCH  50  71
BRANCH  62  79
ATOM     79  C   UNL A   1      44.751  32.345  31.419  1.00  0.00     0.057 A 
ATOM     80  C   UNL A   1      44.798  32.588  32.797  1.00  0.00     0.134 A 
ATOM     81  C   UNL A   1      45.170  33.373  30.565  1.00  0.00     0.134 A 
ATOM     82  F   UNL A   1      44.399  31.650  33.668  1.00  0.00    -0.206 F 
ATOM     83  C   UNL A   1      45.228  33.815  33.306  1.00  0.00     0.040 A 
ATOM     84  C   UNL A   1      45.626  34.595  31.062  1.00  0.00     0.040 A 
ATOM     85  F   UNL A   1      45.158  33.201  29.234  1.00  0.00    -0.206 F 
ATOM     86  C   UNL A   1      45.650  34.820  32.436  1.00  0.00     0.006 A 
ENDBRANCH  62  79
ENDBRANCH  36  37
ENDBRANCH  29  31
ENDBRANCH  28  29
ENDBRANCH  27  28
ENDBRANCH  26  27
ENDBRANCH   1  26
TORSDOF 17
ENDMDL
MODEL 2
REMARK VINA RESULT:      -9.1      4.681     10.310
REMARK SMILES Cc1cc(F)cc(N[C@H](C(=O)OCCOCCOC(=O)c2ccc(-c3c4nc(c(-c5c(F)cccc5F)c5ccc([nH]5)c(-c5c(F)cccc5F)c5nc(c(-c6c(F)cccc6F)c6ccc3[nH]6)C=C5)C=C4)cc2)c2cc(C)cc(C)c2)c1
REMARK SMILES IDX 15 1 14 2 13 3 12 4 10 5 11 6 9 7 8 8 7 10 1 11 2 12 3 13
REMARK SMILES IDX 83 14 4 15 5 16 6 17 75 18 76 19 82 20 77 21 80 22 78 23
REMARK SMILES IDX 79 24 81 25 16 26 17 27 18 28 19 29 20 30 21 31 22 32 74 33
REMARK SMILES IDX 23 34 73 35 24 36 25 37 26 38 67 39 27 40 72 41 66 42 68 43
REMARK SMILES IDX 28 44 71 45 65 46 64 47 29 49 55 50 38 51 54 52 39 53 42 54
REMARK SMILES IDX 53 55 69 56 40 57 41 58 52 60 70 61 43 62 30 63 31 64 36 65
REMARK SMILES IDX 32 66 33 67 35 68 37 69 34 70 56 71 57 72 62 73 58 74 59 75
REMARK SMILES IDX 61 76 63 77 60 78 44 79 45 80 50 81 46 82 47 83 49 84 51 85
REMARK SMILES IDX 48 86
REMARK H PARENT 8 9 68 48 42 59
REMARK Flexibility Score: inf
ROOT
ATOM      1  O   UNL A   1      38.305  21.164  25.376  1.00  0.00    -0.374 OA
ENDROOT
BRANCH   1   2
ATOM      2  C   UNL A   1      37.245  21.701  24.593  1.00  0.00     0.202 C 
BRANCH   2   3
ATOM      3  C   UNL A   1      35.810  21.439  25.057  1.00  0.00     0.261 C 
BRANCH   3   4
ATOM      4  O   UNL A   1      35.612  21.655  26.457  1.00  0.00    -0.461 OA
BRANCH   4   5
ATOM      5  C   UNL A   1      34.296  21.760  26.811  1.00  0.00     0.333 C 
ATOM      6  O   UNL A   1      33.895  21.611  27.963  1.00  0.00    -0.249 OA
BRANCH   5   7
ATOM      7  C   UNL A   1      33.394  22.184  25.636  1.00  0.00     0.221 C 
BRANCH   7   8
ATOM      8  N   UNL A   1      32.351  21.197  25.255  1.00  0.00    -0.369 N 
ATOM      9  H   UNL A   1      31.432  21.452  25.499  1.00  0.00     0.161 HD
BRANCH   8  10
ATOM     10  C   UNL A   1      32.463  19.979  24.615  1.00  0.00     0.038 A 
ATOM     11  C   UNL A   1      33.361  16.364  25.576  1.00  0.00     0.044 C 
ATOM     12  C   UNL A   1      33.014  17.574  24.762  1.00  0.00    -0.046 A 
ATOM     13  C   UNL A   1      32.902  17.455  23.377  1.00  0.00     0.042 A 
ATOM     14  C   UNL A   1      32.825  18.839  25.360  1.00  0.00     0.029 A 
ATOM     15  C   UNL A   1      32.528  18.560  22.638  1.00  0.00     0.125 A 
ATOM     16  F   UNL A   1      32.395  18.453  21.309  1.00  0.00    -0.207 F 
ATOM     17  C   UNL A   1      32.277  19.784  23.250  1.00  0.00     0.065 A 
ENDBRANCH   8  10
ENDBRANCH   7   8
BRANCH   7  18
ATOM     18  C   UNL A   1      32.851  23.601  25.786  1.00  0.00    -0.014 A 
ATOM     19  C   UNL A   1      31.495  23.817  26.077  1.00  0.00     0.010 A 
ATOM     20  C   UNL A   1      33.676  24.727  25.656  1.00  0.00     0.010 A 
ATOM     21  C   UNL A   1      30.925  25.087  26.082  1.00  0.00    -0.051 A 
ATOM     22  C   UNL A   1      33.145  26.021  25.789  1.00  0.00    -0.051 A 
ATOM     23  C   UNL A   1      29.432  25.202  26.126  1.00  0.00     0.044 C 
ATOM     24  C   UNL A   1      31.759  26.191  25.943  1.00  0.00     0.006 A 
ATOM     25  C   UNL A   1      34.028  27.232  25.747  1.00  0.00     0.044 C 
ENDBRANCH   7  18
ENDBRANCH   5   7
ENDBRANCH   4   5
ENDBRANCH   3   4
ENDBRANCH   2   3
ENDBRANCH   1   2
BRANCH   1  26
ATOM     26  C   UNL A   1      38.652  19.792  25.175  1.00  0.00     0.202 C 
BRANCH  26  27
ATOM     27  C   UNL A   1      39.702  19.207  26.125  1.00  0.00     0.261 C 
BRANCH  27  28
ATOM     28  O   UNL A   1      41.008  19.203  25.515  1.00  0.00    -0.460 OA
BRANCH  28  29
ATOM     29  C   UNL A   1      42.034  19.487  26.349  1.00  0.00     0.338 C 
ATOM     30  O   UNL A   1      42.974  18.764  26.648  1.00  0.00    -0.246 OA
BRANCH  29  31
ATOM     31  C   UNL A   1      41.989  20.915  26.710  1.00  0.00     0.060 A 
ATOM     32  C   UNL A   1      41.713  21.837  25.691  1.00  0.00     0.016 A 
ATOM     33  C   UNL A   1      42.272  21.348  28.005  1.00  0.00     0.016 A 
ATOM     34  C   UNL A   1      41.764  23.202  25.952  1.00  0.00     0.010 A 
ATOM     35  C   UNL A   1      42.341  22.720  28.263  1.00  0.00     0.010 A 
ATOM     36  C   UNL A   1      42.123  23.649  27.230  1.00  0.00    -0.014 A 
BRANCH  36  37
ATOM     37  C   UNL A   1      42.441  25.080  27.441  1.00  0.00     0.031 A 
ATOM     38  C   UNL A   1      43.767  25.601  26.962  1.00  0.00     0.074 A 
ATOM     39  C   UNL A   1      41.557  25.903  28.029  1.00  0.00     0.049 A 
ATOM     40  N   UNL A   1      44.289  26.792  27.096  1.00  0.00    -0.248 NA
ATOM     41  C   UNL A   1      44.621  24.645  26.237  1.00  0.00     0.031 C 
ATOM     42  C   UNL A   1      40.222  25.523  28.487  1.00  0.00     0.029 A 
ATOM     43  N   UNL A   1      41.660  27.232  28.349  1.00  0.00    -0.354 N 
ATOM     44  C   UNL A   1      45.532  26.728  26.480  1.00  0.00     0.074 A 
ATOM     45  C   UNL A   1      45.698  25.376  25.993  1.00  0.00     0.031 C 
ATOM     46  C   UNL A   1      39.635  26.594  29.048  1.00  0.00     0.029 A 
ATOM     47  C   UNL A   1      40.566  27.721  29.016  1.00  0.00     0.049 A 
ATOM     48  H   UNL A   1      42.445  27.783  28.122  1.00  0.00     0.167 HD
ATOM     49  C   UNL A   1      46.449  27.712  26.328  1.00  0.00     0.037 A 
ATOM     50  C   UNL A   1      40.355  28.934  29.563  1.00  0.00     0.037 A 
ATOM     51  C   UNL A   1      46.280  29.055  26.814  1.00  0.00     0.049 A 
ATOM     52  C   UNL A   1      41.425  29.988  29.454  1.00  0.00     0.074 A 
ATOM     53  C   UNL A   1      47.142  30.131  26.696  1.00  0.00     0.029 A 
ATOM     54  N   UNL A   1      45.173  29.503  27.519  1.00  0.00    -0.354 N 
ATOM     55  N   UNL A   1      42.591  29.926  28.857  1.00  0.00    -0.248 NA
ATOM     56  C   UNL A   1      41.149  31.281  30.097  1.00  0.00     0.031 C 
ATOM     57  C   UNL A   1      46.577  31.218  27.372  1.00  0.00     0.029 A 
ATOM     58  C   UNL A   1      45.341  30.832  27.868  1.00  0.00     0.049 A 
ATOM     59  H   UNL A   1      44.383  28.957  27.738  1.00  0.00     0.167 HD
ATOM     60  C   UNL A   1      43.177  31.173  29.032  1.00  0.00     0.074 A 
ATOM     61  C   UNL A   1      42.233  31.977  29.780  1.00  0.00     0.031 C 
ATOM     62  C   UNL A   1      44.389  31.614  28.613  1.00  0.00     0.037 A 
BRANCH  49  63
ATOM     63  C   UNL A   1      47.730  27.359  25.632  1.00  0.00     0.057 A 
ATOM     64  C   UNL A   1      48.854  26.906  26.334  1.00  0.00     0.134 A 
ATOM     65  C   UNL A   1      47.832  27.453  24.238  1.00  0.00     0.134 A 
ATOM     66  F   UNL A   1      48.827  26.811  27.671  1.00  0.00    -0.206 F 
ATOM     67  C   UNL A   1      50.040  26.577  25.675  1.00  0.00     0.040 A 
ATOM     68  C   UNL A   1      49.004  27.104  23.566  1.00  0.00     0.040 A 
ATOM     69  F   UNL A   1      46.792  27.880  23.505  1.00  0.00    -0.206 F 
ATOM     70  C   UNL A   1      50.115  26.669  24.286  1.00  0.00     0.006 A 
ENDBRANCH  49  63
BRANCH  50  71
ATOM     71  C   UNL A   1      39.090  29.213  30.286  1.00  0.00     0.057 A 
ATOM     72  C   UNL A   1      38.950  28.918  31.647  1.00  0.00     0.134 A 
ATOM     73  C   UNL A   1      37.982  29.765  29.629  1.00  0.00     0.134 A 
ATOM     74  F   UNL A   1      39.967  28.366  32.325  1.00  0.00    -0.206 F 
ATOM     75  C   UNL A   1      37.751  29.146  32.325  1.00  0.00     0.040 A 
ATOM     76  C   UNL A   1      36.785  30.021  30.300  1.00  0.00     0.040 A 
ATOM     77  F   UNL A   1      38.051  30.069  28.325  1.00  0.00    -0.206 F 
ATOM     78  C   UNL A   1      36.666  29.704  31.651  1.00  0.00     0.006 A 
ENDBRANCH  50  71
BRANCH  62  79
ATOM     79  C   UNL A   1      44.749  33.036  28.931  1.00  0.00     0.057 A 
ATOM     80  C   UNL A   1      44.388  34.094  28.088  1.00  0.00     0.134 A 
ATOM     81  C   UNL A   1      45.426  33.353  30.115  1.00  0.00     0.134 A 
ATOM     82  F   UNL A   1      43.749  33.856  26.933  1.00  0.00    -0.206 F 
ATOM     83  C   UNL A   1      44.705  35.416  28.402  1.00  0.00     0.040 A 
ATOM     84  C   UNL A   1      45.726  34.673  30.453  1.00  0.00     0.040 A 
ATOM     85  F   UNL A   1      45.792  32.387  30.971  1.00  0.00    -0.206 F 
ATOM     86  C   UNL A   1      45.371  35.709  29.592  1.00  0.00     0.006 A 
ENDBRANCH  62  79
ENDBRANCH  36  37
ENDBRANCH  29  31
ENDBRANCH  28  29
ENDBRANCH  27  28
ENDBRANCH  26  27
ENDBRANCH   1  26
TORSDOF 17
ENDMDL
MODEL 3
REMARK VINA RESULT:      -9.1      0.977      6.118
REMARK SMILES Cc1cc(F)cc(N[C@H](C(=O)OCCOCCOC(=O)c2ccc(-c3c4nc(c(-c5c(F)cccc5F)c5ccc([nH]5)c(-c5c(F)cccc5F)c5nc(c(-c6c(F)cccc6F)c6ccc3[nH]6)C=C5)C=C4)cc2)c2cc(C)cc(C)c2)c1
REMARK SMILES IDX 15 1 14 2 13 3 12 4 10 5 11 6 9 7 8 8 7 10 1 11 2 12 3 13
REMARK SMILES IDX 83 14 4 15 5 16 6 17 75 18 76 19 82 20 77 21 80 22 78 23
REMARK SMILES IDX 79 24 81 25 16 26 17 27 18 28 19 29 20 30 21 31 22 32 74 33
REMARK SMILES IDX 23 34 73 35 24 36 25 37 26 38 67 39 27 40 72 41 66 42 68 43
REMARK SMILES IDX 28 44 71 45 65 46 64 47 29 49 55 50 38 51 54 52 39 53 42 54
REMARK SMILES IDX 53 55 69 56 40 57 41 58 52 60 70 61 43 62 30 63 31 64 36 65
REMARK SMILES IDX 32 66 33 67 35 68 37 69 34 70 56 71 57 72 62 73 58 74 59 75
REMARK SMILES IDX 61 76 63 77 60 78 44 79 45 80 50 81 46 82 47 83 49 84 51 85
REMARK SMILES IDX 48 86
REMARK H PARENT 8 9 68 48 42 59
REMARK Flexibility Score: inf
ROOT
ATOM      1  O   UNL A   1      46.590  20.620  24.853  1.00  0.00    -0.374 OA
ENDROOT
BRANCH   1   2
ATOM      2  C   UNL A   1      46.076  21.917  24.571  1.00  0.00     0.202 C 
BRANCH   2   3
ATOM      3  C   UNL A   1      45.961  22.907  25.733  1.00  0.00     0.261 C 
BRANCH   3   4
ATOM      4  O   UNL A   1      47.139  23.694  25.933  1.00  0.00    -0.461 OA
BRANCH   4   5
ATOM      5  C   UNL A   1      47.221  24.774  25.099  1.00  0.00     0.333 C 
ATOM      6  O   UNL A   1      47.038  24.704  23.886  1.00  0.00    -0.249 OA
BRANCH   5   7
ATOM      7  C   UNL A   1      47.463  26.095  25.857  1.00  0.00     0.221 C 
BRANCH   7   8
ATOM      8  N   UNL A   1      48.561  26.937  25.317  1.00  0.00    -0.369 N 
ATOM      9  H   UNL A   1      48.285  27.832  25.014  1.00  0.00     0.161 HD
BRANCH   8  10
ATOM     10  C   UNL A   1      49.908  26.667  25.173  1.00  0.00     0.038 A 
ATOM     11  C   UNL A   1      52.648  27.324  22.555  1.00  0.00     0.044 C 
ATOM     12  C   UNL A   1      51.940  26.815  23.775  1.00  0.00    -0.046 A 
ATOM     13  C   UNL A   1      52.633  26.013  24.680  1.00  0.00     0.042 A 
ATOM     14  C   UNL A   1      50.579  27.105  24.015  1.00  0.00     0.029 A 
ATOM     15  C   UNL A   1      51.992  25.593  25.829  1.00  0.00     0.125 A 
ATOM     16  F   UNL A   1      52.654  24.840  26.719  1.00  0.00    -0.207 F 
ATOM     17  C   UNL A   1      50.670  25.946  26.087  1.00  0.00     0.065 A 
ENDBRANCH   8  10
ENDBRANCH   7   8
BRANCH   7  18
ATOM     18  C   UNL A   1      46.178  26.876  26.111  1.00  0.00    -0.014 A 
ATOM     19  C   UNL A   1      44.946  26.392  25.643  1.00  0.00     0.010 A 
ATOM     20  C   UNL A   1      46.175  28.083  26.824  1.00  0.00     0.010 A 
ATOM     21  C   UNL A   1      43.772  27.136  25.724  1.00  0.00    -0.051 A 
ATOM     22  C   UNL A   1      44.977  28.786  27.033  1.00  0.00    -0.051 A 
ATOM     23  C   UNL A   1      42.572  26.667  24.959  1.00  0.00     0.044 C 
ATOM     24  C   UNL A   1      43.792  28.334  26.428  1.00  0.00     0.006 A 
ATOM     25  C   UNL A   1      44.940  30.028  27.872  1.00  0.00     0.044 C 
ENDBRANCH   7  18
ENDBRANCH   5   7
ENDBRANCH   4   5
ENDBRANCH   3   4
ENDBRANCH   2   3
ENDBRANCH   1   2
BRANCH   1  26
ATOM     26  C   UNL A   1      45.714  19.678  25.479  1.00  0.00     0.202 C 
BRANCH  26  27
ATOM     27  C   UNL A   1      44.597  19.098  24.603  1.00  0.00     0.261 C 
BRANCH  27  28
ATOM     28  O   UNL A   1      43.397  19.891  24.701  1.00  0.00    -0.460 OA
BRANCH  28  29
ATOM     29  C   UNL A   1      42.686  19.720  25.839  1.00  0.00     0.338 C 
ATOM     30  O   UNL A   1      42.381  18.664  26.375  1.00  0.00    -0.246 OA
BRANCH  29  31
ATOM     31  C   UNL A   1      42.490  21.025  26.493  1.00  0.00     0.060 A 
ATOM     32  C   UNL A   1      42.541  22.172  25.689  1.00  0.00     0.016 A 
ATOM     33  C   UNL A   1      42.324  21.131  27.874  1.00  0.00     0.016 A 
ATOM     34  C   UNL A   1      42.470  23.435  26.268  1.00  0.00     0.010 A 
ATOM     35  C   UNL A   1      42.272  22.399  28.457  1.00  0.00     0.010 A 
ATOM     36  C   UNL A   1      42.381  23.554  27.660  1.00  0.00    -0.014 A 
BRANCH  36  37
ATOM     37  C   UNL A   1      42.577  24.877  28.295  1.00  0.00     0.031 A 
ATOM     38  C   UNL A   1      43.926  25.206  28.871  1.00  0.00     0.074 A 
ATOM     39  C   UNL A   1      41.579  25.775  28.340  1.00  0.00     0.049 A 
ATOM     40  N   UNL A   1      44.312  26.266  29.530  1.00  0.00    -0.248 NA
ATOM     41  C   UNL A   1      44.982  24.197  28.678  1.00  0.00     0.031 C 
ATOM     42  C   UNL A   1      40.247  25.588  27.771  1.00  0.00     0.029 A 
ATOM     43  N   UNL A   1      41.536  27.024  28.903  1.00  0.00    -0.354 N 
ATOM     44  C   UNL A   1      45.649  26.052  29.837  1.00  0.00     0.074 A 
ATOM     45  C   UNL A   1      46.004  24.750  29.315  1.00  0.00     0.031 C 
ATOM     46  C   UNL A   1      39.507  26.680  28.030  1.00  0.00     0.029 A 
ATOM     47  C   UNL A   1      40.306  27.624  28.810  1.00  0.00     0.049 A 
ATOM     48  H   UNL A   1      42.314  27.450  29.332  1.00  0.00     0.167 HD
ATOM     49  C   UNL A   1      46.506  26.871  30.490  1.00  0.00     0.037 A 
ATOM     50  C   UNL A   1      39.869  28.790  29.323  1.00  0.00     0.037 A 
ATOM     51  C   UNL A   1      46.150  28.164  31.009  1.00  0.00     0.049 A 
ATOM     52  C   UNL A   1      40.819  29.648  30.118  1.00  0.00     0.074 A 
ATOM     53  C   UNL A   1      46.949  29.080  31.671  1.00  0.00     0.029 A 
ATOM     54  N   UNL A   1      44.883  28.722  30.928  1.00  0.00    -0.354 N 
ATOM     55  N   UNL A   1      42.086  29.446  30.390  1.00  0.00    -0.248 NA
ATOM     56  C   UNL A   1      40.276  30.894  30.678  1.00  0.00     0.031 C 
ATOM     57  C   UNL A   1      46.153  30.172  32.033  1.00  0.00     0.029 A 
ATOM     58  C   UNL A   1      44.870  29.957  31.554  1.00  0.00     0.049 A 
ATOM     59  H   UNL A   1      44.107  28.303  30.491  1.00  0.00     0.167 HD
ATOM     60  C   UNL A   1      42.497  30.546  31.133  1.00  0.00     0.074 A 
ATOM     61  C   UNL A   1      41.347  31.419  31.256  1.00  0.00     0.031 C 
ATOM     62  C   UNL A   1      43.715  30.811  31.665  1.00  0.00     0.037 A 
BRANCH  49  63
ATOM     63  C   UNL A   1      47.906  26.376  30.705  1.00  0.00     0.057 A 
ATOM     64  C   UNL A   1      48.269  25.654  31.849  1.00  0.00     0.134 A 
ATOM     65  C   UNL A   1      48.898  26.604  29.743  1.00  0.00     0.134 A 
ATOM     66  F   UNL A   1      47.370  25.417  32.816  1.00  0.00    -0.206 F 
ATOM     67  C   UNL A   1      49.573  25.194  32.038  1.00  0.00     0.040 A 
ATOM     68  C   UNL A   1      50.199  26.129  29.908  1.00  0.00     0.040 A 
ATOM     69  F   UNL A   1      48.616  27.289  28.623  1.00  0.00    -0.206 F 
ATOM     70  C   UNL A   1      50.541  25.425  31.061  1.00  0.00     0.006 A 
ENDBRANCH  49  63
BRANCH  50  71
ATOM     71  C   UNL A   1      38.460  29.209  29.124  1.00  0.00     0.057 A 
ATOM     72  C   UNL A   1      37.523  29.121  30.160  1.00  0.00     0.134 A 
ATOM     73  C   UNL A   1      38.010  29.689  27.887  1.00  0.00     0.134 A 
ATOM     74  F   UNL A   1      37.887  28.645  31.359  1.00  0.00    -0.206 F 
ATOM     75  C   UNL A   1      36.187  29.480  29.970  1.00  0.00     0.040 A 
ATOM     76  C   UNL A   1      36.684  30.075  27.689  1.00  0.00     0.040 A 
ATOM     77  F   UNL A   1      38.859  29.797  26.854  1.00  0.00    -0.206 F 
ATOM     78  C   UNL A   1      35.766  29.963  28.731  1.00  0.00     0.006 A 
ENDBRANCH  50  71
BRANCH  62  79
ATOM     79  C   UNL A   1      43.874  32.107  32.406  1.00  0.00     0.057 A 
ATOM     80  C   UNL A   1      43.671  32.195  33.788  1.00  0.00     0.134 A 
ATOM     81  C   UNL A   1      44.276  33.268  31.734  1.00  0.00     0.134 A 
ATOM     82  F   UNL A   1      43.273  31.122  34.487  1.00  0.00    -0.206 F 
ATOM     83  C   UNL A   1      43.844  33.398  34.474  1.00  0.00     0.040 A 
ATOM     84  C   UNL A   1      44.476  34.471  32.413  1.00  0.00     0.040 A 
ATOM     85  F   UNL A   1      44.496  33.249  30.411  1.00  0.00    -0.206 F 
ATOM     86  C   UNL A   1      44.255  34.539  33.786  1.00  0.00     0.006 A 
ENDBRANCH  62  79
ENDBRANCH  36  37
ENDBRANCH  29  31
ENDBRANCH  28  29
ENDBRANCH  27  28
ENDBRANCH  26  27
ENDBRANCH   1  26
TORSDOF 17
ENDMDL
