MODEL 1
REMARK VINA RESULT:     -13.8      0.000      0.000
REMARK SMILES CCC[C@@](C)(NC(=O)N1CCN(C)C(=O)C1(C)C)C(=O)OCCOCCOC(=O)c1ccc(-c2c3nc(c(-c4c(F)cccc4F)c4ccc([nH]4)c(-c4c(F)cccc4F)c4nc(c(-c5c(F)cccc5F)c5ccc2[nH]5)C=C4)C=C3)cc1
REMARK SMILES IDX 24 1 23 2 22 3 21 4 19 5 20 6 4 7 5 8 3 9 2 10 1 11 6 12
REMARK SMILES IDX 7 13 8 15 9 16 10 17 16 18 11 19 14 20 17 21 18 22 12 23
REMARK SMILES IDX 15 24 13 25 25 26 26 27 27 28 28 29 29 30 30 31 31 32 83 33
REMARK SMILES IDX 32 34 82 35 33 36 34 37 35 38 76 39 36 40 81 41 75 42 77 43
REMARK SMILES IDX 37 44 80 45 74 46 73 47 38 49 64 50 47 51 63 52 48 53 51 54
REMARK SMILES IDX 62 55 78 56 49 57 50 58 61 60 79 61 52 62 39 63 40 64 45 65
REMARK SMILES IDX 41 66 42 67 44 68 46 69 43 70 65 71 66 72 71 73 67 74 68 75
REMARK SMILES IDX 70 76 72 77 69 78 53 79 54 80 59 81 55 82 56 83 58 84 60 85
REMARK SMILES IDX 57 86
REMARK H PARENT 6 14 77 48 51 59
REMARK Flexibility Score: inf
ROOT
ATOM      1  O   UNL A   1      34.158  31.150  27.512  1.00  0.00    -0.374 OA
ENDROOT
BRANCH   1   2
ATOM      2  C   UNL A   1      33.804  29.232  27.254  1.00  0.00     0.202 C 
BRANCH   2   3
ATOM      3  C   UNL A   1      31.964  28.697  27.314  1.00  0.00     0.261 C 
BRANCH   3   4
ATOM      4  O   UNL A   1      31.530  27.002  27.287  1.00  0.00    -0.462 OA
BRANCH   4   5
ATOM      5  C   UNL A   1      31.469  25.824  26.411  1.00  0.00     0.331 C 
ATOM      6  O   UNL A   1      31.009  24.791  26.914  1.00  0.00    -0.249 OA
BRANCH   5   7
ATOM      7  C   UNL A   1      32.137  25.717  24.741  1.00  0.00     0.136 C 
ATOM      8  C   UNL A   1      30.827  25.212  23.945  1.00  0.00     0.047 C 
BRANCH   7   9
ATOM      9  C   UNL A   1      32.409  27.117  24.044  1.00  0.00     0.040 C 
BRANCH   9  10
ATOM     10  C   UNL A   1      33.862  27.618  23.846  1.00  0.00    -0.000 C 
ATOM     11  C   UNL A   1      34.019  28.789  22.893  1.00  0.00     0.004 C 
ENDBRANCH   9  10
ENDBRANCH   7   9
BRANCH   7  12
ATOM     12  N   UNL A   1      33.278  24.707  24.083  1.00  0.00    -0.322 N 
ATOM     13  C   UNL A   1      33.875  23.436  24.113  1.00  0.00     0.319 C 
ATOM     14  H   UNL A   1      33.727  25.215  23.369  1.00  0.00     0.166 HD
ATOM     15  O   UNL A   1      34.809  23.301  23.321  1.00  0.00    -0.249 OA
BRANCH  13  16
ATOM     16  N   UNL A   1      33.311  22.398  24.919  1.00  0.00    -0.309 N 
ATOM     17  C   UNL A   1      32.013  21.014  24.641  1.00  0.00     0.144 C 
ATOM     18  C   UNL A   1      34.575  21.954  25.729  1.00  0.00     0.118 C 
ATOM     19  C   UNL A   1      32.582  19.237  24.143  1.00  0.00     0.140 C 
ATOM     20  C   UNL A   1      35.396  20.197  24.895  1.00  0.00     0.247 C 
ATOM     21  C   UNL A   1      35.392  23.311  26.407  1.00  0.00     0.045 C 
ATOM     22  C   UNL A   1      33.570  22.285  27.250  1.00  0.00     0.045 C 
ATOM     23  N   UNL A   1      34.288  18.885  24.433  1.00  0.00    -0.342 N 
ATOM     24  O   UNL A   1      36.523  19.673  24.896  1.00  0.00    -0.272 OA
ATOM     25  C   UNL A   1      34.583  17.510  24.853  1.00  0.00     0.146 C 
ENDBRANCH  13  16
ENDBRANCH   7  12
ENDBRANCH   5   7
ENDBRANCH   4   5
ENDBRANCH   3   4
ENDBRANCH   2   3
ENDBRANCH   1   2
BRANCH   1  26
ATOM     26  C   UNL A   1      33.610  32.640  27.972  1.00  0.00     0.202 C 
BRANCH  26  27
ATOM     27  C   UNL A   1      33.973  33.614  29.395  1.00  0.00     0.261 C 
BRANCH  27  28
ATOM     28  O   UNL A   1      34.466  32.995  30.701  1.00  0.00    -0.460 OA
BRANCH  28  29
ATOM     29  C   UNL A   1      35.699  33.210  31.270  1.00  0.00     0.338 C 
ATOM     30  O   UNL A   1      35.887  33.865  32.287  1.00  0.00    -0.246 OA
BRANCH  29  31
ATOM     31  C   UNL A   1      36.735  32.193  30.797  1.00  0.00     0.060 A 
ATOM     32  C   UNL A   1      37.591  31.577  31.747  1.00  0.00     0.016 A 
ATOM     33  C   UNL A   1      36.904  31.836  29.464  1.00  0.00     0.016 A 
ATOM     34  C   UNL A   1      38.480  30.543  31.412  1.00  0.00     0.010 A 
ATOM     35  C   UNL A   1      37.921  30.920  29.101  1.00  0.00     0.010 A 
ATOM     36  C   UNL A   1      38.718  30.270  30.067  1.00  0.00    -0.014 A 
BRANCH  36  37
ATOM     37  C   UNL A   1      40.011  29.630  29.680  1.00  0.00     0.031 A 
ATOM     38  C   UNL A   1      41.215  30.540  29.600  1.00  0.00     0.074 A 
ATOM     39  C   UNL A   1      40.146  28.320  29.396  1.00  0.00     0.049 A 
ATOM     40  N   UNL A   1      42.401  30.325  29.096  1.00  0.00    -0.248 NA
ATOM     41  C   UNL A   1      41.046  31.888  30.170  1.00  0.00     0.031 C 
ATOM     42  C   UNL A   1      39.109  27.303  29.548  1.00  0.00     0.029 A 
ATOM     43  N   UNL A   1      41.223  27.625  28.891  1.00  0.00    -0.354 N 
ATOM     44  C   UNL A   1      43.098  31.519  29.252  1.00  0.00     0.074 A 
ATOM     45  C   UNL A   1      42.213  32.450  29.909  1.00  0.00     0.031 C 
ATOM     46  C   UNL A   1      39.580  26.126  29.092  1.00  0.00     0.029 A 
ATOM     47  C   UNL A   1      40.933  26.318  28.570  1.00  0.00     0.049 A 
ATOM     48  H   UNL A   1      42.114  28.026  28.769  1.00  0.00     0.167 HD
ATOM     49  C   UNL A   1      44.356  31.825  28.863  1.00  0.00     0.037 A 
ATOM     50  C   UNL A   1      41.658  25.406  27.886  1.00  0.00     0.037 A 
ATOM     51  C   UNL A   1      45.222  30.905  28.181  1.00  0.00     0.049 A 
ATOM     52  C   UNL A   1      43.022  25.796  27.361  1.00  0.00     0.074 A 
ATOM     53  C   UNL A   1      46.509  31.109  27.719  1.00  0.00     0.029 A 
ATOM     54  N   UNL A   1      44.877  29.602  27.853  1.00  0.00    -0.354 N 
ATOM     55  N   UNL A   1      43.666  26.934  27.489  1.00  0.00    -0.248 NA
ATOM     56  C   UNL A   1      43.758  24.781  26.591  1.00  0.00     0.031 C 
ATOM     57  C   UNL A   1      46.920  29.948  27.060  1.00  0.00     0.029 A 
ATOM     58  C   UNL A   1      45.917  28.997  27.172  1.00  0.00     0.049 A 
ATOM     59  H   UNL A   1      44.018  29.173  28.071  1.00  0.00     0.167 HD
ATOM     60  C   UNL A   1      44.889  26.760  26.847  1.00  0.00     0.074 A 
ATOM     61  C   UNL A   1      44.902  25.404  26.340  1.00  0.00     0.031 C 
ATOM     62  C   UNL A   1      45.909  27.639  26.690  1.00  0.00     0.037 A 
BRANCH  49  63
ATOM     63  C   UNL A   1      44.831  33.231  29.101  1.00  0.00     0.057 A 
ATOM     64  C   UNL A   1      44.593  34.267  28.189  1.00  0.00     0.134 A 
ATOM     65  C   UNL A   1      45.547  33.550  30.264  1.00  0.00     0.134 A 
ATOM     66  F   UNL A   1      43.939  34.027  27.043  1.00  0.00    -0.206 F 
ATOM     67  C   UNL A   1      45.071  35.561  28.411  1.00  0.00     0.040 A 
ATOM     68  C   UNL A   1      46.002  34.845  30.511  1.00  0.00     0.040 A 
ATOM     69  F   UNL A   1      45.817  32.606  31.178  1.00  0.00    -0.206 F 
ATOM     70  C   UNL A   1      45.771  35.854  29.580  1.00  0.00     0.006 A 
ENDBRANCH  49  63
BRANCH  50  71
ATOM     71  C   UNL A   1      41.104  24.053  27.601  1.00  0.00     0.057 A 
ATOM     72  C   UNL A   1      41.579  22.913  28.263  1.00  0.00     0.134 A 
ATOM     73  C   UNL A   1      40.112  23.855  26.630  1.00  0.00     0.134 A 
ATOM     74  F   UNL A   1      42.553  23.022  29.178  1.00  0.00    -0.206 F 
ATOM     75  C   UNL A   1      41.100  21.633  27.965  1.00  0.00     0.040 A 
ATOM     76  C   UNL A   1      39.603  22.586  26.342  1.00  0.00     0.040 A 
ATOM     77  F   UNL A   1      39.618  24.897  25.945  1.00  0.00    -0.206 F 
ATOM     78  C   UNL A   1      40.102  21.469  27.007  1.00  0.00     0.006 A 
ENDBRANCH  50  71
BRANCH  62  79
ATOM     79  C   UNL A   1      47.148  27.150  25.994  1.00  0.00     0.057 A 
ATOM     80  C   UNL A   1      47.365  27.358  24.627  1.00  0.00     0.134 A 
ATOM     81  C   UNL A   1      48.164  26.517  26.722  1.00  0.00     0.134 A 
ATOM     82  F   UNL A   1      46.429  27.952  23.872  1.00  0.00    -0.206 F 
ATOM     83  C   UNL A   1      48.539  26.931  24.003  1.00  0.00     0.040 A 
ATOM     84  C   UNL A   1      49.355  26.116  26.117  1.00  0.00     0.040 A 
ATOM     85  F   UNL A   1      48.026  26.300  28.039  1.00  0.00    -0.206 F 
ATOM     86  C   UNL A   1      49.542  26.317  24.751  1.00  0.00     0.006 A 
ENDBRANCH  62  79
ENDBRANCH  36  37
ENDBRANCH  29  31
ENDBRANCH  28  29
ENDBRANCH  27  28
ENDBRANCH  26  27
ENDBRANCH   1  26
TORSDOF 18
ENDMDL
MODEL 2
REMARK VINA RESULT:     -13.6      4.244      9.676
REMARK SMILES CCC[C@@](C)(NC(=O)N1CCN(C)C(=O)C1(C)C)C(=O)OCCOCCOC(=O)c1ccc(-c2c3nc(c(-c4c(F)cccc4F)c4ccc([nH]4)c(-c4c(F)cccc4F)c4nc(c(-c5c(F)cccc5F)c5ccc2[nH]5)C=C4)C=C3)cc1
REMARK SMILES IDX 24 1 23 2 22 3 21 4 19 5 20 6 4 7 5 8 3 9 2 10 1 11 6 12
REMARK SMILES IDX 7 13 8 15 9 16 10 17 16 18 11 19 14 20 17 21 18 22 12 23
REMARK SMILES IDX 15 24 13 25 25 26 26 27 27 28 28 29 29 30 30 31 31 32 83 33
REMARK SMILES IDX 32 34 82 35 33 36 34 37 35 38 76 39 36 40 81 41 75 42 77 43
REMARK SMILES IDX 37 44 80 45 74 46 73 47 38 49 64 50 47 51 63 52 48 53 51 54
REMARK SMILES IDX 62 55 78 56 49 57 50 58 61 60 79 61 52 62 39 63 40 64 45 65
REMARK SMILES IDX 41 66 42 67 44 68 46 69 43 70 65 71 66 72 71 73 67 74 68 75
REMARK SMILES IDX 70 76 72 77 69 78 53 79 54 80 59 81 55 82 56 83 58 84 60 85
REMARK SMILES IDX 57 86
REMARK H PARENT 6 14 77 48 51 59
REMARK Flexibility Score: inf
ROOT
ATOM      1  O   UNL A   1      39.681  21.683  25.882  1.00  0.00    -0.374 OA
ENDROOT
BRANCH   1   2
ATOM      2  C   UNL A   1      38.452  23.173  26.252  1.00  0.00     0.202 C 
BRANCH   2   3
ATOM      3  C   UNL A   1      36.579  22.768  26.157  1.00  0.00     0.261 C 
BRANCH   3   4
ATOM      4  O   UNL A   1      35.840  22.334  24.632  1.00  0.00    -0.462 OA
BRANCH   4   5
ATOM      5  C   UNL A   1      35.204  22.903  23.436  1.00  0.00     0.331 C 
ATOM      6  O   UNL A   1      35.932  23.055  22.447  1.00  0.00    -0.249 OA
BRANCH   5   7
ATOM      7  C   UNL A   1      33.516  23.528  23.338  1.00  0.00     0.136 C 
ATOM      8  C   UNL A   1      32.920  22.551  22.200  1.00  0.00     0.047 C 
BRANCH   7   9
ATOM      9  C   UNL A   1      32.599  23.162  24.580  1.00  0.00     0.040 C 
BRANCH   9  10
ATOM     10  C   UNL A   1      32.075  21.714  24.761  1.00  0.00    -0.000 C 
ATOM     11  C   UNL A   1      32.838  20.871  25.766  1.00  0.00     0.004 C 
ENDBRANCH   9  10
ENDBRANCH   7   9
BRANCH   7  12
ATOM     12  N   UNL A   1      32.919  24.983  22.807  1.00  0.00    -0.322 N 
ATOM     13  C   UNL A   1      32.326  26.206  23.162  1.00  0.00     0.319 C 
ATOM     14  H   UNL A   1      33.027  24.993  21.829  1.00  0.00     0.166 HD
ATOM     15  O   UNL A   1      32.043  26.924  22.202  1.00  0.00    -0.249 OA
BRANCH  13  16
ATOM     16  N   UNL A   1      32.214  26.576  24.539  1.00  0.00    -0.309 N 
ATOM     17  C   UNL A   1      33.402  27.319  25.848  1.00  0.00     0.144 C 
ATOM     18  C   UNL A   1      30.769  27.178  24.551  1.00  0.00     0.118 C 
ATOM     19  C   UNL A   1      33.435  29.226  26.154  1.00  0.00     0.140 C 
ATOM     20  C   UNL A   1      30.858  29.287  24.492  1.00  0.00     0.247 C 
ATOM     21  C   UNL A   1      29.645  26.123  23.782  1.00  0.00     0.045 C 
ATOM     22  C   UNL A   1      30.401  25.962  25.899  1.00  0.00     0.045 C 
ATOM     23  N   UNL A   1      32.036  30.112  25.538  1.00  0.00    -0.342 N 
ATOM     24  O   UNL A   1      30.082  30.184  24.121  1.00  0.00    -0.272 OA
ATOM     25  C   UNL A   1      31.601  31.247  26.360  1.00  0.00     0.146 C 
ENDBRANCH  13  16
ENDBRANCH   7  12
ENDBRANCH   5   7
ENDBRANCH   4   5
ENDBRANCH   3   4
ENDBRANCH   2   3
ENDBRANCH   1   2
BRANCH   1  26
ATOM     26  C   UNL A   1      40.843  20.640  26.425  1.00  0.00     0.202 C 
BRANCH  26  27
ATOM     27  C   UNL A   1      42.599  20.696  26.289  1.00  0.00     0.261 C 
BRANCH  27  28
ATOM     28  O   UNL A   1      43.397  21.967  26.575  1.00  0.00    -0.460 OA
BRANCH  28  29
ATOM     29  C   UNL A   1      43.343  23.125  25.837  1.00  0.00     0.338 C 
ATOM     30  O   UNL A   1      43.444  23.174  24.618  1.00  0.00    -0.246 OA
BRANCH  29  31
ATOM     31  C   UNL A   1      42.693  24.269  26.610  1.00  0.00     0.060 A 
ATOM     32  C   UNL A   1      43.181  25.591  26.440  1.00  0.00     0.016 A 
ATOM     33  C   UNL A   1      41.638  24.090  27.498  1.00  0.00     0.016 A 
ATOM     34  C   UNL A   1      42.558  26.712  27.014  1.00  0.00     0.010 A 
ATOM     35  C   UNL A   1      41.120  25.198  28.213  1.00  0.00     0.010 A 
ATOM     36  C   UNL A   1      41.576  26.514  27.981  1.00  0.00    -0.014 A 
BRANCH  36  37
ATOM     37  C   UNL A   1      41.324  27.592  28.983  1.00  0.00     0.031 A 
ATOM     38  C   UNL A   1      42.158  27.551  30.242  1.00  0.00     0.074 A 
ATOM     39  C   UNL A   1      40.406  28.565  28.825  1.00  0.00     0.049 A 
ATOM     40  N   UNL A   1      42.025  28.209  31.363  1.00  0.00    -0.248 NA
ATOM     41  C   UNL A   1      43.305  26.626  30.228  1.00  0.00     0.031 C 
ATOM     42  C   UNL A   1      39.617  28.806  27.619  1.00  0.00     0.029 A 
ATOM     43  N   UNL A   1      39.964  29.525  29.709  1.00  0.00    -0.354 N 
ATOM     44  C   UNL A   1      43.041  27.747  32.193  1.00  0.00     0.074 A 
ATOM     45  C   UNL A   1      43.793  26.766  31.448  1.00  0.00     0.031 C 
ATOM     46  C   UNL A   1      38.749  29.808  27.857  1.00  0.00     0.029 A 
ATOM     47  C   UNL A   1      38.886  30.246  29.246  1.00  0.00     0.049 A 
ATOM     48  H   UNL A   1      40.379  29.680  30.588  1.00  0.00     0.167 HD
ATOM     49  C   UNL A   1      43.314  28.089  33.473  1.00  0.00     0.037 A 
ATOM     50  C   UNL A   1      38.075  31.113  29.890  1.00  0.00     0.037 A 
ATOM     51  C   UNL A   1      42.544  29.043  34.221  1.00  0.00     0.049 A 
ATOM     52  C   UNL A   1      38.326  31.405  31.353  1.00  0.00     0.074 A 
ATOM     53  C   UNL A   1      42.713  29.454  35.530  1.00  0.00     0.029 A 
ATOM     54  N   UNL A   1      41.446  29.726  33.721  1.00  0.00    -0.354 N 
ATOM     55  N   UNL A   1      39.272  30.947  32.140  1.00  0.00    -0.248 NA
ATOM     56  C   UNL A   1      37.394  32.328  32.020  1.00  0.00     0.031 C 
ATOM     57  C   UNL A   1      41.681  30.342  35.840  1.00  0.00     0.029 A 
ATOM     58  C   UNL A   1      40.911  30.539  34.704  1.00  0.00     0.049 A 
ATOM     59  H   UNL A   1      41.098  29.643  32.803  1.00  0.00     0.167 HD
ATOM     60  C   UNL A   1      39.069  31.548  33.379  1.00  0.00     0.074 A 
ATOM     61  C   UNL A   1      37.916  32.413  33.236  1.00  0.00     0.031 C 
ATOM     62  C   UNL A   1      39.769  31.401  34.530  1.00  0.00     0.037 A 
BRANCH  49  63
ATOM     63  C   UNL A   1      44.445  27.370  34.155  1.00  0.00     0.057 A 
ATOM     64  C   UNL A   1      45.751  27.876  34.174  1.00  0.00     0.134 A 
ATOM     65  C   UNL A   1      44.220  26.144  34.797  1.00  0.00     0.134 A 
ATOM     66  F   UNL A   1      46.042  29.030  33.556  1.00  0.00    -0.206 F 
ATOM     67  C   UNL A   1      46.796  27.178  34.784  1.00  0.00     0.040 A 
ATOM     68  C   UNL A   1      45.250  25.453  35.435  1.00  0.00     0.040 A 
ATOM     69  F   UNL A   1      42.996  25.597  34.812  1.00  0.00    -0.206 F 
ATOM     70  C   UNL A   1      46.545  25.966  35.424  1.00  0.00     0.006 A 
ENDBRANCH  49  63
BRANCH  50  71
ATOM     71  C   UNL A   1      36.914  31.732  29.190  1.00  0.00     0.057 A 
ATOM     72  C   UNL A   1      36.958  33.054  28.729  1.00  0.00     0.134 A 
ATOM     73  C   UNL A   1      35.714  31.033  28.998  1.00  0.00     0.134 A 
ATOM     74  F   UNL A   1      38.061  33.795  28.911  1.00  0.00    -0.206 F 
ATOM     75  C   UNL A   1      35.856  33.659  28.116  1.00  0.00     0.040 A 
ATOM     76  C   UNL A   1      34.615  31.614  28.361  1.00  0.00     0.040 A 
ATOM     77  F   UNL A   1      35.592  29.767  29.425  1.00  0.00    -0.206 F 
ATOM     78  C   UNL A   1      34.682  32.934  27.924  1.00  0.00     0.006 A 
ENDBRANCH  50  71
BRANCH  62  79
ATOM     79  C   UNL A   1      39.351  32.231  35.710  1.00  0.00     0.057 A 
ATOM     80  C   UNL A   1      38.459  31.755  36.678  1.00  0.00     0.134 A 
ATOM     81  C   UNL A   1      39.901  33.505  35.910  1.00  0.00     0.134 A 
ATOM     82  F   UNL A   1      37.891  30.547  36.543  1.00  0.00    -0.206 F 
ATOM     83  C   UNL A   1      38.110  32.525  37.789  1.00  0.00     0.040 A 
ATOM     84  C   UNL A   1      39.587  34.270  37.032  1.00  0.00     0.040 A 
ATOM     85  F   UNL A   1      40.775  34.015  35.028  1.00  0.00    -0.206 F 
ATOM     86  C   UNL A   1      38.682  33.783  37.973  1.00  0.00     0.006 A 
ENDBRANCH  62  79
ENDBRANCH  36  37
ENDBRANCH  29  31
ENDBRANCH  28  29
ENDBRANCH  27  28
ENDBRANCH  26  27
ENDBRANCH   1  26
TORSDOF 18
ENDMDL
MODEL 3
REMARK VINA RESULT:     -13.4      4.099      7.989
REMARK SMILES CCC[C@@](C)(NC(=O)N1CCN(C)C(=O)C1(C)C)C(=O)OCCOCCOC(=O)c1ccc(-c2c3nc(c(-c4c(F)cccc4F)c4ccc([nH]4)c(-c4c(F)cccc4F)c4nc(c(-c5c(F)cccc5F)c5ccc2[nH]5)C=C4)C=C3)cc1
REMARK SMILES IDX 24 1 23 2 22 3 21 4 19 5 20 6 4 7 5 8 3 9 2 10 1 11 6 12
REMARK SMILES IDX 7 13 8 15 9 16 10 17 16 18 11 19 14 20 17 21 18 22 12 23
REMARK SMILES IDX 15 24 13 25 25 26 26 27 27 28 28 29 29 30 30 31 31 32 83 33
REMARK SMILES IDX 32 34 82 35 33 36 34 37 35 38 76 39 36 40 81 41 75 42 77 43
REMARK SMILES IDX 37 44 80 45 74 46 73 47 38 49 64 50 47 51 63 52 48 53 51 54
REMARK SMILES IDX 62 55 78 56 49 57 50 58 61 60 79 61 52 62 39 63 40 64 45 65
REMARK SMILES IDX 41 66 42 67 44 68 46 69 43 70 65 71 66 72 71 73 67 74 68 75
REMARK SMILES IDX 70 76 72 77 69 78 53 79 54 80 59 81 55 82 56 83 58 84 60 85
REMARK SMILES IDX 57 86
REMARK H PARENT 6 14 77 48 51 59
REMARK Flexibility Score: inf
ROOT
ATOM      1  O   UNL A   1      31.228  30.886  25.396  1.00  0.00    -0.374 OA
ENDROOT
BRANCH   1   2
ATOM      2  C   UNL A   1      30.240  29.980  23.958  1.00  0.00     0.202 C 
BRANCH   2   3
ATOM      3  C   UNL A   1      31.289  29.340  22.485  1.00  0.00     0.261 C 
BRANCH   3   4
ATOM      4  O   UNL A   1      31.410  27.626  22.159  1.00  0.00    -0.462 OA
BRANCH   4   5
ATOM      5  C   UNL A   1      31.715  26.334  22.789  1.00  0.00     0.331 C 
ATOM      6  O   UNL A   1      31.334  25.324  22.181  1.00  0.00    -0.249 OA
BRANCH   5   7
ATOM      7  C   UNL A   1      32.452  26.102  24.416  1.00  0.00     0.136 C 
ATOM      8  C   UNL A   1      34.017  26.190  24.033  1.00  0.00     0.047 C 
BRANCH   7   9
ATOM      9  C   UNL A   1      32.297  27.340  25.397  1.00  0.00     0.040 C 
BRANCH   9  10
ATOM     10  C   UNL A   1      31.303  27.274  26.585  1.00  0.00    -0.000 C 
ATOM     11  C   UNL A   1      31.608  28.211  27.738  1.00  0.00     0.004 C 
ENDBRANCH   9  10
ENDBRANCH   7   9
BRANCH   7  12
ATOM     12  N   UNL A   1      32.478  24.785  25.427  1.00  0.00    -0.322 N 
ATOM     13  C   UNL A   1      32.831  23.434  25.583  1.00  0.00     0.319 C 
ATOM     14  H   UNL A   1      32.074  25.073  26.277  1.00  0.00     0.166 HD
ATOM     15  O   UNL A   1      32.506  22.952  26.668  1.00  0.00    -0.249 OA
BRANCH  13  16
ATOM     16  N   UNL A   1      33.618  22.779  24.584  1.00  0.00    -0.309 N 
ATOM     17  C   UNL A   1      35.428  22.158  24.468  1.00  0.00     0.144 C 
ATOM     18  C   UNL A   1      32.552  21.799  23.986  1.00  0.00     0.118 C 
ATOM     19  C   UNL A   1      35.850  20.320  24.883  1.00  0.00     0.140 C 
ATOM     20  C   UNL A   1      32.819  19.861  24.779  1.00  0.00     0.247 C 
ATOM     21  C   UNL A   1      31.084  22.622  23.617  1.00  0.00     0.045 C 
ATOM     22  C   UNL A   1      32.944  22.563  22.345  1.00  0.00     0.045 C 
ATOM     23  N   UNL A   1      34.472  19.214  24.887  1.00  0.00    -0.342 N 
ATOM     24  O   UNL A   1      32.082  18.873  24.939  1.00  0.00    -0.272 OA
ATOM     25  C   UNL A   1      34.751  17.861  24.393  1.00  0.00     0.146 C 
ENDBRANCH  13  16
ENDBRANCH   7  12
ENDBRANCH   5   7
ENDBRANCH   4   5
ENDBRANCH   3   4
ENDBRANCH   2   3
ENDBRANCH   1   2
BRANCH   1  26
ATOM     26  C   UNL A   1      31.224  31.942  26.669  1.00  0.00     0.202 C 
BRANCH  26  27
ATOM     27  C   UNL A   1      32.486  32.998  27.297  1.00  0.00     0.261 C 
BRANCH  27  28
ATOM     28  O   UNL A   1      32.190  34.409  27.803  1.00  0.00    -0.460 OA
BRANCH  28  29
ATOM     29  C   UNL A   1      32.938  35.098  28.727  1.00  0.00     0.338 C 
ATOM     30  O   UNL A   1      32.501  35.984  29.450  1.00  0.00    -0.246 OA
BRANCH  29  31
ATOM     31  C   UNL A   1      34.223  34.358  29.093  1.00  0.00     0.060 A 
ATOM     32  C   UNL A   1      34.225  33.475  30.204  1.00  0.00     0.016 A 
ATOM     33  C   UNL A   1      35.417  34.509  28.399  1.00  0.00     0.016 A 
ATOM     34  C   UNL A   1      35.324  32.663  30.529  1.00  0.00     0.010 A 
ATOM     35  C   UNL A   1      36.578  33.823  28.832  1.00  0.00     0.010 A 
ATOM     36  C   UNL A   1      36.543  32.899  29.899  1.00  0.00    -0.014 A 
BRANCH  36  37
ATOM     37  C   UNL A   1      37.802  32.490  30.591  1.00  0.00     0.031 A 
ATOM     38  C   UNL A   1      38.533  31.301  30.012  1.00  0.00     0.074 A 
ATOM     39  C   UNL A   1      38.296  33.109  31.681  1.00  0.00     0.049 A 
ATOM     40  N   UNL A   1      39.515  30.593  30.506  1.00  0.00    -0.248 NA
ATOM     41  C   UNL A   1      38.081  30.847  28.685  1.00  0.00     0.031 C 
ATOM     42  C   UNL A   1      37.773  34.336  32.276  1.00  0.00     0.029 A 
ATOM     43  N   UNL A   1      39.347  32.762  32.501  1.00  0.00    -0.354 N 
ATOM     44  C   UNL A   1      39.764  29.594  29.571  1.00  0.00     0.074 A 
ATOM     45  C   UNL A   1      38.846  29.790  28.475  1.00  0.00     0.031 C 
ATOM     46  C   UNL A   1      38.467  34.609  33.397  1.00  0.00     0.029 A 
ATOM     47  C   UNL A   1      39.451  33.551  33.626  1.00  0.00     0.049 A 
ATOM     48  H   UNL A   1      39.964  32.022  32.304  1.00  0.00     0.167 HD
ATOM     49  C   UNL A   1      40.662  28.584  29.627  1.00  0.00     0.037 A 
ATOM     50  C   UNL A   1      40.212  33.398  34.731  1.00  0.00     0.037 A 
ATOM     51  C   UNL A   1      41.553  28.374  30.733  1.00  0.00     0.049 A 
ATOM     52  C   UNL A   1      41.135  32.204  34.828  1.00  0.00     0.074 A 
ATOM     53  C   UNL A   1      42.490  27.373  30.911  1.00  0.00     0.029 A 
ATOM     54  N   UNL A   1      41.603  29.180  31.861  1.00  0.00    -0.354 N 
ATOM     55  N   UNL A   1      41.349  31.247  33.953  1.00  0.00    -0.248 NA
ATOM     56  C   UNL A   1      41.916  32.061  36.066  1.00  0.00     0.031 C 
ATOM     57  C   UNL A   1      43.067  27.541  32.172  1.00  0.00     0.029 A 
ATOM     58  C   UNL A   1      42.539  28.686  32.751  1.00  0.00     0.049 A 
ATOM     59  H   UNL A   1      41.053  29.984  32.007  1.00  0.00     0.167 HD
ATOM     60  C   UNL A   1      42.308  30.413  34.520  1.00  0.00     0.074 A 
ATOM     61  C   UNL A   1      42.643  30.981  35.809  1.00  0.00     0.031 C 
ATOM     62  C   UNL A   1      42.863  29.281  34.023  1.00  0.00     0.037 A 
BRANCH  49  63
ATOM     63  C   UNL A   1      40.665  27.597  28.493  1.00  0.00     0.057 A 
ATOM     64  C   UNL A   1      39.866  26.446  28.499  1.00  0.00     0.134 A 
ATOM     65  C   UNL A   1      41.489  27.802  27.377  1.00  0.00     0.134 A 
ATOM     66  F   UNL A   1      39.075  26.174  29.547  1.00  0.00    -0.206 F 
ATOM     67  C   UNL A   1      39.906  25.523  27.451  1.00  0.00     0.040 A 
ATOM     68  C   UNL A   1      41.515  26.903  26.311  1.00  0.00     0.040 A 
ATOM     69  F   UNL A   1      42.285  28.879  27.306  1.00  0.00    -0.206 F 
ATOM     70  C   UNL A   1      40.727  25.755  26.349  1.00  0.00     0.006 A 
ENDBRANCH  49  63
BRANCH  50  71
ATOM     71  C   UNL A   1      40.107  34.358  35.866  1.00  0.00     0.057 A 
ATOM     72  C   UNL A   1      40.867  35.535  35.902  1.00  0.00     0.134 A 
ATOM     73  C   UNL A   1      39.273  34.108  36.965  1.00  0.00     0.134 A 
ATOM     74  F   UNL A   1      41.713  35.821  34.902  1.00  0.00    -0.206 F 
ATOM     75  C   UNL A   1      40.812  36.416  36.987  1.00  0.00     0.040 A 
ATOM     76  C   UNL A   1      39.185  34.993  38.042  1.00  0.00     0.040 A 
ATOM     77  F   UNL A   1      38.525  32.995  37.007  1.00  0.00    -0.206 F 
ATOM     78  C   UNL A   1      39.961  36.149  38.057  1.00  0.00     0.006 A 
ENDBRANCH  50  71
BRANCH  62  79
ATOM     79  C   UNL A   1      43.930  28.611  34.841  1.00  0.00     0.057 A 
ATOM     80  C   UNL A   1      45.287  28.923  34.696  1.00  0.00     0.134 A 
ATOM     81  C   UNL A   1      43.583  27.684  35.833  1.00  0.00     0.134 A 
ATOM     82  F   UNL A   1      45.688  29.797  33.760  1.00  0.00    -0.206 F 
ATOM     83  C   UNL A   1      46.263  28.319  35.491  1.00  0.00     0.040 A 
ATOM     84  C   UNL A   1      44.545  27.099  36.656  1.00  0.00     0.040 A 
ATOM     85  F   UNL A   1      42.298  27.351  36.035  1.00  0.00    -0.206 F 
ATOM     86  C   UNL A   1      45.891  27.411  36.481  1.00  0.00     0.006 A 
ENDBRANCH  62  79
ENDBRANCH  36  37
ENDBRANCH  29  31
ENDBRANCH  28  29
ENDBRANCH  27  28
ENDBRANCH  26  27
ENDBRANCH   1  26
TORSDOF 18
ENDMDL
