MODEL 1
REMARK VINA RESULT:     -11.3      0.000      0.000
REMARK SMILES CC1(C)[C@H](C(=O)Nc2ccc(C(F)(F)F)nc2)[C@@H]1C(=O)OCCOCCOC(=O)c1ccc(-c2c3nc(c(-c4c(F)cccc4F)c4ccc([nH]4)c(-c4c(F)cccc4F)c4nc(c(-c5c(F)cccc5F)c5ccc2[nH]5)C=C4)C=C3)cc1
REMARK SMILES IDX 23 1 22 2 21 3 19 4 20 5 18 6 1 7 2 8 3 9 4 10 5 11 6 12
REMARK SMILES IDX 7 13 8 15 9 16 17 17 10 18 16 19 11 20 12 21 13 22 14 23
REMARK SMILES IDX 15 24 24 25 25 26 26 27 27 28 28 29 29 30 30 31 31 32 83 33
REMARK SMILES IDX 32 34 82 35 33 36 34 37 35 38 76 39 36 40 81 41 75 42 77 43
REMARK SMILES IDX 37 44 80 45 74 46 73 47 38 49 64 50 47 51 63 52 48 53 51 54
REMARK SMILES IDX 62 55 78 56 49 57 50 58 61 60 79 61 52 62 39 63 40 64 45 65
REMARK SMILES IDX 41 66 42 67 44 68 46 69 43 70 65 71 66 72 71 73 67 74 68 75
REMARK SMILES IDX 70 76 72 77 69 78 53 79 54 80 59 81 55 82 56 83 58 84 60 85
REMARK SMILES IDX 57 86
REMARK H PARENT 7 14 77 48 51 59
REMARK Flexibility Score: inf
ROOT
ATOM      1  C   UNL A   1      39.664  21.458  26.209  1.00  0.00     0.202 C 
ENDROOT
BRANCH   1   2
ATOM      2  C   UNL A   1      38.393  21.159  25.413  1.00  0.00     0.261 C 
BRANCH   2   3
ATOM      3  O   UNL A   1      37.364  22.156  25.519  1.00  0.00    -0.463 OA
BRANCH   3   4
ATOM      4  C   UNL A   1      36.088  21.677  25.482  1.00  0.00     0.310 C 
ATOM      5  O   UNL A   1      35.760  20.544  25.141  1.00  0.00    -0.252 OA
BRANCH   4   6
ATOM      6  C   UNL A   1      35.139  22.622  26.102  1.00  0.00     0.118 C 
ATOM      7  C   UNL A   1      32.816  22.805  27.249  1.00  0.00     0.013 C 
ATOM      8  C   UNL A   1      33.613  22.542  25.989  1.00  0.00    -0.009 C 
ATOM      9  C   UNL A   1      32.933  21.517  25.121  1.00  0.00     0.013 C 
ATOM     10  C   UNL A   1      34.394  23.723  25.405  1.00  0.00     0.100 C 
BRANCH  10  11
ATOM     11  C   UNL A   1      34.381  24.163  23.974  1.00  0.00     0.228 C 
ATOM     12  O   UNL A   1      35.255  23.713  23.236  1.00  0.00    -0.274 OA
ATOM     13  N   UNL A   1      33.244  24.716  23.434  1.00  0.00    -0.324 N 
ATOM     14  H   UNL A   1      32.683  24.131  22.876  1.00  0.00     0.169 HD
BRANCH  13  15
ATOM     15  C   UNL A   1      32.814  26.039  23.605  1.00  0.00     0.059 A 
ATOM     16  C   UNL A   1      33.673  27.118  23.482  1.00  0.00     0.030 A 
ATOM     17  C   UNL A   1      31.509  26.307  23.986  1.00  0.00     0.137 A 
ATOM     18  C   UNL A   1      33.305  28.355  24.002  1.00  0.00     0.035 A 
ATOM     19  N   UNL A   1      31.112  27.498  24.494  1.00  0.00    -0.250 NA
ATOM     20  C   UNL A   1      32.052  28.487  24.594  1.00  0.00     0.144 A 
BRANCH  20  21
ATOM     21  C   UNL A   1      31.769  29.710  25.461  1.00  0.00     0.433 C 
ATOM     22  F   UNL A   1      30.733  30.466  24.999  1.00  0.00    -0.165 F 
ATOM     23  F   UNL A   1      31.456  29.386  26.751  1.00  0.00    -0.165 F 
ATOM     24  F   UNL A   1      32.833  30.564  25.553  1.00  0.00    -0.165 F 
ENDBRANCH  20  21
ENDBRANCH  13  15
ENDBRANCH  10  11
ENDBRANCH   4   6
ENDBRANCH   3   4
ENDBRANCH   2   3
ENDBRANCH   1   2
BRANCH   1  25
ATOM     25  O   UNL A   1      40.712  20.501  26.167  1.00  0.00    -0.374 OA
BRANCH  25  26
ATOM     26  C   UNL A   1      41.980  20.864  26.706  1.00  0.00     0.202 C 
BRANCH  26  27
ATOM     27  C   UNL A   1      43.024  21.447  25.747  1.00  0.00     0.261 C 
BRANCH  27  28
ATOM     28  O   UNL A   1      42.556  22.617  25.046  1.00  0.00    -0.460 OA
BRANCH  28  29
ATOM     29  C   UNL A   1      43.384  23.689  25.121  1.00  0.00     0.338 C 
ATOM     30  O   UNL A   1      44.433  23.862  24.522  1.00  0.00    -0.246 OA
BRANCH  29  31
ATOM     31  C   UNL A   1      42.778  24.744  25.948  1.00  0.00     0.060 A 
ATOM     32  C   UNL A   1      43.453  25.967  26.066  1.00  0.00     0.016 A 
ATOM     33  C   UNL A   1      41.644  24.480  26.716  1.00  0.00     0.016 A 
ATOM     34  C   UNL A   1      43.012  26.921  26.981  1.00  0.00     0.010 A 
ATOM     35  C   UNL A   1      41.210  25.434  27.641  1.00  0.00     0.010 A 
ATOM     36  C   UNL A   1      41.910  26.644  27.800  1.00  0.00    -0.014 A 
BRANCH  36  37
ATOM     37  C   UNL A   1      41.558  27.560  28.911  1.00  0.00     0.031 A 
ATOM     38  C   UNL A   1      42.340  27.497  30.193  1.00  0.00     0.074 A 
ATOM     39  C   UNL A   1      40.548  28.437  28.778  1.00  0.00     0.049 A 
ATOM     40  N   UNL A   1      42.143  28.134  31.318  1.00  0.00    -0.248 NA
ATOM     41  C   UNL A   1      43.499  26.589  30.207  1.00  0.00     0.031 C 
ATOM     42  C   UNL A   1      39.748  28.626  27.570  1.00  0.00     0.029 A 
ATOM     43  N   UNL A   1      40.014  29.322  29.680  1.00  0.00    -0.354 N 
ATOM     44  C   UNL A   1      43.146  27.702  32.178  1.00  0.00     0.074 A 
ATOM     45  C   UNL A   1      43.935  26.729  31.452  1.00  0.00     0.031 C 
ATOM     46  C   UNL A   1      38.810  29.557  27.812  1.00  0.00     0.029 A 
ATOM     47  C   UNL A   1      38.920  29.998  29.201  1.00  0.00     0.049 A 
ATOM     48  H   UNL A   1      40.380  29.459  30.584  1.00  0.00     0.167 HD
ATOM     49  C   UNL A   1      43.388  28.085  33.454  1.00  0.00     0.037 A 
ATOM     50  C   UNL A   1      38.084  30.850  29.823  1.00  0.00     0.037 A 
ATOM     51  C   UNL A   1      42.599  29.052  34.173  1.00  0.00     0.049 A 
ATOM     52  C   UNL A   1      38.318  31.190  31.270  1.00  0.00     0.074 A 
ATOM     53  C   UNL A   1      42.779  29.527  35.460  1.00  0.00     0.029 A 
ATOM     54  N   UNL A   1      41.472  29.682  33.667  1.00  0.00    -0.354 N 
ATOM     55  N   UNL A   1      39.278  30.792  32.070  1.00  0.00    -0.248 NA
ATOM     56  C   UNL A   1      37.346  32.093  31.905  1.00  0.00     0.031 C 
ATOM     57  C   UNL A   1      41.731  30.406  35.752  1.00  0.00     0.029 A 
ATOM     58  C   UNL A   1      40.925  30.515  34.629  1.00  0.00     0.049 A 
ATOM     59  H   UNL A   1      41.113  29.555  32.760  1.00  0.00     0.167 HD
ATOM     60  C   UNL A   1      39.038  31.409  33.292  1.00  0.00     0.074 A 
ATOM     61  C   UNL A   1      37.851  32.221  33.124  1.00  0.00     0.031 C 
ATOM     62  C   UNL A   1      39.739  31.312  34.449  1.00  0.00     0.037 A 
BRANCH  49  63
ATOM     63  C   UNL A   1      44.537  27.435  34.164  1.00  0.00     0.057 A 
ATOM     64  C   UNL A   1      44.414  26.187  34.788  1.00  0.00     0.134 A 
ATOM     65  C   UNL A   1      45.794  28.053  34.202  1.00  0.00     0.134 A 
ATOM     66  F   UNL A   1      43.235  25.547  34.801  1.00  0.00    -0.206 F 
ATOM     67  C   UNL A   1      45.492  25.588  35.442  1.00  0.00     0.040 A 
ATOM     68  C   UNL A   1      46.885  27.454  34.832  1.00  0.00     0.040 A 
ATOM     69  F   UNL A   1      45.981  29.249  33.621  1.00  0.00    -0.206 F 
ATOM     70  C   UNL A   1      46.735  26.220  35.459  1.00  0.00     0.006 A 
ENDBRANCH  49  63
BRANCH  50  71
ATOM     71  C   UNL A   1      36.926  31.421  29.090  1.00  0.00     0.057 A 
ATOM     72  C   UNL A   1      36.944  32.739  28.622  1.00  0.00     0.134 A 
ATOM     73  C   UNL A   1      35.771  30.665  28.853  1.00  0.00     0.134 A 
ATOM     74  F   UNL A   1      38.013  33.518  28.841  1.00  0.00    -0.206 F 
ATOM     75  C   UNL A   1      35.849  33.291  27.956  1.00  0.00     0.040 A 
ATOM     76  C   UNL A   1      34.678  31.198  28.167  1.00  0.00     0.040 A 
ATOM     77  F   UNL A   1      35.693  29.395  29.275  1.00  0.00    -0.206 F 
ATOM     78  C   UNL A   1      34.713  32.517  27.721  1.00  0.00     0.006 A 
ENDBRANCH  50  71
BRANCH  62  79
ATOM     79  C   UNL A   1      39.246  32.114  35.618  1.00  0.00     0.057 A 
ATOM     80  C   UNL A   1      38.396  31.562  36.585  1.00  0.00     0.134 A 
ATOM     81  C   UNL A   1      39.659  33.440  35.801  1.00  0.00     0.134 A 
ATOM     82  F   UNL A   1      37.953  30.302  36.460  1.00  0.00    -0.206 F 
ATOM     83  C   UNL A   1      37.959  32.307  37.681  1.00  0.00     0.040 A 
ATOM     84  C   UNL A   1      39.249  34.186  36.907  1.00  0.00     0.040 A 
ATOM     85  F   UNL A   1      40.480  34.026  34.916  1.00  0.00    -0.206 F 
ATOM     86  C   UNL A   1      38.392  33.621  37.848  1.00  0.00     0.006 A 
ENDBRANCH  62  79
ENDBRANCH  36  37
ENDBRANCH  29  31
ENDBRANCH  28  29
ENDBRANCH  27  28
ENDBRANCH  26  27
ENDBRANCH  25  26
ENDBRANCH   1  25
TORSDOF 17
ENDMDL
MODEL 2
REMARK VINA RESULT:     -11.0      3.853      8.549
REMARK SMILES CC1(C)[C@H](C(=O)Nc2ccc(C(F)(F)F)nc2)[C@@H]1C(=O)OCCOCCOC(=O)c1ccc(-c2c3nc(c(-c4c(F)cccc4F)c4ccc([nH]4)c(-c4c(F)cccc4F)c4nc(c(-c5c(F)cccc5F)c5ccc2[nH]5)C=C4)C=C3)cc1
REMARK SMILES IDX 23 1 22 2 21 3 19 4 20 5 18 6 1 7 2 8 3 9 4 10 5 11 6 12
REMARK SMILES IDX 7 13 8 15 9 16 17 17 10 18 16 19 11 20 12 21 13 22 14 23
REMARK SMILES IDX 15 24 24 25 25 26 26 27 27 28 28 29 29 30 30 31 31 32 83 33
REMARK SMILES IDX 32 34 82 35 33 36 34 37 35 38 76 39 36 40 81 41 75 42 77 43
REMARK SMILES IDX 37 44 80 45 74 46 73 47 38 49 64 50 47 51 63 52 48 53 51 54
REMARK SMILES IDX 62 55 78 56 49 57 50 58 61 60 79 61 52 62 39 63 40 64 45 65
REMARK SMILES IDX 41 66 42 67 44 68 46 69 43 70 65 71 66 72 71 73 67 74 68 75
REMARK SMILES IDX 70 76 72 77 69 78 53 79 54 80 59 81 55 82 56 83 58 84 60 85
REMARK SMILES IDX 57 86
REMARK H PARENT 7 14 77 48 51 59
REMARK Flexibility Score: inf
ROOT
ATOM      1  C   UNL A   1      32.104  29.279  26.821  1.00  0.00     0.202 C 
ENDROOT
BRANCH   1   2
ATOM      2  C   UNL A   1      31.825  28.342  25.645  1.00  0.00     0.261 C 
BRANCH   2   3
ATOM      3  O   UNL A   1      32.087  26.953  25.904  1.00  0.00    -0.463 OA
BRANCH   3   4
ATOM      4  C   UNL A   1      32.985  26.368  25.063  1.00  0.00     0.310 C 
ATOM      5  O   UNL A   1      33.246  26.741  23.922  1.00  0.00    -0.252 OA
BRANCH   4   6
ATOM      6  C   UNL A   1      33.778  25.333  25.756  1.00  0.00     0.118 C 
ATOM      7  C   UNL A   1      36.053  24.080  25.740  1.00  0.00     0.013 C 
ATOM      8  C   UNL A   1      34.719  24.336  25.072  1.00  0.00    -0.009 C 
ATOM      9  C   UNL A   1      34.839  24.256  23.573  1.00  0.00     0.013 C 
ATOM     10  C   UNL A   1      33.468  23.867  25.821  1.00  0.00     0.100 C 
BRANCH  10  11
ATOM     11  C   UNL A   1      32.347  23.061  25.240  1.00  0.00     0.228 C 
ATOM     12  O   UNL A   1      31.216  23.538  25.302  1.00  0.00    -0.274 OA
ATOM     13  N   UNL A   1      32.616  22.048  24.351  1.00  0.00    -0.324 N 
ATOM     14  H   UNL A   1      32.482  22.242  23.395  1.00  0.00     0.169 HD
BRANCH  13  15
ATOM     15  C   UNL A   1      33.062  20.761  24.685  1.00  0.00     0.059 A 
ATOM     16  C   UNL A   1      34.400  20.408  24.639  1.00  0.00     0.030 A 
ATOM     17  C   UNL A   1      32.153  19.765  25.002  1.00  0.00     0.137 A 
ATOM     18  C   UNL A   1      34.757  19.063  24.625  1.00  0.00     0.035 A 
ATOM     19  N   UNL A   1      32.462  18.447  25.001  1.00  0.00    -0.250 NA
ATOM     20  C   UNL A   1      33.754  18.102  24.706  1.00  0.00     0.144 A 
BRANCH  20  21
ATOM     21  C   UNL A   1      34.083  16.655  24.349  1.00  0.00     0.433 C 
ATOM     22  F   UNL A   1      33.094  15.781  24.688  1.00  0.00    -0.165 F 
ATOM     23  F   UNL A   1      34.308  16.475  23.014  1.00  0.00    -0.165 F 
ATOM     24  F   UNL A   1      35.210  16.190  24.970  1.00  0.00    -0.165 F 
ENDBRANCH  20  21
ENDBRANCH  13  15
ENDBRANCH  10  11
ENDBRANCH   4   6
ENDBRANCH   3   4
ENDBRANCH   2   3
ENDBRANCH   1   2
BRANCH   1  25
ATOM     25  O   UNL A   1      32.445  30.626  26.528  1.00  0.00    -0.374 OA
BRANCH  25  26
ATOM     26  C   UNL A   1      31.403  31.597  26.501  1.00  0.00     0.202 C 
BRANCH  26  27
ATOM     27  C   UNL A   1      31.789  33.068  26.693  1.00  0.00     0.261 C 
BRANCH  27  28
ATOM     28  O   UNL A   1      32.285  33.353  28.016  1.00  0.00    -0.460 OA
BRANCH  28  29
ATOM     29  C   UNL A   1      33.409  34.111  28.047  1.00  0.00     0.338 C 
ATOM     30  O   UNL A   1      33.491  35.325  27.953  1.00  0.00    -0.246 OA
BRANCH  29  31
ATOM     31  C   UNL A   1      34.580  33.277  28.360  1.00  0.00     0.060 A 
ATOM     32  C   UNL A   1      34.363  31.959  28.784  1.00  0.00     0.016 A 
ATOM     33  C   UNL A   1      35.860  33.830  28.382  1.00  0.00     0.016 A 
ATOM     34  C   UNL A   1      35.427  31.198  29.265  1.00  0.00     0.010 A 
ATOM     35  C   UNL A   1      36.923  33.069  28.875  1.00  0.00     0.010 A 
ATOM     36  C   UNL A   1      36.707  31.762  29.347  1.00  0.00    -0.014 A 
BRANCH  36  37
ATOM     37  C   UNL A   1      37.797  31.037  30.041  1.00  0.00     0.031 A 
ATOM     38  C   UNL A   1      38.076  31.337  31.488  1.00  0.00     0.074 A 
ATOM     39  C   UNL A   1      38.534  30.123  29.386  1.00  0.00     0.049 A 
ATOM     40  N   UNL A   1      39.036  30.894  32.257  1.00  0.00    -0.248 NA
ATOM     41  C   UNL A   1      37.148  32.265  32.154  1.00  0.00     0.031 C 
ATOM     42  C   UNL A   1      38.329  29.711  28.000  1.00  0.00     0.029 A 
ATOM     43  N   UNL A   1      39.616  29.389  29.802  1.00  0.00    -0.354 N 
ATOM     44  C   UNL A   1      38.836  31.492  33.495  1.00  0.00     0.074 A 
ATOM     45  C   UNL A   1      37.676  32.349  33.367  1.00  0.00     0.031 C 
ATOM     46  C   UNL A   1      39.270  28.809  27.671  1.00  0.00     0.029 A 
ATOM     47  C   UNL A   1      40.163  28.612  28.811  1.00  0.00     0.049 A 
ATOM     48  H   UNL A   1      39.966  29.417  30.722  1.00  0.00     0.167 HD
ATOM     49  C   UNL A   1      39.550  31.337  34.635  1.00  0.00     0.037 A 
ATOM     50  C   UNL A   1      41.276  27.855  28.816  1.00  0.00     0.037 A 
ATOM     51  C   UNL A   1      40.704  30.484  34.757  1.00  0.00     0.049 A 
ATOM     52  C   UNL A   1      42.107  27.771  30.068  1.00  0.00     0.074 A 
ATOM     53  C   UNL A   1      41.480  30.238  35.876  1.00  0.00     0.029 A 
ATOM     54  N   UNL A   1      41.253  29.747  33.719  1.00  0.00    -0.354 N 
ATOM     55  N   UNL A   1      41.900  28.324  31.238  1.00  0.00    -0.248 NA
ATOM     56  C   UNL A   1      43.333  26.962  29.996  1.00  0.00     0.031 C 
ATOM     57  C   UNL A   1      42.530  29.392  35.503  1.00  0.00     0.029 A 
ATOM     58  C   UNL A   1      42.380  29.074  34.163  1.00  0.00     0.049 A 
ATOM     59  H   UNL A   1      40.896  29.709  32.803  1.00  0.00     0.167 HD
ATOM     60  C   UNL A   1      42.954  27.916  32.046  1.00  0.00     0.074 A 
ATOM     61  C   UNL A   1      43.792  27.055  31.237  1.00  0.00     0.031 C 
ATOM     62  C   UNL A   1      43.207  28.226  33.342  1.00  0.00     0.037 A 
BRANCH  49  63
ATOM     63  C   UNL A   1      39.120  32.128  35.834  1.00  0.00     0.057 A 
ATOM     64  C   UNL A   1      38.269  31.593  36.810  1.00  0.00     0.134 A 
ATOM     65  C   UNL A   1      39.584  33.436  36.029  1.00  0.00     0.134 A 
ATOM     66  F   UNL A   1      37.778  30.352  36.677  1.00  0.00    -0.206 F 
ATOM     67  C   UNL A   1      37.879  32.337  37.925  1.00  0.00     0.040 A 
ATOM     68  C   UNL A   1      39.220  34.181  37.151  1.00  0.00     0.040 A 
ATOM     69  F   UNL A   1      40.404  34.007  35.133  1.00  0.00    -0.206 F 
ATOM     70  C   UNL A   1      38.360  33.634  38.100  1.00  0.00     0.006 A 
ENDBRANCH  49  63
BRANCH  50  71
ATOM     71  C   UNL A   1      41.690  27.137  27.584  1.00  0.00     0.057 A 
ATOM     72  C   UNL A   1      42.394  27.790  26.567  1.00  0.00     0.134 A 
ATOM     73  C   UNL A   1      41.377  25.786  27.390  1.00  0.00     0.134 A 
ATOM     74  F   UNL A   1      42.700  29.090  26.686  1.00  0.00    -0.206 F 
ATOM     75  C   UNL A   1      42.762  27.129  25.395  1.00  0.00     0.040 A 
ATOM     76  C   UNL A   1      41.759  25.107  26.232  1.00  0.00     0.040 A 
ATOM     77  F   UNL A   1      40.704  25.104  28.329  1.00  0.00    -0.206 F 
ATOM     78  C   UNL A   1      42.450  25.781  25.228  1.00  0.00     0.006 A 
ENDBRANCH  50  71
BRANCH  62  79
ATOM     79  C   UNL A   1      44.430  27.619  33.967  1.00  0.00     0.057 A 
ATOM     80  C   UNL A   1      45.655  28.297  33.997  1.00  0.00     0.134 A 
ATOM     81  C   UNL A   1      44.370  26.362  34.581  1.00  0.00     0.134 A 
ATOM     82  F   UNL A   1      45.781  29.499  33.413  1.00  0.00    -0.206 F 
ATOM     83  C   UNL A   1      46.783  27.737  34.598  1.00  0.00     0.040 A 
ATOM     84  C   UNL A   1      45.485  25.803  35.209  1.00  0.00     0.040 A 
ATOM     85  F   UNL A   1      43.224  25.664  34.596  1.00  0.00    -0.206 F 
ATOM     86  C   UNL A   1      46.697  26.489  35.213  1.00  0.00     0.006 A 
ENDBRANCH  62  79
ENDBRANCH  36  37
ENDBRANCH  29  31
ENDBRANCH  28  29
ENDBRANCH  27  28
ENDBRANCH  26  27
ENDBRANCH  25  26
ENDBRANCH   1  25
TORSDOF 17
ENDMDL
MODEL 3
REMARK VINA RESULT:     -11.0      3.621      7.418
REMARK SMILES CC1(C)[C@H](C(=O)Nc2ccc(C(F)(F)F)nc2)[C@@H]1C(=O)OCCOCCOC(=O)c1ccc(-c2c3nc(c(-c4c(F)cccc4F)c4ccc([nH]4)c(-c4c(F)cccc4F)c4nc(c(-c5c(F)cccc5F)c5ccc2[nH]5)C=C4)C=C3)cc1
REMARK SMILES IDX 23 1 22 2 21 3 19 4 20 5 18 6 1 7 2 8 3 9 4 10 5 11 6 12
REMARK SMILES IDX 7 13 8 15 9 16 17 17 10 18 16 19 11 20 12 21 13 22 14 23
REMARK SMILES IDX 15 24 24 25 25 26 26 27 27 28 28 29 29 30 30 31 31 32 83 33
REMARK SMILES IDX 32 34 82 35 33 36 34 37 35 38 76 39 36 40 81 41 75 42 77 43
REMARK SMILES IDX 37 44 80 45 74 46 73 47 38 49 64 50 47 51 63 52 48 53 51 54
REMARK SMILES IDX 62 55 78 56 49 57 50 58 61 60 79 61 52 62 39 63 40 64 45 65
REMARK SMILES IDX 41 66 42 67 44 68 46 69 43 70 65 71 66 72 71 73 67 74 68 75
REMARK SMILES IDX 70 76 72 77 69 78 53 79 54 80 59 81 55 82 56 83 58 84 60 85
REMARK SMILES IDX 57 86
REMARK H PARENT 7 14 77 48 51 59
REMARK Flexibility Score: inf
ROOT
ATOM      1  C   UNL A   1      34.189  22.641  26.491  1.00  0.00     0.202 C 
ENDROOT
BRANCH   1   2
ATOM      2  C   UNL A   1      32.787  23.239  26.618  1.00  0.00     0.261 C 
BRANCH   2   3
ATOM      3  O   UNL A   1      32.700  24.643  26.324  1.00  0.00    -0.463 OA
BRANCH   3   4
ATOM      4  C   UNL A   1      33.045  24.990  25.053  1.00  0.00     0.310 C 
ATOM      5  O   UNL A   1      33.972  25.734  24.741  1.00  0.00    -0.252 OA
BRANCH   4   6
ATOM      6  C   UNL A   1      32.297  24.200  24.056  1.00  0.00     0.118 C 
ATOM      7  C   UNL A   1      32.309  21.981  22.707  1.00  0.00     0.013 C 
ATOM      8  C   UNL A   1      32.928  23.339  22.957  1.00  0.00    -0.009 C 
ATOM      9  C   UNL A   1      34.416  23.307  22.729  1.00  0.00     0.013 C 
ATOM     10  C   UNL A   1      32.073  24.564  22.617  1.00  0.00     0.100 C 
BRANCH  10  11
ATOM     11  C   UNL A   1      32.513  25.746  21.810  1.00  0.00     0.228 C 
ATOM     12  O   UNL A   1      33.252  25.533  20.852  1.00  0.00    -0.274 OA
ATOM     13  N   UNL A   1      31.825  26.933  21.895  1.00  0.00    -0.324 N 
ATOM     14  H   UNL A   1      31.192  27.137  21.170  1.00  0.00     0.169 HD
BRANCH  13  15
ATOM     15  C   UNL A   1      31.945  27.878  22.923  1.00  0.00     0.059 A 
ATOM     16  C   UNL A   1      33.100  28.618  23.117  1.00  0.00     0.030 A 
ATOM     17  C   UNL A   1      30.921  28.050  23.840  1.00  0.00     0.137 A 
ATOM     18  C   UNL A   1      33.309  29.264  24.332  1.00  0.00     0.035 A 
ATOM     19  N   UNL A   1      31.084  28.674  25.031  1.00  0.00    -0.250 NA
ATOM     20  C   UNL A   1      32.321  29.189  25.309  1.00  0.00     0.144 A 
BRANCH  20  21
ATOM     21  C   UNL A   1      32.666  29.585  26.742  1.00  0.00     0.433 C 
ATOM     22  F   UNL A   1      33.590  28.765  27.317  1.00  0.00    -0.165 F 
ATOM     23  F   UNL A   1      33.170  30.851  26.836  1.00  0.00    -0.165 F 
ATOM     24  F   UNL A   1      31.587  29.564  27.581  1.00  0.00    -0.165 F 
ENDBRANCH  20  21
ENDBRANCH  13  15
ENDBRANCH  10  11
ENDBRANCH   4   6
ENDBRANCH   3   4
ENDBRANCH   2   3
ENDBRANCH   1   2
BRANCH   1  25
ATOM     25  O   UNL A   1      34.295  21.278  26.108  1.00  0.00    -0.374 OA
BRANCH  25  26
ATOM     26  C   UNL A   1      35.140  20.949  25.010  1.00  0.00     0.202 C 
BRANCH  26  27
ATOM     27  C   UNL A   1      36.535  20.395  25.320  1.00  0.00     0.261 C 
BRANCH  27  28
ATOM     28  O   UNL A   1      37.581  21.372  25.153  1.00  0.00    -0.460 OA
BRANCH  28  29
ATOM     29  C   UNL A   1      38.746  21.068  25.777  1.00  0.00     0.338 C 
ATOM     30  O   UNL A   1      39.363  20.016  25.728  1.00  0.00    -0.246 OA
BRANCH  29  31
ATOM     31  C   UNL A   1      39.289  22.256  26.454  1.00  0.00     0.060 A 
ATOM     32  C   UNL A   1      38.755  23.510  26.127  1.00  0.00     0.016 A 
ATOM     33  C   UNL A   1      40.407  22.152  27.282  1.00  0.00     0.016 A 
ATOM     34  C   UNL A   1      39.362  24.671  26.603  1.00  0.00     0.010 A 
ATOM     35  C   UNL A   1      41.020  23.317  27.749  1.00  0.00     0.010 A 
ATOM     36  C   UNL A   1      40.519  24.582  27.387  1.00  0.00    -0.014 A 
BRANCH  36  37
ATOM     37  C   UNL A   1      41.285  25.804  27.727  1.00  0.00     0.031 A 
ATOM     38  C   UNL A   1      40.612  26.900  28.506  1.00  0.00     0.074 A 
ATOM     39  C   UNL A   1      42.566  25.937  27.342  1.00  0.00     0.049 A 
ATOM     40  N   UNL A   1      41.061  28.085  28.827  1.00  0.00    -0.248 NA
ATOM     41  C   UNL A   1      39.249  26.620  28.984  1.00  0.00     0.031 C 
ATOM     42  C   UNL A   1      43.340  24.926  26.625  1.00  0.00     0.029 A 
ATOM     43  N   UNL A   1      43.434  26.989  27.488  1.00  0.00    -0.354 N 
ATOM     44  C   UNL A   1      40.036  28.698  29.538  1.00  0.00     0.074 A 
ATOM     45  C   UNL A   1      38.933  27.762  29.580  1.00  0.00     0.031 C 
ATOM     46  C   UNL A   1      44.567  25.415  26.376  1.00  0.00     0.029 A 
ATOM     47  C   UNL A   1      44.648  26.785  26.880  1.00  0.00     0.049 A 
ATOM     48  H   UNL A   1      43.208  27.811  27.981  1.00  0.00     0.167 HD
ATOM     49  C   UNL A   1      40.019  29.927  30.107  1.00  0.00     0.037 A 
ATOM     50  C   UNL A   1      45.692  27.620  26.722  1.00  0.00     0.037 A 
ATOM     51  C   UNL A   1      41.118  30.856  30.062  1.00  0.00     0.049 A 
ATOM     52  C   UNL A   1      45.614  29.014  27.283  1.00  0.00     0.074 A 
ATOM     53  C   UNL A   1      41.209  32.114  30.631  1.00  0.00     0.029 A 
ATOM     54  N   UNL A   1      42.315  30.629  29.399  1.00  0.00    -0.354 N 
ATOM     55  N   UNL A   1      44.650  29.579  27.969  1.00  0.00    -0.248 NA
ATOM     56  C   UNL A   1      46.769  29.892  27.040  1.00  0.00     0.031 C 
ATOM     57  C   UNL A   1      42.440  32.670  30.268  1.00  0.00     0.029 A 
ATOM     58  C   UNL A   1      43.136  31.738  29.514  1.00  0.00     0.049 A 
ATOM     59  H   UNL A   1      42.547  29.802  28.917  1.00  0.00     0.167 HD
ATOM     60  C   UNL A   1      45.087  30.866  28.256  1.00  0.00     0.074 A 
ATOM     61  C   UNL A   1      46.411  30.994  27.684  1.00  0.00     0.031 C 
ATOM     62  C   UNL A   1      44.449  31.853  28.933  1.00  0.00     0.037 A 
BRANCH  49  63
ATOM     63  C   UNL A   1      38.759  30.348  30.804  1.00  0.00     0.057 A 
ATOM     64  C   UNL A   1      38.535  30.076  32.159  1.00  0.00     0.134 A 
ATOM     65  C   UNL A   1      37.768  31.061  30.116  1.00  0.00     0.134 A 
ATOM     66  F   UNL A   1      39.438  29.386  32.873  1.00  0.00    -0.206 F 
ATOM     67  C   UNL A   1      37.361  30.478  32.800  1.00  0.00     0.040 A 
ATOM     68  C   UNL A   1      36.602  31.488  30.751  1.00  0.00     0.040 A 
ATOM     69  F   UNL A   1      37.922  31.357  28.816  1.00  0.00    -0.206 F 
ATOM     70  C   UNL A   1      36.393  31.192  32.095  1.00  0.00     0.006 A 
ENDBRANCH  49  63
BRANCH  50  71
ATOM     71  C   UNL A   1      46.893  27.172  25.973  1.00  0.00     0.057 A 
ATOM     72  C   UNL A   1      47.944  26.513  26.618  1.00  0.00     0.134 A 
ATOM     73  C   UNL A   1      47.021  27.405  24.598  1.00  0.00     0.134 A 
ATOM     74  F   UNL A   1      47.888  26.285  27.938  1.00  0.00    -0.206 F 
ATOM     75  C   UNL A   1      49.088  26.113  25.926  1.00  0.00     0.040 A 
ATOM     76  C   UNL A   1      48.150  26.990  23.890  1.00  0.00     0.040 A 
ATOM     77  F   UNL A   1      46.047  28.031  23.922  1.00  0.00    -0.206 F 
ATOM     78  C   UNL A   1      49.190  26.346  24.556  1.00  0.00     0.006 A 
ENDBRANCH  50  71
BRANCH  62  79
ATOM     79  C   UNL A   1      45.183  33.152  29.102  1.00  0.00     0.057 A 
ATOM     80  C   UNL A   1      45.045  34.201  28.185  1.00  0.00     0.134 A 
ATOM     81  C   UNL A   1      46.002  33.371  30.217  1.00  0.00     0.134 A 
ATOM     82  F   UNL A   1      44.286  34.050  27.089  1.00  0.00    -0.206 F 
ATOM     83  C   UNL A   1      45.712  35.415  28.359  1.00  0.00     0.040 A 
ATOM     84  C   UNL A   1      46.654  34.589  30.416  1.00  0.00     0.040 A 
ATOM     85  F   UNL A   1      46.170  32.410  31.139  1.00  0.00    -0.206 F 
ATOM     86  C   UNL A   1      46.513  35.613  29.482  1.00  0.00     0.006 A 
ENDBRANCH  62  79
ENDBRANCH  36  37
ENDBRANCH  29  31
ENDBRANCH  28  29
ENDBRANCH  27  28
ENDBRANCH  26  27
ENDBRANCH  25  26
ENDBRANCH   1  25
TORSDOF 17
ENDMDL
