MODEL 1
REMARK VINA RESULT:     -10.9      0.000      0.000
REMARK SMILES CCOc1cccc(C(=O)Nc2ccc(Cl)c(C(=O)OCCOCCOC(=O)c3ccc(-c4c5nc(c(-c6c(F)cccc6F)c6ccc([nH]6)c(-c6c(F)cccc6F)c6nc(c(-c7c(F)cccc7F)c7ccc4[nH]7)C=C6)C=C5)cc3)c2)c1
REMARK SMILES IDX 22 1 21 2 20 3 18 4 19 5 17 6 12 7 13 8 83 9 14 10 15 11
REMARK SMILES IDX 16 12 11 13 9 14 10 15 8 17 4 18 5 19 84 20 6 21 7 22 3 23
REMARK SMILES IDX 2 24 1 25 23 26 24 27 25 28 26 29 27 30 28 31 29 32 30 33
REMARK SMILES IDX 82 34 31 35 81 36 32 37 33 38 34 39 75 40 35 41 80 42 74 43
REMARK SMILES IDX 76 44 36 45 79 46 73 47 72 48 37 50 63 51 46 52 62 53 47 54
REMARK SMILES IDX 50 55 61 56 77 57 48 58 49 59 60 61 78 62 51 63 38 64 39 65
REMARK SMILES IDX 44 66 40 67 41 68 43 69 45 70 42 71 64 72 65 73 70 74 66 75
REMARK SMILES IDX 67 76 69 77 71 78 68 79 52 80 53 81 58 82 54 83 55 84 57 85
REMARK SMILES IDX 59 86 56 87
REMARK H PARENT 11 16 76 49 50 60
REMARK Flexibility Score: inf
ROOT
ATOM      1  C   UNL A   1      34.453  29.286  27.064  1.00  0.00     0.202 C 
ENDROOT
BRANCH   1   2
ATOM      2  C   UNL A   1      34.067  28.621  25.738  1.00  0.00     0.261 C 
BRANCH   2   3
ATOM      3  O   UNL A   1      33.223  29.443  24.914  1.00  0.00    -0.460 OA
BRANCH   3   4
ATOM      4  C   UNL A   1      31.918  29.440  25.279  1.00  0.00     0.339 C 
ATOM      5  O   UNL A   1      31.335  30.345  25.861  1.00  0.00    -0.246 OA
BRANCH   4   6
ATOM      6  C   UNL A   1      31.241  28.209  24.815  1.00  0.00     0.080 A 
ATOM      7  C   UNL A   1      30.271  26.073  25.439  1.00  0.00     0.042 A 
ATOM      8  C   UNL A   1      29.598  26.030  24.215  1.00  0.00     0.028 A 
ATOM      9  C   UNL A   1      31.181  27.106  25.681  1.00  0.00     0.043 A 
ATOM     10  C   UNL A   1      29.726  27.081  23.305  1.00  0.00     0.023 A 
ATOM     11  C   UNL A   1      30.518  28.189  23.616  1.00  0.00     0.055 A 
ATOM     12  Cl  UNL A   1      30.560  29.465  22.451  1.00  0.00    -0.083 Cl
BRANCH   7  13
ATOM     13  N   UNL A   1      29.908  25.110  26.397  1.00  0.00    -0.322 N 
ATOM     14  C   UNL A   1      30.386  23.839  26.667  1.00  0.00     0.255 C 
ATOM     15  O   UNL A   1      29.774  23.137  27.472  1.00  0.00    -0.269 OA
ATOM     16  H   UNL A   1      29.172  25.393  26.988  1.00  0.00     0.170 HD
BRANCH  14  17
ATOM     17  C   UNL A   1      31.645  23.305  26.072  1.00  0.00     0.043 A 
ATOM     18  C   UNL A   1      33.957  23.586  25.440  1.00  0.00     0.120 A 
ATOM     19  C   UNL A   1      33.864  22.481  24.596  1.00  0.00     0.046 A 
ATOM     20  C   UNL A   1      32.880  23.937  26.247  1.00  0.00     0.060 A 
ATOM     21  C   UNL A   1      32.686  21.732  24.557  1.00  0.00     0.005 A 
ATOM     22  C   UNL A   1      31.567  22.159  25.274  1.00  0.00     0.014 A 
BRANCH  18  23
ATOM     23  O   UNL A   1      35.005  24.442  25.244  1.00  0.00    -0.494 OA
BRANCH  23  24
ATOM     24  C   UNL A   1      36.249  23.834  24.896  1.00  0.00     0.226 C 
ATOM     25  C   UNL A   1      37.199  23.719  26.078  1.00  0.00     0.049 C 
ENDBRANCH  23  24
ENDBRANCH  18  23
ENDBRANCH  14  17
ENDBRANCH   7  13
ENDBRANCH   4   6
ENDBRANCH   3   4
ENDBRANCH   2   3
ENDBRANCH   1   2
BRANCH   1  26
ATOM     26  O   UNL A   1      34.718  30.685  27.104  1.00  0.00    -0.374 OA
BRANCH  26  27
ATOM     27  C   UNL A   1      33.962  31.515  27.973  1.00  0.00     0.202 C 
BRANCH  27  28
ATOM     28  C   UNL A   1      34.667  32.248  29.126  1.00  0.00     0.261 C 
BRANCH  28  29
ATOM     29  O   UNL A   1      36.081  32.014  29.212  1.00  0.00    -0.460 OA
BRANCH  29  30
ATOM     30  C   UNL A   1      36.439  31.207  30.238  1.00  0.00     0.338 C 
ATOM     31  O   UNL A   1      35.876  31.082  31.317  1.00  0.00    -0.246 OA
BRANCH  30  32
ATOM     32  C   UNL A   1      37.561  30.337  29.850  1.00  0.00     0.060 A 
ATOM     33  C   UNL A   1      38.408  29.885  30.871  1.00  0.00     0.016 A 
ATOM     34  C   UNL A   1      37.863  30.088  28.510  1.00  0.00     0.016 A 
ATOM     35  C   UNL A   1      39.596  29.237  30.554  1.00  0.00     0.010 A 
ATOM     36  C   UNL A   1      39.067  29.451  28.192  1.00  0.00     0.010 A 
ATOM     37  C   UNL A   1      39.958  29.070  29.212  1.00  0.00    -0.014 A 
BRANCH  37  38
ATOM     38  C   UNL A   1      41.358  28.702  28.893  1.00  0.00     0.031 A 
ATOM     39  C   UNL A   1      41.647  27.282  28.481  1.00  0.00     0.074 A 
ATOM     40  C   UNL A   1      42.337  29.621  28.901  1.00  0.00     0.049 A 
ATOM     41  N   UNL A   1      42.788  26.726  28.163  1.00  0.00    -0.248 NA
ATOM     42  C   UNL A   1      40.494  26.370  28.412  1.00  0.00     0.031 C 
ATOM     43  C   UNL A   1      42.167  31.035  29.231  1.00  0.00     0.029 A 
ATOM     44  N   UNL A   1      43.674  29.497  28.621  1.00  0.00    -0.354 N 
ATOM     45  C   UNL A   1      42.489  25.405  27.856  1.00  0.00     0.074 A 
ATOM     46  C   UNL A   1      41.068  25.230  28.055  1.00  0.00     0.031 C 
ATOM     47  C   UNL A   1      43.361  31.648  29.146  1.00  0.00     0.029 A 
ATOM     48  C   UNL A   1      44.379  30.664  28.779  1.00  0.00     0.049 A 
ATOM     49  H   UNL A   1      44.088  28.652  28.332  1.00  0.00     0.167 HD
ATOM     50  C   UNL A   1      43.323  24.425  27.434  1.00  0.00     0.037 A 
ATOM     51  C   UNL A   1      45.700  30.902  28.658  1.00  0.00     0.037 A 
ATOM     52  C   UNL A   1      44.736  24.598  27.237  1.00  0.00     0.049 A 
ATOM     53  C   UNL A   1      46.616  29.777  28.250  1.00  0.00     0.074 A 
ATOM     54  C   UNL A   1      45.673  23.662  26.832  1.00  0.00     0.029 A 
ATOM     55  N   UNL A   1      45.416  25.790  27.427  1.00  0.00    -0.354 N 
ATOM     56  N   UNL A   1      46.323  28.532  27.964  1.00  0.00    -0.248 NA
ATOM     57  C   UNL A   1      48.048  30.095  28.142  1.00  0.00     0.031 C 
ATOM     58  C   UNL A   1      46.926  24.282  26.808  1.00  0.00     0.029 A 
ATOM     59  C   UNL A   1      46.762  25.613  27.155  1.00  0.00     0.049 A 
ATOM     60  H   UNL A   1      45.004  26.637  27.712  1.00  0.00     0.167 HD
ATOM     61  C   UNL A   1      47.523  27.929  27.608  1.00  0.00     0.074 A 
ATOM     62  C   UNL A   1      48.548  28.948  27.706  1.00  0.00     0.031 C 
ATOM     63  C   UNL A   1      47.760  26.647  27.235  1.00  0.00     0.037 A 
BRANCH  50  64
ATOM     64  C   UNL A   1      42.727  23.076  27.168  1.00  0.00     0.057 A 
ATOM     65  C   UNL A   1      42.469  22.629  25.865  1.00  0.00     0.134 A 
ATOM     66  C   UNL A   1      42.441  22.199  28.221  1.00  0.00     0.134 A 
ATOM     67  F   UNL A   1      42.704  23.429  24.814  1.00  0.00    -0.206 F 
ATOM     68  C   UNL A   1      41.938  21.362  25.621  1.00  0.00     0.040 A 
ATOM     69  C   UNL A   1      41.932  20.920  27.989  1.00  0.00     0.040 A 
ATOM     70  F   UNL A   1      42.666  22.565  29.492  1.00  0.00    -0.206 F 
ATOM     71  C   UNL A   1      41.676  20.501  26.685  1.00  0.00     0.006 A 
ENDBRANCH  50  64
BRANCH  51  72
ATOM     72  C   UNL A   1      46.247  32.252  28.941  1.00  0.00     0.057 A 
ATOM     73  C   UNL A   1      46.671  32.612  30.225  1.00  0.00     0.134 A 
ATOM     74  C   UNL A   1      46.317  33.229  27.941  1.00  0.00     0.134 A 
ATOM     75  F   UNL A   1      46.606  31.727  31.231  1.00  0.00    -0.206 F 
ATOM     76  C   UNL A   1      47.117  33.904  30.513  1.00  0.00     0.040 A 
ATOM     77  C   UNL A   1      46.785  34.517  28.208  1.00  0.00     0.040 A 
ATOM     78  F   UNL A   1      45.929  32.946  26.690  1.00  0.00    -0.206 F 
ATOM     79  C   UNL A   1      47.178  34.860  29.500  1.00  0.00     0.006 A 
ENDBRANCH  51  72
BRANCH  63  80
ATOM     80  C   UNL A   1      49.165  26.290  26.851  1.00  0.00     0.057 A 
ATOM     81  C   UNL A   1      49.658  26.505  25.560  1.00  0.00     0.134 A 
ATOM     82  C   UNL A   1      50.047  25.763  27.804  1.00  0.00     0.134 A 
ATOM     83  F   UNL A   1      48.860  26.998  24.601  1.00  0.00    -0.206 F 
ATOM     84  C   UNL A   1      50.974  26.186  25.220  1.00  0.00     0.040 A 
ATOM     85  C   UNL A   1      51.371  25.462  27.484  1.00  0.00     0.040 A 
ATOM     86  F   UNL A   1      49.639  25.543  29.063  1.00  0.00    -0.206 F 
ATOM     87  C   UNL A   1      51.836  25.669  26.186  1.00  0.00     0.006 A 
ENDBRANCH  63  80
ENDBRANCH  37  38
ENDBRANCH  30  32
ENDBRANCH  29  30
ENDBRANCH  28  29
ENDBRANCH  27  28
ENDBRANCH  26  27
ENDBRANCH   1  26
TORSDOF 18
ENDMDL
MODEL 2
REMARK VINA RESULT:     -10.9      4.481      8.051
REMARK SMILES CCOc1cccc(C(=O)Nc2ccc(Cl)c(C(=O)OCCOCCOC(=O)c3ccc(-c4c5nc(c(-c6c(F)cccc6F)c6ccc([nH]6)c(-c6c(F)cccc6F)c6nc(c(-c7c(F)cccc7F)c7ccc4[nH]7)C=C6)C=C5)cc3)c2)c1
REMARK SMILES IDX 22 1 21 2 20 3 18 4 19 5 17 6 12 7 13 8 83 9 14 10 15 11
REMARK SMILES IDX 16 12 11 13 9 14 10 15 8 17 4 18 5 19 84 20 6 21 7 22 3 23
REMARK SMILES IDX 2 24 1 25 23 26 24 27 25 28 26 29 27 30 28 31 29 32 30 33
REMARK SMILES IDX 82 34 31 35 81 36 32 37 33 38 34 39 75 40 35 41 80 42 74 43
REMARK SMILES IDX 76 44 36 45 79 46 73 47 72 48 37 50 63 51 46 52 62 53 47 54
REMARK SMILES IDX 50 55 61 56 77 57 48 58 49 59 60 61 78 62 51 63 38 64 39 65
REMARK SMILES IDX 44 66 40 67 41 68 43 69 45 70 42 71 64 72 65 73 70 74 66 75
REMARK SMILES IDX 67 76 69 77 71 78 68 79 52 80 53 81 58 82 54 83 55 84 57 85
REMARK SMILES IDX 59 86 56 87
REMARK H PARENT 11 16 76 49 50 60
REMARK Flexibility Score: inf
ROOT
ATOM      1  C   UNL A   1      34.570  29.122  26.868  1.00  0.00     0.202 C 
ENDROOT
BRANCH   1   2
ATOM      2  C   UNL A   1      33.876  28.276  25.796  1.00  0.00     0.261 C 
BRANCH   2   3
ATOM      3  O   UNL A   1      33.194  29.063  24.805  1.00  0.00    -0.460 OA
BRANCH   3   4
ATOM      4  C   UNL A   1      31.882  29.278  25.073  1.00  0.00     0.339 C 
ATOM      5  O   UNL A   1      31.402  30.312  25.517  1.00  0.00    -0.246 OA
BRANCH   4   6
ATOM      6  C   UNL A   1      31.065  28.107  24.686  1.00  0.00     0.080 A 
ATOM      7  C   UNL A   1      30.038  26.028  25.405  1.00  0.00     0.042 A 
ATOM      8  C   UNL A   1      29.207  26.059  24.282  1.00  0.00     0.028 A 
ATOM      9  C   UNL A   1      31.043  26.990  25.537  1.00  0.00     0.043 A 
ATOM     10  C   UNL A   1      29.287  27.120  23.377  1.00  0.00     0.023 A 
ATOM     11  C   UNL A   1      30.189  28.164  23.595  1.00  0.00     0.055 A 
ATOM     12  Cl  UNL A   1      30.167  29.460  22.453  1.00  0.00    -0.083 Cl
BRANCH   7  13
ATOM     13  N   UNL A   1      29.738  25.070  26.390  1.00  0.00    -0.322 N 
ATOM     14  C   UNL A   1      30.273  23.824  26.670  1.00  0.00     0.255 C 
ATOM     15  O   UNL A   1      29.709  23.114  27.504  1.00  0.00    -0.269 OA
ATOM     16  H   UNL A   1      29.006  25.335  26.995  1.00  0.00     0.170 HD
BRANCH  14  17
ATOM     17  C   UNL A   1      31.535  23.329  26.052  1.00  0.00     0.043 A 
ATOM     18  C   UNL A   1      33.922  23.489  25.724  1.00  0.00     0.120 A 
ATOM     19  C   UNL A   1      33.823  22.686  24.590  1.00  0.00     0.046 A 
ATOM     20  C   UNL A   1      32.797  23.728  26.506  1.00  0.00     0.060 A 
ATOM     21  C   UNL A   1      32.592  22.130  24.234  1.00  0.00     0.005 A 
ATOM     22  C   UNL A   1      31.443  22.473  24.949  1.00  0.00     0.014 A 
BRANCH  18  23
ATOM     23  O   UNL A   1      35.061  24.229  25.876  1.00  0.00    -0.494 OA
BRANCH  23  24
ATOM     24  C   UNL A   1      36.178  23.821  25.088  1.00  0.00     0.226 C 
ATOM     25  C   UNL A   1      37.461  23.709  25.898  1.00  0.00     0.049 C 
ENDBRANCH  23  24
ENDBRANCH  18  23
ENDBRANCH  14  17
ENDBRANCH   7  13
ENDBRANCH   4   6
ENDBRANCH   3   4
ENDBRANCH   2   3
ENDBRANCH   1   2
BRANCH   1  26
ATOM     26  O   UNL A   1      33.811  30.042  27.646  1.00  0.00    -0.374 OA
BRANCH  26  27
ATOM     27  C   UNL A   1      34.130  31.425  27.601  1.00  0.00     0.202 C 
BRANCH  27  28
ATOM     28  C   UNL A   1      33.004  32.467  27.695  1.00  0.00     0.261 C 
BRANCH  28  29
ATOM     29  O   UNL A   1      33.431  33.829  27.551  1.00  0.00    -0.460 OA
BRANCH  29  30
ATOM     30  C   UNL A   1      33.411  34.532  28.708  1.00  0.00     0.338 C 
ATOM     31  O   UNL A   1      32.536  35.292  29.102  1.00  0.00    -0.246 OA
BRANCH  30  32
ATOM     32  C   UNL A   1      34.552  34.163  29.562  1.00  0.00     0.060 A 
ATOM     33  C   UNL A   1      35.837  34.398  29.056  1.00  0.00     0.016 A 
ATOM     34  C   UNL A   1      34.373  33.473  30.762  1.00  0.00     0.016 A 
ATOM     35  C   UNL A   1      36.949  33.888  29.715  1.00  0.00     0.010 A 
ATOM     36  C   UNL A   1      35.491  32.945  31.416  1.00  0.00     0.010 A 
ATOM     37  C   UNL A   1      36.776  33.109  30.866  1.00  0.00    -0.014 A 
BRANCH  37  38
ATOM     38  C   UNL A   1      37.916  32.295  31.351  1.00  0.00     0.031 A 
ATOM     39  C   UNL A   1      38.437  32.552  32.740  1.00  0.00     0.074 A 
ATOM     40  C   UNL A   1      38.429  31.303  30.604  1.00  0.00     0.049 A 
ATOM     41  N   UNL A   1      39.423  31.975  33.378  1.00  0.00    -0.248 NA
ATOM     42  C   UNL A   1      37.750  33.597  33.518  1.00  0.00     0.031 C 
ATOM     43  C   UNL A   1      37.970  30.926  29.269  1.00  0.00     0.029 A 
ATOM     44  N   UNL A   1      39.452  30.430  30.870  1.00  0.00    -0.354 N 
ATOM     45  C   UNL A   1      39.472  32.584  34.625  1.00  0.00     0.074 A 
ATOM     46  C   UNL A   1      38.440  33.596  34.648  1.00  0.00     0.031 C 
ATOM     47  C   UNL A   1      38.722  29.902  28.824  1.00  0.00     0.029 A 
ATOM     48  C   UNL A   1      39.725  29.571  29.836  1.00  0.00     0.049 A 
ATOM     49  H   UNL A   1      39.944  30.419  31.723  1.00  0.00     0.167 HD
ATOM     50  C   UNL A   1      40.296  32.315  35.666  1.00  0.00     0.037 A 
ATOM     51  C   UNL A   1      40.687  28.636  29.715  1.00  0.00     0.037 A 
ATOM     52  C   UNL A   1      41.323  31.310  35.643  1.00  0.00     0.049 A 
ATOM     53  C   UNL A   1      41.634  28.402  30.863  1.00  0.00     0.074 A 
ATOM     54  C   UNL A   1      42.227  30.974  36.637  1.00  0.00     0.029 A 
ATOM     55  N   UNL A   1      41.581  30.473  34.568  1.00  0.00    -0.354 N 
ATOM     56  N   UNL A   1      41.672  28.984  32.038  1.00  0.00    -0.248 NA
ATOM     57  C   UNL A   1      42.669  27.375  30.671  1.00  0.00     0.031 C 
ATOM     58  C   UNL A   1      43.051  29.955  36.152  1.00  0.00     0.029 A 
ATOM     59  C   UNL A   1      42.633  29.628  34.872  1.00  0.00     0.049 A 
ATOM     60  H   UNL A   1      41.088  30.480  33.716  1.00  0.00     0.167 HD
ATOM     61  C   UNL A   1      42.706  28.371  32.735  1.00  0.00     0.074 A 
ATOM     62  C   UNL A   1      43.265  27.366  31.855  1.00  0.00     0.031 C 
ATOM     63  C   UNL A   1      43.156  28.617  33.990  1.00  0.00     0.037 A 
BRANCH  50  64
ATOM     64  C   UNL A   1      40.126  33.131  36.912  1.00  0.00     0.057 A 
ATOM     65  C   UNL A   1      40.920  34.255  37.169  1.00  0.00     0.134 A 
ATOM     66  C   UNL A   1      39.133  32.811  37.846  1.00  0.00     0.134 A 
ATOM     67  F   UNL A   1      41.901  34.603  36.321  1.00  0.00    -0.206 F 
ATOM     68  C   UNL A   1      40.741  35.027  38.318  1.00  0.00     0.040 A 
ATOM     69  C   UNL A   1      38.929  33.588  38.987  1.00  0.00     0.040 A 
ATOM     70  F   UNL A   1      38.339  31.747  37.659  1.00  0.00    -0.206 F 
ATOM     71  C   UNL A   1      39.737  34.698  39.227  1.00  0.00     0.006 A 
ENDBRANCH  50  64
BRANCH  51  72
ATOM     72  C   UNL A   1      40.825  27.859  28.458  1.00  0.00     0.057 A 
ATOM     73  C   UNL A   1      41.585  28.337  27.385  1.00  0.00     0.134 A 
ATOM     74  C   UNL A   1      40.161  26.639  28.285  1.00  0.00     0.134 A 
ATOM     75  F   UNL A   1      42.226  29.512  27.481  1.00  0.00    -0.206 F 
ATOM     76  C   UNL A   1      41.657  27.645  26.174  1.00  0.00     0.040 A 
ATOM     77  C   UNL A   1      40.244  25.923  27.089  1.00  0.00     0.040 A 
ATOM     78  F   UNL A   1      39.418  26.126  29.276  1.00  0.00    -0.206 F 
ATOM     79  C   UNL A   1      40.986  26.431  26.026  1.00  0.00     0.006 A 
ENDBRANCH  51  72
BRANCH  63  80
ATOM     80  C   UNL A   1      44.267  27.751  34.505  1.00  0.00     0.057 A 
ATOM     81  C   UNL A   1      45.611  28.126  34.396  1.00  0.00     0.134 A 
ATOM     82  C   UNL A   1      43.980  26.544  35.157  1.00  0.00     0.134 A 
ATOM     83  F   UNL A   1      45.950  29.265  33.774  1.00  0.00    -0.206 F 
ATOM     84  C   UNL A   1      46.634  27.320  34.896  1.00  0.00     0.040 A 
ATOM     85  C   UNL A   1      44.993  25.741  35.683  1.00  0.00     0.040 A 
ATOM     86  F   UNL A   1      42.712  26.133  35.303  1.00  0.00    -0.206 F 
ATOM     87  C   UNL A   1      46.326  26.127  35.548  1.00  0.00     0.006 A 
ENDBRANCH  63  80
ENDBRANCH  37  38
ENDBRANCH  30  32
ENDBRANCH  29  30
ENDBRANCH  28  29
ENDBRANCH  27  28
ENDBRANCH  26  27
ENDBRANCH   1  26
TORSDOF 18
ENDMDL
MODEL 3
REMARK VINA RESULT:     -10.8      5.098     10.104
REMARK SMILES CCOc1cccc(C(=O)Nc2ccc(Cl)c(C(=O)OCCOCCOC(=O)c3ccc(-c4c5nc(c(-c6c(F)cccc6F)c6ccc([nH]6)c(-c6c(F)cccc6F)c6nc(c(-c7c(F)cccc7F)c7ccc4[nH]7)C=C6)C=C5)cc3)c2)c1
REMARK SMILES IDX 22 1 21 2 20 3 18 4 19 5 17 6 12 7 13 8 83 9 14 10 15 11
REMARK SMILES IDX 16 12 11 13 9 14 10 15 8 17 4 18 5 19 84 20 6 21 7 22 3 23
REMARK SMILES IDX 2 24 1 25 23 26 24 27 25 28 26 29 27 30 28 31 29 32 30 33
REMARK SMILES IDX 82 34 31 35 81 36 32 37 33 38 34 39 75 40 35 41 80 42 74 43
REMARK SMILES IDX 76 44 36 45 79 46 73 47 72 48 37 50 63 51 46 52 62 53 47 54
REMARK SMILES IDX 50 55 61 56 77 57 48 58 49 59 60 61 78 62 51 63 38 64 39 65
REMARK SMILES IDX 44 66 40 67 41 68 43 69 45 70 42 71 64 72 65 73 70 74 66 75
REMARK SMILES IDX 67 76 69 77 71 78 68 79 52 80 53 81 58 82 54 83 55 84 57 85
REMARK SMILES IDX 59 86 56 87
REMARK H PARENT 11 16 76 49 50 60
REMARK Flexibility Score: inf
ROOT
ATOM      1  C   UNL A   1      38.639  22.280  25.897  1.00  0.00     0.202 C 
ENDROOT
BRANCH   1   2
ATOM      2  C   UNL A   1      37.498  21.736  25.032  1.00  0.00     0.261 C 
BRANCH   2   3
ATOM      3  O   UNL A   1      36.359  22.612  24.976  1.00  0.00    -0.460 OA
BRANCH   3   4
ATOM      4  C   UNL A   1      35.900  22.848  23.723  1.00  0.00     0.339 C 
ATOM      5  O   UNL A   1      36.580  22.885  22.706  1.00  0.00    -0.246 OA
BRANCH   4   6
ATOM      6  C   UNL A   1      34.427  22.987  23.716  1.00  0.00     0.080 A 
ATOM      7  C   UNL A   1      32.517  24.255  22.918  1.00  0.00     0.042 A 
ATOM      8  C   UNL A   1      31.682  23.179  23.228  1.00  0.00     0.028 A 
ATOM      9  C   UNL A   1      33.867  24.197  23.274  1.00  0.00     0.043 A 
ATOM     10  C   UNL A   1      32.219  22.003  23.757  1.00  0.00     0.023 A 
ATOM     11  C   UNL A   1      33.595  21.890  23.969  1.00  0.00     0.055 A 
ATOM     12  Cl  UNL A   1      34.167  20.373  24.567  1.00  0.00    -0.083 Cl
BRANCH   7  13
ATOM     13  N   UNL A   1      31.950  25.303  22.169  1.00  0.00    -0.322 N 
ATOM     14  C   UNL A   1      31.435  26.535  22.535  1.00  0.00     0.255 C 
ATOM     15  O   UNL A   1      30.848  27.204  21.684  1.00  0.00    -0.269 OA
ATOM     16  H   UNL A   1      31.911  25.125  21.201  1.00  0.00     0.170 HD
BRANCH  14  17
ATOM     17  C   UNL A   1      31.613  27.114  23.896  1.00  0.00     0.043 A 
ATOM     18  C   UNL A   1      32.927  28.346  25.504  1.00  0.00     0.120 A 
ATOM     19  C   UNL A   1      32.145  27.836  26.538  1.00  0.00     0.046 A 
ATOM     20  C   UNL A   1      32.600  28.063  24.182  1.00  0.00     0.060 A 
ATOM     21  C   UNL A   1      31.039  27.034  26.246  1.00  0.00     0.005 A 
ATOM     22  C   UNL A   1      30.789  26.650  24.928  1.00  0.00     0.014 A 
BRANCH  18  23
ATOM     23  O   UNL A   1      34.140  28.883  25.835  1.00  0.00    -0.494 OA
BRANCH  23  24
ATOM     24  C   UNL A   1      34.405  29.005  27.232  1.00  0.00     0.226 C 
ATOM     25  C   UNL A   1      34.822  30.413  27.630  1.00  0.00     0.049 C 
ENDBRANCH  23  24
ENDBRANCH  18  23
ENDBRANCH  14  17
ENDBRANCH   7  13
ENDBRANCH   4   6
ENDBRANCH   3   4
ENDBRANCH   2   3
ENDBRANCH   1   2
BRANCH   1  26
ATOM     26  O   UNL A   1      39.654  21.399  26.367  1.00  0.00    -0.374 OA
BRANCH  26  27
ATOM     27  C   UNL A   1      40.627  21.879  27.283  1.00  0.00     0.202 C 
BRANCH  27  28
ATOM     28  C   UNL A   1      41.963  22.425  26.754  1.00  0.00     0.261 C 
BRANCH  28  29
ATOM     29  O   UNL A   1      42.386  23.660  27.350  1.00  0.00    -0.460 OA
BRANCH  29  30
ATOM     30  C   UNL A   1      42.141  24.748  26.582  1.00  0.00     0.338 C 
ATOM     31  O   UNL A   1      42.247  24.840  25.366  1.00  0.00    -0.246 OA
BRANCH  30  32
ATOM     32  C   UNL A   1      41.566  25.837  27.389  1.00  0.00     0.060 A 
ATOM     33  C   UNL A   1      42.252  27.058  27.404  1.00  0.00     0.016 A 
ATOM     34  C   UNL A   1      40.465  25.627  28.221  1.00  0.00     0.016 A 
ATOM     35  C   UNL A   1      41.882  28.054  28.301  1.00  0.00     0.010 A 
ATOM     36  C   UNL A   1      40.104  26.622  29.135  1.00  0.00     0.010 A 
ATOM     37  C   UNL A   1      40.843  27.817  29.210  1.00  0.00    -0.014 A 
BRANCH  37  38
ATOM     38  C   UNL A   1      40.690  28.729  30.369  1.00  0.00     0.031 A 
ATOM     39  C   UNL A   1      39.622  29.789  30.307  1.00  0.00     0.074 A 
ATOM     40  C   UNL A   1      41.434  28.574  31.476  1.00  0.00     0.049 A 
ATOM     41  N   UNL A   1      39.306  30.701  31.190  1.00  0.00    -0.248 NA
ATOM     42  C   UNL A   1      38.796  29.820  29.089  1.00  0.00     0.031 C 
ATOM     43  C   UNL A   1      42.459  27.551  31.672  1.00  0.00     0.029 A 
ATOM     44  N   UNL A   1      41.435  29.284  32.650  1.00  0.00    -0.354 N 
ATOM     45  C   UNL A   1      38.247  31.409  30.637  1.00  0.00     0.074 A 
ATOM     46  C   UNL A   1      37.993  30.846  29.329  1.00  0.00     0.031 C 
ATOM     47  C   UNL A   1      43.003  27.708  32.892  1.00  0.00     0.029 A 
ATOM     48  C   UNL A   1      42.378  28.854  33.551  1.00  0.00     0.049 A 
ATOM     49  H   UNL A   1      40.818  30.029  32.831  1.00  0.00     0.167 HD
ATOM     50  C   UNL A   1      37.540  32.431  31.174  1.00  0.00     0.037 A 
ATOM     51  C   UNL A   1      42.708  29.345  34.761  1.00  0.00     0.037 A 
ATOM     52  C   UNL A   1      37.793  32.992  32.473  1.00  0.00     0.049 A 
ATOM     53  C   UNL A   1      41.949  30.526  35.308  1.00  0.00     0.074 A 
ATOM     54  C   UNL A   1      37.148  34.045  33.100  1.00  0.00     0.029 A 
ATOM     55  N   UNL A   1      38.770  32.542  33.347  1.00  0.00    -0.354 N 
ATOM     56  N   UNL A   1      40.950  31.189  34.775  1.00  0.00    -0.248 NA
ATOM     57  C   UNL A   1      42.359  31.023  36.630  1.00  0.00     0.031 C 
ATOM     58  C   UNL A   1      37.756  34.250  34.342  1.00  0.00     0.029 A 
ATOM     59  C   UNL A   1      38.750  33.299  34.505  1.00  0.00     0.049 A 
ATOM     60  H   UNL A   1      39.386  31.794  33.170  1.00  0.00     0.167 HD
ATOM     61  C   UNL A   1      40.591  32.153  35.709  1.00  0.00     0.074 A 
ATOM     62  C   UNL A   1      41.472  31.984  36.845  1.00  0.00     0.031 C 
ATOM     63  C   UNL A   1      39.620  33.097  35.634  1.00  0.00     0.037 A 
BRANCH  50  64
ATOM     64  C   UNL A   1      36.433  33.015  30.349  1.00  0.00     0.057 A 
ATOM     65  C   UNL A   1      36.692  33.838  29.246  1.00  0.00     0.134 A 
ATOM     66  C   UNL A   1      35.094  32.723  30.638  1.00  0.00     0.134 A 
ATOM     67  F   UNL A   1      37.953  34.171  28.928  1.00  0.00    -0.206 F 
ATOM     68  C   UNL A   1      35.659  34.358  28.466  1.00  0.00     0.040 A 
ATOM     69  C   UNL A   1      34.053  33.218  29.852  1.00  0.00     0.040 A 
ATOM     70  F   UNL A   1      34.778  31.940  31.681  1.00  0.00    -0.206 F 
ATOM     71  C   UNL A   1      34.335  34.042  28.764  1.00  0.00     0.006 A 
ENDBRANCH  50  64
BRANCH  51  72
ATOM     72  C   UNL A   1      43.819  28.741  35.538  1.00  0.00     0.057 A 
ATOM     73  C   UNL A   1      43.582  27.756  36.504  1.00  0.00     0.134 A 
ATOM     74  C   UNL A   1      45.140  29.169  35.364  1.00  0.00     0.134 A 
ATOM     75  F   UNL A   1      42.334  27.322  36.733  1.00  0.00    -0.206 F 
ATOM     76  C   UNL A   1      44.614  27.238  37.289  1.00  0.00     0.040 A 
ATOM     77  C   UNL A   1      46.187  28.642  36.123  1.00  0.00     0.040 A 
ATOM     78  F   UNL A   1      45.433  30.108  34.453  1.00  0.00    -0.206 F 
ATOM     79  C   UNL A   1      45.923  27.680  37.096  1.00  0.00     0.006 A 
ENDBRANCH  51  72
BRANCH  63  80
ATOM     80  C   UNL A   1      39.423  33.978  36.831  1.00  0.00     0.057 A 
ATOM     81  C   UNL A   1      39.980  35.259  36.908  1.00  0.00     0.134 A 
ATOM     82  C   UNL A   1      38.627  33.551  37.903  1.00  0.00     0.134 A 
ATOM     83  F   UNL A   1      40.760  35.722  35.919  1.00  0.00    -0.206 F 
ATOM     84  C   UNL A   1      39.774  36.077  38.020  1.00  0.00     0.040 A 
ATOM     85  C   UNL A   1      38.393  34.368  39.009  1.00  0.00     0.040 A 
ATOM     86  F   UNL A   1      38.056  32.337  37.885  1.00  0.00    -0.206 F 
ATOM     87  C   UNL A   1      38.972  35.634  39.071  1.00  0.00     0.006 A 
ENDBRANCH  63  80
ENDBRANCH  37  38
ENDBRANCH  30  32
ENDBRANCH  29  30
ENDBRANCH  28  29
ENDBRANCH  27  28
ENDBRANCH  26  27
ENDBRANCH   1  26
TORSDOF 18
ENDMDL
