MODEL 1
REMARK VINA RESULT:     -13.3      0.000      0.000
REMARK SMILES Cc1ccc([C@@]23C[C@@H]4C[C@@H](C[C@@](C(=O)N5CCC(C(=O)OCCOCCOC(=O)c6ccc(-c7c8nc(c(-c9c(F)cccc9F)c9ccc([nH]9)c(-c9c(F)cccc9F)c9nc(c(-c%10c(F)cccc%10F)c%10ccc7[nH]%10)C=C9)C=C8)cc6)CC5)(C4)C2)C3)cc1
REMARK SMILES IDX 24 1 23 2 22 3 21 4 19 5 20 6 18 7 13 8 14 9 15 10 16 11
REMARK SMILES IDX 85 12 17 13 84 14 12 15 6 16 7 17 87 18 88 19 8 20 10 21
REMARK SMILES IDX 9 22 86 23 11 24 5 25 1 26 2 27 3 28 90 29 4 30 89 31 25 32
REMARK SMILES IDX 26 33 27 34 28 35 29 36 30 37 31 38 83 39 32 40 82 41 33 42
REMARK SMILES IDX 34 43 35 44 76 45 36 46 81 47 75 48 77 49 37 50 80 51 74 52
REMARK SMILES IDX 73 53 38 55 64 56 47 57 63 58 48 59 51 60 62 61 78 62 49 63
REMARK SMILES IDX 50 64 61 66 79 67 52 68 39 69 40 70 45 71 41 72 42 73 44 74
REMARK SMILES IDX 46 75 43 76 65 77 66 78 71 79 67 80 68 81 70 82 72 83 69 84
REMARK SMILES IDX 53 85 54 86 59 87 55 88 56 89 58 90 60 91 57 92
REMARK H PARENT 77 54 51 65
REMARK Flexibility Score: inf
ROOT
ATOM      1  O   UNL A   1      32.525  29.397  26.836  1.00  0.00    -0.374 OA
ENDROOT
BRANCH   1   2
ATOM      2  C   UNL A   1      31.810  30.421  26.168  1.00  0.00     0.202 C 
BRANCH   2   3
ATOM      3  C   UNL A   1      31.411  29.826  24.861  1.00  0.00     0.261 C 
BRANCH   3   4
ATOM      4  O   UNL A   1      30.864  28.513  25.012  1.00  0.00    -0.463 OA
BRANCH   4   5
ATOM      5  C   UNL A   1      30.543  27.786  23.889  1.00  0.00     0.309 C 
ATOM      6  O   UNL A   1      29.445  27.447  23.522  1.00  0.00    -0.252 OA
BRANCH   5   7
ATOM      7  C   UNL A   1      31.828  27.517  23.141  1.00  0.00     0.103 C 
ATOM      8  C   UNL A   1      33.391  23.867  22.975  1.00  0.00     0.228 C 
ATOM      9  O   UNL A   1      32.618  23.136  22.353  1.00  0.00    -0.274 OA
ATOM     10  N   UNL A   1      33.478  25.246  22.715  1.00  0.00    -0.342 N 
ATOM     11  C   UNL A   1      32.807  25.784  21.545  1.00  0.00     0.120 C 
ATOM     12  C   UNL A   1      33.995  26.309  23.592  1.00  0.00     0.120 C 
ATOM     13  C   UNL A   1      31.563  26.521  21.999  1.00  0.00     0.037 C 
ATOM     14  C   UNL A   1      32.838  27.043  24.199  1.00  0.00     0.037 C 
BRANCH   8  15
ATOM     15  C   UNL A   1      34.374  23.267  23.998  1.00  0.00     0.051 C 
ATOM     16  C   UNL A   1      34.789  20.960  25.048  1.00  0.00    -0.003 C 
ATOM     17  C   UNL A   1      36.214  21.060  24.422  1.00  0.00     0.015 C 
ATOM     18  C   UNL A   1      33.850  21.851  24.246  1.00  0.00     0.028 C 
ATOM     19  C   UNL A   1      34.809  21.599  26.458  1.00  0.00     0.015 C 
ATOM     20  C   UNL A   1      36.737  22.510  24.411  1.00  0.00    -0.009 C 
ATOM     21  C   UNL A   1      35.272  23.080  26.370  1.00  0.00    -0.009 C 
ATOM     22  C   UNL A   1      36.713  23.088  25.833  1.00  0.00     0.007 C 
ATOM     23  C   UNL A   1      35.835  23.367  23.516  1.00  0.00     0.020 C 
ATOM     24  C   UNL A   1      34.364  23.913  25.411  1.00  0.00     0.020 C 
BRANCH  16  25
ATOM     25  C   UNL A   1      34.275  19.505  25.001  1.00  0.00    -0.042 A 
ATOM     26  C   UNL A   1      32.928  15.377  25.126  1.00  0.00     0.044 C 
ATOM     27  C   UNL A   1      33.374  16.805  25.090  1.00  0.00    -0.051 A 
ATOM     28  C   UNL A   1      34.657  17.099  24.650  1.00  0.00     0.004 A 
ATOM     29  C   UNL A   1      32.539  17.859  25.480  1.00  0.00     0.004 A 
ATOM     30  C   UNL A   1      35.087  18.421  24.590  1.00  0.00     0.004 A 
ATOM     31  C   UNL A   1      32.984  19.189  25.438  1.00  0.00     0.004 A 
ENDBRANCH  16  25
ENDBRANCH   8  15
ENDBRANCH   5   7
ENDBRANCH   4   5
ENDBRANCH   3   4
ENDBRANCH   2   3
ENDBRANCH   1   2
BRANCH   1  32
ATOM     32  C   UNL A   1      33.836  29.733  27.242  1.00  0.00     0.202 C 
BRANCH  32  33
ATOM     33  C   UNL A   1      34.045  31.243  27.425  1.00  0.00     0.261 C 
BRANCH  33  34
ATOM     34  O   UNL A   1      35.455  31.516  27.581  1.00  0.00    -0.460 OA
BRANCH  34  35
ATOM     35  C   UNL A   1      35.977  31.352  28.828  1.00  0.00     0.338 C 
ATOM     36  O   UNL A   1      36.020  32.206  29.699  1.00  0.00    -0.246 OA
BRANCH  35  37
ATOM     37  C   UNL A   1      36.774  30.088  28.874  1.00  0.00     0.060 A 
ATOM     38  C   UNL A   1      36.805  29.321  30.057  1.00  0.00     0.016 A 
ATOM     39  C   UNL A   1      37.736  29.878  27.889  1.00  0.00     0.016 A 
ATOM     40  C   UNL A   1      37.897  28.480  30.328  1.00  0.00     0.010 A 
ATOM     41  C   UNL A   1      38.846  29.120  28.197  1.00  0.00     0.010 A 
ATOM     42  C   UNL A   1      38.964  28.457  29.433  1.00  0.00    -0.014 A 
BRANCH  42  43
ATOM     43  C   UNL A   1      40.308  27.932  29.706  1.00  0.00     0.031 A 
ATOM     44  C   UNL A   1      40.652  26.605  29.158  1.00  0.00     0.074 A 
ATOM     45  C   UNL A   1      41.311  28.732  30.157  1.00  0.00     0.049 A 
ATOM     46  N   UNL A   1      41.757  26.008  29.421  1.00  0.00    -0.248 NA
ATOM     47  C   UNL A   1      39.782  25.805  28.294  1.00  0.00     0.031 C 
ATOM     48  C   UNL A   1      42.761  28.577  29.998  1.00  0.00     0.029 A 
ATOM     49  N   UNL A   1      41.230  29.911  30.906  1.00  0.00    -0.354 N 
ATOM     50  C   UNL A   1      41.925  25.035  28.474  1.00  0.00     0.074 A 
ATOM     51  C   UNL A   1      40.610  24.819  27.933  1.00  0.00     0.031 C 
ATOM     52  C   UNL A   1      43.398  29.386  30.864  1.00  0.00     0.029 A 
ATOM     53  C   UNL A   1      42.387  30.015  31.695  1.00  0.00     0.049 A 
ATOM     54  H   UNL A   1      40.488  30.557  30.884  1.00  0.00     0.167 HD
ATOM     55  C   UNL A   1      43.200  24.661  28.173  1.00  0.00     0.037 A 
ATOM     56  C   UNL A   1      42.265  30.014  33.047  1.00  0.00     0.037 A 
ATOM     57  C   UNL A   1      44.161  25.211  29.157  1.00  0.00     0.049 A 
ATOM     58  C   UNL A   1      42.817  28.711  33.564  1.00  0.00     0.074 A 
ATOM     59  C   UNL A   1      45.250  26.063  29.126  1.00  0.00     0.029 A 
ATOM     60  N   UNL A   1      43.854  25.073  30.512  1.00  0.00    -0.354 N 
ATOM     61  N   UNL A   1      43.328  27.813  32.764  1.00  0.00    -0.248 NA
ATOM     62  C   UNL A   1      42.854  28.272  34.949  1.00  0.00     0.031 C 
ATOM     63  C   UNL A   1      45.541  26.469  30.480  1.00  0.00     0.029 A 
ATOM     64  C   UNL A   1      44.666  25.823  31.340  1.00  0.00     0.049 A 
ATOM     65  H   UNL A   1      43.128  24.497  30.845  1.00  0.00     0.167 HD
ATOM     66  C   UNL A   1      43.794  26.744  33.441  1.00  0.00     0.074 A 
ATOM     67  C   UNL A   1      43.406  27.047  34.817  1.00  0.00     0.031 C 
ATOM     68  C   UNL A   1      44.459  25.734  32.795  1.00  0.00     0.037 A 
BRANCH  55  69
ATOM     69  C   UNL A   1      43.572  23.891  26.921  1.00  0.00     0.057 A 
ATOM     70  C   UNL A   1      44.151  24.553  25.825  1.00  0.00     0.134 A 
ATOM     71  C   UNL A   1      43.333  22.514  26.698  1.00  0.00     0.134 A 
ATOM     72  F   UNL A   1      44.392  25.871  25.860  1.00  0.00    -0.206 F 
ATOM     73  C   UNL A   1      44.499  23.897  24.632  1.00  0.00     0.040 A 
ATOM     74  C   UNL A   1      43.730  21.836  25.536  1.00  0.00     0.040 A 
ATOM     75  F   UNL A   1      42.644  21.756  27.558  1.00  0.00    -0.206 F 
ATOM     76  C   UNL A   1      44.314  22.528  24.491  1.00  0.00     0.006 A 
ENDBRANCH  55  69
BRANCH  56  77
ATOM     77  C   UNL A   1      41.081  30.842  33.456  1.00  0.00     0.057 A 
ATOM     78  C   UNL A   1      39.909  30.137  33.829  1.00  0.00     0.134 A 
ATOM     79  C   UNL A   1      41.219  32.125  33.997  1.00  0.00     0.134 A 
ATOM     80  F   UNL A   1      39.707  28.887  33.382  1.00  0.00    -0.206 F 
ATOM     81  C   UNL A   1      39.008  30.619  34.791  1.00  0.00     0.040 A 
ATOM     82  C   UNL A   1      40.320  32.618  34.964  1.00  0.00     0.040 A 
ATOM     83  F   UNL A   1      42.307  32.862  33.727  1.00  0.00    -0.206 F 
ATOM     84  C   UNL A   1      39.238  31.849  35.395  1.00  0.00     0.006 A 
ENDBRANCH  56  77
BRANCH  68  85
ATOM     85  C   UNL A   1      44.913  24.503  33.519  1.00  0.00     0.057 A 
ATOM     86  C   UNL A   1      44.034  23.500  33.939  1.00  0.00     0.134 A 
ATOM     87  C   UNL A   1      46.271  24.283  33.828  1.00  0.00     0.134 A 
ATOM     88  F   UNL A   1      42.706  23.680  33.908  1.00  0.00    -0.206 F 
ATOM     89  C   UNL A   1      44.489  22.276  34.431  1.00  0.00     0.040 A 
ATOM     90  C   UNL A   1      46.734  23.090  34.375  1.00  0.00     0.040 A 
ATOM     91  F   UNL A   1      47.223  25.196  33.602  1.00  0.00    -0.206 F 
ATOM     92  C   UNL A   1      45.847  22.060  34.628  1.00  0.00     0.006 A 
ENDBRANCH  68  85
ENDBRANCH  42  43
ENDBRANCH  35  37
ENDBRANCH  34  35
ENDBRANCH  33  34
ENDBRANCH  32  33
ENDBRANCH   1  32
TORSDOF 16
ENDMDL
MODEL 2
REMARK VINA RESULT:     -13.3      3.922      9.550
REMARK SMILES Cc1ccc([C@@]23C[C@@H]4C[C@@H](C[C@@](C(=O)N5CCC(C(=O)OCCOCCOC(=O)c6ccc(-c7c8nc(c(-c9c(F)cccc9F)c9ccc([nH]9)c(-c9c(F)cccc9F)c9nc(c(-c%10c(F)cccc%10F)c%10ccc7[nH]%10)C=C9)C=C8)cc6)CC5)(C4)C2)C3)cc1
REMARK SMILES IDX 24 1 23 2 22 3 21 4 19 5 20 6 18 7 13 8 14 9 15 10 16 11
REMARK SMILES IDX 85 12 17 13 84 14 12 15 6 16 7 17 87 18 88 19 8 20 10 21
REMARK SMILES IDX 9 22 86 23 11 24 5 25 1 26 2 27 3 28 90 29 4 30 89 31 25 32
REMARK SMILES IDX 26 33 27 34 28 35 29 36 30 37 31 38 83 39 32 40 82 41 33 42
REMARK SMILES IDX 34 43 35 44 76 45 36 46 81 47 75 48 77 49 37 50 80 51 74 52
REMARK SMILES IDX 73 53 38 55 64 56 47 57 63 58 48 59 51 60 62 61 78 62 49 63
REMARK SMILES IDX 50 64 61 66 79 67 52 68 39 69 40 70 45 71 41 72 42 73 44 74
REMARK SMILES IDX 46 75 43 76 65 77 66 78 71 79 67 80 68 81 70 82 72 83 69 84
REMARK SMILES IDX 53 85 54 86 59 87 55 88 56 89 58 90 60 91 57 92
REMARK H PARENT 77 54 51 65
REMARK Flexibility Score: inf
ROOT
ATOM      1  O   UNL A   1      41.490  19.209  25.709  1.00  0.00    -0.374 OA
ENDROOT
BRANCH   1   2
ATOM      2  C   UNL A   1      40.616  20.105  26.372  1.00  0.00     0.202 C 
BRANCH   2   3
ATOM      3  C   UNL A   1      39.444  20.249  25.462  1.00  0.00     0.261 C 
BRANCH   3   4
ATOM      4  O   UNL A   1      38.686  21.428  25.744  1.00  0.00    -0.463 OA
BRANCH   4   5
ATOM      5  C   UNL A   1      37.472  21.610  25.123  1.00  0.00     0.309 C 
ATOM      6  O   UNL A   1      37.091  21.111  24.093  1.00  0.00    -0.252 OA
BRANCH   5   7
ATOM      7  C   UNL A   1      36.648  22.528  25.997  1.00  0.00     0.103 C 
ATOM      8  C   UNL A   1      32.941  23.551  24.995  1.00  0.00     0.228 C 
ATOM      9  O   UNL A   1      32.236  22.541  25.013  1.00  0.00    -0.274 OA
ATOM     10  N   UNL A   1      34.063  23.688  25.834  1.00  0.00    -0.342 N 
ATOM     11  C   UNL A   1      34.269  22.719  26.894  1.00  0.00     0.120 C 
ATOM     12  C   UNL A   1      35.221  24.581  25.669  1.00  0.00     0.120 C 
ATOM     13  C   UNL A   1      35.393  21.788  26.486  1.00  0.00     0.037 C 
ATOM     14  C   UNL A   1      36.378  23.783  25.149  1.00  0.00     0.037 C 
BRANCH   8  15
ATOM     15  C   UNL A   1      32.552  24.755  24.118  1.00  0.00     0.051 C 
ATOM     16  C   UNL A   1      32.492  27.310  24.384  1.00  0.00    -0.003 C 
ATOM     17  C   UNL A   1      33.491  27.341  23.187  1.00  0.00     0.015 C 
ATOM     18  C   UNL A   1      32.608  25.954  25.069  1.00  0.00     0.028 C 
ATOM     19  C   UNL A   1      31.045  27.339  23.838  1.00  0.00     0.015 C 
ATOM     20  C   UNL A   1      33.213  26.211  22.176  1.00  0.00    -0.009 C 
ATOM     21  C   UNL A   1      30.805  26.133  22.885  1.00  0.00    -0.009 C 
ATOM     22  C   UNL A   1      31.760  26.286  21.690  1.00  0.00     0.007 C 
ATOM     23  C   UNL A   1      33.435  24.857  22.858  1.00  0.00     0.020 C 
ATOM     24  C   UNL A   1      31.089  24.772  23.595  1.00  0.00     0.020 C 
BRANCH  16  25
ATOM     25  C   UNL A   1      32.825  28.423  25.400  1.00  0.00    -0.042 A 
ATOM     26  C   UNL A   1      33.896  31.689  28.057  1.00  0.00     0.044 C 
ATOM     27  C   UNL A   1      33.509  30.573  27.137  1.00  0.00    -0.051 A 
ATOM     28  C   UNL A   1      34.377  29.502  26.978  1.00  0.00     0.004 A 
ATOM     29  C   UNL A   1      32.298  30.568  26.436  1.00  0.00     0.004 A 
ATOM     30  C   UNL A   1      34.031  28.444  26.142  1.00  0.00     0.004 A 
ATOM     31  C   UNL A   1      31.962  29.509  25.578  1.00  0.00     0.004 A 
ENDBRANCH  16  25
ENDBRANCH   8  15
ENDBRANCH   5   7
ENDBRANCH   4   5
ENDBRANCH   3   4
ENDBRANCH   2   3
ENDBRANCH   1   2
BRANCH   1  32
ATOM     32  C   UNL A   1      42.681  18.895  26.400  1.00  0.00     0.202 C 
BRANCH  32  33
ATOM     33  C   UNL A   1      43.930  18.940  25.508  1.00  0.00     0.261 C 
BRANCH  33  34
ATOM     34  O   UNL A   1      43.926  20.164  24.741  1.00  0.00    -0.460 OA
BRANCH  34  35
ATOM     35  C   UNL A   1      44.806  21.130  25.123  1.00  0.00     0.338 C 
ATOM     36  O   UNL A   1      45.952  20.940  25.498  1.00  0.00    -0.246 OA
BRANCH  35  37
ATOM     37  C   UNL A   1      44.077  22.419  25.324  1.00  0.00     0.060 A 
ATOM     38  C   UNL A   1      44.413  23.544  24.543  1.00  0.00     0.016 A 
ATOM     39  C   UNL A   1      43.340  22.586  26.494  1.00  0.00     0.016 A 
ATOM     40  C   UNL A   1      44.170  24.840  25.026  1.00  0.00     0.010 A 
ATOM     41  C   UNL A   1      43.183  23.858  27.004  1.00  0.00     0.010 A 
ATOM     42  C   UNL A   1      43.639  24.991  26.305  1.00  0.00    -0.014 A 
BRANCH  42  43
ATOM     43  C   UNL A   1      43.643  26.225  27.102  1.00  0.00     0.031 A 
ATOM     44  C   UNL A   1      42.398  27.014  27.153  1.00  0.00     0.074 A 
ATOM     45  C   UNL A   1      44.619  26.485  28.011  1.00  0.00     0.049 A 
ATOM     46  N   UNL A   1      42.320  28.157  27.732  1.00  0.00    -0.248 NA
ATOM     47  C   UNL A   1      41.130  26.619  26.536  1.00  0.00     0.031 C 
ATOM     48  C   UNL A   1      44.561  27.316  29.219  1.00  0.00     0.029 A 
ATOM     49  N   UNL A   1      45.946  26.042  28.033  1.00  0.00    -0.354 N 
ATOM     50  C   UNL A   1      40.993  28.414  27.943  1.00  0.00     0.074 A 
ATOM     51  C   UNL A   1      40.302  27.549  27.024  1.00  0.00     0.031 C 
ATOM     52  C   UNL A   1      45.810  27.577  29.647  1.00  0.00     0.029 A 
ATOM     53  C   UNL A   1      46.729  27.018  28.672  1.00  0.00     0.049 A 
ATOM     54  H   UNL A   1      46.276  25.191  27.664  1.00  0.00     0.167 HD
ATOM     55  C   UNL A   1      40.665  29.220  28.991  1.00  0.00     0.037 A 
ATOM     56  C   UNL A   1      47.717  27.632  27.973  1.00  0.00     0.037 A 
ATOM     57  C   UNL A   1      41.865  29.891  29.541  1.00  0.00     0.049 A 
ATOM     58  C   UNL A   1      47.298  29.060  27.732  1.00  0.00     0.074 A 
ATOM     59  C   UNL A   1      42.528  29.921  30.754  1.00  0.00     0.029 A 
ATOM     60  N   UNL A   1      42.744  30.494  28.639  1.00  0.00    -0.354 N 
ATOM     61  N   UNL A   1      46.168  29.532  28.185  1.00  0.00    -0.248 NA
ATOM     62  C   UNL A   1      48.037  30.069  26.991  1.00  0.00     0.031 C 
ATOM     63  C   UNL A   1      43.832  30.500  30.538  1.00  0.00     0.029 A 
ATOM     64  C   UNL A   1      43.944  30.871  29.207  1.00  0.00     0.049 A 
ATOM     65  H   UNL A   1      42.528  30.636  27.689  1.00  0.00     0.167 HD
ATOM     66  C   UNL A   1      46.013  30.838  27.888  1.00  0.00     0.074 A 
ATOM     67  C   UNL A   1      47.189  31.117  27.067  1.00  0.00     0.031 C 
ATOM     68  C   UNL A   1      44.940  31.548  28.360  1.00  0.00     0.037 A 
BRANCH  55  69
ATOM     69  C   UNL A   1      39.269  29.303  29.577  1.00  0.00     0.057 A 
ATOM     70  C   UNL A   1      38.990  28.736  30.832  1.00  0.00     0.134 A 
ATOM     71  C   UNL A   1      38.138  29.865  28.938  1.00  0.00     0.134 A 
ATOM     72  F   UNL A   1      39.945  28.118  31.541  1.00  0.00    -0.206 F 
ATOM     73  C   UNL A   1      37.713  28.765  31.418  1.00  0.00     0.040 A 
ATOM     74  C   UNL A   1      36.872  29.953  29.537  1.00  0.00     0.040 A 
ATOM     75  F   UNL A   1      38.171  30.303  27.675  1.00  0.00    -0.206 F 
ATOM     76  C   UNL A   1      36.652  29.397  30.784  1.00  0.00     0.006 A 
ENDBRANCH  55  69
BRANCH  56  77
ATOM     77  C   UNL A   1      48.435  26.633  27.113  1.00  0.00     0.057 A 
ATOM     78  C   UNL A   1      48.204  26.710  25.717  1.00  0.00     0.134 A 
ATOM     79  C   UNL A   1      49.649  26.053  27.499  1.00  0.00     0.134 A 
ATOM     80  F   UNL A   1      47.080  27.279  25.253  1.00  0.00    -0.206 F 
ATOM     81  C   UNL A   1      49.180  26.368  24.767  1.00  0.00     0.040 A 
ATOM     82  C   UNL A   1      50.634  25.706  26.553  1.00  0.00     0.040 A 
ATOM     83  F   UNL A   1      49.973  25.959  28.797  1.00  0.00    -0.206 F 
ATOM     84  C   UNL A   1      50.419  25.904  25.189  1.00  0.00     0.006 A 
ENDBRANCH  56  77
BRANCH  68  85
ATOM     85  C   UNL A   1      44.711  32.978  27.972  1.00  0.00     0.057 A 
ATOM     86  C   UNL A   1      44.192  33.356  26.731  1.00  0.00     0.134 A 
ATOM     87  C   UNL A   1      45.016  34.041  28.848  1.00  0.00     0.134 A 
ATOM     88  F   UNL A   1      44.066  32.472  25.730  1.00  0.00    -0.206 F 
ATOM     89  C   UNL A   1      43.800  34.668  26.461  1.00  0.00     0.040 A 
ATOM     90  C   UNL A   1      44.687  35.363  28.567  1.00  0.00     0.040 A 
ATOM     91  F   UNL A   1      45.627  33.859  30.024  1.00  0.00    -0.206 F 
ATOM     92  C   UNL A   1      44.027  35.674  27.392  1.00  0.00     0.006 A 
ENDBRANCH  68  85
ENDBRANCH  42  43
ENDBRANCH  35  37
ENDBRANCH  34  35
ENDBRANCH  33  34
ENDBRANCH  32  33
ENDBRANCH   1  32
TORSDOF 16
ENDMDL
MODEL 3
REMARK VINA RESULT:     -13.1      1.997      3.335
REMARK SMILES Cc1ccc([C@@]23C[C@@H]4C[C@@H](C[C@@](C(=O)N5CCC(C(=O)OCCOCCOC(=O)c6ccc(-c7c8nc(c(-c9c(F)cccc9F)c9ccc([nH]9)c(-c9c(F)cccc9F)c9nc(c(-c%10c(F)cccc%10F)c%10ccc7[nH]%10)C=C9)C=C8)cc6)CC5)(C4)C2)C3)cc1
REMARK SMILES IDX 24 1 23 2 22 3 21 4 19 5 20 6 18 7 13 8 14 9 15 10 16 11
REMARK SMILES IDX 85 12 17 13 84 14 12 15 6 16 7 17 87 18 88 19 8 20 10 21
REMARK SMILES IDX 9 22 86 23 11 24 5 25 1 26 2 27 3 28 90 29 4 30 89 31 25 32
REMARK SMILES IDX 26 33 27 34 28 35 29 36 30 37 31 38 83 39 32 40 82 41 33 42
REMARK SMILES IDX 34 43 35 44 76 45 36 46 81 47 75 48 77 49 37 50 80 51 74 52
REMARK SMILES IDX 73 53 38 55 64 56 47 57 63 58 48 59 51 60 62 61 78 62 49 63
REMARK SMILES IDX 50 64 61 66 79 67 52 68 39 69 40 70 45 71 41 72 42 73 44 74
REMARK SMILES IDX 46 75 43 76 65 77 66 78 71 79 67 80 68 81 70 82 72 83 69 84
REMARK SMILES IDX 53 85 54 86 59 87 55 88 56 89 58 90 60 91 57 92
REMARK H PARENT 77 54 51 65
REMARK Flexibility Score: inf
ROOT
ATOM      1  O   UNL A   1      32.332  33.448  27.606  1.00  0.00    -0.374 OA
ENDROOT
BRANCH   1   2
ATOM      2  C   UNL A   1      32.013  32.139  27.170  1.00  0.00     0.202 C 
BRANCH   2   3
ATOM      3  C   UNL A   1      33.284  31.369  27.293  1.00  0.00     0.261 C 
BRANCH   3   4
ATOM      4  O   UNL A   1      33.051  29.997  27.622  1.00  0.00    -0.463 OA
BRANCH   4   5
ATOM      5  C   UNL A   1      33.626  29.015  26.848  1.00  0.00     0.309 C 
ATOM      6  O   UNL A   1      34.778  28.657  26.851  1.00  0.00    -0.252 OA
BRANCH   5   7
ATOM      7  C   UNL A   1      32.532  28.406  26.002  1.00  0.00     0.103 C 
ATOM      8  C   UNL A   1      31.759  24.510  26.125  1.00  0.00     0.228 C 
ATOM      9  O   UNL A   1      31.350  24.225  27.251  1.00  0.00    -0.274 OA
ATOM     10  N   UNL A   1      31.549  25.780  25.558  1.00  0.00    -0.342 N 
ATOM     11  C   UNL A   1      30.646  26.703  26.219  1.00  0.00     0.120 C 
ATOM     12  C   UNL A   1      32.291  26.424  24.462  1.00  0.00     0.120 C 
ATOM     13  C   UNL A   1      31.468  27.771  26.913  1.00  0.00     0.037 C 
ATOM     14  C   UNL A   1      33.237  27.432  25.043  1.00  0.00     0.037 C 
BRANCH   8  15
ATOM     15  C   UNL A   1      32.431  23.436  25.248  1.00  0.00     0.051 C 
ATOM     16  C   UNL A   1      34.807  22.511  24.935  1.00  0.00    -0.003 C 
ATOM     17  C   UNL A   1      34.201  21.136  25.354  1.00  0.00     0.015 C 
ATOM     18  C   UNL A   1      33.929  23.616  25.508  1.00  0.00     0.028 C 
ATOM     19  C   UNL A   1      34.676  22.676  23.402  1.00  0.00     0.015 C 
ATOM     20  C   UNL A   1      32.750  20.972  24.860  1.00  0.00    -0.009 C 
ATOM     21  C   UNL A   1      33.183  22.575  22.976  1.00  0.00    -0.009 C 
ATOM     22  C   UNL A   1      32.688  21.165  23.339  1.00  0.00     0.007 C 
ATOM     23  C   UNL A   1      31.866  22.030  25.528  1.00  0.00     0.020 C 
ATOM     24  C   UNL A   1      32.301  23.633  23.712  1.00  0.00     0.020 C 
BRANCH  16  25
ATOM     25  C   UNL A   1      36.241  22.664  25.484  1.00  0.00    -0.042 A 
ATOM     26  C   UNL A   1      40.355  23.187  26.779  1.00  0.00     0.044 C 
ATOM     27  C   UNL A   1      38.933  23.026  26.339  1.00  0.00    -0.051 A 
ATOM     28  C   UNL A   1      38.541  21.828  25.757  1.00  0.00     0.004 A 
ATOM     29  C   UNL A   1      37.982  24.039  26.500  1.00  0.00     0.004 A 
ATOM     30  C   UNL A   1      37.220  21.649  25.357  1.00  0.00     0.004 A 
ATOM     31  C   UNL A   1      36.655  23.862  26.077  1.00  0.00     0.004 A 
ENDBRANCH  16  25
ENDBRANCH   8  15
ENDBRANCH   5   7
ENDBRANCH   4   5
ENDBRANCH   3   4
ENDBRANCH   2   3
ENDBRANCH   1   2
BRANCH   1  32
ATOM     32  C   UNL A   1      33.709  33.724  27.756  1.00  0.00     0.202 C 
BRANCH  32  33
ATOM     33  C   UNL A   1      34.049  34.407  29.088  1.00  0.00     0.261 C 
BRANCH  33  34
ATOM     34  O   UNL A   1      35.232  33.798  29.650  1.00  0.00    -0.460 OA
BRANCH  34  35
ATOM     35  C   UNL A   1      35.044  32.713  30.451  1.00  0.00     0.338 C 
ATOM     36  O   UNL A   1      34.404  32.700  31.490  1.00  0.00    -0.246 OA
BRANCH  35  37
ATOM     37  C   UNL A   1      35.989  31.626  30.051  1.00  0.00     0.060 A 
ATOM     38  C   UNL A   1      35.902  30.360  30.665  1.00  0.00     0.016 A 
ATOM     39  C   UNL A   1      37.141  31.978  29.352  1.00  0.00     0.016 A 
ATOM     40  C   UNL A   1      37.030  29.527  30.733  1.00  0.00     0.010 A 
ATOM     41  C   UNL A   1      38.269  31.196  29.497  1.00  0.00     0.010 A 
ATOM     42  C   UNL A   1      38.241  29.994  30.229  1.00  0.00    -0.014 A 
BRANCH  42  43
ATOM     43  C   UNL A   1      39.569  29.435  30.514  1.00  0.00     0.031 A 
ATOM     44  C   UNL A   1      39.948  28.181  29.836  1.00  0.00     0.074 A 
ATOM     45  C   UNL A   1      40.541  30.174  31.112  1.00  0.00     0.049 A 
ATOM     46  N   UNL A   1      41.038  27.553  30.090  1.00  0.00    -0.248 NA
ATOM     47  C   UNL A   1      39.132  27.491  28.835  1.00  0.00     0.031 C 
ATOM     48  C   UNL A   1      41.999  30.034  31.020  1.00  0.00     0.029 A 
ATOM     49  N   UNL A   1      40.413  31.257  31.988  1.00  0.00    -0.354 N 
ATOM     50  C   UNL A   1      41.264  26.697  29.047  1.00  0.00     0.074 A 
ATOM     51  C   UNL A   1      39.982  26.550  28.410  1.00  0.00     0.031 C 
ATOM     52  C   UNL A   1      42.582  30.733  32.010  1.00  0.00     0.029 A 
ATOM     53  C   UNL A   1      41.523  31.264  32.849  1.00  0.00     0.049 A 
ATOM     54  H   UNL A   1      39.672  31.904  32.000  1.00  0.00     0.167 HD
ATOM     55  C   UNL A   1      42.555  26.356  28.778  1.00  0.00     0.037 A 
ATOM     56  C   UNL A   1      41.324  31.106  34.183  1.00  0.00     0.037 A 
ATOM     57  C   UNL A   1      43.455  26.784  29.873  1.00  0.00     0.049 A 
ATOM     58  C   UNL A   1      41.850  29.749  34.575  1.00  0.00     0.074 A 
ATOM     59  C   UNL A   1      44.542  27.630  30.004  1.00  0.00     0.029 A 
ATOM     60  N   UNL A   1      43.072  26.490  31.183  1.00  0.00    -0.354 N 
ATOM     61  N   UNL A   1      42.408  28.949  33.706  1.00  0.00    -0.248 NA
ATOM     62  C   UNL A   1      41.809  29.151  35.899  1.00  0.00     0.031 C 
ATOM     63  C   UNL A   1      44.753  27.874  31.410  1.00  0.00     0.029 A 
ATOM     64  C   UNL A   1      43.833  27.135  32.137  1.00  0.00     0.049 A 
ATOM     65  H   UNL A   1      42.330  25.881  31.404  1.00  0.00     0.167 HD
ATOM     66  C   UNL A   1      42.839  27.807  34.279  1.00  0.00     0.074 A 
ATOM     67  C   UNL A   1      42.372  27.948  35.656  1.00  0.00     0.031 C 
ATOM     68  C   UNL A   1      43.543  26.878  33.558  1.00  0.00     0.037 A 
BRANCH  55  69
ATOM     69  C   UNL A   1      43.001  25.736  27.468  1.00  0.00     0.057 A 
ATOM     70  C   UNL A   1      43.644  24.487  27.456  1.00  0.00     0.134 A 
ATOM     71  C   UNL A   1      42.891  26.337  26.192  1.00  0.00     0.134 A 
ATOM     72  F   UNL A   1      43.871  23.813  28.592  1.00  0.00    -0.206 F 
ATOM     73  C   UNL A   1      44.097  23.871  26.276  1.00  0.00     0.040 A 
ATOM     74  C   UNL A   1      43.285  25.708  25.001  1.00  0.00     0.040 A 
ATOM     75  F   UNL A   1      42.459  27.592  26.023  1.00  0.00    -0.206 F 
ATOM     76  C   UNL A   1      43.896  24.468  25.039  1.00  0.00     0.006 A 
ENDBRANCH  55  69
BRANCH  56  77
ATOM     77  C   UNL A   1      40.116  31.885  34.617  1.00  0.00     0.057 A 
ATOM     78  C   UNL A   1      38.938  31.140  34.875  1.00  0.00     0.134 A 
ATOM     79  C   UNL A   1      40.218  33.114  35.279  1.00  0.00     0.134 A 
ATOM     80  F   UNL A   1      38.767  29.935  34.308  1.00  0.00    -0.206 F 
ATOM     81  C   UNL A   1      37.994  31.525  35.841  1.00  0.00     0.040 A 
ATOM     82  C   UNL A   1      39.276  33.509  36.249  1.00  0.00     0.040 A 
ATOM     83  F   UNL A   1      41.308  33.879  35.121  1.00  0.00    -0.206 F 
ATOM     84  C   UNL A   1      38.186  32.696  36.564  1.00  0.00     0.006 A 
ENDBRANCH  56  77
BRANCH  68  85
ATOM     85  C   UNL A   1      43.959  25.568  34.158  1.00  0.00     0.057 A 
ATOM     86  C   UNL A   1      43.045  24.643  34.671  1.00  0.00     0.134 A 
ATOM     87  C   UNL A   1      45.314  25.190  34.246  1.00  0.00     0.134 A 
ATOM     88  F   UNL A   1      41.756  24.963  34.852  1.00  0.00    -0.206 F 
ATOM     89  C   UNL A   1      43.428  23.353  35.042  1.00  0.00     0.040 A 
ATOM     90  C   UNL A   1      45.716  23.928  34.671  1.00  0.00     0.040 A 
ATOM     91  F   UNL A   1      46.318  26.009  33.909  1.00  0.00    -0.206 F 
ATOM     92  C   UNL A   1      44.768  22.985  35.020  1.00  0.00     0.006 A 
ENDBRANCH  68  85
ENDBRANCH  42  43
ENDBRANCH  35  37
ENDBRANCH  34  35
ENDBRANCH  33  34
ENDBRANCH  32  33
ENDBRANCH   1  32
TORSDOF 16
ENDMDL
