MODEL 1
REMARK VINA RESULT:     -11.5      0.000      0.000
REMARK SMILES O=C(OCCOCCOC(=O)c1ccc(-c2c3nc(c(-c4c(F)cccc4F)c4ccc([nH]4)c(-c4c(F)cccc4F)c4nc(c(-c5c(F)cccc5F)c5ccc2[nH]5)C=C4)C=C3)cc1)C1=Cc2c(cc(Cl)c(Cl)c2Cl)O[C@H]1C(F)(F)F
REMARK SMILES IDX 7 1 6 2 5 3 4 4 3 5 2 6 1 7 66 8 67 9 78 10 68 11 77 12
REMARK SMILES IDX 69 13 75 14 70 15 73 16 76 17 71 18 74 19 72 20 79 21 80 22
REMARK SMILES IDX 81 23 82 24 8 25 9 26 10 27 11 28 12 29 13 30 65 31 14 32
REMARK SMILES IDX 64 33 15 34 16 35 17 36 58 37 18 38 63 39 57 40 59 41 19 42
REMARK SMILES IDX 62 43 56 44 55 45 20 47 46 48 29 49 45 50 30 51 33 52 44 53
REMARK SMILES IDX 60 54 31 55 32 56 43 58 61 59 34 60 21 61 22 62 27 63 23 64
REMARK SMILES IDX 24 65 26 66 28 67 25 68 47 69 48 70 53 71 49 72 50 73 52 74
REMARK SMILES IDX 54 75 51 76 35 77 36 78 41 79 37 80 38 81 40 82 42 83 39 84
REMARK H PARENT 59 46 33 57
REMARK Flexibility Score: inf
ROOT
ATOM      1  C   UNL A   1      31.782  30.969  26.477  1.00  0.00     0.202 C 
ENDROOT
BRANCH   1   2
ATOM      2  O   UNL A   1      31.024  30.549  25.347  1.00  0.00    -0.374 OA
BRANCH   2   3
ATOM      3  C   UNL A   1      31.531  29.360  24.738  1.00  0.00     0.202 C 
BRANCH   3   4
ATOM      4  C   UNL A   1      33.060  29.311  24.782  1.00  0.00     0.261 C 
BRANCH   4   5
ATOM      5  O   UNL A   1      33.573  28.011  25.132  1.00  0.00    -0.460 OA
BRANCH   5   6
ATOM      6  C   UNL A   1      33.487  26.873  24.405  1.00  0.00     0.338 C 
ATOM      7  O   UNL A   1      33.634  26.925  23.185  1.00  0.00    -0.246 OA
BRANCH   6   8
ATOM      8  C   UNL A   1      33.427  25.535  25.041  1.00  0.00     0.087 C 
ATOM      9  C   UNL A   1      34.427  24.922  25.682  1.00  0.00     0.029 C 
ATOM     10  C   UNL A   1      32.086  24.836  24.944  1.00  0.00     0.316 C 
ATOM     11  C   UNL A   1      34.533  23.489  25.469  1.00  0.00     0.038 A 
ATOM     12  O   UNL A   1      32.123  23.410  25.293  1.00  0.00    -0.475 OA
ATOM     13  C   UNL A   1      33.344  22.793  25.273  1.00  0.00     0.131 A 
ATOM     14  C   UNL A   1      35.773  22.831  25.327  1.00  0.00     0.072 A 
ATOM     15  C   UNL A   1      33.377  21.424  25.048  1.00  0.00     0.069 A 
ATOM     16  C   UNL A   1      35.812  21.459  25.045  1.00  0.00     0.079 A 
ATOM     17  Cl  UNL A   1      37.256  23.736  25.408  1.00  0.00    -0.082 Cl
ATOM     18  C   UNL A   1      34.604  20.759  24.930  1.00  0.00     0.064 A 
ATOM     19  Cl  UNL A   1      37.333  20.647  24.807  1.00  0.00    -0.081 Cl
ATOM     20  Cl  UNL A   1      34.556  19.060  24.609  1.00  0.00    -0.083 Cl
BRANCH  10  21
ATOM     21  C   UNL A   1      31.026  25.556  25.832  1.00  0.00     0.430 C 
ATOM     22  F   UNL A   1      30.248  26.426  25.142  1.00  0.00    -0.167 F 
ATOM     23  F   UNL A   1      30.205  24.667  26.439  1.00  0.00    -0.167 F 
ATOM     24  F   UNL A   1      31.609  26.283  26.818  1.00  0.00    -0.167 F 
ENDBRANCH  10  21
ENDBRANCH   6   8
ENDBRANCH   5   6
ENDBRANCH   4   5
ENDBRANCH   3   4
ENDBRANCH   2   3
ENDBRANCH   1   2
BRANCH   1  25
ATOM     25  C   UNL A   1      31.484  32.412  26.897  1.00  0.00     0.261 C 
BRANCH  25  26
ATOM     26  O   UNL A   1      32.646  33.259  26.782  1.00  0.00    -0.460 OA
BRANCH  26  27
ATOM     27  C   UNL A   1      33.121  33.775  27.944  1.00  0.00     0.338 C 
ATOM     28  O   UNL A   1      32.580  34.639  28.626  1.00  0.00    -0.246 OA
BRANCH  27  29
ATOM     29  C   UNL A   1      34.382  33.101  28.364  1.00  0.00     0.060 A 
ATOM     30  C   UNL A   1      34.321  31.742  28.715  1.00  0.00     0.016 A 
ATOM     31  C   UNL A   1      35.615  33.762  28.412  1.00  0.00     0.016 A 
ATOM     32  C   UNL A   1      35.473  31.056  29.122  1.00  0.00     0.010 A 
ATOM     33  C   UNL A   1      36.768  33.075  28.818  1.00  0.00     0.010 A 
ATOM     34  C   UNL A   1      36.702  31.725  29.198  1.00  0.00    -0.014 A 
BRANCH  34  35
ATOM     35  C   UNL A   1      37.868  31.070  29.852  1.00  0.00     0.031 A 
ATOM     36  C   UNL A   1      38.163  31.409  31.289  1.00  0.00     0.074 A 
ATOM     37  C   UNL A   1      38.653  30.187  29.207  1.00  0.00     0.049 A 
ATOM     38  N   UNL A   1      39.106  30.958  32.076  1.00  0.00    -0.248 NA
ATOM     39  C   UNL A   1      37.270  32.394  31.921  1.00  0.00     0.031 C 
ATOM     40  C   UNL A   1      38.490  29.759  27.820  1.00  0.00     0.029 A 
ATOM     41  N   UNL A   1      39.758  29.493  29.644  1.00  0.00    -0.354 N 
ATOM     42  C   UNL A   1      38.905  31.583  33.300  1.00  0.00     0.074 A 
ATOM     43  C   UNL A   1      37.790  32.490  33.134  1.00  0.00     0.031 C 
ATOM     44  C   UNL A   1      39.463  28.880  27.518  1.00  0.00     0.029 A 
ATOM     45  C   UNL A   1      40.330  28.696  28.680  1.00  0.00     0.049 A 
ATOM     46  H   UNL A   1      40.107  29.561  30.562  1.00  0.00     0.167 HD
ATOM     47  C   UNL A   1      39.571  31.408  34.466  1.00  0.00     0.037 A 
ATOM     48  C   UNL A   1      41.430  27.916  28.732  1.00  0.00     0.037 A 
ATOM     49  C   UNL A   1      40.710  30.546  34.635  1.00  0.00     0.049 A 
ATOM     50  C   UNL A   1      42.212  27.806  30.021  1.00  0.00     0.074 A 
ATOM     51  C   UNL A   1      41.462  30.325  35.776  1.00  0.00     0.029 A 
ATOM     52  N   UNL A   1      41.272  29.774  33.631  1.00  0.00    -0.354 N 
ATOM     53  N   UNL A   1      41.980  28.363  31.186  1.00  0.00    -0.248 NA
ATOM     54  C   UNL A   1      43.408  26.947  30.002  1.00  0.00     0.031 C 
ATOM     55  C   UNL A   1      42.510  29.457  35.449  1.00  0.00     0.029 A 
ATOM     56  C   UNL A   1      42.373  29.090  34.120  1.00  0.00     0.049 A 
ATOM     57  H   UNL A   1      40.938  29.720  32.706  1.00  0.00     0.167 HD
ATOM     58  C   UNL A   1      42.973  27.893  32.041  1.00  0.00     0.074 A 
ATOM     59  C   UNL A   1      43.800  26.993  31.267  1.00  0.00     0.031 C 
ATOM     60  C   UNL A   1      43.183  28.182  33.349  1.00  0.00     0.037 A 
BRANCH  47  61
ATOM     61  C   UNL A   1      39.078  32.186  35.651  1.00  0.00     0.057 A 
ATOM     62  C   UNL A   1      38.233  31.604  36.607  1.00  0.00     0.134 A 
ATOM     63  C   UNL A   1      39.455  33.519  35.847  1.00  0.00     0.134 A 
ATOM     64  F   UNL A   1      37.821  30.335  36.468  1.00  0.00    -0.206 F 
ATOM     65  C   UNL A   1      37.757  32.332  37.698  1.00  0.00     0.040 A 
ATOM     66  C   UNL A   1      39.008  34.248  36.949  1.00  0.00     0.040 A 
ATOM     67  F   UNL A   1      40.264  34.135  34.971  1.00  0.00    -0.206 F 
ATOM     68  C   UNL A   1      38.149  33.657  37.875  1.00  0.00     0.006 A 
ENDBRANCH  47  61
BRANCH  48  69
ATOM     69  C   UNL A   1      41.889  27.172  27.527  1.00  0.00     0.057 A 
ATOM     70  C   UNL A   1      42.702  27.777  26.559  1.00  0.00     0.134 A 
ATOM     71  C   UNL A   1      41.458  25.864  27.271  1.00  0.00     0.134 A 
ATOM     72  F   UNL A   1      43.125  29.039  26.727  1.00  0.00    -0.206 F 
ATOM     73  C   UNL A   1      43.039  27.127  25.371  1.00  0.00     0.040 A 
ATOM     74  C   UNL A   1      41.812  25.190  26.101  1.00  0.00     0.040 A 
ATOM     75  F   UNL A   1      40.673  25.226  28.151  1.00  0.00    -0.206 F 
ATOM     76  C   UNL A   1      42.594  25.827  25.139  1.00  0.00     0.006 A 
ENDBRANCH  48  69
BRANCH  60  77
ATOM     77  C   UNL A   1      44.319  27.484  34.045  1.00  0.00     0.057 A 
ATOM     78  C   UNL A   1      45.600  28.048  34.137  1.00  0.00     0.134 A 
ATOM     79  C   UNL A   1      44.119  26.242  34.663  1.00  0.00     0.134 A 
ATOM     80  F   UNL A   1      45.865  29.230  33.561  1.00  0.00    -0.206 F 
ATOM     81  C   UNL A   1      46.644  27.387  34.787  1.00  0.00     0.040 A 
ATOM     82  C   UNL A   1      45.147  25.587  35.343  1.00  0.00     0.040 A 
ATOM     83  F   UNL A   1      42.917  25.649  34.627  1.00  0.00    -0.206 F 
ATOM     84  C   UNL A   1      46.417  26.155  35.399  1.00  0.00     0.006 A 
ENDBRANCH  60  77
ENDBRANCH  34  35
ENDBRANCH  27  29
ENDBRANCH  26  27
ENDBRANCH  25  26
ENDBRANCH   1  25
TORSDOF 15
ENDMDL
MODEL 2
REMARK VINA RESULT:     -11.4      0.514      1.671
REMARK SMILES O=C(OCCOCCOC(=O)c1ccc(-c2c3nc(c(-c4c(F)cccc4F)c4ccc([nH]4)c(-c4c(F)cccc4F)c4nc(c(-c5c(F)cccc5F)c5ccc2[nH]5)C=C4)C=C3)cc1)C1=Cc2c(cc(Cl)c(Cl)c2Cl)O[C@H]1C(F)(F)F
REMARK SMILES IDX 7 1 6 2 5 3 4 4 3 5 2 6 1 7 66 8 67 9 78 10 68 11 77 12
REMARK SMILES IDX 69 13 75 14 70 15 73 16 76 17 71 18 74 19 72 20 79 21 80 22
REMARK SMILES IDX 81 23 82 24 8 25 9 26 10 27 11 28 12 29 13 30 65 31 14 32
REMARK SMILES IDX 64 33 15 34 16 35 17 36 58 37 18 38 63 39 57 40 59 41 19 42
REMARK SMILES IDX 62 43 56 44 55 45 20 47 46 48 29 49 45 50 30 51 33 52 44 53
REMARK SMILES IDX 60 54 31 55 32 56 43 58 61 59 34 60 21 61 22 62 27 63 23 64
REMARK SMILES IDX 24 65 26 66 28 67 25 68 47 69 48 70 53 71 49 72 50 73 52 74
REMARK SMILES IDX 54 75 51 76 35 77 36 78 41 79 37 80 38 81 40 82 42 83 39 84
REMARK H PARENT 59 46 33 57
REMARK Flexibility Score: inf
ROOT
ATOM      1  C   UNL A   1      31.599  31.150  26.309  1.00  0.00     0.202 C 
ENDROOT
BRANCH   1   2
ATOM      2  O   UNL A   1      31.790  30.052  27.195  1.00  0.00    -0.374 OA
BRANCH   2   3
ATOM      3  C   UNL A   1      32.925  29.251  26.865  1.00  0.00     0.202 C 
BRANCH   3   4
ATOM      4  C   UNL A   1      33.333  29.425  25.401  1.00  0.00     0.261 C 
BRANCH   4   5
ATOM      5  O   UNL A   1      34.023  28.279  24.866  1.00  0.00    -0.460 OA
BRANCH   5   6
ATOM      6  C   UNL A   1      33.482  27.241  24.187  1.00  0.00     0.338 C 
ATOM      7  O   UNL A   1      33.364  27.316  22.965  1.00  0.00    -0.246 OA
BRANCH   6   8
ATOM      8  C   UNL A   1      33.215  25.932  24.832  1.00  0.00     0.087 C 
ATOM      9  C   UNL A   1      34.075  25.231  25.576  1.00  0.00     0.029 C 
ATOM     10  C   UNL A   1      31.821  25.380  24.613  1.00  0.00     0.316 C 
ATOM     11  C   UNL A   1      34.043  23.790  25.394  1.00  0.00     0.038 A 
ATOM     12  O   UNL A   1      31.667  23.968  24.982  1.00  0.00    -0.475 OA
ATOM     13  C   UNL A   1      32.809  23.222  25.091  1.00  0.00     0.131 A 
ATOM     14  C   UNL A   1      35.212  22.999  25.382  1.00  0.00     0.072 A 
ATOM     15  C   UNL A   1      32.713  21.852  24.888  1.00  0.00     0.069 A 
ATOM     16  C   UNL A   1      35.126  21.624  25.124  1.00  0.00     0.079 A 
ATOM     17  Cl  UNL A   1      36.770  23.740  25.597  1.00  0.00    -0.082 Cl
ATOM     18  C   UNL A   1      33.866  21.056  24.900  1.00  0.00     0.064 A 
ATOM     19  Cl  UNL A   1      36.564  20.648  25.047  1.00  0.00    -0.081 Cl
ATOM     20  Cl  UNL A   1      33.663  19.366  24.598  1.00  0.00    -0.083 Cl
BRANCH  10  21
ATOM     21  C   UNL A   1      30.765  26.231  25.383  1.00  0.00     0.430 C 
ATOM     22  F   UNL A   1      30.348  27.322  24.695  1.00  0.00    -0.167 F 
ATOM     23  F   UNL A   1      29.669  25.499  25.690  1.00  0.00    -0.167 F 
ATOM     24  F   UNL A   1      31.260  26.701  26.557  1.00  0.00    -0.167 F 
ENDBRANCH  10  21
ENDBRANCH   6   8
ENDBRANCH   5   6
ENDBRANCH   4   5
ENDBRANCH   3   4
ENDBRANCH   2   3
ENDBRANCH   1   2
BRANCH   1  25
ATOM     25  C   UNL A   1      31.502  32.497  27.032  1.00  0.00     0.261 C 
BRANCH  25  26
ATOM     26  O   UNL A   1      32.698  33.286  26.867  1.00  0.00    -0.460 OA
BRANCH  26  27
ATOM     27  C   UNL A   1      33.220  33.818  28.002  1.00  0.00     0.338 C 
ATOM     28  O   UNL A   1      32.718  34.709  28.678  1.00  0.00    -0.246 OA
BRANCH  27  29
ATOM     29  C   UNL A   1      34.477  33.125  28.401  1.00  0.00     0.060 A 
ATOM     30  C   UNL A   1      34.401  31.772  28.766  1.00  0.00     0.016 A 
ATOM     31  C   UNL A   1      35.723  33.766  28.415  1.00  0.00     0.016 A 
ATOM     32  C   UNL A   1      35.549  31.070  29.155  1.00  0.00     0.010 A 
ATOM     33  C   UNL A   1      36.872  33.063  28.802  1.00  0.00     0.010 A 
ATOM     34  C   UNL A   1      36.791  31.717  29.196  1.00  0.00    -0.014 A 
BRANCH  34  35
ATOM     35  C   UNL A   1      37.960  31.048  29.831  1.00  0.00     0.031 A 
ATOM     36  C   UNL A   1      38.279  31.378  31.265  1.00  0.00     0.074 A 
ATOM     37  C   UNL A   1      38.726  30.159  29.171  1.00  0.00     0.049 A 
ATOM     38  N   UNL A   1      39.229  30.915  32.037  1.00  0.00    -0.248 NA
ATOM     39  C   UNL A   1      37.406  32.371  31.913  1.00  0.00     0.031 C 
ATOM     40  C   UNL A   1      38.538  29.738  27.786  1.00  0.00     0.029 A 
ATOM     41  N   UNL A   1      39.830  29.453  29.590  1.00  0.00    -0.354 N 
ATOM     42  C   UNL A   1      39.052  31.538  33.266  1.00  0.00     0.074 A 
ATOM     43  C   UNL A   1      37.944  32.457  33.119  1.00  0.00     0.031 C 
ATOM     44  C   UNL A   1      39.498  28.851  27.466  1.00  0.00     0.029 A 
ATOM     45  C   UNL A   1      40.380  28.653  28.615  1.00  0.00     0.049 A 
ATOM     46  H   UNL A   1      40.193  29.514  30.502  1.00  0.00     0.167 HD
ATOM     47  C   UNL A   1      39.733  31.352  34.421  1.00  0.00     0.037 A 
ATOM     48  C   UNL A   1      41.472  27.862  28.648  1.00  0.00     0.037 A 
ATOM     49  C   UNL A   1      40.866  30.478  34.570  1.00  0.00     0.049 A 
ATOM     50  C   UNL A   1      42.272  27.740  29.925  1.00  0.00     0.074 A 
ATOM     51  C   UNL A   1      41.633  30.245  35.699  1.00  0.00     0.029 A 
ATOM     52  N   UNL A   1      41.405  29.704  33.555  1.00  0.00    -0.354 N 
ATOM     53  N   UNL A   1      42.063  28.294  31.095  1.00  0.00    -0.248 NA
ATOM     54  C   UNL A   1      43.459  26.869  29.885  1.00  0.00     0.031 C 
ATOM     55  C   UNL A   1      42.666  29.367  35.354  1.00  0.00     0.029 A 
ATOM     56  C   UNL A   1      42.506  29.007  34.026  1.00  0.00     0.049 A 
ATOM     57  H   UNL A   1      41.057  29.657  32.635  1.00  0.00     0.167 HD
ATOM     58  C   UNL A   1      43.064  27.812  31.933  1.00  0.00     0.074 A 
ATOM     59  C   UNL A   1      43.870  26.906  31.144  1.00  0.00     0.031 C 
ATOM     60  C   UNL A   1      43.296  28.094  33.239  1.00  0.00     0.037 A 
BRANCH  47  61
ATOM     61  C   UNL A   1      39.266  32.131  35.616  1.00  0.00     0.057 A 
ATOM     62  C   UNL A   1      39.693  33.447  35.843  1.00  0.00     0.134 A 
ATOM     63  C   UNL A   1      38.379  31.570  36.540  1.00  0.00     0.134 A 
ATOM     64  F   UNL A   1      40.558  34.036  35.003  1.00  0.00    -0.206 F 
ATOM     65  C   UNL A   1      39.276  34.165  36.964  1.00  0.00     0.040 A 
ATOM     66  C   UNL A   1      37.933  32.289  37.650  1.00  0.00     0.040 A 
ATOM     67  F   UNL A   1      37.929  30.316  36.381  1.00  0.00    -0.206 F 
ATOM     68  C   UNL A   1      38.389  33.588  37.869  1.00  0.00     0.006 A 
ENDBRANCH  47  61
BRANCH  48  69
ATOM     69  C   UNL A   1      41.906  27.118  27.433  1.00  0.00     0.057 A 
ATOM     70  C   UNL A   1      41.496  25.799  27.199  1.00  0.00     0.134 A 
ATOM     71  C   UNL A   1      42.809  27.678  26.521  1.00  0.00     0.134 A 
ATOM     72  F   UNL A   1      40.657  25.191  28.051  1.00  0.00    -0.206 F 
ATOM     73  C   UNL A   1      41.993  25.054  26.127  1.00  0.00     0.040 A 
ATOM     74  C   UNL A   1      43.290  26.956  25.427  1.00  0.00     0.040 A 
ATOM     75  F   UNL A   1      43.248  28.934  26.687  1.00  0.00    -0.206 F 
ATOM     76  C   UNL A   1      42.893  25.634  25.235  1.00  0.00     0.006 A 
ENDBRANCH  48  69
BRANCH  60  77
ATOM     77  C   UNL A   1      44.435  27.382  33.916  1.00  0.00     0.057 A 
ATOM     78  C   UNL A   1      44.283  26.118  34.504  1.00  0.00     0.134 A 
ATOM     79  C   UNL A   1      45.713  27.956  33.951  1.00  0.00     0.134 A 
ATOM     80  F   UNL A   1      43.086  25.512  34.515  1.00  0.00    -0.206 F 
ATOM     81  C   UNL A   1      45.351  25.469  35.128  1.00  0.00     0.040 A 
ATOM     82  C   UNL A   1      46.795  27.303  34.544  1.00  0.00     0.040 A 
ATOM     83  F   UNL A   1      45.935  29.157  33.397  1.00  0.00    -0.206 F 
ATOM     84  C   UNL A   1      46.614  26.060  35.144  1.00  0.00     0.006 A 
ENDBRANCH  60  77
ENDBRANCH  34  35
ENDBRANCH  27  29
ENDBRANCH  26  27
ENDBRANCH  25  26
ENDBRANCH   1  25
TORSDOF 15
ENDMDL
MODEL 3
REMARK VINA RESULT:     -11.3      4.438      9.072
REMARK SMILES O=C(OCCOCCOC(=O)c1ccc(-c2c3nc(c(-c4c(F)cccc4F)c4ccc([nH]4)c(-c4c(F)cccc4F)c4nc(c(-c5c(F)cccc5F)c5ccc2[nH]5)C=C4)C=C3)cc1)C1=Cc2c(cc(Cl)c(Cl)c2Cl)O[C@H]1C(F)(F)F
REMARK SMILES IDX 7 1 6 2 5 3 4 4 3 5 2 6 1 7 66 8 67 9 78 10 68 11 77 12
REMARK SMILES IDX 69 13 75 14 70 15 73 16 76 17 71 18 74 19 72 20 79 21 80 22
REMARK SMILES IDX 81 23 82 24 8 25 9 26 10 27 11 28 12 29 13 30 65 31 14 32
REMARK SMILES IDX 64 33 15 34 16 35 17 36 58 37 18 38 63 39 57 40 59 41 19 42
REMARK SMILES IDX 62 43 56 44 55 45 20 47 46 48 29 49 45 50 30 51 33 52 44 53
REMARK SMILES IDX 60 54 31 55 32 56 43 58 61 59 34 60 21 61 22 62 27 63 23 64
REMARK SMILES IDX 24 65 26 66 28 67 25 68 47 69 48 70 53 71 49 72 50 73 52 74
REMARK SMILES IDX 54 75 51 76 35 77 36 78 41 79 37 80 38 81 40 82 42 83 39 84
REMARK H PARENT 59 46 33 57
REMARK Flexibility Score: inf
ROOT
ATOM      1  C   UNL A   1      37.793  19.940  24.964  1.00  0.00     0.202 C 
ENDROOT
BRANCH   1   2
ATOM      2  O   UNL A   1      36.816  20.953  25.183  1.00  0.00    -0.374 OA
BRANCH   2   3
ATOM      3  C   UNL A   1      37.331  22.277  25.026  1.00  0.00     0.202 C 
BRANCH   3   4
ATOM      4  C   UNL A   1      36.545  23.291  25.860  1.00  0.00     0.261 C 
BRANCH   4   5
ATOM      5  O   UNL A   1      35.319  22.756  26.393  1.00  0.00    -0.460 OA
BRANCH   5   6
ATOM      6  C   UNL A   1      34.083  23.303  26.314  1.00  0.00     0.338 C 
ATOM      7  O   UNL A   1      33.281  23.109  27.225  1.00  0.00    -0.246 OA
BRANCH   6   8
ATOM      8  C   UNL A   1      33.727  24.298  25.274  1.00  0.00     0.087 C 
ATOM      9  C   UNL A   1      34.079  25.587  25.263  1.00  0.00     0.029 C 
ATOM     10  C   UNL A   1      32.897  23.758  24.127  1.00  0.00     0.316 C 
ATOM     11  C   UNL A   1      33.067  26.516  24.791  1.00  0.00     0.038 A 
ATOM     12  O   UNL A   1      32.295  24.795  23.279  1.00  0.00    -0.475 OA
ATOM     13  C   UNL A   1      32.202  26.055  23.804  1.00  0.00     0.131 A 
ATOM     14  C   UNL A   1      32.862  27.781  25.382  1.00  0.00     0.072 A 
ATOM     15  C   UNL A   1      31.202  26.889  23.321  1.00  0.00     0.069 A 
ATOM     16  C   UNL A   1      31.819  28.604  24.936  1.00  0.00     0.079 A 
ATOM     17  Cl  UNL A   1      33.841  28.285  26.728  1.00  0.00    -0.082 Cl
ATOM     18  C   UNL A   1      31.007  28.155  23.886  1.00  0.00     0.064 A 
ATOM     19  Cl  UNL A   1      31.517  30.140  25.696  1.00  0.00    -0.081 Cl
ATOM     20  Cl  UNL A   1      29.714  29.113  23.253  1.00  0.00    -0.083 Cl
BRANCH  10  21
ATOM     21  C   UNL A   1      33.745  22.796  23.239  1.00  0.00     0.430 C 
ATOM     22  F   UNL A   1      34.009  21.608  23.834  1.00  0.00    -0.167 F 
ATOM     23  F   UNL A   1      33.127  22.536  22.063  1.00  0.00    -0.167 F 
ATOM     24  F   UNL A   1      34.954  23.333  22.933  1.00  0.00    -0.167 F 
ENDBRANCH  10  21
ENDBRANCH   6   8
ENDBRANCH   5   6
ENDBRANCH   4   5
ENDBRANCH   3   4
ENDBRANCH   2   3
ENDBRANCH   1   2
BRANCH   1  25
ATOM     25  C   UNL A   1      39.211  20.383  25.338  1.00  0.00     0.261 C 
BRANCH  25  26
ATOM     26  O   UNL A   1      39.932  19.350  26.041  1.00  0.00    -0.460 OA
BRANCH  26  27
ATOM     27  C   UNL A   1      41.285  19.455  26.027  1.00  0.00     0.338 C 
ATOM     28  O   UNL A   1      42.070  18.619  25.595  1.00  0.00    -0.246 OA
BRANCH  27  29
ATOM     29  C   UNL A   1      41.734  20.781  26.539  1.00  0.00     0.060 A 
ATOM     30  C   UNL A   1      41.549  21.061  27.903  1.00  0.00     0.016 A 
ATOM     31  C   UNL A   1      42.338  21.744  25.721  1.00  0.00     0.016 A 
ATOM     32  C   UNL A   1      41.947  22.293  28.440  1.00  0.00     0.010 A 
ATOM     33  C   UNL A   1      42.737  22.975  26.259  1.00  0.00     0.010 A 
ATOM     34  C   UNL A   1      42.524  23.268  27.617  1.00  0.00    -0.014 A 
BRANCH  34  35
ATOM     35  C   UNL A   1      42.727  24.651  28.127  1.00  0.00     0.031 A 
ATOM     36  C   UNL A   1      44.117  25.071  28.521  1.00  0.00     0.074 A 
ATOM     37  C   UNL A   1      41.715  25.533  28.237  1.00  0.00     0.049 A 
ATOM     38  N   UNL A   1      44.546  26.221  28.974  1.00  0.00    -0.248 NA
ATOM     39  C   UNL A   1      45.167  24.047  28.388  1.00  0.00     0.031 C 
ATOM     40  C   UNL A   1      40.320  25.273  27.892  1.00  0.00     0.029 A 
ATOM     41  N   UNL A   1      41.713  26.835  28.682  1.00  0.00    -0.354 N 
ATOM     42  C   UNL A   1      45.915  26.068  29.155  1.00  0.00     0.074 A 
ATOM     43  C   UNL A   1      46.235  24.697  28.821  1.00  0.00     0.031 C 
ATOM     44  C   UNL A   1      39.595  26.379  28.144  1.00  0.00     0.029 A 
ATOM     45  C   UNL A   1      40.468  27.419  28.685  1.00  0.00     0.049 A 
ATOM     46  H   UNL A   1      42.528  27.304  28.973  1.00  0.00     0.167 HD
ATOM     47  C   UNL A   1      46.831  26.987  29.542  1.00  0.00     0.037 A 
ATOM     48  C   UNL A   1      40.081  28.647  29.086  1.00  0.00     0.037 A 
ATOM     49  C   UNL A   1      46.522  28.340  29.921  1.00  0.00     0.049 A 
ATOM     50  C   UNL A   1      41.110  29.628  29.602  1.00  0.00     0.074 A 
ATOM     51  C   UNL A   1      47.385  29.334  30.350  1.00  0.00     0.029 A 
ATOM     52  N   UNL A   1      45.248  28.886  29.932  1.00  0.00    -0.354 N 
ATOM     53  N   UNL A   1      42.408  29.488  29.718  1.00  0.00    -0.248 NA
ATOM     54  C   UNL A   1      40.615  30.946  30.034  1.00  0.00     0.031 C 
ATOM     55  C   UNL A   1      46.627  30.466  30.667  1.00  0.00     0.029 A 
ATOM     56  C   UNL A   1      45.299  30.196  30.378  1.00  0.00     0.049 A 
ATOM     57  H   UNL A   1      44.428  28.411  29.663  1.00  0.00     0.167 HD
ATOM     58  C   UNL A   1      42.886  30.704  30.197  1.00  0.00     0.074 A 
ATOM     59  C   UNL A   1      41.740  31.578  30.333  1.00  0.00     0.031 C 
ATOM     60  C   UNL A   1      44.157  31.067  30.498  1.00  0.00     0.037 A 
BRANCH  47  61
ATOM     61  C   UNL A   1      48.263  26.540  29.583  1.00  0.00     0.057 A 
ATOM     62  C   UNL A   1      49.127  26.753  28.500  1.00  0.00     0.134 A 
ATOM     63  C   UNL A   1      48.787  25.901  30.712  1.00  0.00     0.134 A 
ATOM     64  F   UNL A   1      48.682  27.345  27.381  1.00  0.00    -0.206 F 
ATOM     65  C   UNL A   1      50.453  26.320  28.529  1.00  0.00     0.040 A 
ATOM     66  C   UNL A   1      50.119  25.488  30.763  1.00  0.00     0.040 A 
ATOM     67  F   UNL A   1      48.014  25.668  31.785  1.00  0.00    -0.206 F 
ATOM     68  C   UNL A   1      50.954  25.690  29.666  1.00  0.00     0.006 A 
ENDBRANCH  47  61
BRANCH  48  69
ATOM     69  C   UNL A   1      38.646  29.044  29.039  1.00  0.00     0.057 A 
ATOM     70  C   UNL A   1      38.085  29.624  27.894  1.00  0.00     0.134 A 
ATOM     71  C   UNL A   1      37.822  28.929  30.166  1.00  0.00     0.134 A 
ATOM     72  F   UNL A   1      38.827  29.792  26.789  1.00  0.00    -0.206 F 
ATOM     73  C   UNL A   1      36.774  30.107  27.881  1.00  0.00     0.040 A 
ATOM     74  C   UNL A   1      36.500  29.380  30.159  1.00  0.00     0.040 A 
ATOM     75  F   UNL A   1      38.296  28.389  31.299  1.00  0.00    -0.206 F 
ATOM     76  C   UNL A   1      35.977  29.983  29.017  1.00  0.00     0.006 A 
ENDBRANCH  48  69
BRANCH  60  77
ATOM     77  C   UNL A   1      44.391  32.479  30.957  1.00  0.00     0.057 A 
ATOM     78  C   UNL A   1      44.636  33.527  30.058  1.00  0.00     0.134 A 
ATOM     79  C   UNL A   1      44.337  32.802  32.320  1.00  0.00     0.134 A 
ATOM     80  F   UNL A   1      44.710  33.289  28.740  1.00  0.00    -0.206 F 
ATOM     81  C   UNL A   1      44.851  34.835  30.501  1.00  0.00     0.040 A 
ATOM     82  C   UNL A   1      44.519  34.111  32.772  1.00  0.00     0.040 A 
ATOM     83  F   UNL A   1      44.094  31.853  33.236  1.00  0.00    -0.206 F 
ATOM     84  C   UNL A   1      44.786  35.131  31.862  1.00  0.00     0.006 A 
ENDBRANCH  60  77
ENDBRANCH  34  35
ENDBRANCH  27  29
ENDBRANCH  26  27
ENDBRANCH  25  26
ENDBRANCH   1  25
TORSDOF 15
ENDMDL
