MODEL 1
REMARK VINA RESULT:     -10.8      0.000      0.000
REMARK SMILES O=C(C[C@H]1C[N@@H+](Cc2c(F)cccc2F)CCO1)OCCOCCOC(=O)c1ccc(-c2c3nc(c(-c4c(F)cccc4F)c4ccc([nH]4)c(-c4c(F)cccc4F)c4nc(c(-c5c(F)cccc5F)c5ccc2[nH]5)C=C4)C=C3)cc1
REMARK SMILES IDX 21 1 20 2 19 3 2 4 1 5 3 6 4 7 5 8 18 9 6 10 17 11 16 12
REMARK SMILES IDX 7 14 8 15 9 16 14 17 10 18 11 19 13 20 15 21 12 22 22 23
REMARK SMILES IDX 23 24 24 25 25 26 26 27 27 28 28 29 29 30 81 31 30 32 80 33
REMARK SMILES IDX 31 34 32 35 33 36 74 37 34 38 79 39 73 40 75 41 35 42 78 43
REMARK SMILES IDX 72 44 71 45 36 47 62 48 45 49 61 50 46 51 49 52 60 53 76 54
REMARK SMILES IDX 47 55 48 56 59 58 77 59 50 60 37 61 38 62 43 63 39 64 40 65
REMARK SMILES IDX 42 66 44 67 41 68 63 69 64 70 69 71 65 72 66 73 68 74 70 75
REMARK SMILES IDX 67 76 51 77 52 78 57 79 53 80 54 81 56 82 58 83 55 84
REMARK H PARENT 6 13 75 46 49 57
REMARK Flexibility Score: inf
ROOT
ATOM      1  C   UNL A   1      32.077  28.757  26.411  1.00  0.00     0.202 C 
ENDROOT
BRANCH   1   2
ATOM      2  C   UNL A   1      31.534  27.550  27.189  1.00  0.00     0.261 C 
BRANCH   2   3
ATOM      3  O   UNL A   1      32.036  26.304  26.670  1.00  0.00    -0.463 OA
BRANCH   3   4
ATOM      4  C   UNL A   1      31.178  25.386  26.177  1.00  0.00     0.308 C 
ATOM      5  O   UNL A   1      29.967  25.556  26.282  1.00  0.00    -0.252 OA
BRANCH   4   6
ATOM      6  C   UNL A   1      31.776  24.176  25.520  1.00  0.00     0.160 C 
BRANCH   6   7
ATOM      7  C   UNL A   1      31.572  22.839  26.206  1.00  0.00     0.184 C 
ATOM      8  C   UNL A   1      32.247  21.708  25.394  1.00  0.00     0.295 C 
ATOM      9  O   UNL A   1      31.885  22.801  27.600  1.00  0.00    -0.366 OA
ATOM     10  N   UNL A   1      33.658  21.487  25.694  1.00  0.00    -0.327 N 
ATOM     11  C   UNL A   1      33.278  22.623  27.884  1.00  0.00     0.222 C 
ATOM     12  C   UNL A   1      33.877  21.428  27.134  1.00  0.00     0.291 C 
ATOM     13  H   UNL A   1      33.866  20.553  25.339  1.00  0.00     0.348 HD
BRANCH  10  14
ATOM     14  C   UNL A   1      34.696  22.042  24.821  1.00  0.00     0.305 C 
BRANCH  14  15
ATOM     15  C   UNL A   1      36.093  22.333  25.321  1.00  0.00     0.078 A 
ATOM     16  C   UNL A   1      37.127  21.395  25.278  1.00  0.00     0.135 A 
ATOM     17  C   UNL A   1      36.454  23.622  25.736  1.00  0.00     0.135 A 
ATOM     18  F   UNL A   1      36.916  20.174  24.770  1.00  0.00    -0.206 F 
ATOM     19  C   UNL A   1      38.419  21.682  25.732  1.00  0.00     0.040 A 
ATOM     20  C   UNL A   1      37.748  23.938  26.168  1.00  0.00     0.040 A 
ATOM     21  F   UNL A   1      35.539  24.604  25.743  1.00  0.00    -0.206 F 
ATOM     22  C   UNL A   1      38.730  22.955  26.194  1.00  0.00     0.006 A 
ENDBRANCH  14  15
ENDBRANCH  10  14
ENDBRANCH   6   7
ENDBRANCH   4   6
ENDBRANCH   3   4
ENDBRANCH   2   3
ENDBRANCH   1   2
BRANCH   1  23
ATOM     23  O   UNL A   1      31.937  30.004  27.094  1.00  0.00    -0.374 OA
BRANCH  23  24
ATOM     24  C   UNL A   1      31.555  31.119  26.278  1.00  0.00     0.202 C 
BRANCH  24  25
ATOM     25  C   UNL A   1      31.450  32.483  26.965  1.00  0.00     0.261 C 
BRANCH  25  26
ATOM     26  O   UNL A   1      32.682  33.213  26.821  1.00  0.00    -0.460 OA
BRANCH  26  27
ATOM     27  C   UNL A   1      33.226  33.613  27.988  1.00  0.00     0.338 C 
ATOM     28  O   UNL A   1      32.687  34.272  28.868  1.00  0.00    -0.246 OA
BRANCH  27  29
ATOM     29  C   UNL A   1      34.514  32.933  28.203  1.00  0.00     0.060 A 
ATOM     30  C   UNL A   1      34.457  31.552  28.430  1.00  0.00     0.016 A 
ATOM     31  C   UNL A   1      35.729  33.618  28.268  1.00  0.00     0.016 A 
ATOM     32  C   UNL A   1      35.591  30.860  28.807  1.00  0.00     0.010 A 
ATOM     33  C   UNL A   1      36.870  32.928  28.688  1.00  0.00     0.010 A 
ATOM     34  C   UNL A   1      36.778  31.564  29.024  1.00  0.00    -0.014 A 
BRANCH  34  35
ATOM     35  C   UNL A   1      37.775  30.911  29.898  1.00  0.00     0.031 A 
ATOM     36  C   UNL A   1      38.757  29.967  29.257  1.00  0.00     0.074 A 
ATOM     37  C   UNL A   1      37.918  31.293  31.178  1.00  0.00     0.049 A 
ATOM     38  N   UNL A   1      39.778  29.345  29.784  1.00  0.00    -0.248 NA
ATOM     39  C   UNL A   1      38.572  29.704  27.819  1.00  0.00     0.031 C 
ATOM     40  C   UNL A   1      37.085  32.283  31.859  1.00  0.00     0.029 A 
ATOM     41  N   UNL A   1      38.840  30.917  32.117  1.00  0.00    -0.354 N 
ATOM     42  C   UNL A   1      40.347  28.615  28.748  1.00  0.00     0.074 A 
ATOM     43  C   UNL A   1      39.542  28.840  27.570  1.00  0.00     0.031 C 
ATOM     44  C   UNL A   1      37.543  32.445  33.111  1.00  0.00     0.029 A 
ATOM     45  C   UNL A   1      38.677  31.547  33.325  1.00  0.00     0.049 A 
ATOM     46  H   UNL A   1      39.550  30.259  31.942  1.00  0.00     0.167 HD
ATOM     47  C   UNL A   1      41.453  27.837  28.776  1.00  0.00     0.037 A 
ATOM     48  C   UNL A   1      39.364  31.402  34.473  1.00  0.00     0.037 A 
ATOM     49  C   UNL A   1      42.252  27.632  29.953  1.00  0.00     0.049 A 
ATOM     50  C   UNL A   1      40.536  30.457  34.505  1.00  0.00     0.074 A 
ATOM     51  C   UNL A   1      43.382  26.849  30.101  1.00  0.00     0.029 A 
ATOM     52  N   UNL A   1      42.002  28.218  31.186  1.00  0.00    -0.354 N 
ATOM     53  N   UNL A   1      41.052  29.746  33.531  1.00  0.00    -0.248 NA
ATOM     54  C   UNL A   1      41.222  30.300  35.794  1.00  0.00     0.031 C 
ATOM     55  C   UNL A   1      43.781  26.915  31.440  1.00  0.00     0.029 A 
ATOM     56  C   UNL A   1      42.942  27.793  32.108  1.00  0.00     0.049 A 
ATOM     57  H   UNL A   1      41.265  28.843  31.376  1.00  0.00     0.167 HD
ATOM     58  C   UNL A   1      42.140  29.078  34.079  1.00  0.00     0.074 A 
ATOM     59  C   UNL A   1      42.215  29.482  35.470  1.00  0.00     0.031 C 
ATOM     60  C   UNL A   1      43.001  28.213  33.487  1.00  0.00     0.037 A 
BRANCH  47  61
ATOM     61  C   UNL A   1      41.835  27.124  27.509  1.00  0.00     0.057 A 
ATOM     62  C   UNL A   1      41.380  25.823  27.265  1.00  0.00     0.134 A 
ATOM     63  C   UNL A   1      42.667  27.707  26.544  1.00  0.00     0.134 A 
ATOM     64  F   UNL A   1      40.578  25.205  28.145  1.00  0.00    -0.206 F 
ATOM     65  C   UNL A   1      41.747  25.123  26.114  1.00  0.00     0.040 A 
ATOM     66  C   UNL A   1      43.016  27.029  25.374  1.00  0.00     0.040 A 
ATOM     67  F   UNL A   1      43.120  28.961  26.703  1.00  0.00    -0.206 F 
ATOM     68  C   UNL A   1      42.563  25.729  25.162  1.00  0.00     0.006 A 
ENDBRANCH  47  61
BRANCH  48  69
ATOM     69  C   UNL A   1      38.956  32.173  35.673  1.00  0.00     0.057 A 
ATOM     70  C   UNL A   1      39.362  33.502  35.853  1.00  0.00     0.134 A 
ATOM     71  C   UNL A   1      38.174  31.597  36.680  1.00  0.00     0.134 A 
ATOM     72  F   UNL A   1      40.114  34.113  34.926  1.00  0.00    -0.206 F 
ATOM     73  C   UNL A   1      39.026  34.222  37.002  1.00  0.00     0.040 A 
ATOM     74  C   UNL A   1      37.808  32.315  37.821  1.00  0.00     0.040 A 
ATOM     75  F   UNL A   1      37.737  30.336  36.557  1.00  0.00    -0.206 F 
ATOM     76  C   UNL A   1      38.243  33.627  37.988  1.00  0.00     0.006 A 
ENDBRANCH  48  69
BRANCH  60  77
ATOM     77  C   UNL A   1      44.122  27.669  34.326  1.00  0.00     0.057 A 
ATOM     78  C   UNL A   1      43.955  26.479  35.048  1.00  0.00     0.134 A 
ATOM     79  C   UNL A   1      45.337  28.350  34.475  1.00  0.00     0.134 A 
ATOM     80  F   UNL A   1      42.811  25.785  34.965  1.00  0.00    -0.206 F 
ATOM     81  C   UNL A   1      44.953  25.992  35.893  1.00  0.00     0.040 A 
ATOM     82  C   UNL A   1      46.355  27.854  35.290  1.00  0.00     0.040 A 
ATOM     83  F   UNL A   1      45.563  29.492  33.807  1.00  0.00    -0.206 F 
ATOM     84  C   UNL A   1      46.161  26.677  36.009  1.00  0.00     0.006 A 
ENDBRANCH  60  77
ENDBRANCH  34  35
ENDBRANCH  27  29
ENDBRANCH  26  27
ENDBRANCH  25  26
ENDBRANCH  24  25
ENDBRANCH  23  24
ENDBRANCH   1  23
TORSDOF 17
ENDMDL
MODEL 2
REMARK VINA RESULT:     -10.5      2.311      4.125
REMARK SMILES O=C(C[C@H]1C[N@@H+](Cc2c(F)cccc2F)CCO1)OCCOCCOC(=O)c1ccc(-c2c3nc(c(-c4c(F)cccc4F)c4ccc([nH]4)c(-c4c(F)cccc4F)c4nc(c(-c5c(F)cccc5F)c5ccc2[nH]5)C=C4)C=C3)cc1
REMARK SMILES IDX 21 1 20 2 19 3 2 4 1 5 3 6 4 7 5 8 18 9 6 10 17 11 16 12
REMARK SMILES IDX 7 14 8 15 9 16 14 17 10 18 11 19 13 20 15 21 12 22 22 23
REMARK SMILES IDX 23 24 24 25 25 26 26 27 27 28 28 29 29 30 81 31 30 32 80 33
REMARK SMILES IDX 31 34 32 35 33 36 74 37 34 38 79 39 73 40 75 41 35 42 78 43
REMARK SMILES IDX 72 44 71 45 36 47 62 48 45 49 61 50 46 51 49 52 60 53 76 54
REMARK SMILES IDX 47 55 48 56 59 58 77 59 50 60 37 61 38 62 43 63 39 64 40 65
REMARK SMILES IDX 42 66 44 67 41 68 63 69 64 70 69 71 65 72 66 73 68 74 70 75
REMARK SMILES IDX 67 76 51 77 52 78 57 79 53 80 54 81 56 82 58 83 55 84
REMARK H PARENT 6 13 75 46 49 57
REMARK Flexibility Score: inf
ROOT
ATOM      1  C   UNL A   1      32.178  29.321  27.177  1.00  0.00     0.202 C 
ENDROOT
BRANCH   1   2
ATOM      2  C   UNL A   1      33.209  28.183  27.178  1.00  0.00     0.261 C 
BRANCH   2   3
ATOM      3  O   UNL A   1      33.448  27.671  25.853  1.00  0.00    -0.463 OA
BRANCH   3   4
ATOM      4  C   UNL A   1      33.543  26.340  25.653  1.00  0.00     0.308 C 
ATOM      5  O   UNL A   1      33.176  25.559  26.526  1.00  0.00    -0.252 OA
BRANCH   4   6
ATOM      6  C   UNL A   1      34.116  25.884  24.342  1.00  0.00     0.160 C 
BRANCH   6   7
ATOM      7  C   UNL A   1      33.271  24.947  23.502  1.00  0.00     0.184 C 
ATOM      8  C   UNL A   1      31.767  25.192  23.768  1.00  0.00     0.295 C 
ATOM      9  O   UNL A   1      33.600  24.891  22.112  1.00  0.00    -0.366 OA
ATOM     10  N   UNL A   1      31.157  26.240  22.957  1.00  0.00    -0.327 N 
ATOM     11  C   UNL A   1      33.027  25.947  21.331  1.00  0.00     0.222 C 
ATOM     12  C   UNL A   1      31.517  26.083  21.553  1.00  0.00     0.291 C 
ATOM     13  H   UNL A   1      30.151  26.072  23.009  1.00  0.00     0.348 HD
BRANCH  10  14
ATOM     14  C   UNL A   1      30.953  27.581  23.512  1.00  0.00     0.305 C 
BRANCH  14  15
ATOM     15  C   UNL A   1      29.832  28.481  23.043  1.00  0.00     0.078 A 
ATOM     16  C   UNL A   1      30.042  29.601  22.235  1.00  0.00     0.135 A 
ATOM     17  C   UNL A   1      28.493  28.151  23.294  1.00  0.00     0.135 A 
ATOM     18  F   UNL A   1      31.277  29.922  21.828  1.00  0.00    -0.206 F 
ATOM     19  C   UNL A   1      28.994  30.417  21.797  1.00  0.00     0.040 A 
ATOM     20  C   UNL A   1      27.427  28.939  22.841  1.00  0.00     0.040 A 
ATOM     21  F   UNL A   1      28.195  27.052  24.004  1.00  0.00    -0.206 F 
ATOM     22  C   UNL A   1      27.680  30.095  22.113  1.00  0.00     0.006 A 
ENDBRANCH  14  15
ENDBRANCH  10  14
ENDBRANCH   6   7
ENDBRANCH   4   6
ENDBRANCH   3   4
ENDBRANCH   2   3
ENDBRANCH   1   2
BRANCH   1  23
ATOM     23  O   UNL A   1      32.183  30.113  25.988  1.00  0.00    -0.374 OA
BRANCH  23  24
ATOM     24  C   UNL A   1      31.301  31.242  25.992  1.00  0.00     0.202 C 
BRANCH  24  25
ATOM     25  C   UNL A   1      31.480  32.266  27.117  1.00  0.00     0.261 C 
BRANCH  25  26
ATOM     26  O   UNL A   1      32.596  33.131  26.833  1.00  0.00    -0.460 OA
BRANCH  26  27
ATOM     27  C   UNL A   1      33.202  33.627  27.931  1.00  0.00     0.338 C 
ATOM     28  O   UNL A   1      32.718  34.381  28.766  1.00  0.00    -0.246 OA
BRANCH  27  29
ATOM     29  C   UNL A   1      34.485  32.939  28.152  1.00  0.00     0.060 A 
ATOM     30  C   UNL A   1      34.415  31.564  28.411  1.00  0.00     0.016 A 
ATOM     31  C   UNL A   1      35.706  33.613  28.194  1.00  0.00     0.016 A 
ATOM     32  C   UNL A   1      35.545  30.870  28.796  1.00  0.00     0.010 A 
ATOM     33  C   UNL A   1      36.844  32.921  28.623  1.00  0.00     0.010 A 
ATOM     34  C   UNL A   1      36.740  31.567  28.990  1.00  0.00    -0.014 A 
BRANCH  34  35
ATOM     35  C   UNL A   1      37.736  30.923  29.872  1.00  0.00     0.031 A 
ATOM     36  C   UNL A   1      38.721  29.975  29.241  1.00  0.00     0.074 A 
ATOM     37  C   UNL A   1      37.876  31.318  31.148  1.00  0.00     0.049 A 
ATOM     38  N   UNL A   1      39.742  29.359  29.776  1.00  0.00    -0.248 NA
ATOM     39  C   UNL A   1      38.538  29.697  27.806  1.00  0.00     0.031 C 
ATOM     40  C   UNL A   1      37.041  32.313  31.818  1.00  0.00     0.029 A 
ATOM     41  N   UNL A   1      38.797  30.952  32.092  1.00  0.00    -0.354 N 
ATOM     42  C   UNL A   1      40.313  28.619  28.748  1.00  0.00     0.074 A 
ATOM     43  C   UNL A   1      39.510  28.832  27.566  1.00  0.00     0.031 C 
ATOM     44  C   UNL A   1      37.497  32.487  33.069  1.00  0.00     0.029 A 
ATOM     45  C   UNL A   1      38.631  31.592  33.293  1.00  0.00     0.049 A 
ATOM     46  H   UNL A   1      39.509  30.293  31.925  1.00  0.00     0.167 HD
ATOM     47  C   UNL A   1      41.420  27.843  28.785  1.00  0.00     0.037 A 
ATOM     48  C   UNL A   1      39.316  31.459  34.445  1.00  0.00     0.037 A 
ATOM     49  C   UNL A   1      42.218  27.651  29.966  1.00  0.00     0.049 A 
ATOM     50  C   UNL A   1      40.489  30.517  34.488  1.00  0.00     0.074 A 
ATOM     51  C   UNL A   1      43.348  26.870  30.124  1.00  0.00     0.029 A 
ATOM     52  N   UNL A   1      41.964  28.248  31.193  1.00  0.00    -0.354 N 
ATOM     53  N   UNL A   1      41.008  29.796  33.521  1.00  0.00    -0.248 NA
ATOM     54  C   UNL A   1      41.174  30.373  35.779  1.00  0.00     0.031 C 
ATOM     55  C   UNL A   1      43.744  26.949  31.462  1.00  0.00     0.029 A 
ATOM     56  C   UNL A   1      42.903  27.833  32.121  1.00  0.00     0.049 A 
ATOM     57  H   UNL A   1      41.226  28.873  31.376  1.00  0.00     0.167 HD
ATOM     58  C   UNL A   1      42.096  29.136  34.078  1.00  0.00     0.074 A 
ATOM     59  C   UNL A   1      42.168  29.553  35.465  1.00  0.00     0.031 C 
ATOM     60  C   UNL A   1      42.959  28.266  33.495  1.00  0.00     0.037 A 
BRANCH  47  61
ATOM     61  C   UNL A   1      41.806  27.119  27.527  1.00  0.00     0.057 A 
ATOM     62  C   UNL A   1      41.394  25.797  27.316  1.00  0.00     0.134 A 
ATOM     63  C   UNL A   1      42.599  27.711  26.535  1.00  0.00     0.134 A 
ATOM     64  F   UNL A   1      40.630  25.169  28.223  1.00  0.00    -0.206 F 
ATOM     65  C   UNL A   1      41.765  25.087  26.173  1.00  0.00     0.040 A 
ATOM     66  C   UNL A   1      42.952  27.022  25.372  1.00  0.00     0.040 A 
ATOM     67  F   UNL A   1      43.009  28.983  26.661  1.00  0.00    -0.206 F 
ATOM     68  C   UNL A   1      42.542  25.702  25.194  1.00  0.00     0.006 A 
ENDBRANCH  47  61
BRANCH  48  69
ATOM     69  C   UNL A   1      38.905  32.242  35.637  1.00  0.00     0.057 A 
ATOM     70  C   UNL A   1      39.283  33.582  35.790  1.00  0.00     0.134 A 
ATOM     71  C   UNL A   1      38.148  31.666  36.662  1.00  0.00     0.134 A 
ATOM     72  F   UNL A   1      40.010  34.193  34.843  1.00  0.00    -0.206 F 
ATOM     73  C   UNL A   1      38.945  34.314  36.930  1.00  0.00     0.040 A 
ATOM     74  C   UNL A   1      37.779  32.394  37.795  1.00  0.00     0.040 A 
ATOM     75  F   UNL A   1      37.739  30.393  36.565  1.00  0.00    -0.206 F 
ATOM     76  C   UNL A   1      38.187  33.719  37.936  1.00  0.00     0.006 A 
ENDBRANCH  48  69
BRANCH  60  77
ATOM     77  C   UNL A   1      44.079  27.731  34.342  1.00  0.00     0.057 A 
ATOM     78  C   UNL A   1      45.299  28.417  34.421  1.00  0.00     0.134 A 
ATOM     79  C   UNL A   1      43.978  26.512  35.024  1.00  0.00     0.134 A 
ATOM     80  F   UNL A   1      45.469  29.582  33.779  1.00  0.00    -0.206 F 
ATOM     81  C   UNL A   1      46.380  27.905  35.139  1.00  0.00     0.040 A 
ATOM     82  C   UNL A   1      45.041  26.006  35.774  1.00  0.00     0.040 A 
ATOM     83  F   UNL A   1      42.836  25.808  34.994  1.00  0.00    -0.206 F 
ATOM     84  C   UNL A   1      46.249  26.699  35.825  1.00  0.00     0.006 A 
ENDBRANCH  60  77
ENDBRANCH  34  35
ENDBRANCH  27  29
ENDBRANCH  26  27
ENDBRANCH  25  26
ENDBRANCH  24  25
ENDBRANCH  23  24
ENDBRANCH   1  23
TORSDOF 17
ENDMDL
MODEL 3
REMARK VINA RESULT:     -10.5      1.984      6.423
REMARK SMILES O=C(C[C@H]1C[N@@H+](Cc2c(F)cccc2F)CCO1)OCCOCCOC(=O)c1ccc(-c2c3nc(c(-c4c(F)cccc4F)c4ccc([nH]4)c(-c4c(F)cccc4F)c4nc(c(-c5c(F)cccc5F)c5ccc2[nH]5)C=C4)C=C3)cc1
REMARK SMILES IDX 21 1 20 2 19 3 2 4 1 5 3 6 4 7 5 8 18 9 6 10 17 11 16 12
REMARK SMILES IDX 7 14 8 15 9 16 14 17 10 18 11 19 13 20 15 21 12 22 22 23
REMARK SMILES IDX 23 24 24 25 25 26 26 27 27 28 28 29 29 30 81 31 30 32 80 33
REMARK SMILES IDX 31 34 32 35 33 36 74 37 34 38 79 39 73 40 75 41 35 42 78 43
REMARK SMILES IDX 72 44 71 45 36 47 62 48 45 49 61 50 46 51 49 52 60 53 76 54
REMARK SMILES IDX 47 55 48 56 59 58 77 59 50 60 37 61 38 62 43 63 39 64 40 65
REMARK SMILES IDX 42 66 44 67 41 68 63 69 64 70 69 71 65 72 66 73 68 74 70 75
REMARK SMILES IDX 67 76 51 77 52 78 57 79 53 80 54 81 56 82 58 83 55 84
REMARK H PARENT 6 13 75 46 49 57
REMARK Flexibility Score: inf
ROOT
ATOM      1  C   UNL A   1      32.679  28.444  25.952  1.00  0.00     0.202 C 
ENDROOT
BRANCH   1   2
ATOM      2  C   UNL A   1      33.293  28.855  24.607  1.00  0.00     0.261 C 
BRANCH   2   3
ATOM      3  O   UNL A   1      32.713  28.132  23.505  1.00  0.00    -0.463 OA
BRANCH   3   4
ATOM      4  C   UNL A   1      33.509  27.457  22.650  1.00  0.00     0.308 C 
ATOM      5  O   UNL A   1      34.036  28.040  21.707  1.00  0.00    -0.252 OA
BRANCH   4   6
ATOM      6  C   UNL A   1      33.699  25.989  22.906  1.00  0.00     0.160 C 
BRANCH   6   7
ATOM      7  C   UNL A   1      32.766  25.031  22.191  1.00  0.00     0.184 C 
ATOM      8  C   UNL A   1      33.117  23.568  22.551  1.00  0.00     0.295 C 
ATOM      9  O   UNL A   1      31.371  25.323  22.299  1.00  0.00    -0.366 OA
ATOM     10  N   UNL A   1      32.482  23.059  23.762  1.00  0.00    -0.327 N 
ATOM     11  C   UNL A   1      30.766  24.853  23.510  1.00  0.00     0.222 C 
ATOM     12  C   UNL A   1      31.058  23.371  23.770  1.00  0.00     0.291 C 
ATOM     13  H   UNL A   1      32.546  22.042  23.694  1.00  0.00     0.348 HD
BRANCH  10  14
ATOM     14  C   UNL A   1      33.225  23.013  25.024  1.00  0.00     0.305 C 
BRANCH  14  15
ATOM     15  C   UNL A   1      34.701  22.684  25.074  1.00  0.00     0.078 A 
ATOM     16  C   UNL A   1      35.210  21.423  24.755  1.00  0.00     0.135 A 
ATOM     17  C   UNL A   1      35.652  23.683  25.319  1.00  0.00     0.135 A 
ATOM     18  F   UNL A   1      34.389  20.435  24.375  1.00  0.00    -0.206 F 
ATOM     19  C   UNL A   1      36.579  21.136  24.792  1.00  0.00     0.040 A 
ATOM     20  C   UNL A   1      37.028  23.424  25.333  1.00  0.00     0.040 A 
ATOM     21  F   UNL A   1      35.255  24.941  25.567  1.00  0.00    -0.206 F 
ATOM     22  C   UNL A   1      37.494  22.136  25.097  1.00  0.00     0.006 A 
ENDBRANCH  14  15
ENDBRANCH  10  14
ENDBRANCH   6   7
ENDBRANCH   4   6
ENDBRANCH   3   4
ENDBRANCH   2   3
ENDBRANCH   1   2
BRANCH   1  23
ATOM     23  O   UNL A   1      31.581  29.258  26.367  1.00  0.00    -0.374 OA
BRANCH  23  24
ATOM     24  C   UNL A   1      31.462  30.524  25.705  1.00  0.00     0.202 C 
BRANCH  24  25
ATOM     25  C   UNL A   1      31.500  31.777  26.585  1.00  0.00     0.261 C 
BRANCH  25  26
ATOM     26  O   UNL A   1      32.811  31.952  27.152  1.00  0.00    -0.460 OA
BRANCH  26  27
ATOM     27  C   UNL A   1      33.024  33.173  27.685  1.00  0.00     0.338 C 
ATOM     28  O   UNL A   1      32.255  34.126  27.680  1.00  0.00    -0.246 OA
BRANCH  27  29
ATOM     29  C   UNL A   1      34.236  33.153  28.520  1.00  0.00     0.060 A 
ATOM     30  C   UNL A   1      35.430  33.526  27.889  1.00  0.00     0.016 A 
ATOM     31  C   UNL A   1      34.235  32.708  29.843  1.00  0.00     0.016 A 
ATOM     32  C   UNL A   1      36.638  33.377  28.541  1.00  0.00     0.010 A 
ATOM     33  C   UNL A   1      35.460  32.518  30.491  1.00  0.00     0.010 A 
ATOM     34  C   UNL A   1      36.661  32.788  29.808  1.00  0.00    -0.014 A 
BRANCH  34  35
ATOM     35  C   UNL A   1      37.944  32.185  30.226  1.00  0.00     0.031 A 
ATOM     36  C   UNL A   1      38.631  32.765  31.433  1.00  0.00     0.074 A 
ATOM     37  C   UNL A   1      38.379  31.045  29.664  1.00  0.00     0.049 A 
ATOM     38  N   UNL A   1      39.708  32.360  32.051  1.00  0.00    -0.248 NA
ATOM     39  C   UNL A   1      38.004  33.954  32.037  1.00  0.00     0.031 C 
ATOM     40  C   UNL A   1      37.722  30.346  28.561  1.00  0.00     0.029 A 
ATOM     41  N   UNL A   1      39.457  30.261  29.972  1.00  0.00    -0.354 N 
ATOM     42  C   UNL A   1      39.891  33.247  33.105  1.00  0.00     0.074 A 
ATOM     43  C   UNL A   1      38.837  34.232  33.027  1.00  0.00     0.031 C 
ATOM     44  C   UNL A   1      38.408  29.224  28.290  1.00  0.00     0.029 A 
ATOM     45  C   UNL A   1      39.567  29.148  29.178  1.00  0.00     0.049 A 
ATOM     46  H   UNL A   1      40.091  30.474  30.694  1.00  0.00     0.167 HD
ATOM     47  C   UNL A   1      40.846  33.231  34.063  1.00  0.00     0.037 A 
ATOM     48  C   UNL A   1      40.508  28.184  29.169  1.00  0.00     0.037 A 
ATOM     49  C   UNL A   1      41.882  32.237  34.136  1.00  0.00     0.049 A 
ATOM     50  C   UNL A   1      41.616  28.239  30.186  1.00  0.00     0.074 A 
ATOM     51  C   UNL A   1      42.914  32.134  35.050  1.00  0.00     0.029 A 
ATOM     52  N   UNL A   1      42.015  31.172  33.255  1.00  0.00    -0.354 N 
ATOM     53  N   UNL A   1      41.801  29.096  31.162  1.00  0.00    -0.248 NA
ATOM     54  C   UNL A   1      42.641  27.191  30.104  1.00  0.00     0.031 C 
ATOM     55  C   UNL A   1      43.705  31.040  34.688  1.00  0.00     0.029 A 
ATOM     56  C   UNL A   1      43.127  30.420  33.590  1.00  0.00     0.049 A 
ATOM     57  H   UNL A   1      41.407  30.980  32.505  1.00  0.00     0.167 HD
ATOM     58  C   UNL A   1      42.946  28.677  31.828  1.00  0.00     0.074 A 
ATOM     59  C   UNL A   1      43.403  27.480  31.150  1.00  0.00     0.031 C 
ATOM     60  C   UNL A   1      43.561  29.229  32.904  1.00  0.00     0.037 A 
BRANCH  47  61
ATOM     61  C   UNL A   1      40.834  34.339  35.077  1.00  0.00     0.057 A 
ATOM     62  C   UNL A   1      41.490  35.548  34.813  1.00  0.00     0.134 A 
ATOM     63  C   UNL A   1      40.199  34.210  36.320  1.00  0.00     0.134 A 
ATOM     64  F   UNL A   1      42.116  35.741  33.642  1.00  0.00    -0.206 F 
ATOM     65  C   UNL A   1      41.526  36.582  35.749  1.00  0.00     0.040 A 
ATOM     66  C   UNL A   1      40.202  35.248  37.253  1.00  0.00     0.040 A 
ATOM     67  F   UNL A   1      39.532  33.087  36.630  1.00  0.00    -0.206 F 
ATOM     68  C   UNL A   1      40.875  36.435  36.972  1.00  0.00     0.006 A 
ENDBRANCH  47  61
BRANCH  48  69
ATOM     69  C   UNL A   1      40.429  27.094  28.165  1.00  0.00     0.057 A 
ATOM     70  C   UNL A   1      41.108  27.183  26.943  1.00  0.00     0.134 A 
ATOM     71  C   UNL A   1      39.657  25.950  28.389  1.00  0.00     0.134 A 
ATOM     72  F   UNL A   1      41.866  28.255  26.666  1.00  0.00    -0.206 F 
ATOM     73  C   UNL A   1      41.002  26.187  25.970  1.00  0.00     0.040 A 
ATOM     74  C   UNL A   1      39.563  24.933  27.437  1.00  0.00     0.040 A 
ATOM     75  F   UNL A   1      38.999  25.795  29.548  1.00  0.00    -0.206 F 
ATOM     76  C   UNL A   1      40.229  25.055  26.219  1.00  0.00     0.006 A 
ENDBRANCH  48  69
BRANCH  60  77
ATOM     77  C   UNL A   1      44.776  28.527  33.441  1.00  0.00     0.057 A 
ATOM     78  C   UNL A   1      44.648  27.535  34.422  1.00  0.00     0.134 A 
ATOM     79  C   UNL A   1      46.073  28.875  33.040  1.00  0.00     0.134 A 
ATOM     80  F   UNL A   1      43.436  27.165  34.864  1.00  0.00    -0.206 F 
ATOM     81  C   UNL A   1      45.764  26.921  34.992  1.00  0.00     0.040 A 
ATOM     82  C   UNL A   1      47.195  28.244  33.577  1.00  0.00     0.040 A 
ATOM     83  F   UNL A   1      46.266  29.813  32.101  1.00  0.00    -0.206 F 
ATOM     84  C   UNL A   1      47.043  27.270  34.562  1.00  0.00     0.006 A 
ENDBRANCH  60  77
ENDBRANCH  34  35
ENDBRANCH  27  29
ENDBRANCH  26  27
ENDBRANCH  25  26
ENDBRANCH  24  25
ENDBRANCH  23  24
ENDBRANCH   1  23
TORSDOF 17
ENDMDL
