MODEL 1
REMARK VINA RESULT:     -11.4      0.000      0.000
REMARK SMILES CC1=C2C(CSc3c(Cl)cccc3Cl)=CC(=O)N=C2S[C@H]1C(=O)OCCOCCOC(=O)c1ccc(-c2c3nc(c(-c4c(F)cccc4F)c4ccc([nH]4)c(-c4c(F)cccc4F)c4nc(c(-c5c(F)cccc5F)c5ccc2[nH]5)C=C4)C=C3)cc1
REMARK SMILES IDX 26 1 25 2 24 3 22 4 23 5 21 6 1 7 2 8 3 9 4 10 19 11 20 12
REMARK SMILES IDX 15 13 18 14 16 15 17 16 5 17 6 18 7 19 8 20 13 21 9 22 10 23
REMARK SMILES IDX 12 24 14 25 11 26 27 27 28 28 29 29 30 30 31 31 32 32 33 33
REMARK SMILES IDX 34 34 86 35 35 36 85 37 36 38 37 39 38 40 79 41 39 42 84 43
REMARK SMILES IDX 78 44 80 45 40 46 83 47 77 48 76 49 41 51 67 52 50 53 66 54
REMARK SMILES IDX 51 55 54 56 65 57 81 58 52 59 53 60 64 62 82 63 55 64 42 65
REMARK SMILES IDX 43 66 48 67 44 68 45 69 47 70 49 71 46 72 68 73 69 74 74 75
REMARK SMILES IDX 70 76 71 77 73 78 75 79 72 80 56 81 57 82 62 83 58 84 59 85
REMARK SMILES IDX 61 86 63 87 60 88
REMARK H PARENT 80 50 54 61
REMARK Flexibility Score: inf
ROOT
ATOM      1  C   UNL A   1      37.918  21.827  25.515  1.00  0.00     0.202 C 
ENDROOT
BRANCH   1   2
ATOM      2  C   UNL A   1      36.902  20.875  24.879  1.00  0.00     0.261 C 
BRANCH   2   3
ATOM      3  O   UNL A   1      35.708  21.549  24.431  1.00  0.00    -0.462 OA
BRANCH   3   4
ATOM      4  C   UNL A   1      34.519  20.947  24.732  1.00  0.00     0.323 C 
ATOM      5  O   UNL A   1      34.364  19.735  24.846  1.00  0.00    -0.251 OA
BRANCH   4   6
ATOM      6  C   UNL A   1      33.384  21.945  24.976  1.00  0.00     0.189 C 
ATOM      7  C   UNL A   1      34.465  23.620  26.573  1.00  0.00     0.042 C 
ATOM      8  C   UNL A   1      33.823  23.374  25.242  1.00  0.00    -0.039 C 
ATOM      9  C   UNL A   1      33.551  24.274  24.278  1.00  0.00     0.012 C 
ATOM     10  C   UNL A   1      33.679  25.716  24.154  1.00  0.00    -0.022 C 
ATOM     11  C   UNL A   1      32.895  23.614  23.117  1.00  0.00     0.109 C 
ATOM     12  S   UNL A   1      32.322  22.022  23.507  1.00  0.00    -0.086 SA
ATOM     13  C   UNL A   1      33.487  26.222  22.917  1.00  0.00     0.079 C 
ATOM     14  N   UNL A   1      32.716  24.114  21.951  1.00  0.00    -0.202 NA
ATOM     15  C   UNL A   1      33.186  25.380  21.725  1.00  0.00     0.271 C 
ATOM     16  O   UNL A   1      33.300  25.876  20.610  1.00  0.00    -0.267 OA
BRANCH  10  17
ATOM     17  C   UNL A   1      33.749  26.629  25.357  1.00  0.00     0.111 C 
BRANCH  17  18
ATOM     18  S   UNL A   1      32.185  26.810  26.283  1.00  0.00    -0.118 SA
BRANCH  18  19
ATOM     19  C   UNL A   1      31.117  27.631  25.085  1.00  0.00     0.045 A 
ATOM     20  C   UNL A   1      30.206  26.918  24.278  1.00  0.00     0.056 A 
ATOM     21  C   UNL A   1      31.240  29.018  24.858  1.00  0.00     0.056 A 
ATOM     22  Cl  UNL A   1      30.029  25.195  24.352  1.00  0.00    -0.083 Cl
ATOM     23  C   UNL A   1      29.404  27.578  23.336  1.00  0.00     0.022 A 
ATOM     24  C   UNL A   1      30.442  29.669  23.907  1.00  0.00     0.022 A 
ATOM     25  Cl  UNL A   1      32.373  30.010  25.714  1.00  0.00    -0.083 Cl
ATOM     26  C   UNL A   1      29.516  28.951  23.155  1.00  0.00     0.003 A 
ENDBRANCH  18  19
ENDBRANCH  17  18
ENDBRANCH  10  17
ENDBRANCH   4   6
ENDBRANCH   3   4
ENDBRANCH   2   3
ENDBRANCH   1   2
BRANCH   1  27
ATOM     27  O   UNL A   1      39.204  21.281  25.808  1.00  0.00    -0.374 OA
BRANCH  27  28
ATOM     28  C   UNL A   1      39.384  19.887  25.606  1.00  0.00     0.202 C 
BRANCH  28  29
ATOM     29  C   UNL A   1      40.672  19.274  26.159  1.00  0.00     0.261 C 
BRANCH  29  30
ATOM     30  O   UNL A   1      41.769  19.247  25.231  1.00  0.00    -0.460 OA
BRANCH  30  31
ATOM     31  C   UNL A   1      42.920  19.777  25.723  1.00  0.00     0.338 C 
ATOM     32  O   UNL A   1      44.046  19.314  25.619  1.00  0.00    -0.246 OA
BRANCH  31  33
ATOM     33  C   UNL A   1      42.688  21.089  26.352  1.00  0.00     0.060 A 
ATOM     34  C   UNL A   1      42.911  22.232  25.578  1.00  0.00     0.016 A 
ATOM     35  C   UNL A   1      42.426  21.205  27.717  1.00  0.00     0.016 A 
ATOM     36  C   UNL A   1      42.924  23.489  26.181  1.00  0.00     0.010 A 
ATOM     37  C   UNL A   1      42.433  22.468  28.319  1.00  0.00     0.010 A 
ATOM     38  C   UNL A   1      42.724  23.614  27.564  1.00  0.00    -0.014 A 
BRANCH  38  39
ATOM     39  C   UNL A   1      42.919  24.936  28.213  1.00  0.00     0.031 A 
ATOM     40  C   UNL A   1      44.293  25.365  28.652  1.00  0.00     0.074 A 
ATOM     41  C   UNL A   1      41.877  25.773  28.362  1.00  0.00     0.049 A 
ATOM     42  N   UNL A   1      44.691  26.521  29.122  1.00  0.00    -0.248 NA
ATOM     43  C   UNL A   1      45.362  24.359  28.552  1.00  0.00     0.031 C 
ATOM     44  C   UNL A   1      40.494  25.465  28.006  1.00  0.00     0.029 A 
ATOM     45  N   UNL A   1      41.826  27.055  28.847  1.00  0.00    -0.354 N 
ATOM     46  C   UNL A   1      46.051  26.384  29.369  1.00  0.00     0.074 A 
ATOM     47  C   UNL A   1      46.405  25.021  29.035  1.00  0.00     0.031 C 
ATOM     48  C   UNL A   1      39.727  26.537  28.271  1.00  0.00     0.029 A 
ATOM     49  C   UNL A   1      40.566  27.601  28.822  1.00  0.00     0.049 A 
ATOM     50  H   UNL A   1      42.615  27.538  29.182  1.00  0.00     0.167 HD
ATOM     51  C   UNL A   1      46.931  27.313  29.818  1.00  0.00     0.037 A 
ATOM     52  C   UNL A   1      40.140  28.822  29.190  1.00  0.00     0.037 A 
ATOM     53  C   UNL A   1      46.580  28.668  30.159  1.00  0.00     0.049 A 
ATOM     54  C   UNL A   1      41.134  29.838  29.682  1.00  0.00     0.074 A 
ATOM     55  C   UNL A   1      47.405  29.692  30.595  1.00  0.00     0.029 A 
ATOM     56  N   UNL A   1      45.294  29.185  30.113  1.00  0.00    -0.354 N 
ATOM     57  N   UNL A   1      42.430  29.722  29.836  1.00  0.00    -0.248 NA
ATOM     58  C   UNL A   1      40.606  31.166  30.029  1.00  0.00     0.031 C 
ATOM     59  C   UNL A   1      46.611  30.818  30.845  1.00  0.00     0.029 A 
ATOM     60  C   UNL A   1      45.300  30.508  30.522  1.00  0.00     0.049 A 
ATOM     61  H   UNL A   1      44.495  28.684  29.831  1.00  0.00     0.167 HD
ATOM     62  C   UNL A   1      42.877  30.964  30.269  1.00  0.00     0.074 A 
ATOM     63  C   UNL A   1      41.714  31.824  30.337  1.00  0.00     0.031 C 
ATOM     64  C   UNL A   1      44.136  31.356  30.580  1.00  0.00     0.037 A 
BRANCH  51  65
ATOM     65  C   UNL A   1      48.364  26.891  29.969  1.00  0.00     0.057 A 
ATOM     66  C   UNL A   1      49.298  27.079  28.941  1.00  0.00     0.134 A 
ATOM     67  C   UNL A   1      48.824  26.321  31.162  1.00  0.00     0.134 A 
ATOM     68  F   UNL A   1      48.922  27.611  27.768  1.00  0.00    -0.206 F 
ATOM     69  C   UNL A   1      50.632  26.693  29.086  1.00  0.00     0.040 A 
ATOM     70  C   UNL A   1      50.161  25.953  31.328  1.00  0.00     0.040 A 
ATOM     71  F   UNL A   1      47.986  26.121  32.189  1.00  0.00    -0.206 F 
ATOM     72  C   UNL A   1      51.068  26.133  30.286  1.00  0.00     0.006 A 
ENDBRANCH  51  65
BRANCH  52  73
ATOM     73  C   UNL A   1      38.703  29.170  29.070  1.00  0.00     0.057 A 
ATOM     74  C   UNL A   1      38.157  29.585  27.850  1.00  0.00     0.134 A 
ATOM     75  C   UNL A   1      37.843  29.102  30.172  1.00  0.00     0.134 A 
ATOM     76  F   UNL A   1      38.936  29.690  26.763  1.00  0.00    -0.206 F 
ATOM     77  C   UNL A   1      36.811  29.938  27.734  1.00  0.00     0.040 A 
ATOM     78  C   UNL A   1      36.492  29.428  30.065  1.00  0.00     0.040 A 
ATOM     79  F   UNL A   1      38.307  28.708  31.368  1.00  0.00    -0.206 F 
ATOM     80  C   UNL A   1      35.974  29.855  28.844  1.00  0.00     0.006 A 
ENDBRANCH  52  73
BRANCH  64  81
ATOM     81  C   UNL A   1      44.324  32.790  30.982  1.00  0.00     0.057 A 
ATOM     82  C   UNL A   1      44.263  33.199  32.321  1.00  0.00     0.134 A 
ATOM     83  C   UNL A   1      44.580  33.772  30.016  1.00  0.00     0.134 A 
ATOM     84  F   UNL A   1      44.009  32.310  33.292  1.00  0.00    -0.206 F 
ATOM     85  C   UNL A   1      44.417  34.540  32.681  1.00  0.00     0.040 A 
ATOM     86  C   UNL A   1      44.761  35.111  30.367  1.00  0.00     0.040 A 
ATOM     87  F   UNL A   1      44.661  33.447  28.718  1.00  0.00    -0.206 F 
ATOM     88  C   UNL A   1      44.671  35.498  31.703  1.00  0.00     0.006 A 
ENDBRANCH  64  81
ENDBRANCH  38  39
ENDBRANCH  31  33
ENDBRANCH  30  31
ENDBRANCH  29  30
ENDBRANCH  28  29
ENDBRANCH  27  28
ENDBRANCH   1  27
TORSDOF 17
ENDMDL
MODEL 2
REMARK VINA RESULT:     -11.4      2.479      3.860
REMARK SMILES CC1=C2C(CSc3c(Cl)cccc3Cl)=CC(=O)N=C2S[C@H]1C(=O)OCCOCCOC(=O)c1ccc(-c2c3nc(c(-c4c(F)cccc4F)c4ccc([nH]4)c(-c4c(F)cccc4F)c4nc(c(-c5c(F)cccc5F)c5ccc2[nH]5)C=C4)C=C3)cc1
REMARK SMILES IDX 26 1 25 2 24 3 22 4 23 5 21 6 1 7 2 8 3 9 4 10 19 11 20 12
REMARK SMILES IDX 15 13 18 14 16 15 17 16 5 17 6 18 7 19 8 20 13 21 9 22 10 23
REMARK SMILES IDX 12 24 14 25 11 26 27 27 28 28 29 29 30 30 31 31 32 32 33 33
REMARK SMILES IDX 34 34 86 35 35 36 85 37 36 38 37 39 38 40 79 41 39 42 84 43
REMARK SMILES IDX 78 44 80 45 40 46 83 47 77 48 76 49 41 51 67 52 50 53 66 54
REMARK SMILES IDX 51 55 54 56 65 57 81 58 52 59 53 60 64 62 82 63 55 64 42 65
REMARK SMILES IDX 43 66 48 67 44 68 45 69 47 70 49 71 46 72 68 73 69 74 74 75
REMARK SMILES IDX 70 76 71 77 73 78 75 79 72 80 56 81 57 82 62 83 58 84 59 85
REMARK SMILES IDX 61 86 63 87 60 88
REMARK H PARENT 80 50 54 61
REMARK Flexibility Score: inf
ROOT
ATOM      1  C   UNL A   1      35.139  22.613  25.322  1.00  0.00     0.202 C 
ENDROOT
BRANCH   1   2
ATOM      2  C   UNL A   1      34.604  22.529  23.890  1.00  0.00     0.261 C 
BRANCH   2   3
ATOM      3  O   UNL A   1      33.168  22.654  23.823  1.00  0.00    -0.462 OA
BRANCH   3   4
ATOM      4  C   UNL A   1      32.683  23.818  23.297  1.00  0.00     0.323 C 
ATOM      5  O   UNL A   1      32.653  24.081  22.099  1.00  0.00    -0.251 OA
BRANCH   4   6
ATOM      6  C   UNL A   1      32.115  24.765  24.359  1.00  0.00     0.189 C 
ATOM      7  C   UNL A   1      34.159  26.160  24.992  1.00  0.00     0.042 C 
ATOM      8  C   UNL A   1      32.772  26.132  24.426  1.00  0.00    -0.039 C 
ATOM      9  C   UNL A   1      32.028  27.176  24.014  1.00  0.00     0.012 C 
ATOM     10  C   UNL A   1      32.196  28.619  24.008  1.00  0.00    -0.022 C 
ATOM     11  C   UNL A   1      30.699  26.712  23.532  1.00  0.00     0.109 C 
ATOM     12  S   UNL A   1      30.362  25.078  24.014  1.00  0.00    -0.086 SA
ATOM     13  C   UNL A   1      31.286  29.318  23.297  1.00  0.00     0.079 C 
ATOM     14  N   UNL A   1      29.845  27.393  22.862  1.00  0.00    -0.202 NA
ATOM     15  C   UNL A   1      30.179  28.678  22.531  1.00  0.00     0.271 C 
ATOM     16  O   UNL A   1      29.576  29.348  21.701  1.00  0.00    -0.267 OA
BRANCH  10  17
ATOM     17  C   UNL A   1      33.148  29.326  24.946  1.00  0.00     0.111 C 
BRANCH  17  18
ATOM     18  S   UNL A   1      32.654  29.313  26.705  1.00  0.00    -0.118 SA
BRANCH  18  19
ATOM     19  C   UNL A   1      33.276  30.899  27.294  1.00  0.00     0.045 A 
ATOM     20  C   UNL A   1      32.537  32.093  27.160  1.00  0.00     0.056 A 
ATOM     21  C   UNL A   1      34.579  30.997  27.826  1.00  0.00     0.056 A 
ATOM     22  Cl  UNL A   1      30.973  32.155  26.415  1.00  0.00    -0.083 Cl
ATOM     23  C   UNL A   1      33.055  33.318  27.605  1.00  0.00     0.022 A 
ATOM     24  C   UNL A   1      35.093  32.227  28.259  1.00  0.00     0.022 A 
ATOM     25  Cl  UNL A   1      35.634  29.631  27.976  1.00  0.00    -0.083 Cl
ATOM     26  C   UNL A   1      34.327  33.385  28.160  1.00  0.00     0.003 A 
ENDBRANCH  18  19
ENDBRANCH  17  18
ENDBRANCH  10  17
ENDBRANCH   4   6
ENDBRANCH   3   4
ENDBRANCH   2   3
ENDBRANCH   1   2
BRANCH   1  27
ATOM     27  O   UNL A   1      35.557  21.385  25.917  1.00  0.00    -0.374 OA
BRANCH  27  28
ATOM     28  C   UNL A   1      35.975  20.344  25.046  1.00  0.00     0.202 C 
BRANCH  28  29
ATOM     29  C   UNL A   1      37.481  20.097  24.944  1.00  0.00     0.261 C 
BRANCH  29  30
ATOM     30  O   UNL A   1      38.296  21.257  25.181  1.00  0.00    -0.460 OA
BRANCH  30  31
ATOM     31  C   UNL A   1      39.345  21.031  26.015  1.00  0.00     0.338 C 
ATOM     32  O   UNL A   1      39.967  19.988  26.148  1.00  0.00    -0.246 OA
BRANCH  31  33
ATOM     33  C   UNL A   1      39.753  22.260  26.719  1.00  0.00     0.060 A 
ATOM     34  C   UNL A   1      39.216  23.473  26.277  1.00  0.00     0.016 A 
ATOM     35  C   UNL A   1      40.766  22.247  27.676  1.00  0.00     0.016 A 
ATOM     36  C   UNL A   1      39.734  24.677  26.754  1.00  0.00     0.010 A 
ATOM     37  C   UNL A   1      41.280  23.456  28.159  1.00  0.00     0.010 A 
ATOM     38  C   UNL A   1      40.796  24.680  27.670  1.00  0.00    -0.014 A 
BRANCH  38  39
ATOM     39  C   UNL A   1      41.448  25.965  28.028  1.00  0.00     0.031 A 
ATOM     40  C   UNL A   1      42.833  26.273  27.526  1.00  0.00     0.074 A 
ATOM     41  C   UNL A   1      40.783  26.876  28.759  1.00  0.00     0.049 A 
ATOM     42  N   UNL A   1      43.523  27.382  27.623  1.00  0.00    -0.248 NA
ATOM     43  C   UNL A   1      43.536  25.189  26.823  1.00  0.00     0.031 C 
ATOM     44  C   UNL A   1      39.451  26.688  29.330  1.00  0.00     0.029 A 
ATOM     45  N   UNL A   1      41.138  28.146  29.139  1.00  0.00    -0.354 N 
ATOM     46  C   UNL A   1      44.736  27.132  26.992  1.00  0.00     0.074 A 
ATOM     47  C   UNL A   1      44.705  25.755  26.550  1.00  0.00     0.031 C 
ATOM     48  C   UNL A   1      39.092  27.809  29.977  1.00  0.00     0.029 A 
ATOM     49  C   UNL A   1      40.172  28.790  29.872  1.00  0.00     0.049 A 
ATOM     50  H   UNL A   1      42.002  28.557  28.909  1.00  0.00     0.167 HD
ATOM     51  C   UNL A   1      45.776  27.978  26.785  1.00  0.00     0.037 A 
ATOM     52  C   UNL A   1      40.155  30.031  30.390  1.00  0.00     0.037 A 
ATOM     53  C   UNL A   1      45.812  29.347  27.233  1.00  0.00     0.049 A 
ATOM     54  C   UNL A   1      41.319  30.953  30.144  1.00  0.00     0.074 A 
ATOM     55  C   UNL A   1      46.808  30.292  27.046  1.00  0.00     0.029 A 
ATOM     56  N   UNL A   1      44.811  29.964  27.966  1.00  0.00    -0.354 N 
ATOM     57  N   UNL A   1      42.425  30.731  29.479  1.00  0.00    -0.248 NA
ATOM     58  C   UNL A   1      41.217  32.308  30.704  1.00  0.00     0.031 C 
ATOM     59  C   UNL A   1      46.423  31.469  27.696  1.00  0.00     0.029 A 
ATOM     60  C   UNL A   1      45.168  31.272  28.249  1.00  0.00     0.049 A 
ATOM     61  H   UNL A   1      43.969  29.535  28.244  1.00  0.00     0.167 HD
ATOM     62  C   UNL A   1      43.138  31.922  29.515  1.00  0.00     0.074 A 
ATOM     63  C   UNL A   1      42.330  32.870  30.254  1.00  0.00     0.031 C 
ATOM     64  C   UNL A   1      44.352  32.207  28.982  1.00  0.00     0.037 A 
BRANCH  51  65
ATOM     65  C   UNL A   1      46.965  27.441  26.042  1.00  0.00     0.057 A 
ATOM     66  C   UNL A   1      48.033  26.827  26.710  1.00  0.00     0.134 A 
ATOM     67  C   UNL A   1      47.030  27.508  24.645  1.00  0.00     0.134 A 
ATOM     68  F   UNL A   1      48.037  26.738  28.049  1.00  0.00    -0.206 F 
ATOM     69  C   UNL A   1      49.134  26.320  26.017  1.00  0.00     0.040 A 
ATOM     70  C   UNL A   1      48.115  26.983  23.939  1.00  0.00     0.040 A 
ATOM     71  F   UNL A   1      46.038  28.074  23.943  1.00  0.00    -0.206 F 
ATOM     72  C   UNL A   1      49.174  26.393  24.625  1.00  0.00     0.006 A 
ENDBRANCH  51  65
BRANCH  52  73
ATOM     73  C   UNL A   1      38.976  30.494  31.162  1.00  0.00     0.057 A 
ATOM     74  C   UNL A   1      38.854  30.227  32.530  1.00  0.00     0.134 A 
ATOM     75  C   UNL A   1      37.941  31.209  30.548  1.00  0.00     0.134 A 
ATOM     76  F   UNL A   1      39.804  29.528  33.168  1.00  0.00    -0.206 F 
ATOM     77  C   UNL A   1      37.736  30.637  33.258  1.00  0.00     0.040 A 
ATOM     78  C   UNL A   1      36.829  31.646  31.268  1.00  0.00     0.040 A 
ATOM     79  F   UNL A   1      38.001  31.498  29.240  1.00  0.00    -0.206 F 
ATOM     80  C   UNL A   1      36.722  31.354  32.626  1.00  0.00     0.006 A 
ENDBRANCH  52  73
BRANCH  64  81
ATOM     81  C   UNL A   1      44.856  33.611  29.146  1.00  0.00     0.057 A 
ATOM     82  C   UNL A   1      45.668  33.986  30.225  1.00  0.00     0.134 A 
ATOM     83  C   UNL A   1      44.534  34.597  28.204  1.00  0.00     0.134 A 
ATOM     84  F   UNL A   1      46.003  33.092  31.167  1.00  0.00    -0.206 F 
ATOM     85  C   UNL A   1      46.114  35.301  30.379  1.00  0.00     0.040 A 
ATOM     86  C   UNL A   1      44.995  35.909  28.335  1.00  0.00     0.040 A 
ATOM     87  F   UNL A   1      43.769  34.303  27.143  1.00  0.00    -0.206 F 
ATOM     88  C   UNL A   1      45.780  36.264  29.430  1.00  0.00     0.006 A 
ENDBRANCH  64  81
ENDBRANCH  38  39
ENDBRANCH  31  33
ENDBRANCH  30  31
ENDBRANCH  29  30
ENDBRANCH  28  29
ENDBRANCH  27  28
ENDBRANCH   1  27
TORSDOF 17
ENDMDL
MODEL 3
REMARK VINA RESULT:     -11.4      4.042      8.867
REMARK SMILES CC1=C2C(CSc3c(Cl)cccc3Cl)=CC(=O)N=C2S[C@H]1C(=O)OCCOCCOC(=O)c1ccc(-c2c3nc(c(-c4c(F)cccc4F)c4ccc([nH]4)c(-c4c(F)cccc4F)c4nc(c(-c5c(F)cccc5F)c5ccc2[nH]5)C=C4)C=C3)cc1
REMARK SMILES IDX 26 1 25 2 24 3 22 4 23 5 21 6 1 7 2 8 3 9 4 10 19 11 20 12
REMARK SMILES IDX 15 13 18 14 16 15 17 16 5 17 6 18 7 19 8 20 13 21 9 22 10 23
REMARK SMILES IDX 12 24 14 25 11 26 27 27 28 28 29 29 30 30 31 31 32 32 33 33
REMARK SMILES IDX 34 34 86 35 35 36 85 37 36 38 37 39 38 40 79 41 39 42 84 43
REMARK SMILES IDX 78 44 80 45 40 46 83 47 77 48 76 49 41 51 67 52 50 53 66 54
REMARK SMILES IDX 51 55 54 56 65 57 81 58 52 59 53 60 64 62 82 63 55 64 42 65
REMARK SMILES IDX 43 66 48 67 44 68 45 69 47 70 49 71 46 72 68 73 69 74 74 75
REMARK SMILES IDX 70 76 71 77 73 78 75 79 72 80 56 81 57 82 62 83 58 84 59 85
REMARK SMILES IDX 61 86 63 87 60 88
REMARK H PARENT 80 50 54 61
REMARK Flexibility Score: inf
ROOT
ATOM      1  C   UNL A   1      32.661  27.276  25.774  1.00  0.00     0.202 C 
ENDROOT
BRANCH   1   2
ATOM      2  C   UNL A   1      33.516  27.652  24.561  1.00  0.00     0.261 C 
BRANCH   2   3
ATOM      3  O   UNL A   1      34.002  26.499  23.842  1.00  0.00    -0.462 OA
BRANCH   3   4
ATOM      4  C   UNL A   1      33.608  26.383  22.538  1.00  0.00     0.323 C 
ATOM      5  O   UNL A   1      33.986  27.117  21.631  1.00  0.00    -0.251 OA
BRANCH   4   6
ATOM      6  C   UNL A   1      32.674  25.194  22.297  1.00  0.00     0.189 C 
ATOM      7  C   UNL A   1      34.210  23.199  22.724  1.00  0.00     0.042 C 
ATOM      8  C   UNL A   1      32.978  23.954  23.118  1.00  0.00    -0.039 C 
ATOM      9  C   UNL A   1      32.088  23.638  24.078  1.00  0.00     0.012 C 
ATOM     10  C   UNL A   1      31.918  22.523  24.994  1.00  0.00    -0.022 C 
ATOM     11  C   UNL A   1      30.999  24.649  24.134  1.00  0.00     0.109 C 
ATOM     12  S   UNL A   1      30.975  25.664  22.725  1.00  0.00    -0.086 SA
ATOM     13  C   UNL A   1      30.998  22.693  25.967  1.00  0.00     0.079 C 
ATOM     14  N   UNL A   1      30.129  24.791  25.065  1.00  0.00    -0.202 NA
ATOM     15  C   UNL A   1      30.207  23.944  26.138  1.00  0.00     0.271 C 
ATOM     16  O   UNL A   1      29.606  24.121  27.191  1.00  0.00    -0.267 OA
BRANCH  10  17
ATOM     17  C   UNL A   1      32.517  21.161  24.730  1.00  0.00     0.111 C 
BRANCH  17  18
ATOM     18  S   UNL A   1      33.520  20.477  26.096  1.00  0.00    -0.118 SA
BRANCH  18  19
ATOM     19  C   UNL A   1      35.163  21.120  25.731  1.00  0.00     0.045 A 
ATOM     20  C   UNL A   1      35.531  22.451  26.021  1.00  0.00     0.056 A 
ATOM     21  C   UNL A   1      36.103  20.320  25.049  1.00  0.00     0.056 A 
ATOM     22  Cl  UNL A   1      34.445  23.593  26.744  1.00  0.00    -0.083 Cl
ATOM     23  C   UNL A   1      36.809  22.933  25.704  1.00  0.00     0.022 A 
ATOM     24  C   UNL A   1      37.375  20.813  24.726  1.00  0.00     0.022 A 
ATOM     25  Cl  UNL A   1      35.764  18.694  24.554  1.00  0.00    -0.083 Cl
ATOM     26  C   UNL A   1      37.732  22.115  25.064  1.00  0.00     0.003 A 
ENDBRANCH  18  19
ENDBRANCH  17  18
ENDBRANCH  10  17
ENDBRANCH   4   6
ENDBRANCH   3   4
ENDBRANCH   2   3
ENDBRANCH   1   2
BRANCH   1  27
ATOM     27  O   UNL A   1      31.989  28.349  26.433  1.00  0.00    -0.374 OA
BRANCH  27  28
ATOM     28  C   UNL A   1      31.449  29.381  25.621  1.00  0.00     0.202 C 
BRANCH  28  29
ATOM     29  C   UNL A   1      31.726  30.819  26.065  1.00  0.00     0.261 C 
BRANCH  29  30
ATOM     30  O   UNL A   1      32.372  30.938  27.344  1.00  0.00    -0.460 OA
BRANCH  30  31
ATOM     31  C   UNL A   1      33.184  32.023  27.451  1.00  0.00     0.338 C 
ATOM     32  O   UNL A   1      32.856  33.197  27.378  1.00  0.00    -0.246 OA
BRANCH  31  33
ATOM     33  C   UNL A   1      34.567  31.634  27.777  1.00  0.00     0.060 A 
ATOM     34  C   UNL A   1      34.826  30.280  28.011  1.00  0.00     0.016 A 
ATOM     35  C   UNL A   1      35.552  32.590  28.021  1.00  0.00     0.016 A 
ATOM     36  C   UNL A   1      36.056  29.888  28.539  1.00  0.00     0.010 A 
ATOM     37  C   UNL A   1      36.788  32.194  28.545  1.00  0.00     0.010 A 
ATOM     38  C   UNL A   1      37.033  30.845  28.847  1.00  0.00    -0.014 A 
BRANCH  38  39
ATOM     39  C   UNL A   1      38.261  30.429  29.572  1.00  0.00     0.031 A 
ATOM     40  C   UNL A   1      38.481  30.865  30.995  1.00  0.00     0.074 A 
ATOM     41  C   UNL A   1      39.153  29.619  28.974  1.00  0.00     0.049 A 
ATOM     42  N   UNL A   1      39.421  30.509  31.836  1.00  0.00    -0.248 NA
ATOM     43  C   UNL A   1      37.519  31.832  31.545  1.00  0.00     0.031 C 
ATOM     44  C   UNL A   1      39.071  29.151  27.592  1.00  0.00     0.029 A 
ATOM     45  N   UNL A   1      40.299  29.043  29.460  1.00  0.00    -0.354 N 
ATOM     46  C   UNL A   1      39.160  31.203  33.012  1.00  0.00     0.074 A 
ATOM     47  C   UNL A   1      37.999  32.030  32.765  1.00  0.00     0.031 C 
ATOM     48  C   UNL A   1      40.117  28.345  27.343  1.00  0.00     0.029 A 
ATOM     49  C   UNL A   1      40.943  28.248  28.545  1.00  0.00     0.049 A 
ATOM     50  H   UNL A   1      40.629  29.185  30.376  1.00  0.00     0.167 HD
ATOM     51  C   UNL A   1      39.819  31.143  34.196  1.00  0.00     0.037 A 
ATOM     52  C   UNL A   1      42.066  27.516  28.666  1.00  0.00     0.037 A 
ATOM     53  C   UNL A   1      40.981  30.327  34.441  1.00  0.00     0.049 A 
ATOM     54  C   UNL A   1      42.778  27.462  29.990  1.00  0.00     0.074 A 
ATOM     55  C   UNL A   1      41.701  30.177  35.615  1.00  0.00     0.029 A 
ATOM     56  N   UNL A   1      41.598  29.530  33.490  1.00  0.00    -0.354 N 
ATOM     57  N   UNL A   1      42.477  28.060  31.117  1.00  0.00    -0.248 NA
ATOM     58  C   UNL A   1      43.975  26.612  30.063  1.00  0.00     0.031 C 
ATOM     59  C   UNL A   1      42.774  29.315  35.363  1.00  0.00     0.029 A 
ATOM     60  C   UNL A   1      42.697  28.894  34.046  1.00  0.00     0.049 A 
ATOM     61  H   UNL A   1      41.301  29.430  32.557  1.00  0.00     0.167 HD
ATOM     62  C   UNL A   1      43.427  27.637  32.038  1.00  0.00     0.074 A 
ATOM     63  C   UNL A   1      44.304  26.719  31.342  1.00  0.00     0.031 C 
ATOM     64  C   UNL A   1      43.559  27.977  33.344  1.00  0.00     0.037 A 
BRANCH  51  65
ATOM     65  C   UNL A   1      39.297  31.992  35.319  1.00  0.00     0.057 A 
ATOM     66  C   UNL A   1      38.401  31.484  36.270  1.00  0.00     0.134 A 
ATOM     67  C   UNL A   1      39.717  33.319  35.473  1.00  0.00     0.134 A 
ATOM     68  F   UNL A   1      37.952  30.223  36.176  1.00  0.00    -0.206 F 
ATOM     69  C   UNL A   1      37.923  32.272  37.318  1.00  0.00     0.040 A 
ATOM     70  C   UNL A   1      39.264  34.110  36.531  1.00  0.00     0.040 A 
ATOM     71  F   UNL A   1      40.580  33.866  34.605  1.00  0.00    -0.206 F 
ATOM     72  C   UNL A   1      38.360  33.590  37.454  1.00  0.00     0.006 A 
ENDBRANCH  51  65
BRANCH  52  73
ATOM     73  C   UNL A   1      42.568  26.737  27.507  1.00  0.00     0.057 A 
ATOM     74  C   UNL A   1      42.216  25.393  27.330  1.00  0.00     0.134 A 
ATOM     75  C   UNL A   1      43.414  27.315  26.555  1.00  0.00     0.134 A 
ATOM     76  F   UNL A   1      41.425  24.780  28.221  1.00  0.00    -0.206 F 
ATOM     77  C   UNL A   1      42.704  24.647  26.256  1.00  0.00     0.040 A 
ATOM     78  C   UNL A   1      43.890  26.587  25.464  1.00  0.00     0.040 A 
ATOM     79  F   UNL A   1      43.784  28.599  26.668  1.00  0.00    -0.206 F 
ATOM     80  C   UNL A   1      43.540  25.246  25.317  1.00  0.00     0.006 A 
ENDBRANCH  52  73
BRANCH  64  81
ATOM     81  C   UNL A   1      44.669  27.320  34.111  1.00  0.00     0.057 A 
ATOM     82  C   UNL A   1      44.495  26.090  34.759  1.00  0.00     0.134 A 
ATOM     83  C   UNL A   1      45.932  27.921  34.191  1.00  0.00     0.134 A 
ATOM     84  F   UNL A   1      43.307  25.468  34.730  1.00  0.00    -0.206 F 
ATOM     85  C   UNL A   1      45.529  25.498  35.488  1.00  0.00     0.040 A 
ATOM     86  C   UNL A   1      46.980  27.327  34.896  1.00  0.00     0.040 A 
ATOM     87  F   UNL A   1      46.168  29.094  33.586  1.00  0.00    -0.206 F 
ATOM     88  C   UNL A   1      46.776  26.115  35.554  1.00  0.00     0.006 A 
ENDBRANCH  64  81
ENDBRANCH  38  39
ENDBRANCH  31  33
ENDBRANCH  30  31
ENDBRANCH  29  30
ENDBRANCH  28  29
ENDBRANCH  27  28
ENDBRANCH   1  27
TORSDOF 17
ENDMDL
