MODEL 1
REMARK VINA RESULT:     -10.6      0.000      0.000
REMARK SMILES CCC(CC)([NH2+]CC(=O)Nc1ccc(C)cc1)C(=O)OCCOCCOC(=O)c1ccc(-c2c3nc(c(-c4c(F)cccc4F)c4ccc([nH]4)c(-c4c(F)cccc4F)c4nc(c(-c5c(F)cccc5F)c5ccc2[nH]5)C=C4)C=C3)cc1
REMARK SMILES IDX 22 1 21 2 20 3 18 4 19 5 3 6 2 7 1 8 4 9 5 10 6 11 7 14 8 15
REMARK SMILES IDX 9 16 10 17 11 19 12 20 17 21 13 22 16 23 14 24 15 25 23 26
REMARK SMILES IDX 24 27 25 28 26 29 27 30 28 31 29 32 30 33 82 34 31 35 81 36
REMARK SMILES IDX 32 37 33 38 34 39 75 40 35 41 80 42 74 43 76 44 36 45 79 46
REMARK SMILES IDX 73 47 72 48 37 50 63 51 46 52 62 53 47 54 50 55 61 56 77 57
REMARK SMILES IDX 48 58 49 59 60 61 78 62 51 63 38 64 39 65 44 66 40 67 41 68
REMARK SMILES IDX 43 69 45 70 42 71 64 72 65 73 70 74 66 75 67 76 69 77 71 78
REMARK SMILES IDX 68 79 52 80 53 81 58 82 54 83 55 84 57 85 59 86 56 87
REMARK H PARENT 6 12 6 13 10 18 76 49 50 60
REMARK Flexibility Score: inf
ROOT
ATOM      1  C   UNL A   1      31.796  28.471  27.576  1.00  0.00     0.202 C 
ENDROOT
BRANCH   1   2
ATOM      2  C   UNL A   1      31.650  27.699  26.276  1.00  0.00     0.261 C 
BRANCH   2   3
ATOM      3  O   UNL A   1      32.403  26.498  26.319  1.00  0.00    -0.459 OA
BRANCH   3   4
ATOM      4  C   UNL A   1      33.184  26.297  25.224  1.00  0.00     0.368 C 
ATOM      5  O   UNL A   1      33.706  27.245  24.646  1.00  0.00    -0.245 OA
BRANCH   4   6
ATOM      6  C   UNL A   1      33.522  24.723  24.964  1.00  0.00     0.194 C 
BRANCH   6   7
ATOM      7  C   UNL A   1      32.072  24.127  25.084  1.00  0.00     0.077 C 
ATOM      8  C   UNL A   1      32.040  22.565  25.002  1.00  0.00     0.011 C 
ENDBRANCH   6   7
BRANCH   6   9
ATOM      9  C   UNL A   1      34.417  23.674  25.754  1.00  0.00     0.077 C 
ATOM     10  C   UNL A   1      35.323  22.681  25.003  1.00  0.00     0.011 C 
ENDBRANCH   6   9
BRANCH   6  11
ATOM     11  N   UNL A   1      34.147  24.778  23.637  1.00  0.00    -0.324 N 
ATOM     12  H   UNL A   1      34.842  24.034  23.585  1.00  0.00     0.347 HD
ATOM     13  H   UNL A   1      34.541  25.716  23.552  1.00  0.00     0.347 HD
BRANCH  11  14
ATOM     14  C   UNL A   1      33.209  24.618  22.474  1.00  0.00     0.363 C 
BRANCH  14  15
ATOM     15  C   UNL A   1      32.760  25.740  21.453  1.00  0.00     0.279 C 
ATOM     16  O   UNL A   1      33.271  25.618  20.315  1.00  0.00    -0.268 OA
ATOM     17  N   UNL A   1      31.775  26.706  21.460  1.00  0.00    -0.321 N 
ATOM     18  H   UNL A   1      31.621  26.998  20.533  1.00  0.00     0.170 HD
BRANCH  17  19
ATOM     19  C   UNL A   1      30.894  27.439  22.317  1.00  0.00     0.041 A 
ATOM     20  C   UNL A   1      29.888  27.034  23.184  1.00  0.00     0.026 A 
ATOM     21  C   UNL A   1      31.085  28.789  22.386  1.00  0.00     0.026 A 
ATOM     22  C   UNL A   1      28.797  27.855  23.524  1.00  0.00     0.005 A 
ATOM     23  C   UNL A   1      29.981  29.616  22.631  1.00  0.00     0.005 A 
ATOM     24  C   UNL A   1      28.763  29.131  23.042  1.00  0.00    -0.051 A 
ATOM     25  C   UNL A   1      27.537  29.974  22.984  1.00  0.00     0.044 C 
ENDBRANCH  17  19
ENDBRANCH  14  15
ENDBRANCH  11  14
ENDBRANCH   6  11
ENDBRANCH   4   6
ENDBRANCH   3   4
ENDBRANCH   2   3
ENDBRANCH   1   2
BRANCH   1  26
ATOM     26  O   UNL A   1      32.194  29.782  27.207  1.00  0.00    -0.374 OA
BRANCH  26  27
ATOM     27  C   UNL A   1      33.595  29.985  27.129  1.00  0.00     0.202 C 
BRANCH  27  28
ATOM     28  C   UNL A   1      34.021  31.380  27.599  1.00  0.00     0.261 C 
BRANCH  28  29
ATOM     29  O   UNL A   1      34.807  31.250  28.800  1.00  0.00    -0.460 OA
BRANCH  29  30
ATOM     30  C   UNL A   1      36.135  31.461  28.641  1.00  0.00     0.338 C 
ATOM     31  O   UNL A   1      36.649  32.527  28.296  1.00  0.00    -0.246 OA
BRANCH  30  32
ATOM     32  C   UNL A   1      36.863  30.163  28.591  1.00  0.00     0.060 A 
ATOM     33  C   UNL A   1      36.809  29.327  29.717  1.00  0.00     0.016 A 
ATOM     34  C   UNL A   1      37.867  29.979  27.643  1.00  0.00     0.016 A 
ATOM     35  C   UNL A   1      37.888  28.495  30.023  1.00  0.00     0.010 A 
ATOM     36  C   UNL A   1      38.956  29.195  27.979  1.00  0.00     0.010 A 
ATOM     37  C   UNL A   1      39.013  28.524  29.210  1.00  0.00    -0.014 A 
BRANCH  37  38
ATOM     38  C   UNL A   1      40.315  27.963  29.590  1.00  0.00     0.031 A 
ATOM     39  C   UNL A   1      40.688  26.637  29.008  1.00  0.00     0.074 A 
ATOM     40  C   UNL A   1      41.228  28.741  30.234  1.00  0.00     0.049 A 
ATOM     41  N   UNL A   1      41.818  26.046  29.173  1.00  0.00    -0.248 NA
ATOM     42  C   UNL A   1      39.806  25.856  28.144  1.00  0.00     0.031 C 
ATOM     43  C   UNL A   1      42.637  28.458  30.405  1.00  0.00     0.029 A 
ATOM     44  N   UNL A   1      41.096  29.951  30.929  1.00  0.00    -0.354 N 
ATOM     45  C   UNL A   1      41.958  25.043  28.238  1.00  0.00     0.074 A 
ATOM     46  C   UNL A   1      40.632  24.901  27.695  1.00  0.00     0.031 C 
ATOM     47  C   UNL A   1      43.239  29.343  31.214  1.00  0.00     0.029 A 
ATOM     48  C   UNL A   1      42.164  30.033  31.847  1.00  0.00     0.049 A 
ATOM     49  H   UNL A   1      40.387  30.621  30.801  1.00  0.00     0.167 HD
ATOM     50  C   UNL A   1      43.222  24.571  27.984  1.00  0.00     0.037 A 
ATOM     51  C   UNL A   1      41.887  29.875  33.165  1.00  0.00     0.037 A 
ATOM     52  C   UNL A   1      44.178  25.053  29.029  1.00  0.00     0.049 A 
ATOM     53  C   UNL A   1      42.450  28.515  33.631  1.00  0.00     0.074 A 
ATOM     54  C   UNL A   1      45.411  25.690  29.042  1.00  0.00     0.029 A 
ATOM     55  N   UNL A   1      43.751  25.088  30.370  1.00  0.00    -0.354 N 
ATOM     56  N   UNL A   1      42.675  27.475  32.841  1.00  0.00    -0.248 NA
ATOM     57  C   UNL A   1      43.097  28.338  34.917  1.00  0.00     0.031 C 
ATOM     58  C   UNL A   1      45.653  26.185  30.369  1.00  0.00     0.029 A 
ATOM     59  C   UNL A   1      44.598  25.809  31.194  1.00  0.00     0.049 A 
ATOM     60  H   UNL A   1      42.933  24.645  30.689  1.00  0.00     0.167 HD
ATOM     61  C   UNL A   1      43.673  26.671  33.361  1.00  0.00     0.074 A 
ATOM     62  C   UNL A   1      43.788  27.197  34.720  1.00  0.00     0.031 C 
ATOM     63  C   UNL A   1      44.445  25.751  32.658  1.00  0.00     0.037 A 
BRANCH  50  64
ATOM     64  C   UNL A   1      43.645  23.811  26.705  1.00  0.00     0.057 A 
ATOM     65  C   UNL A   1      43.363  22.435  26.536  1.00  0.00     0.134 A 
ATOM     66  C   UNL A   1      44.402  24.338  25.633  1.00  0.00     0.134 A 
ATOM     67  F   UNL A   1      42.656  21.746  27.441  1.00  0.00    -0.206 F 
ATOM     68  C   UNL A   1      43.792  21.672  25.428  1.00  0.00     0.040 A 
ATOM     69  C   UNL A   1      44.799  23.600  24.499  1.00  0.00     0.040 A 
ATOM     70  F   UNL A   1      44.858  25.591  25.620  1.00  0.00    -0.206 F 
ATOM     71  C   UNL A   1      44.502  22.256  24.394  1.00  0.00     0.006 A 
ENDBRANCH  50  64
BRANCH  51  72
ATOM     72  C   UNL A   1      40.753  30.816  33.492  1.00  0.00     0.057 A 
ATOM     73  C   UNL A   1      39.535  30.155  33.826  1.00  0.00     0.134 A 
ATOM     74  C   UNL A   1      40.983  32.011  34.190  1.00  0.00     0.134 A 
ATOM     75  F   UNL A   1      39.217  29.005  33.210  1.00  0.00    -0.206 F 
ATOM     76  C   UNL A   1      38.753  30.508  34.940  1.00  0.00     0.040 A 
ATOM     77  C   UNL A   1      40.180  32.389  35.293  1.00  0.00     0.040 A 
ATOM     78  F   UNL A   1      42.101  32.717  33.967  1.00  0.00    -0.206 F 
ATOM     79  C   UNL A   1      39.109  31.602  35.714  1.00  0.00     0.006 A 
ENDBRANCH  51  72
BRANCH  63  80
ATOM     80  C   UNL A   1      45.113  24.525  33.282  1.00  0.00     0.057 A 
ATOM     81  C   UNL A   1      46.422  24.452  33.743  1.00  0.00     0.134 A 
ATOM     82  C   UNL A   1      44.352  23.348  33.540  1.00  0.00     0.134 A 
ATOM     83  F   UNL A   1      47.370  25.283  33.305  1.00  0.00    -0.206 F 
ATOM     84  C   UNL A   1      46.850  23.446  34.618  1.00  0.00     0.040 A 
ATOM     85  C   UNL A   1      44.775  22.319  34.374  1.00  0.00     0.040 A 
ATOM     86  F   UNL A   1      43.152  23.111  32.999  1.00  0.00    -0.206 F 
ATOM     87  C   UNL A   1      46.010  22.401  34.976  1.00  0.00     0.006 A 
ENDBRANCH  63  80
ENDBRANCH  37  38
ENDBRANCH  30  32
ENDBRANCH  29  30
ENDBRANCH  28  29
ENDBRANCH  27  28
ENDBRANCH  26  27
ENDBRANCH   1  26
TORSDOF 20
ENDMDL
MODEL 2
REMARK VINA RESULT:     -10.5      3.915      8.865
REMARK SMILES CCC(CC)([NH2+]CC(=O)Nc1ccc(C)cc1)C(=O)OCCOCCOC(=O)c1ccc(-c2c3nc(c(-c4c(F)cccc4F)c4ccc([nH]4)c(-c4c(F)cccc4F)c4nc(c(-c5c(F)cccc5F)c5ccc2[nH]5)C=C4)C=C3)cc1
REMARK SMILES IDX 22 1 21 2 20 3 18 4 19 5 3 6 2 7 1 8 4 9 5 10 6 11 7 14 8 15
REMARK SMILES IDX 9 16 10 17 11 19 12 20 17 21 13 22 16 23 14 24 15 25 23 26
REMARK SMILES IDX 24 27 25 28 26 29 27 30 28 31 29 32 30 33 82 34 31 35 81 36
REMARK SMILES IDX 32 37 33 38 34 39 75 40 35 41 80 42 74 43 76 44 36 45 79 46
REMARK SMILES IDX 73 47 72 48 37 50 63 51 46 52 62 53 47 54 50 55 61 56 77 57
REMARK SMILES IDX 48 58 49 59 60 61 78 62 51 63 38 64 39 65 44 66 40 67 41 68
REMARK SMILES IDX 43 69 45 70 42 71 64 72 65 73 70 74 66 75 67 76 69 77 71 78
REMARK SMILES IDX 68 79 52 80 53 81 58 82 54 83 55 84 57 85 59 86 56 87
REMARK H PARENT 6 12 6 13 10 18 76 49 50 60
REMARK Flexibility Score: inf
ROOT
ATOM      1  C   UNL A   1      37.440  23.617  25.017  1.00  0.00     0.202 C 
ENDROOT
BRANCH   1   2
ATOM      2  C   UNL A   1      35.925  23.520  24.965  1.00  0.00     0.261 C 
BRANCH   2   3
ATOM      3  O   UNL A   1      35.521  22.265  24.446  1.00  0.00    -0.459 OA
BRANCH   3   4
ATOM      4  C   UNL A   1      34.554  21.649  25.178  1.00  0.00     0.368 C 
ATOM      5  O   UNL A   1      34.830  21.098  26.239  1.00  0.00    -0.245 OA
BRANCH   4   6
ATOM      6  C   UNL A   1      33.050  21.950  24.627  1.00  0.00     0.194 C 
BRANCH   6   7
ATOM      7  C   UNL A   1      32.413  20.526  24.831  1.00  0.00     0.077 C 
ATOM      8  C   UNL A   1      32.497  19.625  23.556  1.00  0.00     0.011 C 
ENDBRANCH   6   7
BRANCH   6   9
ATOM      9  C   UNL A   1      32.499  22.398  23.205  1.00  0.00     0.077 C 
ATOM     10  C   UNL A   1      32.202  23.878  22.901  1.00  0.00     0.011 C 
ENDBRANCH   6   9
BRANCH   6  11
ATOM     11  N   UNL A   1      32.629  23.038  25.517  1.00  0.00    -0.324 N 
ATOM     12  H   UNL A   1      32.270  23.797  24.940  1.00  0.00     0.347 HD
ATOM     13  H   UNL A   1      33.454  23.290  26.061  1.00  0.00     0.347 HD
BRANCH  11  14
ATOM     14  C   UNL A   1      31.568  22.678  26.520  1.00  0.00     0.363 C 
BRANCH  14  15
ATOM     15  C   UNL A   1      30.237  23.478  26.824  1.00  0.00     0.279 C 
ATOM     16  O   UNL A   1      29.510  22.933  27.687  1.00  0.00    -0.268 OA
ATOM     17  N   UNL A   1      29.786  24.744  26.514  1.00  0.00    -0.321 N 
ATOM     18  H   UNL A   1      29.055  24.973  27.132  1.00  0.00     0.170 HD
BRANCH  17  19
ATOM     19  C   UNL A   1      29.988  25.847  25.625  1.00  0.00     0.041 A 
ATOM     20  C   UNL A   1      29.410  26.180  24.408  1.00  0.00     0.026 A 
ATOM     21  C   UNL A   1      30.851  26.821  26.039  1.00  0.00     0.026 A 
ATOM     22  C   UNL A   1      30.067  26.959  23.438  1.00  0.00     0.005 A 
ATOM     23  C   UNL A   1      31.579  27.533  25.077  1.00  0.00     0.005 A 
ATOM     24  C   UNL A   1      31.296  27.473  23.734  1.00  0.00    -0.051 A 
ATOM     25  C   UNL A   1      32.265  27.971  22.718  1.00  0.00     0.044 C 
ENDBRANCH  17  19
ENDBRANCH  14  15
ENDBRANCH  11  14
ENDBRANCH   6  11
ENDBRANCH   4   6
ENDBRANCH   3   4
ENDBRANCH   2   3
ENDBRANCH   1   2
BRANCH   1  26
ATOM     26  O   UNL A   1      37.847  22.778  26.087  1.00  0.00    -0.374 OA
BRANCH  26  27
ATOM     27  C   UNL A   1      38.794  21.782  25.743  1.00  0.00     0.202 C 
BRANCH  27  28
ATOM     28  C   UNL A   1      39.907  21.632  26.784  1.00  0.00     0.261 C 
BRANCH  28  29
ATOM     29  O   UNL A   1      40.011  22.856  27.539  1.00  0.00    -0.460 OA
BRANCH  29  30
ATOM     30  C   UNL A   1      40.814  23.800  26.992  1.00  0.00     0.338 C 
ATOM     31  O   UNL A   1      41.987  23.627  26.656  1.00  0.00    -0.246 OA
BRANCH  30  32
ATOM     32  C   UNL A   1      40.219  25.153  27.173  1.00  0.00     0.060 A 
ATOM     33  C   UNL A   1      40.606  26.172  26.290  1.00  0.00     0.016 A 
ATOM     34  C   UNL A   1      39.631  25.483  28.392  1.00  0.00     0.016 A 
ATOM     35  C   UNL A   1      40.645  27.499  26.726  1.00  0.00     0.010 A 
ATOM     36  C   UNL A   1      39.723  26.789  28.838  1.00  0.00     0.010 A 
ATOM     37  C   UNL A   1      40.315  27.784  28.044  1.00  0.00    -0.014 A 
BRANCH  37  38
ATOM     38  C   UNL A   1      40.624  29.055  28.711  1.00  0.00     0.031 A 
ATOM     39  C   UNL A   1      39.505  30.033  28.877  1.00  0.00     0.074 A 
ATOM     40  C   UNL A   1      41.807  29.209  29.365  1.00  0.00     0.049 A 
ATOM     41  N   UNL A   1      39.584  31.152  29.505  1.00  0.00    -0.248 NA
ATOM     42  C   UNL A   1      38.156  29.815  28.359  1.00  0.00     0.031 C 
ATOM     43  C   UNL A   1      42.142  30.249  30.313  1.00  0.00     0.029 A 
ATOM     44  N   UNL A   1      43.010  28.492  29.297  1.00  0.00    -0.354 N 
ATOM     45  C   UNL A   1      38.318  31.628  29.769  1.00  0.00     0.074 A 
ATOM     46  C   UNL A   1      37.472  30.811  28.938  1.00  0.00     0.031 C 
ATOM     47  C   UNL A   1      43.436  30.217  30.668  1.00  0.00     0.029 A 
ATOM     48  C   UNL A   1      44.045  29.355  29.711  1.00  0.00     0.049 A 
ATOM     49  H   UNL A   1      43.113  27.555  29.011  1.00  0.00     0.167 HD
ATOM     50  C   UNL A   1      38.177  32.572  30.755  1.00  0.00     0.037 A 
ATOM     51  C   UNL A   1      44.903  29.821  28.770  1.00  0.00     0.037 A 
ATOM     52  C   UNL A   1      39.513  33.124  31.144  1.00  0.00     0.049 A 
ATOM     53  C   UNL A   1      44.627  31.322  28.545  1.00  0.00     0.074 A 
ATOM     54  C   UNL A   1      40.210  33.319  32.328  1.00  0.00     0.029 A 
ATOM     55  N   UNL A   1      40.461  33.371  30.134  1.00  0.00    -0.354 N 
ATOM     56  N   UNL A   1      43.472  31.927  28.790  1.00  0.00    -0.248 NA
ATOM     57  C   UNL A   1      45.688  32.291  28.352  1.00  0.00     0.031 C 
ATOM     58  C   UNL A   1      41.585  33.579  32.008  1.00  0.00     0.029 A 
ATOM     59  C   UNL A   1      41.734  33.600  30.625  1.00  0.00     0.049 A 
ATOM     60  H   UNL A   1      40.241  33.380  29.175  1.00  0.00     0.167 HD
ATOM     61  C   UNL A   1      43.671  33.268  29.064  1.00  0.00     0.074 A 
ATOM     62  C   UNL A   1      45.057  33.448  28.637  1.00  0.00     0.031 C 
ATOM     63  C   UNL A   1      42.796  34.113  29.741  1.00  0.00     0.037 A 
BRANCH  50  64
ATOM     64  C   UNL A   1      36.858  32.890  31.496  1.00  0.00     0.057 A 
ATOM     65  C   UNL A   1      35.808  33.599  30.866  1.00  0.00     0.134 A 
ATOM     66  C   UNL A   1      36.573  32.607  32.853  1.00  0.00     0.134 A 
ATOM     67  F   UNL A   1      35.879  33.964  29.580  1.00  0.00    -0.206 F 
ATOM     68  C   UNL A   1      34.616  33.985  31.517  1.00  0.00     0.040 A 
ATOM     69  C   UNL A   1      35.369  32.946  33.503  1.00  0.00     0.040 A 
ATOM     70  F   UNL A   1      37.454  32.025  33.668  1.00  0.00    -0.206 F 
ATOM     71  C   UNL A   1      34.383  33.647  32.838  1.00  0.00     0.006 A 
ENDBRANCH  50  64
BRANCH  51  72
ATOM     72  C   UNL A   1      45.405  28.622  28.002  1.00  0.00     0.057 A 
ATOM     73  C   UNL A   1      46.192  27.727  28.784  1.00  0.00     0.134 A 
ATOM     74  C   UNL A   1      44.610  28.004  27.024  1.00  0.00     0.134 A 
ATOM     75  F   UNL A   1      46.993  28.217  29.744  1.00  0.00    -0.206 F 
ATOM     76  C   UNL A   1      46.003  26.333  28.774  1.00  0.00     0.040 A 
ATOM     77  C   UNL A   1      44.440  26.600  26.988  1.00  0.00     0.040 A 
ATOM     78  F   UNL A   1      43.821  28.744  26.233  1.00  0.00    -0.206 F 
ATOM     79  C   UNL A   1      45.079  25.768  27.907  1.00  0.00     0.006 A 
ENDBRANCH  51  72
BRANCH  63  80
ATOM     80  C   UNL A   1      42.746  35.631  29.563  1.00  0.00     0.057 A 
ATOM     81  C   UNL A   1      43.437  36.568  30.323  1.00  0.00     0.134 A 
ATOM     82  C   UNL A   1      42.027  36.200  28.473  1.00  0.00     0.134 A 
ATOM     83  F   UNL A   1      43.872  36.292  31.555  1.00  0.00    -0.206 F 
ATOM     84  C   UNL A   1      43.634  37.883  29.887  1.00  0.00     0.040 A 
ATOM     85  C   UNL A   1      42.179  37.516  28.048  1.00  0.00     0.040 A 
ATOM     86  F   UNL A   1      41.126  35.527  27.749  1.00  0.00    -0.206 F 
ATOM     87  C   UNL A   1      43.045  38.348  28.720  1.00  0.00     0.006 A 
ENDBRANCH  63  80
ENDBRANCH  37  38
ENDBRANCH  30  32
ENDBRANCH  29  30
ENDBRANCH  28  29
ENDBRANCH  27  28
ENDBRANCH  26  27
ENDBRANCH   1  26
TORSDOF 20
ENDMDL
MODEL 3
REMARK VINA RESULT:     -10.3      4.230      8.922
REMARK SMILES CCC(CC)([NH2+]CC(=O)Nc1ccc(C)cc1)C(=O)OCCOCCOC(=O)c1ccc(-c2c3nc(c(-c4c(F)cccc4F)c4ccc([nH]4)c(-c4c(F)cccc4F)c4nc(c(-c5c(F)cccc5F)c5ccc2[nH]5)C=C4)C=C3)cc1
REMARK SMILES IDX 22 1 21 2 20 3 18 4 19 5 3 6 2 7 1 8 4 9 5 10 6 11 7 14 8 15
REMARK SMILES IDX 9 16 10 17 11 19 12 20 17 21 13 22 16 23 14 24 15 25 23 26
REMARK SMILES IDX 24 27 25 28 26 29 27 30 28 31 29 32 30 33 82 34 31 35 81 36
REMARK SMILES IDX 32 37 33 38 34 39 75 40 35 41 80 42 74 43 76 44 36 45 79 46
REMARK SMILES IDX 73 47 72 48 37 50 63 51 46 52 62 53 47 54 50 55 61 56 77 57
REMARK SMILES IDX 48 58 49 59 60 61 78 62 51 63 38 64 39 65 44 66 40 67 41 68
REMARK SMILES IDX 43 69 45 70 42 71 64 72 65 73 70 74 66 75 67 76 69 77 71 78
REMARK SMILES IDX 68 79 52 80 53 81 58 82 54 83 55 84 57 85 59 86 56 87
REMARK H PARENT 6 12 6 13 10 18 76 49 50 60
REMARK Flexibility Score: inf
ROOT
ATOM      1  C   UNL A   1      37.327  21.917  25.821  1.00  0.00     0.202 C 
ENDROOT
BRANCH   1   2
ATOM      2  C   UNL A   1      36.239  21.274  24.978  1.00  0.00     0.261 C 
BRANCH   2   3
ATOM      3  O   UNL A   1      35.046  22.037  25.032  1.00  0.00    -0.459 OA
BRANCH   3   4
ATOM      4  C   UNL A   1      34.014  21.405  25.654  1.00  0.00     0.368 C 
ATOM      5  O   UNL A   1      34.019  21.250  26.871  1.00  0.00    -0.245 OA
BRANCH   4   6
ATOM      6  C   UNL A   1      32.743  21.140  24.667  1.00  0.00     0.194 C 
BRANCH   6   7
ATOM      7  C   UNL A   1      33.150  19.731  24.099  1.00  0.00     0.077 C 
ATOM      8  C   UNL A   1      32.603  18.541  24.955  1.00  0.00     0.011 C 
ENDBRANCH   6   7
BRANCH   6   9
ATOM      9  C   UNL A   1      32.201  21.909  23.387  1.00  0.00     0.077 C 
ATOM     10  C   UNL A   1      33.144  22.762  22.516  1.00  0.00     0.011 C 
ENDBRANCH   6   9
BRANCH   6  11
ATOM     11  N   UNL A   1      31.623  21.215  25.613  1.00  0.00    -0.324 N 
ATOM     12  H   UNL A   1      32.004  21.162  26.557  1.00  0.00     0.347 HD
ATOM     13  H   UNL A   1      31.004  20.441  25.375  1.00  0.00     0.347 HD
BRANCH  11  14
ATOM     14  C   UNL A   1      30.783  22.459  25.522  1.00  0.00     0.363 C 
BRANCH  14  15
ATOM     15  C   UNL A   1      30.632  23.586  26.622  1.00  0.00     0.279 C 
ATOM     16  O   UNL A   1      29.822  23.294  27.533  1.00  0.00    -0.268 OA
ATOM     17  N   UNL A   1      31.339  24.731  26.926  1.00  0.00    -0.321 N 
ATOM     18  H   UNL A   1      31.122  24.993  27.850  1.00  0.00     0.170 HD
BRANCH  17  19
ATOM     19  C   UNL A   1      32.270  25.679  26.394  1.00  0.00     0.041 A 
ATOM     20  C   UNL A   1      32.349  27.061  26.490  1.00  0.00     0.026 A 
ATOM     21  C   UNL A   1      33.342  25.173  25.717  1.00  0.00     0.026 A 
ATOM     22  C   UNL A   1      32.969  27.860  25.512  1.00  0.00     0.005 A 
ATOM     23  C   UNL A   1      33.901  25.928  24.677  1.00  0.00     0.005 A 
ATOM     24  C   UNL A   1      33.585  27.247  24.460  1.00  0.00    -0.051 A 
ATOM     25  C   UNL A   1      33.935  27.925  23.181  1.00  0.00     0.044 C 
ENDBRANCH  17  19
ENDBRANCH  14  15
ENDBRANCH  11  14
ENDBRANCH   6  11
ENDBRANCH   4   6
ENDBRANCH   3   4
ENDBRANCH   2   3
ENDBRANCH   1   2
BRANCH   1  26
ATOM     26  O   UNL A   1      38.550  21.353  25.374  1.00  0.00    -0.374 OA
BRANCH  26  27
ATOM     27  C   UNL A   1      39.682  21.669  26.166  1.00  0.00     0.202 C 
BRANCH  27  28
ATOM     28  C   UNL A   1      40.715  20.538  26.208  1.00  0.00     0.261 C 
BRANCH  28  29
ATOM     29  O   UNL A   1      41.940  21.043  26.774  1.00  0.00    -0.460 OA
BRANCH  29  30
ATOM     30  C   UNL A   1      42.971  21.154  25.902  1.00  0.00     0.338 C 
ATOM     31  O   UNL A   1      43.301  20.297  25.080  1.00  0.00    -0.246 OA
BRANCH  30  32
ATOM     32  C   UNL A   1      43.865  22.276  26.299  1.00  0.00     0.060 A 
ATOM     33  C   UNL A   1      44.098  22.488  27.667  1.00  0.00     0.016 A 
ATOM     34  C   UNL A   1      44.123  23.299  25.389  1.00  0.00     0.016 A 
ATOM     35  C   UNL A   1      44.334  23.780  28.145  1.00  0.00     0.010 A 
ATOM     36  C   UNL A   1      44.302  24.583  25.872  1.00  0.00     0.010 A 
ATOM     37  C   UNL A   1      44.315  24.842  27.252  1.00  0.00    -0.014 A 
BRANCH  37  38
ATOM     38  C   UNL A   1      44.221  26.251  27.653  1.00  0.00     0.031 A 
ATOM     39  C   UNL A   1      42.888  26.916  27.517  1.00  0.00     0.074 A 
ATOM     40  C   UNL A   1      45.237  26.828  28.350  1.00  0.00     0.049 A 
ATOM     41  N   UNL A   1      42.614  28.114  27.895  1.00  0.00    -0.248 NA
ATOM     42  C   UNL A   1      41.710  26.260  26.952  1.00  0.00     0.031 C 
ATOM     43  C   UNL A   1      45.186  28.079  29.076  1.00  0.00     0.029 A 
ATOM     44  N   UNL A   1      46.574  26.451  28.533  1.00  0.00    -0.354 N 
ATOM     45  C   UNL A   1      41.248  28.284  27.949  1.00  0.00     0.074 A 
ATOM     46  C   UNL A   1      40.738  27.133  27.249  1.00  0.00     0.031 C 
ATOM     47  C   UNL A   1      46.391  28.453  29.532  1.00  0.00     0.029 A 
ATOM     48  C   UNL A   1      47.309  27.616  28.833  1.00  0.00     0.049 A 
ATOM     49  H   UNL A   1      46.935  25.537  28.464  1.00  0.00     0.167 HD
ATOM     50  C   UNL A   1      40.757  29.325  28.695  1.00  0.00     0.037 A 
ATOM     51  C   UNL A   1      48.146  28.105  27.884  1.00  0.00     0.037 A 
ATOM     52  C   UNL A   1      41.859  30.269  29.062  1.00  0.00     0.049 A 
ATOM     53  C   UNL A   1      47.550  29.412  27.321  1.00  0.00     0.074 A 
ATOM     54  C   UNL A   1      42.328  30.858  30.228  1.00  0.00     0.029 A 
ATOM     55  N   UNL A   1      42.843  30.562  28.100  1.00  0.00    -0.354 N 
ATOM     56  N   UNL A   1      46.263  29.730  27.339  1.00  0.00    -0.248 NA
ATOM     57  C   UNL A   1      48.365  30.571  27.010  1.00  0.00     0.031 C 
ATOM     58  C   UNL A   1      43.630  31.403  29.969  1.00  0.00     0.029 A 
ATOM     59  C   UNL A   1      43.950  31.204  28.630  1.00  0.00     0.049 A 
ATOM     60  H   UNL A   1      42.755  30.333  27.148  1.00  0.00     0.167 HD
ATOM     61  C   UNL A   1      46.096  31.102  27.335  1.00  0.00     0.074 A 
ATOM     62  C   UNL A   1      47.443  31.555  26.990  1.00  0.00     0.031 C 
ATOM     63  C   UNL A   1      44.964  31.801  27.743  1.00  0.00     0.037 A 
BRANCH  50  64
ATOM     64  C   UNL A   1      39.314  29.421  29.245  1.00  0.00     0.057 A 
ATOM     65  C   UNL A   1      39.019  29.141  30.600  1.00  0.00     0.134 A 
ATOM     66  C   UNL A   1      38.150  29.700  28.490  1.00  0.00     0.134 A 
ATOM     67  F   UNL A   1      39.982  28.852  31.483  1.00  0.00    -0.206 F 
ATOM     68  C   UNL A   1      37.714  29.137  31.138  1.00  0.00     0.040 A 
ATOM     69  C   UNL A   1      36.846  29.743  29.024  1.00  0.00     0.040 A 
ATOM     70  F   UNL A   1      38.177  29.905  27.172  1.00  0.00    -0.206 F 
ATOM     71  C   UNL A   1      36.619  29.452  30.353  1.00  0.00     0.006 A 
ENDBRANCH  50  64
BRANCH  51  72
ATOM     72  C   UNL A   1      49.017  26.957  27.433  1.00  0.00     0.057 A 
ATOM     73  C   UNL A   1      48.816  26.584  26.072  1.00  0.00     0.134 A 
ATOM     74  C   UNL A   1      50.338  26.828  27.889  1.00  0.00     0.134 A 
ATOM     75  F   UNL A   1      47.586  26.665  25.539  1.00  0.00    -0.206 F 
ATOM     76  C   UNL A   1      49.876  26.361  25.175  1.00  0.00     0.040 A 
ATOM     77  C   UNL A   1      51.406  26.572  26.996  1.00  0.00     0.040 A 
ATOM     78  F   UNL A   1      50.650  27.158  29.150  1.00  0.00    -0.206 F 
ATOM     79  C   UNL A   1      51.185  26.410  25.629  1.00  0.00     0.006 A 
ENDBRANCH  51  72
BRANCH  63  80
ATOM     80  C   UNL A   1      44.575  33.192  27.241  1.00  0.00     0.057 A 
ATOM     81  C   UNL A   1      43.947  33.481  26.035  1.00  0.00     0.134 A 
ATOM     82  C   UNL A   1      44.748  34.330  28.080  1.00  0.00     0.134 A 
ATOM     83  F   UNL A   1      44.004  32.647  24.994  1.00  0.00    -0.206 F 
ATOM     84  C   UNL A   1      43.301  34.702  25.804  1.00  0.00     0.040 A 
ATOM     85  C   UNL A   1      44.148  35.563  27.848  1.00  0.00     0.040 A 
ATOM     86  F   UNL A   1      45.514  34.330  29.177  1.00  0.00    -0.206 F 
ATOM     87  C   UNL A   1      43.358  35.731  26.733  1.00  0.00     0.006 A 
ENDBRANCH  63  80
ENDBRANCH  37  38
ENDBRANCH  30  32
ENDBRANCH  29  30
ENDBRANCH  28  29
ENDBRANCH  27  28
ENDBRANCH  26  27
ENDBRANCH   1  26
TORSDOF 20
ENDMDL
