MODEL 1
REMARK VINA RESULT:     -12.4      0.000      0.000
REMARK SMILES O=C(OCCOCCOC(=O)[C@H]1CC2(CC[NH+](C(=O)c3cccc(O)c3)CC2)CN1C(=O)C1CC1)c1ccc(-c2c3nc(c(-c4c(F)cccc4F)c4ccc([nH]4)c(-c4c(F)cccc4F)c4nc(c(-c5c(F)cccc5F)c5ccc2[nH]5)C=C4)C=C3)cc1
REMARK SMILES IDX 7 1 6 2 5 3 4 4 3 5 2 6 1 7 36 8 37 9 89 10 38 11 88 12
REMARK SMILES IDX 39 13 40 14 41 15 82 16 42 17 87 18 81 19 83 20 43 21 86 22
REMARK SMILES IDX 80 23 79 24 44 26 70 27 53 28 69 29 54 30 57 31 68 32 84 33
REMARK SMILES IDX 55 34 56 35 67 37 85 38 58 39 45 40 46 41 51 42 47 43 48 44
REMARK SMILES IDX 50 45 52 46 49 47 71 48 72 49 77 50 73 51 74 52 76 53 78 54
REMARK SMILES IDX 75 55 59 56 60 57 65 58 61 59 62 60 64 61 66 62 63 63 8 64
REMARK SMILES IDX 9 65 10 66 11 67 12 68 13 69 30 70 14 71 29 72 15 73 28 74
REMARK SMILES IDX 16 75 27 76 17 77 31 79 32 80 33 81 34 82 35 83 18 84 19 85
REMARK SMILES IDX 20 86 21 87 26 88 22 89 24 90 23 91 25 92
REMARK H PARENT 83 25 57 36 17 78 25 93
REMARK Flexibility Score: inf
ROOT
ATOM      1  C   UNL A   1      38.987  21.256  25.750  1.00  0.00     0.202 C 
ENDROOT
BRANCH   1   2
ATOM      2  O   UNL A   1      40.062  20.353  26.052  1.00  0.00    -0.374 OA
BRANCH   2   3
ATOM      3  C   UNL A   1      41.155  20.847  26.838  1.00  0.00     0.202 C 
BRANCH   3   4
ATOM      4  C   UNL A   1      42.539  20.960  26.170  1.00  0.00     0.261 C 
BRANCH   4   5
ATOM      5  O   UNL A   1      43.189  22.222  26.490  1.00  0.00    -0.460 OA
BRANCH   5   6
ATOM      6  C   UNL A   1      43.010  23.445  25.915  1.00  0.00     0.338 C 
ATOM      7  O   UNL A   1      43.398  23.683  24.788  1.00  0.00    -0.246 OA
BRANCH   6   8
ATOM      8  C   UNL A   1      42.306  24.487  26.690  1.00  0.00     0.060 A 
ATOM      9  C   UNL A   1      42.722  25.801  26.600  1.00  0.00     0.016 A 
ATOM     10  C   UNL A   1      41.255  24.171  27.546  1.00  0.00     0.016 A 
ATOM     11  C   UNL A   1      42.376  26.727  27.536  1.00  0.00     0.010 A 
ATOM     12  C   UNL A   1      40.747  25.163  28.390  1.00  0.00     0.010 A 
ATOM     13  C   UNL A   1      41.359  26.428  28.421  1.00  0.00    -0.014 A 
BRANCH  13  14
ATOM     14  C   UNL A   1      41.090  27.445  29.438  1.00  0.00     0.031 A 
ATOM     15  C   UNL A   1      42.047  27.555  30.574  1.00  0.00     0.074 A 
ATOM     16  C   UNL A   1      40.134  28.364  29.210  1.00  0.00     0.049 A 
ATOM     17  N   UNL A   1      41.914  28.204  31.692  1.00  0.00    -0.248 NA
ATOM     18  C   UNL A   1      43.322  26.827  30.440  1.00  0.00     0.031 C 
ATOM     19  C   UNL A   1      39.304  28.443  27.999  1.00  0.00     0.029 A 
ATOM     20  N   UNL A   1      39.736  29.437  29.949  1.00  0.00    -0.354 N 
ATOM     21  C   UNL A   1      43.032  27.872  32.443  1.00  0.00     0.074 A 
ATOM     22  C   UNL A   1      43.865  27.014  31.632  1.00  0.00     0.031 C 
ATOM     23  C   UNL A   1      38.542  29.542  28.057  1.00  0.00     0.029 A 
ATOM     24  C   UNL A   1      38.704  30.136  29.372  1.00  0.00     0.049 A 
ATOM     25  H   UNL A   1      40.145  29.686  30.809  1.00  0.00     0.167 HD
ATOM     26  C   UNL A   1      43.280  28.229  33.721  1.00  0.00     0.037 A 
ATOM     27  C   UNL A   1      37.911  31.081  29.901  1.00  0.00     0.037 A 
ATOM     28  C   UNL A   1      42.409  29.119  34.440  1.00  0.00     0.049 A 
ATOM     29  C   UNL A   1      38.162  31.433  31.336  1.00  0.00     0.074 A 
ATOM     30  C   UNL A   1      42.447  29.506  35.764  1.00  0.00     0.029 A 
ATOM     31  N   UNL A   1      41.330  29.778  33.855  1.00  0.00    -0.354 N 
ATOM     32  N   UNL A   1      39.100  30.979  32.136  1.00  0.00    -0.248 NA
ATOM     33  C   UNL A   1      37.233  32.375  31.960  1.00  0.00     0.031 C 
ATOM     34  C   UNL A   1      41.371  30.378  35.983  1.00  0.00     0.029 A 
ATOM     35  C   UNL A   1      40.691  30.569  34.786  1.00  0.00     0.049 A 
ATOM     36  H   UNL A   1      41.062  29.691  32.911  1.00  0.00     0.167 HD
ATOM     37  C   UNL A   1      38.878  31.574  33.364  1.00  0.00     0.074 A 
ATOM     38  C   UNL A   1      37.722  32.439  33.192  1.00  0.00     0.031 C 
ATOM     39  C   UNL A   1      39.550  31.418  34.532  1.00  0.00     0.037 A 
BRANCH  26  40
ATOM     40  C   UNL A   1      44.428  27.546  34.402  1.00  0.00     0.057 A 
ATOM     41  C   UNL A   1      44.302  26.316  35.060  1.00  0.00     0.134 A 
ATOM     42  C   UNL A   1      45.668  28.195  34.488  1.00  0.00     0.134 A 
ATOM     43  F   UNL A   1      43.130  25.661  35.056  1.00  0.00    -0.206 F 
ATOM     44  C   UNL A   1      45.353  25.774  35.806  1.00  0.00     0.040 A 
ATOM     45  C   UNL A   1      46.733  27.653  35.210  1.00  0.00     0.040 A 
ATOM     46  F   UNL A   1      45.856  29.385  33.899  1.00  0.00    -0.206 F 
ATOM     47  C   UNL A   1      46.573  26.444  35.882  1.00  0.00     0.006 A 
ENDBRANCH  26  40
BRANCH  27  48
ATOM     48  C   UNL A   1      36.780  31.620  29.106  1.00  0.00     0.057 A 
ATOM     49  C   UNL A   1      35.616  30.878  28.896  1.00  0.00     0.134 A 
ATOM     50  C   UNL A   1      36.796  32.937  28.617  1.00  0.00     0.134 A 
ATOM     51  F   UNL A   1      35.536  29.610  29.327  1.00  0.00    -0.206 F 
ATOM     52  C   UNL A   1      34.506  31.426  28.245  1.00  0.00     0.040 A 
ATOM     53  C   UNL A   1      35.687  33.507  27.994  1.00  0.00     0.040 A 
ATOM     54  F   UNL A   1      37.879  33.711  28.794  1.00  0.00    -0.206 F 
ATOM     55  C   UNL A   1      34.535  32.749  27.806  1.00  0.00     0.006 A 
ENDBRANCH  27  48
BRANCH  39  56
ATOM     56  C   UNL A   1      39.068  32.240  35.681  1.00  0.00     0.057 A 
ATOM     57  C   UNL A   1      38.235  31.705  36.667  1.00  0.00     0.134 A 
ATOM     58  C   UNL A   1      39.505  33.561  35.827  1.00  0.00     0.134 A 
ATOM     59  F   UNL A   1      37.778  30.447  36.564  1.00  0.00    -0.206 F 
ATOM     60  C   UNL A   1      37.844  32.464  37.767  1.00  0.00     0.040 A 
ATOM     61  C   UNL A   1      39.137  34.323  36.932  1.00  0.00     0.040 A 
ATOM     62  F   UNL A   1      40.309  34.119  34.909  1.00  0.00    -0.206 F 
ATOM     63  C   UNL A   1      38.303  33.773  37.906  1.00  0.00     0.006 A 
ENDBRANCH  39  56
ENDBRANCH  13  14
ENDBRANCH   6   8
ENDBRANCH   5   6
ENDBRANCH   4   5
ENDBRANCH   3   4
ENDBRANCH   2   3
ENDBRANCH   1   2
BRANCH   1  64
ATOM     64  C   UNL A   1      37.890  20.656  24.879  1.00  0.00     0.261 C 
BRANCH  64  65
ATOM     65  O   UNL A   1      36.612  21.139  25.306  1.00  0.00    -0.462 OA
BRANCH  65  66
ATOM     66  C   UNL A   1      36.092  22.057  24.457  1.00  0.00     0.328 C 
ATOM     67  O   UNL A   1      36.719  22.554  23.526  1.00  0.00    -0.250 OA
BRANCH  66  68
ATOM     68  C   UNL A   1      34.648  22.422  24.829  1.00  0.00     0.195 C 
ATOM     69  C   UNL A   1      34.398  23.541  23.799  1.00  0.00     0.046 C 
ATOM     70  N   UNL A   1      33.409  21.625  24.668  1.00  0.00    -0.328 N 
ATOM     71  C   UNL A   1      32.909  23.826  23.824  1.00  0.00     0.001 C 
ATOM     72  C   UNL A   1      32.335  22.436  24.088  1.00  0.00     0.128 C 
ATOM     73  C   UNL A   1      32.456  24.375  22.460  1.00  0.00     0.071 C 
ATOM     74  C   UNL A   1      32.576  24.846  24.929  1.00  0.00     0.071 C 
ATOM     75  C   UNL A   1      33.128  25.714  22.186  1.00  0.00     0.271 C 
ATOM     76  C   UNL A   1      33.150  26.234  24.615  1.00  0.00     0.271 C 
ATOM     77  N   UNL A   1      32.800  26.653  23.261  1.00  0.00    -0.267 N 
ATOM     78  H   UNL A   1      32.608  26.957  22.343  1.00  0.00     0.357 HD
BRANCH  70  79
ATOM     79  C   UNL A   1      32.992  20.423  25.228  1.00  0.00     0.226 C 
ATOM     80  O   UNL A   1      33.019  20.242  26.443  1.00  0.00    -0.275 OA
BRANCH  79  81
ATOM     81  C   UNL A   1      32.338  19.369  24.422  1.00  0.00     0.079 C 
ATOM     82  C   UNL A   1      32.491  19.124  22.953  1.00  0.00     0.014 C 
ATOM     83  C   UNL A   1      33.181  18.215  23.918  1.00  0.00     0.014 C 
ENDBRANCH  79  81
ENDBRANCH  70  79
BRANCH  77  84
ATOM     84  C   UNL A   1      32.312  27.940  23.063  1.00  0.00     0.344 C 
ATOM     85  O   UNL A   1      33.022  28.932  22.941  1.00  0.00    -0.226 OA
BRANCH  84  86
ATOM     86  C   UNL A   1      30.850  28.120  23.010  1.00  0.00     0.083 A 
ATOM     87  C   UNL A   1      30.305  29.300  22.483  1.00  0.00     0.018 A 
ATOM     88  C   UNL A   1      30.026  27.111  23.505  1.00  0.00     0.064 A 
ATOM     89  C   UNL A   1      28.925  29.488  22.501  1.00  0.00     0.005 A 
ATOM     90  C   UNL A   1      28.653  27.307  23.502  1.00  0.00     0.116 A 
ATOM     91  C   UNL A   1      28.095  28.490  23.015  1.00  0.00     0.046 A 
BRANCH  90  92
ATOM     92  O   UNL A   1      27.870  26.309  24.001  1.00  0.00    -0.508 OA
ATOM     93  H   UNL A   1      27.138  25.996  23.506  1.00  0.00     0.293 HD
ENDBRANCH  90  92
ENDBRANCH  84  86
ENDBRANCH  77  84
ENDBRANCH  66  68
ENDBRANCH  65  66
ENDBRANCH  64  65
ENDBRANCH   1  64
TORSDOF 19
ENDMDL
MODEL 2
REMARK VINA RESULT:     -11.6      7.143     10.511
REMARK SMILES O=C(OCCOCCOC(=O)[C@H]1CC2(CC[NH+](C(=O)c3cccc(O)c3)CC2)CN1C(=O)C1CC1)c1ccc(-c2c3nc(c(-c4c(F)cccc4F)c4ccc([nH]4)c(-c4c(F)cccc4F)c4nc(c(-c5c(F)cccc5F)c5ccc2[nH]5)C=C4)C=C3)cc1
REMARK SMILES IDX 7 1 6 2 5 3 4 4 3 5 2 6 1 7 36 8 37 9 89 10 38 11 88 12
REMARK SMILES IDX 39 13 40 14 41 15 82 16 42 17 87 18 81 19 83 20 43 21 86 22
REMARK SMILES IDX 80 23 79 24 44 26 70 27 53 28 69 29 54 30 57 31 68 32 84 33
REMARK SMILES IDX 55 34 56 35 67 37 85 38 58 39 45 40 46 41 51 42 47 43 48 44
REMARK SMILES IDX 50 45 52 46 49 47 71 48 72 49 77 50 73 51 74 52 76 53 78 54
REMARK SMILES IDX 75 55 59 56 60 57 65 58 61 59 62 60 64 61 66 62 63 63 8 64
REMARK SMILES IDX 9 65 10 66 11 67 12 68 13 69 30 70 14 71 29 72 15 73 28 74
REMARK SMILES IDX 16 75 27 76 17 77 31 79 32 80 33 81 34 82 35 83 18 84 19 85
REMARK SMILES IDX 20 86 21 87 26 88 22 89 24 90 23 91 25 92
REMARK H PARENT 83 25 57 36 17 78 25 93
REMARK Flexibility Score: inf
ROOT
ATOM      1  C   UNL A   1      38.594  23.424  26.570  1.00  0.00     0.202 C 
ENDROOT
BRANCH   1   2
ATOM      2  O   UNL A   1      39.222  24.645  26.151  1.00  0.00    -0.374 OA
BRANCH   2   3
ATOM      3  C   UNL A   1      40.600  24.844  26.492  1.00  0.00     0.202 C 
BRANCH   3   4
ATOM      4  C   UNL A   1      41.301  23.772  27.348  1.00  0.00     0.261 C 
BRANCH   4   5
ATOM      5  O   UNL A   1      42.400  23.144  26.631  1.00  0.00    -0.460 OA
BRANCH   5   6
ATOM      6  C   UNL A   1      43.243  23.693  25.710  1.00  0.00     0.338 C 
ATOM      7  O   UNL A   1      43.422  23.180  24.623  1.00  0.00    -0.246 OA
BRANCH   6   8
ATOM      8  C   UNL A   1      43.930  24.955  26.055  1.00  0.00     0.060 A 
ATOM      9  C   UNL A   1      44.033  25.956  25.108  1.00  0.00     0.016 A 
ATOM     10  C   UNL A   1      44.517  25.145  27.303  1.00  0.00     0.016 A 
ATOM     11  C   UNL A   1      44.943  26.961  25.225  1.00  0.00     0.010 A 
ATOM     12  C   UNL A   1      45.309  26.279  27.512  1.00  0.00     0.010 A 
ATOM     13  C   UNL A   1      45.566  27.153  26.442  1.00  0.00    -0.014 A 
BRANCH  13  14
ATOM     14  C   UNL A   1      46.579  28.209  26.470  1.00  0.00     0.031 A 
ATOM     15  C   UNL A   1      46.112  29.607  26.683  1.00  0.00     0.074 A 
ATOM     16  C   UNL A   1      47.880  27.870  26.515  1.00  0.00     0.049 A 
ATOM     17  N   UNL A   1      46.767  30.718  26.527  1.00  0.00    -0.248 NA
ATOM     18  C   UNL A   1      44.715  29.780  27.121  1.00  0.00     0.031 C 
ATOM     19  C   UNL A   1      48.399  26.494  26.534  1.00  0.00     0.029 A 
ATOM     20  N   UNL A   1      48.999  28.642  26.610  1.00  0.00    -0.354 N 
ATOM     21  C   UNL A   1      45.834  31.724  26.733  1.00  0.00     0.074 A 
ATOM     22  C   UNL A   1      44.583  31.096  27.088  1.00  0.00     0.031 C 
ATOM     23  C   UNL A   1      49.727  26.525  26.697  1.00  0.00     0.029 A 
ATOM     24  C   UNL A   1      50.160  27.909  26.616  1.00  0.00     0.049 A 
ATOM     25  H   UNL A   1      48.978  29.624  26.669  1.00  0.00     0.167 HD
ATOM     26  C   UNL A   1      46.032  33.051  26.576  1.00  0.00     0.037 A 
ATOM     27  C   UNL A   1      51.430  28.318  26.462  1.00  0.00     0.037 A 
ATOM     28  C   UNL A   1      47.326  33.590  26.256  1.00  0.00     0.049 A 
ATOM     29  C   UNL A   1      51.633  29.785  26.237  1.00  0.00     0.074 A 
ATOM     30  C   UNL A   1      47.688  34.888  25.961  1.00  0.00     0.029 A 
ATOM     31  N   UNL A   1      48.489  32.824  26.209  1.00  0.00    -0.354 N 
ATOM     32  N   UNL A   1      50.732  30.742  26.228  1.00  0.00    -0.248 NA
ATOM     33  C   UNL A   1      52.997  30.230  25.952  1.00  0.00     0.031 C 
ATOM     34  C   UNL A   1      49.067  34.899  25.708  1.00  0.00     0.029 A 
ATOM     35  C   UNL A   1      49.571  33.616  25.889  1.00  0.00     0.049 A 
ATOM     36  H   UNL A   1      48.531  31.854  26.380  1.00  0.00     0.167 HD
ATOM     37  C   UNL A   1      51.414  31.908  25.933  1.00  0.00     0.074 A 
ATOM     38  C   UNL A   1      52.813  31.534  25.789  1.00  0.00     0.031 C 
ATOM     39  C   UNL A   1      50.941  33.170  25.780  1.00  0.00     0.037 A 
BRANCH  26  40
ATOM     40  C   UNL A   1      44.814  33.924  26.613  1.00  0.00     0.057 A 
ATOM     41  C   UNL A   1      43.986  34.124  25.501  1.00  0.00     0.134 A 
ATOM     42  C   UNL A   1      44.525  34.664  27.768  1.00  0.00     0.134 A 
ATOM     43  F   UNL A   1      44.230  33.481  24.348  1.00  0.00    -0.206 F 
ATOM     44  C   UNL A   1      42.941  35.053  25.524  1.00  0.00     0.040 A 
ATOM     45  C   UNL A   1      43.470  35.578  27.813  1.00  0.00     0.040 A 
ATOM     46  F   UNL A   1      45.287  34.537  28.865  1.00  0.00    -0.206 F 
ATOM     47  C   UNL A   1      42.682  35.783  26.684  1.00  0.00     0.006 A 
ENDBRANCH  26  40
BRANCH  27  48
ATOM     48  C   UNL A   1      52.521  27.314  26.395  1.00  0.00     0.057 A 
ATOM     49  C   UNL A   1      53.205  26.900  27.539  1.00  0.00     0.134 A 
ATOM     50  C   UNL A   1      52.841  26.668  25.189  1.00  0.00     0.134 A 
ATOM     51  F   UNL A   1      52.957  27.482  28.722  1.00  0.00    -0.206 F 
ATOM     52  C   UNL A   1      54.153  25.873  27.493  1.00  0.00     0.040 A 
ATOM     53  C   UNL A   1      53.761  25.622  25.133  1.00  0.00     0.040 A 
ATOM     54  F   UNL A   1      52.214  27.009  24.052  1.00  0.00    -0.206 F 
ATOM     55  C   UNL A   1      54.421  25.221  26.290  1.00  0.00     0.006 A 
ENDBRANCH  27  48
BRANCH  39  56
ATOM     56  C   UNL A   1      51.958  34.222  25.490  1.00  0.00     0.057 A 
ATOM     57  C   UNL A   1      52.492  35.023  26.503  1.00  0.00     0.134 A 
ATOM     58  C   UNL A   1      52.453  34.377  24.190  1.00  0.00     0.134 A 
ATOM     59  F   UNL A   1      52.041  34.921  27.762  1.00  0.00    -0.206 F 
ATOM     60  C   UNL A   1      53.489  35.958  26.230  1.00  0.00     0.040 A 
ATOM     61  C   UNL A   1      53.462  35.294  23.909  1.00  0.00     0.040 A 
ATOM     62  F   UNL A   1      51.975  33.629  23.185  1.00  0.00    -0.206 F 
ATOM     63  C   UNL A   1      53.982  36.087  24.932  1.00  0.00     0.006 A 
ENDBRANCH  39  56
ENDBRANCH  13  14
ENDBRANCH   6   8
ENDBRANCH   5   6
ENDBRANCH   4   5
ENDBRANCH   3   4
ENDBRANCH   2   3
ENDBRANCH   1   2
BRANCH   1  64
ATOM     64  C   UNL A   1      37.238  23.163  25.926  1.00  0.00     0.261 C 
BRANCH  64  65
ATOM     65  O   UNL A   1      37.417  22.502  24.669  1.00  0.00    -0.462 OA
BRANCH  65  66
ATOM     66  C   UNL A   1      36.470  22.842  23.763  1.00  0.00     0.328 C 
ATOM     67  O   UNL A   1      36.684  22.931  22.557  1.00  0.00    -0.250 OA
BRANCH  66  68
ATOM     68  C   UNL A   1      35.120  23.137  24.433  1.00  0.00     0.195 C 
ATOM     69  C   UNL A   1      34.546  24.138  23.412  1.00  0.00     0.046 C 
ATOM     70  N   UNL A   1      33.952  22.243  24.621  1.00  0.00    -0.328 N 
ATOM     71  C   UNL A   1      33.082  24.319  23.762  1.00  0.00     0.001 C 
ATOM     72  C   UNL A   1      32.708  22.922  24.251  1.00  0.00     0.128 C 
ATOM     73  C   UNL A   1      32.285  24.711  22.505  1.00  0.00     0.071 C 
ATOM     74  C   UNL A   1      32.917  25.409  24.839  1.00  0.00     0.071 C 
ATOM     75  C   UNL A   1      32.757  26.064  21.988  1.00  0.00     0.271 C 
ATOM     76  C   UNL A   1      33.280  26.799  24.302  1.00  0.00     0.271 C 
ATOM     77  N   UNL A   1      32.597  27.070  23.040  1.00  0.00    -0.267 N 
ATOM     78  H   UNL A   1      32.177  27.276  22.173  1.00  0.00     0.357 HD
BRANCH  70  79
ATOM     79  C   UNL A   1      33.782  21.070  25.347  1.00  0.00     0.226 C 
ATOM     80  O   UNL A   1      33.458  21.094  26.532  1.00  0.00    -0.275 OA
BRANCH  79  81
ATOM     81  C   UNL A   1      33.808  19.740  24.700  1.00  0.00     0.079 C 
ATOM     82  C   UNL A   1      33.006  18.532  25.073  1.00  0.00     0.014 C 
ATOM     83  C   UNL A   1      32.618  19.318  23.863  1.00  0.00     0.014 C 
ENDBRANCH  79  81
ENDBRANCH  70  79
BRANCH  77  84
ATOM     84  C   UNL A   1      31.965  28.296  22.870  1.00  0.00     0.344 C 
ATOM     85  O   UNL A   1      32.558  29.359  22.713  1.00  0.00    -0.226 OA
BRANCH  84  86
ATOM     86  C   UNL A   1      30.491  28.319  22.893  1.00  0.00     0.083 A 
ATOM     87  C   UNL A   1      29.795  29.397  22.327  1.00  0.00     0.018 A 
ATOM     88  C   UNL A   1      29.809  27.266  23.500  1.00  0.00     0.064 A 
ATOM     89  C   UNL A   1      28.405  29.441  22.416  1.00  0.00     0.005 A 
ATOM     90  C   UNL A   1      28.424  27.317  23.566  1.00  0.00     0.116 A 
ATOM     91  C   UNL A   1      27.717  28.399  23.040  1.00  0.00     0.046 A 
BRANCH  90  92
ATOM     92  O   UNL A   1      27.781  26.279  24.173  1.00  0.00    -0.508 OA
ATOM     93  H   UNL A   1      26.875  26.119  23.991  1.00  0.00     0.293 HD
ENDBRANCH  90  92
ENDBRANCH  84  86
ENDBRANCH  77  84
ENDBRANCH  66  68
ENDBRANCH  65  66
ENDBRANCH  64  65
ENDBRANCH   1  64
TORSDOF 19
ENDMDL
MODEL 3
REMARK VINA RESULT:     -11.5      1.418      2.014
REMARK SMILES O=C(OCCOCCOC(=O)[C@H]1CC2(CC[NH+](C(=O)c3cccc(O)c3)CC2)CN1C(=O)C1CC1)c1ccc(-c2c3nc(c(-c4c(F)cccc4F)c4ccc([nH]4)c(-c4c(F)cccc4F)c4nc(c(-c5c(F)cccc5F)c5ccc2[nH]5)C=C4)C=C3)cc1
REMARK SMILES IDX 7 1 6 2 5 3 4 4 3 5 2 6 1 7 36 8 37 9 89 10 38 11 88 12
REMARK SMILES IDX 39 13 40 14 41 15 82 16 42 17 87 18 81 19 83 20 43 21 86 22
REMARK SMILES IDX 80 23 79 24 44 26 70 27 53 28 69 29 54 30 57 31 68 32 84 33
REMARK SMILES IDX 55 34 56 35 67 37 85 38 58 39 45 40 46 41 51 42 47 43 48 44
REMARK SMILES IDX 50 45 52 46 49 47 71 48 72 49 77 50 73 51 74 52 76 53 78 54
REMARK SMILES IDX 75 55 59 56 60 57 65 58 61 59 62 60 64 61 66 62 63 63 8 64
REMARK SMILES IDX 9 65 10 66 11 67 12 68 13 69 30 70 14 71 29 72 15 73 28 74
REMARK SMILES IDX 16 75 27 76 17 77 31 79 32 80 33 81 34 82 35 83 18 84 19 85
REMARK SMILES IDX 20 86 21 87 26 88 22 89 24 90 23 91 25 92
REMARK H PARENT 83 25 57 36 17 78 25 93
REMARK Flexibility Score: inf
ROOT
ATOM      1  C   UNL A   1      37.332  23.351  26.266  1.00  0.00     0.202 C 
ENDROOT
BRANCH   1   2
ATOM      2  O   UNL A   1      38.543  22.835  25.692  1.00  0.00    -0.374 OA
BRANCH   2   3
ATOM      3  C   UNL A   1      39.603  22.464  26.581  1.00  0.00     0.202 C 
BRANCH   3   4
ATOM      4  C   UNL A   1      40.744  21.586  26.029  1.00  0.00     0.261 C 
BRANCH   4   5
ATOM      5  O   UNL A   1      42.051  22.158  26.317  1.00  0.00    -0.460 OA
BRANCH   5   6
ATOM      6  C   UNL A   1      42.542  23.382  25.969  1.00  0.00     0.338 C 
ATOM      7  O   UNL A   1      42.878  23.633  24.828  1.00  0.00    -0.246 OA
BRANCH   6   8
ATOM      8  C   UNL A   1      42.642  24.420  27.016  1.00  0.00     0.060 A 
ATOM      9  C   UNL A   1      42.163  24.156  28.285  1.00  0.00     0.016 A 
ATOM     10  C   UNL A   1      43.170  25.679  26.743  1.00  0.00     0.016 A 
ATOM     11  C   UNL A   1      41.889  25.155  29.168  1.00  0.00     0.010 A 
ATOM     12  C   UNL A   1      43.072  26.679  27.716  1.00  0.00     0.010 A 
ATOM     13  C   UNL A   1      42.372  26.422  28.907  1.00  0.00    -0.014 A 
BRANCH  13  14
ATOM     14  C   UNL A   1      41.980  27.455  29.867  1.00  0.00     0.031 A 
ATOM     15  C   UNL A   1      42.890  27.706  31.019  1.00  0.00     0.074 A 
ATOM     16  C   UNL A   1      40.949  28.267  29.574  1.00  0.00     0.049 A 
ATOM     17  N   UNL A   1      42.666  28.389  32.102  1.00  0.00    -0.248 NA
ATOM     18  C   UNL A   1      44.231  27.098  30.950  1.00  0.00     0.031 C 
ATOM     19  C   UNL A   1      40.148  28.212  28.341  1.00  0.00     0.029 A 
ATOM     20  N   UNL A   1      40.430  29.329  30.252  1.00  0.00    -0.354 N 
ATOM     21  C   UNL A   1      43.789  28.199  32.893  1.00  0.00     0.074 A 
ATOM     22  C   UNL A   1      44.721  27.390  32.144  1.00  0.00     0.031 C 
ATOM     23  C   UNL A   1      39.285  29.234  28.329  1.00  0.00     0.029 A 
ATOM     24  C   UNL A   1      39.354  29.899  29.618  1.00  0.00     0.049 A 
ATOM     25  H   UNL A   1      40.790  29.655  31.108  1.00  0.00     0.167 HD
ATOM     26  C   UNL A   1      43.966  28.635  34.159  1.00  0.00     0.037 A 
ATOM     27  C   UNL A   1      38.461  30.788  30.083  1.00  0.00     0.037 A 
ATOM     28  C   UNL A   1      42.995  29.470  34.814  1.00  0.00     0.049 A 
ATOM     29  C   UNL A   1      38.637  31.226  31.505  1.00  0.00     0.074 A 
ATOM     30  C   UNL A   1      42.960  29.918  36.118  1.00  0.00     0.029 A 
ATOM     31  N   UNL A   1      41.876  29.996  34.173  1.00  0.00    -0.354 N 
ATOM     32  N   UNL A   1      39.592  30.900  32.348  1.00  0.00    -0.248 NA
ATOM     33  C   UNL A   1      37.607  32.103  32.062  1.00  0.00     0.031 C 
ATOM     34  C   UNL A   1      41.801  30.693  36.271  1.00  0.00     0.029 A 
ATOM     35  C   UNL A   1      41.139  30.764  35.051  1.00  0.00     0.049 A 
ATOM     36  H   UNL A   1      41.643  29.842  33.228  1.00  0.00     0.167 HD
ATOM     37  C   UNL A   1      39.280  31.526  33.541  1.00  0.00     0.074 A 
ATOM     38  C   UNL A   1      38.053  32.269  33.300  1.00  0.00     0.031 C 
ATOM     39  C   UNL A   1      39.931  31.488  34.730  1.00  0.00     0.037 A 
BRANCH  26  40
ATOM     40  C   UNL A   1      45.154  28.097  34.898  1.00  0.00     0.057 A 
ATOM     41  C   UNL A   1      45.093  26.960  35.713  1.00  0.00     0.134 A 
ATOM     42  C   UNL A   1      46.366  28.803  34.872  1.00  0.00     0.134 A 
ATOM     43  F   UNL A   1      43.951  26.261  35.820  1.00  0.00    -0.206 F 
ATOM     44  C   UNL A   1      46.178  26.565  36.501  1.00  0.00     0.040 A 
ATOM     45  C   UNL A   1      47.465  28.405  35.636  1.00  0.00     0.040 A 
ATOM     46  F   UNL A   1      46.491  29.912  34.128  1.00  0.00    -0.206 F 
ATOM     47  C   UNL A   1      47.369  27.289  36.463  1.00  0.00     0.006 A 
ENDBRANCH  26  40
BRANCH  27  48
ATOM     48  C   UNL A   1      37.306  31.180  29.237  1.00  0.00     0.057 A 
ATOM     49  C   UNL A   1      36.204  30.339  29.071  1.00  0.00     0.134 A 
ATOM     50  C   UNL A   1      37.234  32.454  28.651  1.00  0.00     0.134 A 
ATOM     51  F   UNL A   1      36.210  29.105  29.595  1.00  0.00    -0.206 F 
ATOM     52  C   UNL A   1      35.068  30.753  28.368  1.00  0.00     0.040 A 
ATOM     53  C   UNL A   1      36.096  32.892  27.973  1.00  0.00     0.040 A 
ATOM     54  F   UNL A   1      38.253  33.318  28.780  1.00  0.00    -0.206 F 
ATOM     55  C   UNL A   1      35.007  32.038  27.831  1.00  0.00     0.006 A 
ENDBRANCH  27  48
BRANCH  39  56
ATOM     56  C   UNL A   1      39.342  32.311  35.826  1.00  0.00     0.057 A 
ATOM     57  C   UNL A   1      39.706  33.647  36.016  1.00  0.00     0.134 A 
ATOM     58  C   UNL A   1      38.349  31.770  36.651  1.00  0.00     0.134 A 
ATOM     59  F   UNL A   1      40.662  34.206  35.259  1.00  0.00    -0.206 F 
ATOM     60  C   UNL A   1      39.102  34.424  37.002  1.00  0.00     0.040 A 
ATOM     61  C   UNL A   1      37.725  32.542  37.626  1.00  0.00     0.040 A 
ATOM     62  F   UNL A   1      37.963  30.494  36.505  1.00  0.00    -0.206 F 
ATOM     63  C   UNL A   1      38.102  33.874  37.803  1.00  0.00     0.006 A 
ENDBRANCH  39  56
ENDBRANCH  13  14
ENDBRANCH   6   8
ENDBRANCH   5   6
ENDBRANCH   4   5
ENDBRANCH   3   4
ENDBRANCH   2   3
ENDBRANCH   1   2
BRANCH   1  64
ATOM     64  C   UNL A   1      36.129  23.314  25.330  1.00  0.00     0.261 C 
BRANCH  64  65
ATOM     65  O   UNL A   1      35.158  22.387  25.825  1.00  0.00    -0.462 OA
BRANCH  65  66
ATOM     66  C   UNL A   1      34.150  22.996  26.495  1.00  0.00     0.328 C 
ATOM     67  O   UNL A   1      34.152  23.174  27.710  1.00  0.00    -0.250 OA
BRANCH  66  68
ATOM     68  C   UNL A   1      33.002  23.394  25.557  1.00  0.00     0.195 C 
ATOM     69  C   UNL A   1      33.361  24.876  25.336  1.00  0.00     0.046 C 
ATOM     70  N   UNL A   1      32.741  22.968  24.162  1.00  0.00    -0.328 N 
ATOM     71  C   UNL A   1      32.493  25.365  24.193  1.00  0.00     0.001 C 
ATOM     72  C   UNL A   1      32.411  24.118  23.315  1.00  0.00     0.128 C 
ATOM     73  C   UNL A   1      33.191  26.525  23.461  1.00  0.00     0.071 C 
ATOM     74  C   UNL A   1      31.123  25.833  24.720  1.00  0.00     0.071 C 
ATOM     75  C   UNL A   1      33.346  27.716  24.399  1.00  0.00     0.271 C 
ATOM     76  C   UNL A   1      31.247  27.101  25.576  1.00  0.00     0.271 C 
ATOM     77  N   UNL A   1      32.028  28.126  24.889  1.00  0.00    -0.267 N 
ATOM     78  H   UNL A   1      32.575  28.829  24.470  1.00  0.00     0.357 HD
BRANCH  70  79
ATOM     79  C   UNL A   1      32.445  21.730  23.603  1.00  0.00     0.226 C 
ATOM     80  O   UNL A   1      32.321  21.592  22.388  1.00  0.00    -0.275 OA
BRANCH  79  81
ATOM     81  C   UNL A   1      32.434  20.490  24.410  1.00  0.00     0.079 C 
ATOM     82  C   UNL A   1      32.540  19.082  23.912  1.00  0.00     0.014 C 
ATOM     83  C   UNL A   1      33.727  19.716  24.563  1.00  0.00     0.014 C 
ENDBRANCH  79  81
ENDBRANCH  70  79
BRANCH  77  84
ATOM     84  C   UNL A   1      31.546  29.429  24.860  1.00  0.00     0.344 C 
ATOM     85  O   UNL A   1      31.887  30.305  25.648  1.00  0.00    -0.226 OA
BRANCH  84  86
ATOM     86  C   UNL A   1      30.553  29.772  23.826  1.00  0.00     0.083 A 
ATOM     87  C   UNL A   1      30.679  29.252  22.530  1.00  0.00     0.018 A 
ATOM     88  C   UNL A   1      29.504  30.629  24.154  1.00  0.00     0.064 A 
ATOM     89  C   UNL A   1      29.774  29.638  21.543  1.00  0.00     0.005 A 
ATOM     90  C   UNL A   1      28.602  30.991  23.164  1.00  0.00     0.116 A 
ATOM     91  C   UNL A   1      28.733  30.513  21.860  1.00  0.00     0.046 A 
BRANCH  90  92
ATOM     92  O   UNL A   1      27.592  31.839  23.509  1.00  0.00    -0.508 OA
ATOM     93  H   UNL A   1      26.737  31.499  23.691  1.00  0.00     0.293 HD
ENDBRANCH  90  92
ENDBRANCH  84  86
ENDBRANCH  77  84
ENDBRANCH  66  68
ENDBRANCH  65  66
ENDBRANCH  64  65
ENDBRANCH   1  64
TORSDOF 19
ENDMDL
