MODEL 1
REMARK VINA RESULT:     -11.9      0.000      0.000
REMARK SMILES O=C1NC(=S)S/C1=C\c1ccc(OCc2cn(-c3ccc(C(=O)OCCOCCOC(=O)c4ccc(-c5c6nc(c(-c7c(F)cccc7F)c7ccc([nH]7)c(-c7c(F)cccc7F)c7nc(c(-c8c(F)cccc8F)c8ccc5[nH]8)C=C7)C=C6)cc4)cc3)nn2)cc1
REMARK SMILES IDX 25 1 24 2 22 3 23 4 21 5 18 6 19 7 88 8 20 9 87 10 17 11
REMARK SMILES IDX 15 12 16 13 90 14 89 15 14 16 13 17 12 18 9 19 10 20 92 21
REMARK SMILES IDX 11 22 91 23 8 24 1 25 2 26 3 27 7 28 4 29 6 31 5 32 26 33
REMARK SMILES IDX 27 34 28 35 29 36 30 37 31 38 32 39 33 40 34 41 86 42 35 43
REMARK SMILES IDX 85 44 36 45 37 46 38 47 79 48 39 49 84 50 78 51 80 52 40 53
REMARK SMILES IDX 83 54 77 55 76 56 41 58 67 59 50 60 66 61 51 62 54 63 65 64
REMARK SMILES IDX 81 65 52 66 53 67 64 69 82 70 55 71 42 72 43 73 48 74 44 75
REMARK SMILES IDX 45 76 47 77 49 78 46 79 68 80 69 81 74 82 70 83 71 84 73 85
REMARK SMILES IDX 75 86 72 87 56 88 57 89 62 90 58 91 59 92 61 93 63 94 60 95
REMARK H PARENT 3 30 80 57 54 68
REMARK Flexibility Score: inf
ROOT
ATOM      1  C   UNL A   1      33.141  36.406  29.811  1.00  0.00     0.261 C 
ENDROOT
BRANCH   1   2
ATOM      2  O   UNL A   1      32.705  35.488  28.797  1.00  0.00    -0.460 OA
BRANCH   2   3
ATOM      3  C   UNL A   1      33.707  34.768  28.241  1.00  0.00     0.338 C 
ATOM      4  O   UNL A   1      34.881  35.095  28.134  1.00  0.00    -0.246 OA
BRANCH   3   5
ATOM      5  C   UNL A   1      33.243  33.411  27.913  1.00  0.00     0.060 A 
ATOM      6  C   UNL A   1      32.628  30.859  27.006  1.00  0.00     0.066 A 
ATOM      7  C   UNL A   1      33.817  31.073  27.717  1.00  0.00     0.029 A 
ATOM      8  C   UNL A   1      31.700  31.898  26.841  1.00  0.00     0.029 A 
ATOM      9  C   UNL A   1      34.138  32.357  28.138  1.00  0.00     0.018 A 
ATOM     10  C   UNL A   1      32.000  33.177  27.320  1.00  0.00     0.018 A 
BRANCH   6  11
ATOM     11  N   UNL A   1      32.447  29.612  26.367  1.00  0.00    -0.220 N 
ATOM     12  C   UNL A   1      31.923  27.542  25.920  1.00  0.00     0.120 A 
ATOM     13  C   UNL A   1      32.329  28.369  26.947  1.00  0.00     0.144 A 
ATOM     14  N   UNL A   1      31.856  28.280  24.769  1.00  0.00    -0.131 NA
ATOM     15  N   UNL A   1      32.176  29.530  25.048  1.00  0.00    -0.062 NA
BRANCH  12  16
ATOM     16  C   UNL A   1      31.472  26.118  25.934  1.00  0.00     0.289 C 
BRANCH  16  17
ATOM     17  O   UNL A   1      32.471  25.163  26.326  1.00  0.00    -0.487 OA
BRANCH  17  18
ATOM     18  C   UNL A   1      32.439  23.925  25.745  1.00  0.00     0.119 A 
ATOM     19  C   UNL A   1      32.430  21.585  24.195  1.00  0.00    -0.024 A 
ATOM     20  C   UNL A   1      33.481  22.496  24.081  1.00  0.00     0.012 A 
ATOM     21  C   UNL A   1      31.439  21.804  25.154  1.00  0.00     0.012 A 
ATOM     22  C   UNL A   1      33.481  23.664  24.852  1.00  0.00     0.047 A 
ATOM     23  C   UNL A   1      31.459  22.955  25.942  1.00  0.00     0.047 A 
BRANCH  19  24
ATOM     24  C   UNL A   1      32.344  20.420  23.313  1.00  0.00     0.029 C 
ATOM     25  O   UNL A   1      32.313  18.107  21.543  1.00  0.00    -0.268 OA
ATOM     26  C   UNL A   1      32.517  18.018  22.743  1.00  0.00     0.263 C 
ATOM     27  N   UNL A   1      32.777  16.851  23.404  1.00  0.00    -0.307 N 
ATOM     28  C   UNL A   1      32.535  19.153  23.704  1.00  0.00     0.080 C 
ATOM     29  C   UNL A   1      32.982  16.906  24.749  1.00  0.00     0.145 C 
ATOM     30  H   UNL A   1      32.816  15.993  22.922  1.00  0.00     0.171 HD
ATOM     31  S   UNL A   1      32.853  18.560  25.297  1.00  0.00    -0.055 SA
ATOM     32  S   UNL A   1      33.302  15.576  25.683  1.00  0.00    -0.052 S 
ENDBRANCH  19  24
ENDBRANCH  17  18
ENDBRANCH  16  17
ENDBRANCH  12  16
ENDBRANCH   6  11
ENDBRANCH   3   5
ENDBRANCH   2   3
ENDBRANCH   1   2
BRANCH   1  33
ATOM     33  C   UNL A   1      32.734  35.970  31.219  1.00  0.00     0.202 C 
BRANCH  33  34
ATOM     34  O   UNL A   1      33.753  35.619  32.153  1.00  0.00    -0.374 OA
BRANCH  34  35
ATOM     35  C   UNL A   1      34.655  34.554  31.874  1.00  0.00     0.202 C 
BRANCH  35  36
ATOM     36  C   UNL A   1      34.195  33.125  32.117  1.00  0.00     0.261 C 
BRANCH  36  37
ATOM     37  O   UNL A   1      34.916  32.199  31.322  1.00  0.00    -0.460 OA
BRANCH  37  38
ATOM     38  C   UNL A   1      35.914  31.578  31.985  1.00  0.00     0.338 C 
ATOM     39  O   UNL A   1      36.141  31.607  33.187  1.00  0.00    -0.246 OA
BRANCH  38  40
ATOM     40  C   UNL A   1      36.812  30.972  31.003  1.00  0.00     0.060 A 
ATOM     41  C   UNL A   1      36.791  29.577  30.958  1.00  0.00     0.016 A 
ATOM     42  C   UNL A   1      37.875  31.730  30.490  1.00  0.00     0.016 A 
ATOM     43  C   UNL A   1      37.968  28.934  30.677  1.00  0.00     0.010 A 
ATOM     44  C   UNL A   1      39.055  31.087  30.230  1.00  0.00     0.010 A 
ATOM     45  C   UNL A   1      39.104  29.710  30.430  1.00  0.00    -0.014 A 
BRANCH  45  46
ATOM     46  C   UNL A   1      40.360  29.019  30.282  1.00  0.00     0.031 A 
ATOM     47  C   UNL A   1      41.079  28.916  31.568  1.00  0.00     0.074 A 
ATOM     48  C   UNL A   1      40.734  28.469  29.114  1.00  0.00     0.049 A 
ATOM     49  N   UNL A   1      42.183  29.491  31.905  1.00  0.00    -0.248 NA
ATOM     50  C   UNL A   1      40.367  28.269  32.686  1.00  0.00     0.031 C 
ATOM     51  C   UNL A   1      39.944  28.309  27.890  1.00  0.00     0.029 A 
ATOM     52  N   UNL A   1      41.894  27.830  28.814  1.00  0.00    -0.354 N 
ATOM     53  C   UNL A   1      42.418  29.079  33.211  1.00  0.00     0.074 A 
ATOM     54  C   UNL A   1      41.183  28.535  33.703  1.00  0.00     0.031 C 
ATOM     55  C   UNL A   1      40.561  27.419  27.077  1.00  0.00     0.029 A 
ATOM     56  C   UNL A   1      41.835  27.049  27.666  1.00  0.00     0.049 A 
ATOM     57  H   UNL A   1      42.707  27.912  29.363  1.00  0.00     0.167 HD
ATOM     58  C   UNL A   1      43.688  28.925  33.666  1.00  0.00     0.037 A 
ATOM     59  C   UNL A   1      42.741  26.101  27.318  1.00  0.00     0.037 A 
ATOM     60  C   UNL A   1      44.621  29.680  32.869  1.00  0.00     0.049 A 
ATOM     61  C   UNL A   1      43.978  26.361  28.105  1.00  0.00     0.074 A 
ATOM     62  C   UNL A   1      44.763  31.018  32.552  1.00  0.00     0.029 A 
ATOM     63  N   UNL A   1      45.373  28.995  31.946  1.00  0.00    -0.354 N 
ATOM     64  N   UNL A   1      44.749  27.397  27.922  1.00  0.00    -0.248 NA
ATOM     65  C   UNL A   1      44.085  25.729  29.415  1.00  0.00     0.031 C 
ATOM     66  C   UNL A   1      45.192  31.035  31.193  1.00  0.00     0.029 A 
ATOM     67  C   UNL A   1      45.351  29.712  30.778  1.00  0.00     0.049 A 
ATOM     68  H   UNL A   1      45.842  28.143  32.095  1.00  0.00     0.167 HD
ATOM     69  C   UNL A   1      45.108  27.804  29.200  1.00  0.00     0.074 A 
ATOM     70  C   UNL A   1      44.727  26.698  30.075  1.00  0.00     0.031 C 
ATOM     71  C   UNL A   1      45.405  29.110  29.467  1.00  0.00     0.037 A 
BRANCH  58  72
ATOM     72  C   UNL A   1      44.107  27.763  34.533  1.00  0.00     0.057 A 
ATOM     73  C   UNL A   1      44.825  28.026  35.711  1.00  0.00     0.134 A 
ATOM     74  C   UNL A   1      44.104  26.410  34.124  1.00  0.00     0.134 A 
ATOM     75  F   UNL A   1      44.914  29.273  36.197  1.00  0.00    -0.206 F 
ATOM     76  C   UNL A   1      45.554  27.036  36.379  1.00  0.00     0.040 A 
ATOM     77  C   UNL A   1      44.782  25.406  34.815  1.00  0.00     0.040 A 
ATOM     78  F   UNL A   1      43.538  25.993  32.986  1.00  0.00    -0.206 F 
ATOM     79  C   UNL A   1      45.541  25.723  35.926  1.00  0.00     0.006 A 
ENDBRANCH  58  72
BRANCH  59  80
ATOM     80  C   UNL A   1      42.497  24.802  26.648  1.00  0.00     0.057 A 
ATOM     81  C   UNL A   1      43.126  24.483  25.436  1.00  0.00     0.134 A 
ATOM     82  C   UNL A   1      41.863  23.735  27.311  1.00  0.00     0.134 A 
ATOM     83  F   UNL A   1      43.796  25.421  24.751  1.00  0.00    -0.206 F 
ATOM     84  C   UNL A   1      43.140  23.178  24.923  1.00  0.00     0.040 A 
ATOM     85  C   UNL A   1      41.864  22.431  26.806  1.00  0.00     0.040 A 
ATOM     86  F   UNL A   1      41.300  23.902  28.515  1.00  0.00    -0.206 F 
ATOM     87  C   UNL A   1      42.516  22.144  25.615  1.00  0.00     0.006 A 
ENDBRANCH  59  80
BRANCH  71  88
ATOM     88  C   UNL A   1      45.569  30.044  28.299  1.00  0.00     0.057 A 
ATOM     89  C   UNL A   1      44.515  30.751  27.703  1.00  0.00     0.134 A 
ATOM     90  C   UNL A   1      46.864  30.353  27.867  1.00  0.00     0.134 A 
ATOM     91  F   UNL A   1      43.252  30.596  28.120  1.00  0.00    -0.206 F 
ATOM     92  C   UNL A   1      44.737  31.693  26.692  1.00  0.00     0.040 A 
ATOM     93  C   UNL A   1      47.101  31.315  26.883  1.00  0.00     0.040 A 
ATOM     94  F   UNL A   1      47.925  29.757  28.432  1.00  0.00    -0.206 F 
ATOM     95  C   UNL A   1      46.036  31.981  26.285  1.00  0.00     0.006 A 
ENDBRANCH  71  88
ENDBRANCH  45  46
ENDBRANCH  38  40
ENDBRANCH  37  38
ENDBRANCH  36  37
ENDBRANCH  35  36
ENDBRANCH  34  35
ENDBRANCH  33  34
ENDBRANCH   1  33
TORSDOF 19
ENDMDL
MODEL 2
REMARK VINA RESULT:     -11.7      2.232      3.036
REMARK SMILES O=C1NC(=S)S/C1=C\c1ccc(OCc2cn(-c3ccc(C(=O)OCCOCCOC(=O)c4ccc(-c5c6nc(c(-c7c(F)cccc7F)c7ccc([nH]7)c(-c7c(F)cccc7F)c7nc(c(-c8c(F)cccc8F)c8ccc5[nH]8)C=C7)C=C6)cc4)cc3)nn2)cc1
REMARK SMILES IDX 25 1 24 2 22 3 23 4 21 5 18 6 19 7 88 8 20 9 87 10 17 11
REMARK SMILES IDX 15 12 16 13 90 14 89 15 14 16 13 17 12 18 9 19 10 20 92 21
REMARK SMILES IDX 11 22 91 23 8 24 1 25 2 26 3 27 7 28 4 29 6 31 5 32 26 33
REMARK SMILES IDX 27 34 28 35 29 36 30 37 31 38 32 39 33 40 34 41 86 42 35 43
REMARK SMILES IDX 85 44 36 45 37 46 38 47 79 48 39 49 84 50 78 51 80 52 40 53
REMARK SMILES IDX 83 54 77 55 76 56 41 58 67 59 50 60 66 61 51 62 54 63 65 64
REMARK SMILES IDX 81 65 52 66 53 67 64 69 82 70 55 71 42 72 43 73 48 74 44 75
REMARK SMILES IDX 45 76 47 77 49 78 46 79 68 80 69 81 74 82 70 83 71 84 73 85
REMARK SMILES IDX 75 86 72 87 56 88 57 89 62 90 58 91 59 92 61 93 63 94 60 95
REMARK H PARENT 3 30 80 57 54 68
REMARK Flexibility Score: inf
ROOT
ATOM      1  C   UNL A   1      34.273  35.405  28.837  1.00  0.00     0.261 C 
ENDROOT
BRANCH   1   2
ATOM      2  O   UNL A   1      33.715  34.297  28.112  1.00  0.00    -0.460 OA
BRANCH   2   3
ATOM      3  C   UNL A   1      34.557  33.245  27.986  1.00  0.00     0.338 C 
ATOM      4  O   UNL A   1      35.755  33.223  28.228  1.00  0.00    -0.246 OA
BRANCH   3   5
ATOM      5  C   UNL A   1      33.804  32.021  27.669  1.00  0.00     0.060 A 
ATOM      6  C   UNL A   1      32.591  29.701  26.744  1.00  0.00     0.066 A 
ATOM      7  C   UNL A   1      33.898  29.645  27.248  1.00  0.00     0.029 A 
ATOM      8  C   UNL A   1      31.856  30.895  26.800  1.00  0.00     0.029 A 
ATOM      9  C   UNL A   1      34.513  30.814  27.676  1.00  0.00     0.018 A 
ATOM     10  C   UNL A   1      32.459  32.057  27.290  1.00  0.00     0.018 A 
BRANCH   6  11
ATOM     11  N   UNL A   1      32.082  28.563  26.078  1.00  0.00    -0.220 N 
ATOM     12  C   UNL A   1      31.024  26.720  25.588  1.00  0.00     0.120 A 
ATOM     13  C   UNL A   1      31.638  27.383  26.630  1.00  0.00     0.144 A 
ATOM     14  N   UNL A   1      31.154  27.476  24.454  1.00  0.00    -0.131 NA
ATOM     15  N   UNL A   1      31.796  28.589  24.759  1.00  0.00    -0.062 NA
BRANCH  12  16
ATOM     16  C   UNL A   1      30.209  25.467  25.574  1.00  0.00     0.289 C 
BRANCH  16  17
ATOM     17  O   UNL A   1      30.254  24.721  24.347  1.00  0.00    -0.487 OA
BRANCH  17  18
ATOM     18  C   UNL A   1      31.086  23.636  24.285  1.00  0.00     0.119 A 
ATOM     19  C   UNL A   1      33.044  21.628  24.404  1.00  0.00    -0.024 A 
ATOM     20  C   UNL A   1      32.538  22.183  25.581  1.00  0.00     0.012 A 
ATOM     21  C   UNL A   1      32.497  22.014  23.178  1.00  0.00     0.012 A 
ATOM     22  C   UNL A   1      31.564  23.187  25.518  1.00  0.00     0.047 A 
ATOM     23  C   UNL A   1      31.506  22.994  23.123  1.00  0.00     0.047 A 
BRANCH  19  24
ATOM     24  C   UNL A   1      34.148  20.668  24.438  1.00  0.00     0.029 C 
ATOM     25  O   UNL A   1      36.344  18.767  24.647  1.00  0.00    -0.268 OA
ATOM     26  C   UNL A   1      35.174  18.438  24.751  1.00  0.00     0.263 C 
ATOM     27  N   UNL A   1      34.742  17.165  25.000  1.00  0.00    -0.307 N 
ATOM     28  C   UNL A   1      34.005  19.351  24.644  1.00  0.00     0.080 C 
ATOM     29  C   UNL A   1      33.401  16.948  25.088  1.00  0.00     0.145 C 
ATOM     30  H   UNL A   1      35.382  16.426  25.112  1.00  0.00     0.171 HD
ATOM     31  S   UNL A   1      32.543  18.451  24.848  1.00  0.00    -0.055 SA
ATOM     32  S   UNL A   1      32.730  15.461  25.378  1.00  0.00    -0.052 S 
ENDBRANCH  19  24
ENDBRANCH  17  18
ENDBRANCH  16  17
ENDBRANCH  12  16
ENDBRANCH   6  11
ENDBRANCH   3   5
ENDBRANCH   2   3
ENDBRANCH   1   2
BRANCH   1  33
ATOM     33  C   UNL A   1      33.384  36.648  28.793  1.00  0.00     0.202 C 
BRANCH  33  34
ATOM     34  O   UNL A   1      33.217  37.418  29.983  1.00  0.00    -0.374 OA
BRANCH  34  35
ATOM     35  C   UNL A   1      32.793  36.797  31.193  1.00  0.00     0.202 C 
BRANCH  35  36
ATOM     36  C   UNL A   1      33.730  36.818  32.391  1.00  0.00     0.261 C 
BRANCH  36  37
ATOM     37  O   UNL A   1      34.779  35.875  32.253  1.00  0.00    -0.460 OA
BRANCH  37  38
ATOM     38  C   UNL A   1      34.411  34.609  32.541  1.00  0.00     0.338 C 
ATOM     39  O   UNL A   1      33.283  34.136  32.515  1.00  0.00    -0.246 OA
BRANCH  38  40
ATOM     40  C   UNL A   1      35.577  33.898  33.064  1.00  0.00     0.060 A 
ATOM     41  C   UNL A   1      36.789  34.579  32.951  1.00  0.00     0.016 A 
ATOM     42  C   UNL A   1      35.503  32.510  33.251  1.00  0.00     0.016 A 
ATOM     43  C   UNL A   1      37.916  33.834  32.720  1.00  0.00     0.010 A 
ATOM     44  C   UNL A   1      36.626  31.768  33.000  1.00  0.00     0.010 A 
ATOM     45  C   UNL A   1      37.787  32.445  32.636  1.00  0.00    -0.014 A 
BRANCH  45  46
ATOM     46  C   UNL A   1      38.952  31.691  32.249  1.00  0.00     0.031 A 
ATOM     47  C   UNL A   1      39.826  31.409  33.404  1.00  0.00     0.074 A 
ATOM     48  C   UNL A   1      39.120  31.239  30.994  1.00  0.00     0.049 A 
ATOM     49  N   UNL A   1      41.008  31.871  33.633  1.00  0.00    -0.248 NA
ATOM     50  C   UNL A   1      39.221  30.700  34.548  1.00  0.00     0.031 C 
ATOM     51  C   UNL A   1      38.162  31.259  29.884  1.00  0.00     0.029 A 
ATOM     52  N   UNL A   1      40.174  30.558  30.474  1.00  0.00    -0.354 N 
ATOM     53  C   UNL A   1      41.383  31.313  34.849  1.00  0.00     0.074 A 
ATOM     54  C   UNL A   1      40.186  30.806  35.460  1.00  0.00     0.031 C 
ATOM     55  C   UNL A   1      38.590  30.418  28.914  1.00  0.00     0.029 A 
ATOM     56  C   UNL A   1      39.898  29.905  29.279  1.00  0.00     0.049 A 
ATOM     57  H   UNL A   1      41.057  30.530  30.908  1.00  0.00     0.167 HD
ATOM     58  C   UNL A   1      42.687  31.029  35.103  1.00  0.00     0.037 A 
ATOM     59  C   UNL A   1      40.670  28.939  28.721  1.00  0.00     0.037 A 
ATOM     60  C   UNL A   1      43.562  31.798  34.255  1.00  0.00     0.049 A 
ATOM     61  C   UNL A   1      42.018  29.034  29.346  1.00  0.00     0.074 A 
ATOM     62  C   UNL A   1      43.766  33.149  34.046  1.00  0.00     0.029 A 
ATOM     63  N   UNL A   1      44.124  31.162  33.175  1.00  0.00    -0.354 N 
ATOM     64  N   UNL A   1      42.838  30.029  29.151  1.00  0.00    -0.248 NA
ATOM     65  C   UNL A   1      42.249  28.266  30.563  1.00  0.00     0.031 C 
ATOM     66  C   UNL A   1      44.008  33.276  32.647  1.00  0.00     0.029 A 
ATOM     67  C   UNL A   1      44.003  31.995  32.093  1.00  0.00     0.049 A 
ATOM     68  H   UNL A   1      44.540  30.270  33.177  1.00  0.00     0.167 HD
ATOM     69  C   UNL A   1      43.398  30.279  30.397  1.00  0.00     0.074 A 
ATOM     70  C   UNL A   1      43.051  29.117  31.212  1.00  0.00     0.031 C 
ATOM     71  C   UNL A   1      43.832  31.527  30.738  1.00  0.00     0.037 A 
BRANCH  58  72
ATOM     72  C   UNL A   1      43.123  29.759  35.791  1.00  0.00     0.057 A 
ATOM     73  C   UNL A   1      44.047  29.848  36.845  1.00  0.00     0.134 A 
ATOM     74  C   UNL A   1      42.919  28.456  35.284  1.00  0.00     0.134 A 
ATOM     75  F   UNL A   1      44.339  31.032  37.406  1.00  0.00    -0.206 F 
ATOM     76  C   UNL A   1      44.773  28.741  37.298  1.00  0.00     0.040 A 
ATOM     77  C   UNL A   1      43.597  27.338  35.767  1.00  0.00     0.040 A 
ATOM     78  F   UNL A   1      42.135  28.198  34.231  1.00  0.00    -0.206 F 
ATOM     79  C   UNL A   1      44.555  27.482  36.753  1.00  0.00     0.006 A 
ENDBRANCH  58  72
BRANCH  59  80
ATOM     80  C   UNL A   1      40.234  27.734  27.975  1.00  0.00     0.057 A 
ATOM     81  C   UNL A   1      40.789  27.415  26.728  1.00  0.00     0.134 A 
ATOM     82  C   UNL A   1      39.470  26.723  28.586  1.00  0.00     0.134 A 
ATOM     83  F   UNL A   1      41.571  28.295  26.087  1.00  0.00    -0.206 F 
ATOM     84  C   UNL A   1      40.612  26.158  26.132  1.00  0.00     0.040 A 
ATOM     85  C   UNL A   1      39.279  25.468  27.998  1.00  0.00     0.040 A 
ATOM     86  F   UNL A   1      38.958  26.884  29.814  1.00  0.00    -0.206 F 
ATOM     87  C   UNL A   1      39.863  25.176  26.773  1.00  0.00     0.006 A 
ENDBRANCH  59  80
BRANCH  71  88
ATOM     88  C   UNL A   1      43.912  32.563  29.650  1.00  0.00     0.057 A 
ATOM     89  C   UNL A   1      42.897  33.490  29.369  1.00  0.00     0.134 A 
ATOM     90  C   UNL A   1      45.123  32.724  28.967  1.00  0.00     0.134 A 
ATOM     91  F   UNL A   1      41.740  33.477  30.044  1.00  0.00    -0.206 F 
ATOM     92  C   UNL A   1      43.066  34.504  28.421  1.00  0.00     0.040 A 
ATOM     93  C   UNL A   1      45.316  33.753  28.043  1.00  0.00     0.040 A 
ATOM     94  F   UNL A   1      46.157  31.909  29.226  1.00  0.00    -0.206 F 
ATOM     95  C   UNL A   1      44.283  34.641  27.760  1.00  0.00     0.006 A 
ENDBRANCH  71  88
ENDBRANCH  45  46
ENDBRANCH  38  40
ENDBRANCH  37  38
ENDBRANCH  36  37
ENDBRANCH  35  36
ENDBRANCH  34  35
ENDBRANCH  33  34
ENDBRANCH   1  33
TORSDOF 19
ENDMDL
MODEL 3
REMARK VINA RESULT:     -11.7      2.638      6.023
REMARK SMILES O=C1NC(=S)S/C1=C\c1ccc(OCc2cn(-c3ccc(C(=O)OCCOCCOC(=O)c4ccc(-c5c6nc(c(-c7c(F)cccc7F)c7ccc([nH]7)c(-c7c(F)cccc7F)c7nc(c(-c8c(F)cccc8F)c8ccc5[nH]8)C=C7)C=C6)cc4)cc3)nn2)cc1
REMARK SMILES IDX 25 1 24 2 22 3 23 4 21 5 18 6 19 7 88 8 20 9 87 10 17 11
REMARK SMILES IDX 15 12 16 13 90 14 89 15 14 16 13 17 12 18 9 19 10 20 92 21
REMARK SMILES IDX 11 22 91 23 8 24 1 25 2 26 3 27 7 28 4 29 6 31 5 32 26 33
REMARK SMILES IDX 27 34 28 35 29 36 30 37 31 38 32 39 33 40 34 41 86 42 35 43
REMARK SMILES IDX 85 44 36 45 37 46 38 47 79 48 39 49 84 50 78 51 80 52 40 53
REMARK SMILES IDX 83 54 77 55 76 56 41 58 67 59 50 60 66 61 51 62 54 63 65 64
REMARK SMILES IDX 81 65 52 66 53 67 64 69 82 70 55 71 42 72 43 73 48 74 44 75
REMARK SMILES IDX 45 76 47 77 49 78 46 79 68 80 69 81 74 82 70 83 71 84 73 85
REMARK SMILES IDX 75 86 72 87 56 88 57 89 62 90 58 91 59 92 61 93 63 94 60 95
REMARK H PARENT 3 30 80 57 54 68
REMARK Flexibility Score: inf
ROOT
ATOM      1  C   UNL A   1      33.792  35.476  29.239  1.00  0.00     0.261 C 
ENDROOT
BRANCH   1   2
ATOM      2  O   UNL A   1      33.267  34.178  28.924  1.00  0.00    -0.460 OA
BRANCH   2   3
ATOM      3  C   UNL A   1      33.934  33.543  27.931  1.00  0.00     0.338 C 
ATOM      4  O   UNL A   1      35.086  33.738  27.572  1.00  0.00    -0.246 OA
BRANCH   3   5
ATOM      5  C   UNL A   1      33.135  32.420  27.413  1.00  0.00     0.060 A 
ATOM      6  C   UNL A   1      31.879  30.297  26.140  1.00  0.00     0.066 A 
ATOM      7  C   UNL A   1      33.096  30.084  26.804  1.00  0.00     0.029 A 
ATOM      8  C   UNL A   1      31.242  31.545  26.203  1.00  0.00     0.029 A 
ATOM      9  C   UNL A   1      33.738  31.156  27.409  1.00  0.00     0.018 A 
ATOM     10  C   UNL A   1      31.863  32.607  26.867  1.00  0.00     0.018 A 
BRANCH   6  11
ATOM     11  N   UNL A   1      31.377  29.263  25.318  1.00  0.00    -0.220 N 
ATOM     12  C   UNL A   1      30.521  27.395  24.587  1.00  0.00     0.120 A 
ATOM     13  C   UNL A   1      31.309  27.915  25.592  1.00  0.00     0.144 A 
ATOM     14  N   UNL A   1      30.184  28.407  23.729  1.00  0.00    -0.131 NA
ATOM     15  N   UNL A   1      30.707  29.533  24.178  1.00  0.00    -0.062 NA
BRANCH  12  16
ATOM     16  C   UNL A   1      29.945  26.028  24.409  1.00  0.00     0.289 C 
BRANCH  16  17
ATOM     17  O   UNL A   1      30.214  25.106  25.477  1.00  0.00    -0.487 OA
BRANCH  17  18
ATOM     18  C   UNL A   1      31.137  24.120  25.258  1.00  0.00     0.119 A 
ATOM     19  C   UNL A   1      33.260  22.291  25.092  1.00  0.00    -0.024 A 
ATOM     20  C   UNL A   1      32.698  22.600  26.331  1.00  0.00     0.012 A 
ATOM     21  C   UNL A   1      32.693  22.826  23.933  1.00  0.00     0.012 A 
ATOM     22  C   UNL A   1      31.642  23.514  26.411  1.00  0.00     0.047 A 
ATOM     23  C   UNL A   1      31.621  23.716  24.016  1.00  0.00     0.047 A 
BRANCH  19  24
ATOM     24  C   UNL A   1      34.443  21.434  24.993  1.00  0.00     0.029 C 
ATOM     25  O   UNL A   1      36.785  19.704  24.937  1.00  0.00    -0.268 OA
ATOM     26  C   UNL A   1      35.645  19.277  24.844  1.00  0.00     0.263 C 
ATOM     27  N   UNL A   1      35.316  17.955  24.728  1.00  0.00    -0.307 N 
ATOM     28  C   UNL A   1      34.408  20.102  24.854  1.00  0.00     0.080 C 
ATOM     29  C   UNL A   1      33.998  17.628  24.631  1.00  0.00     0.145 C 
ATOM     30  H   UNL A   1      36.012  17.259  24.716  1.00  0.00     0.171 HD
ATOM     31  S   UNL A   1      33.025  19.078  24.689  1.00  0.00    -0.055 SA
ATOM     32  S   UNL A   1      33.448  16.073  24.480  1.00  0.00    -0.052 S 
ENDBRANCH  19  24
ENDBRANCH  17  18
ENDBRANCH  16  17
ENDBRANCH  12  16
ENDBRANCH   6  11
ENDBRANCH   3   5
ENDBRANCH   2   3
ENDBRANCH   1   2
BRANCH   1  33
ATOM     33  C   UNL A   1      32.708  36.464  29.672  1.00  0.00     0.202 C 
BRANCH  33  34
ATOM     34  O   UNL A   1      32.569  36.770  31.059  1.00  0.00    -0.374 OA
BRANCH  34  35
ATOM     35  C   UNL A   1      32.414  35.729  32.018  1.00  0.00     0.202 C 
BRANCH  35  36
ATOM     36  C   UNL A   1      33.659  35.145  32.668  1.00  0.00     0.261 C 
BRANCH  36  37
ATOM     37  O   UNL A   1      33.848  33.786  32.312  1.00  0.00    -0.460 OA
BRANCH  37  38
ATOM     38  C   UNL A   1      34.734  33.139  33.097  1.00  0.00     0.338 C 
ATOM     39  O   UNL A   1      34.903  33.276  34.301  1.00  0.00    -0.246 OA
BRANCH  38  40
ATOM     40  C   UNL A   1      35.606  32.335  32.242  1.00  0.00     0.060 A 
ATOM     41  C   UNL A   1      36.536  31.543  32.917  1.00  0.00     0.016 A 
ATOM     42  C   UNL A   1      35.748  32.682  30.890  1.00  0.00     0.016 A 
ATOM     43  C   UNL A   1      37.757  31.354  32.325  1.00  0.00     0.010 A 
ATOM     44  C   UNL A   1      36.975  32.511  30.309  1.00  0.00     0.010 A 
ATOM     45  C   UNL A   1      37.987  31.942  31.078  1.00  0.00    -0.014 A 
BRANCH  45  46
ATOM     46  C   UNL A   1      39.320  31.857  30.539  1.00  0.00     0.031 A 
ATOM     47  C   UNL A   1      39.554  30.563  29.869  1.00  0.00     0.074 A 
ATOM     48  C   UNL A   1      40.170  32.898  30.580  1.00  0.00     0.049 A 
ATOM     49  N   UNL A   1      40.347  29.614  30.236  1.00  0.00    -0.248 NA
ATOM     50  C   UNL A   1      38.631  30.192  28.780  1.00  0.00     0.031 C 
ATOM     51  C   UNL A   1      39.898  34.280  30.987  1.00  0.00     0.029 A 
ATOM     52  N   UNL A   1      41.459  32.954  30.154  1.00  0.00    -0.354 N 
ATOM     53  C   UNL A   1      40.187  28.621  29.279  1.00  0.00     0.074 A 
ATOM     54  C   UNL A   1      38.980  28.926  28.562  1.00  0.00     0.031 C 
ATOM     55  C   UNL A   1      40.910  35.074  30.567  1.00  0.00     0.029 A 
ATOM     56  C   UNL A   1      41.946  34.244  29.979  1.00  0.00     0.049 A 
ATOM     57  H   UNL A   1      42.001  32.151  29.985  1.00  0.00     0.167 HD
ATOM     58  C   UNL A   1      41.225  27.812  28.944  1.00  0.00     0.037 A 
ATOM     59  C   UNL A   1      43.074  34.567  29.298  1.00  0.00     0.037 A 
ATOM     60  C   UNL A   1      42.221  27.788  29.985  1.00  0.00     0.049 A 
ATOM     61  C   UNL A   1      43.891  33.327  29.181  1.00  0.00     0.074 A 
ATOM     62  C   UNL A   1      42.216  27.438  31.322  1.00  0.00     0.029 A 
ATOM     63  N   UNL A   1      43.358  28.535  29.799  1.00  0.00    -0.354 N 
ATOM     64  N   UNL A   1      44.473  32.746  30.193  1.00  0.00    -0.248 NA
ATOM     65  C   UNL A   1      43.651  32.472  28.026  1.00  0.00     0.031 C 
ATOM     66  C   UNL A   1      43.078  28.378  31.956  1.00  0.00     0.029 A 
ATOM     67  C   UNL A   1      43.612  29.205  30.967  1.00  0.00     0.049 A 
ATOM     68  H   UNL A   1      43.895  28.581  28.975  1.00  0.00     0.167 HD
ATOM     69  C   UNL A   1      44.286  31.387  29.980  1.00  0.00     0.074 A 
ATOM     70  C   UNL A   1      43.835  31.276  28.594  1.00  0.00     0.031 C 
ATOM     71  C   UNL A   1      44.227  30.510  31.024  1.00  0.00     0.037 A 
BRANCH  58  72
ATOM     72  C   UNL A   1      41.523  27.418  27.518  1.00  0.00     0.057 A 
ATOM     73  C   UNL A   1      41.735  26.061  27.226  1.00  0.00     0.134 A 
ATOM     74  C   UNL A   1      41.904  28.316  26.496  1.00  0.00     0.134 A 
ATOM     75  F   UNL A   1      41.426  25.108  28.119  1.00  0.00    -0.206 F 
ATOM     76  C   UNL A   1      42.356  25.638  26.045  1.00  0.00     0.040 A 
ATOM     77  C   UNL A   1      42.472  27.901  25.293  1.00  0.00     0.040 A 
ATOM     78  F   UNL A   1      41.847  29.645  26.635  1.00  0.00    -0.206 F 
ATOM     79  C   UNL A   1      42.735  26.561  25.078  1.00  0.00     0.006 A 
ENDBRANCH  58  72
BRANCH  59  80
ATOM     80  C   UNL A   1      43.320  35.752  28.442  1.00  0.00     0.057 A 
ATOM     81  C   UNL A   1      42.463  36.067  27.378  1.00  0.00     0.134 A 
ATOM     82  C   UNL A   1      44.236  36.754  28.812  1.00  0.00     0.134 A 
ATOM     83  F   UNL A   1      41.525  35.197  26.980  1.00  0.00    -0.206 F 
ATOM     84  C   UNL A   1      42.500  37.312  26.733  1.00  0.00     0.040 A 
ATOM     85  C   UNL A   1      44.289  37.996  28.172  1.00  0.00     0.040 A 
ATOM     86  F   UNL A   1      45.049  36.597  29.865  1.00  0.00    -0.206 F 
ATOM     87  C   UNL A   1      43.409  38.286  27.137  1.00  0.00     0.006 A 
ENDBRANCH  59  80
BRANCH  71  88
ATOM     88  C   UNL A   1      44.611  31.018  32.387  1.00  0.00     0.057 A 
ATOM     89  C   UNL A   1      43.719  31.633  33.279  1.00  0.00     0.134 A 
ATOM     90  C   UNL A   1      45.893  30.733  32.870  1.00  0.00     0.134 A 
ATOM     91  F   UNL A   1      42.443  31.853  32.940  1.00  0.00    -0.206 F 
ATOM     92  C   UNL A   1      44.100  31.985  34.578  1.00  0.00     0.040 A 
ATOM     93  C   UNL A   1      46.276  31.049  34.175  1.00  0.00     0.040 A 
ATOM     94  F   UNL A   1      46.782  30.095  32.092  1.00  0.00    -0.206 F 
ATOM     95  C   UNL A   1      45.382  31.686  35.031  1.00  0.00     0.006 A 
ENDBRANCH  71  88
ENDBRANCH  45  46
ENDBRANCH  38  40
ENDBRANCH  37  38
ENDBRANCH  36  37
ENDBRANCH  35  36
ENDBRANCH  34  35
ENDBRANCH  33  34
ENDBRANCH   1  33
TORSDOF 19
ENDMDL
