MODEL 1
REMARK VINA RESULT:     -12.3      0.000      0.000
REMARK SMILES COc1ccc(/C=C2/C(=O)N(c3ccccc3)C(=O)N=C2OCCOCCOC(=O)c2ccc(-c3c4nc(c(-c5c(F)cccc5F)c5ccc([nH]5)c(-c5c(F)cccc5F)c5nc(c(-c6c(F)cccc6F)c6ccc3[nH]6)C=C5)C=C4)cc2)cc1C(=O)[O-]
REMARK SMILES IDX 26 1 25 2 24 3 23 4 22 5 21 6 7 7 8 8 9 9 10 10 11 11 20 12
REMARK SMILES IDX 18 13 19 14 6 15 3 16 4 17 86 18 5 19 85 20 2 21 1 22 87 23
REMARK SMILES IDX 88 24 89 25 12 26 13 27 17 28 14 29 16 30 15 31 27 32 28 33
REMARK SMILES IDX 29 34 30 35 31 36 32 37 84 38 33 39 83 40 34 41 35 42 36 43
REMARK SMILES IDX 77 44 37 45 82 46 76 47 78 48 38 49 81 50 75 51 74 52 39 54
REMARK SMILES IDX 65 55 48 56 64 57 49 58 52 59 63 60 79 61 50 62 51 63 62 65
REMARK SMILES IDX 80 66 53 67 40 68 41 69 46 70 42 71 43 72 45 73 47 74 44 75
REMARK SMILES IDX 66 76 67 77 72 78 68 79 69 80 71 81 73 82 70 83 54 84 55 85
REMARK SMILES IDX 60 86 56 87 57 88 59 89 61 90 58 91
REMARK H PARENT 78 53 52 64
REMARK Flexibility Score: inf
ROOT
ATOM      1  C   UNL A   1      31.485  28.199  26.280  1.00  0.00     0.202 C 
ENDROOT
BRANCH   1   2
ATOM      2  O   UNL A   1      31.019  27.068  27.017  1.00  0.00    -0.374 OA
BRANCH   2   3
ATOM      3  C   UNL A   1      31.035  25.812  26.336  1.00  0.00     0.202 C 
BRANCH   3   4
ATOM      4  C   UNL A   1      29.675  25.385  25.783  1.00  0.00     0.260 C 
BRANCH   4   5
ATOM      5  O   UNL A   1      29.722  25.412  24.337  1.00  0.00    -0.475 OA
BRANCH   5   6
ATOM      6  C   UNL A   1      29.400  26.553  23.713  1.00  0.00     0.231 C 
ATOM      7  C   UNL A   1      31.805  26.799  22.815  1.00  0.00     0.027 C 
ATOM      8  C   UNL A   1      30.504  27.177  22.967  1.00  0.00     0.103 C 
ATOM      9  C   UNL A   1      30.119  28.521  22.369  1.00  0.00     0.272 C 
ATOM     10  O   UNL A   1      30.918  29.139  21.663  1.00  0.00    -0.268 OA
ATOM     11  N   UNL A   1      28.859  29.004  22.734  1.00  0.00    -0.226 N 
ATOM     12  N   UNL A   1      28.227  27.021  23.871  1.00  0.00    -0.156 NA
ATOM     13  C   UNL A   1      27.881  28.236  23.379  1.00  0.00     0.358 C 
ATOM     14  O   UNL A   1      26.721  28.602  23.506  1.00  0.00    -0.245 OA
BRANCH   7  15
ATOM     15  C   UNL A   1      32.718  25.685  23.246  1.00  0.00    -0.024 A 
ATOM     16  C   UNL A   1      34.264  23.382  24.042  1.00  0.00     0.127 A 
ATOM     17  C   UNL A   1      34.636  24.677  24.399  1.00  0.00     0.048 A 
ATOM     18  C   UNL A   1      33.083  23.221  23.318  1.00  0.00     0.040 A 
ATOM     19  C   UNL A   1      33.858  25.793  24.039  1.00  0.00     0.012 A 
ATOM     20  C   UNL A   1      32.347  24.363  22.903  1.00  0.00     0.022 A 
BRANCH  16  21
ATOM     21  O   UNL A   1      34.977  22.390  24.656  1.00  0.00    -0.496 OA
ATOM     22  C   UNL A   1      34.873  22.354  26.079  1.00  0.00     0.278 C 
ENDBRANCH  16  21
BRANCH  18  23
ATOM     23  C   UNL A   1      32.413  21.918  23.122  1.00  0.00     0.075 C 
ATOM     24  O   UNL A   1      32.148  21.433  22.036  1.00  0.00    -0.545 OA
ATOM     25  O   UNL A   1      32.188  21.239  24.256  1.00  0.00    -0.545 OA
ENDBRANCH  18  23
ENDBRANCH   7  15
BRANCH  11  26
ATOM     26  C   UNL A   1      28.440  30.315  22.332  1.00  0.00     0.054 A 
ATOM     27  C   UNL A   1      28.038  30.538  21.001  1.00  0.00     0.027 A 
ATOM     28  C   UNL A   1      28.582  31.410  23.190  1.00  0.00     0.027 A 
ATOM     29  C   UNL A   1      27.835  31.832  20.523  1.00  0.00     0.002 A 
ATOM     30  C   UNL A   1      28.406  32.708  22.698  1.00  0.00     0.002 A 
ATOM     31  C   UNL A   1      28.042  32.918  21.367  1.00  0.00     0.000 A 
ENDBRANCH  11  26
ENDBRANCH   5   6
ENDBRANCH   4   5
ENDBRANCH   3   4
ENDBRANCH   2   3
ENDBRANCH   1   2
BRANCH   1  32
ATOM     32  C   UNL A   1      31.911  29.398  27.131  1.00  0.00     0.261 C 
BRANCH  32  33
ATOM     33  O   UNL A   1      32.995  30.104  26.504  1.00  0.00    -0.460 OA
BRANCH  33  34
ATOM     34  C   UNL A   1      33.427  31.189  27.189  1.00  0.00     0.338 C 
ATOM     35  O   UNL A   1      32.777  32.169  27.505  1.00  0.00    -0.246 OA
BRANCH  34  36
ATOM     36  C   UNL A   1      34.803  30.960  27.669  1.00  0.00     0.060 A 
ATOM     37  C   UNL A   1      35.204  29.630  27.867  1.00  0.00     0.016 A 
ATOM     38  C   UNL A   1      35.658  32.015  27.991  1.00  0.00     0.016 A 
ATOM     39  C   UNL A   1      36.434  29.352  28.457  1.00  0.00     0.010 A 
ATOM     40  C   UNL A   1      36.887  31.735  28.590  1.00  0.00     0.010 A 
ATOM     41  C   UNL A   1      37.260  30.405  28.863  1.00  0.00    -0.014 A 
BRANCH  41  42
ATOM     42  C   UNL A   1      38.436  30.137  29.724  1.00  0.00     0.031 A 
ATOM     43  C   UNL A   1      39.451  29.129  29.266  1.00  0.00     0.074 A 
ATOM     44  C   UNL A   1      38.582  30.756  30.907  1.00  0.00     0.049 A 
ATOM     45  N   UNL A   1      40.483  28.643  29.905  1.00  0.00    -0.248 NA
ATOM     46  C   UNL A   1      39.276  28.596  27.905  1.00  0.00     0.031 C 
ATOM     47  C   UNL A   1      37.686  31.777  31.444  1.00  0.00     0.029 A 
ATOM     48  N   UNL A   1      39.512  30.564  31.897  1.00  0.00    -0.354 N 
ATOM     49  C   UNL A   1      41.086  27.756  29.023  1.00  0.00     0.074 A 
ATOM     50  C   UNL A   1      40.276  27.732  27.824  1.00  0.00     0.031 C 
ATOM     51  C   UNL A   1      38.059  32.064  32.703  1.00  0.00     0.029 A 
ATOM     52  C   UNL A   1      39.215  31.241  33.054  1.00  0.00     0.049 A 
ATOM     53  H   UNL A   1      40.310  30.000  31.789  1.00  0.00     0.167 HD
ATOM     54  C   UNL A   1      42.227  27.045  29.187  1.00  0.00     0.037 A 
ATOM     55  C   UNL A   1      39.786  31.171  34.270  1.00  0.00     0.037 A 
ATOM     56  C   UNL A   1      43.030  27.073  30.380  1.00  0.00     0.049 A 
ATOM     57  C   UNL A   1      40.991  30.296  34.474  1.00  0.00     0.074 A 
ATOM     58  C   UNL A   1      44.231  26.434  30.628  1.00  0.00     0.029 A 
ATOM     59  N   UNL A   1      42.701  27.770  31.533  1.00  0.00    -0.354 N 
ATOM     60  N   UNL A   1      41.587  29.500  33.619  1.00  0.00    -0.248 NA
ATOM     61  C   UNL A   1      41.615  30.325  35.804  1.00  0.00     0.031 C 
ATOM     62  C   UNL A   1      44.605  26.705  31.950  1.00  0.00     0.029 A 
ATOM     63  C   UNL A   1      43.661  27.553  32.507  1.00  0.00     0.049 A 
ATOM     64  H   UNL A   1      41.903  28.336  31.643  1.00  0.00     0.167 HD
ATOM     65  C   UNL A   1      42.682  28.971  34.291  1.00  0.00     0.074 A 
ATOM     66  C   UNL A   1      42.660  29.526  35.629  1.00  0.00     0.031 C 
ATOM     67  C   UNL A   1      43.631  28.117  33.833  1.00  0.00     0.037 A 
BRANCH  54  68
ATOM     68  C   UNL A   1      42.664  26.173  28.048  1.00  0.00     0.057 A 
ATOM     69  C   UNL A   1      42.166  24.875  27.877  1.00  0.00     0.134 A 
ATOM     70  C   UNL A   1      43.582  26.643  27.101  1.00  0.00     0.134 A 
ATOM     71  F   UNL A   1      41.294  24.360  28.758  1.00  0.00    -0.206 F 
ATOM     72  C   UNL A   1      42.585  24.064  26.821  1.00  0.00     0.040 A 
ATOM     73  C   UNL A   1      43.990  25.851  26.025  1.00  0.00     0.040 A 
ATOM     74  F   UNL A   1      44.097  27.877  27.204  1.00  0.00    -0.206 F 
ATOM     75  C   UNL A   1      43.497  24.555  25.888  1.00  0.00     0.006 A 
ENDBRANCH  54  68
BRANCH  55  76
ATOM     76  C   UNL A   1      39.209  31.945  35.394  1.00  0.00     0.057 A 
ATOM     77  C   UNL A   1      38.318  31.358  36.299  1.00  0.00     0.134 A 
ATOM     78  C   UNL A   1      39.545  33.289  35.592  1.00  0.00     0.134 A 
ATOM     79  F   UNL A   1      37.945  30.080  36.145  1.00  0.00    -0.206 F 
ATOM     80  C   UNL A   1      37.773  32.085  37.359  1.00  0.00     0.040 A 
ATOM     81  C   UNL A   1      39.024  34.022  36.660  1.00  0.00     0.040 A 
ATOM     82  F   UNL A   1      40.395  33.905  34.756  1.00  0.00    -0.206 F 
ATOM     83  C   UNL A   1      38.131  33.419  37.544  1.00  0.00     0.006 A 
ENDBRANCH  55  76
BRANCH  67  84
ATOM     84  C   UNL A   1      44.754  27.774  34.765  1.00  0.00     0.057 A 
ATOM     85  C   UNL A   1      45.935  28.525  34.816  1.00  0.00     0.134 A 
ATOM     86  C   UNL A   1      44.633  26.697  35.653  1.00  0.00     0.134 A 
ATOM     87  F   UNL A   1      46.119  29.560  33.983  1.00  0.00    -0.206 F 
ATOM     88  C   UNL A   1      46.963  28.205  35.705  1.00  0.00     0.040 A 
ATOM     89  C   UNL A   1      45.643  26.382  36.563  1.00  0.00     0.040 A 
ATOM     90  F   UNL A   1      43.524  25.941  35.660  1.00  0.00    -0.206 F 
ATOM     91  C   UNL A   1      46.815  27.136  36.587  1.00  0.00     0.006 A 
ENDBRANCH  67  84
ENDBRANCH  41  42
ENDBRANCH  34  36
ENDBRANCH  33  34
ENDBRANCH  32  33
ENDBRANCH   1  32
TORSDOF 17
ENDMDL
MODEL 2
REMARK VINA RESULT:     -12.3      3.040      6.426
REMARK SMILES COc1ccc(/C=C2/C(=O)N(c3ccccc3)C(=O)N=C2OCCOCCOC(=O)c2ccc(-c3c4nc(c(-c5c(F)cccc5F)c5ccc([nH]5)c(-c5c(F)cccc5F)c5nc(c(-c6c(F)cccc6F)c6ccc3[nH]6)C=C5)C=C4)cc2)cc1C(=O)[O-]
REMARK SMILES IDX 26 1 25 2 24 3 23 4 22 5 21 6 7 7 8 8 9 9 10 10 11 11 20 12
REMARK SMILES IDX 18 13 19 14 6 15 3 16 4 17 86 18 5 19 85 20 2 21 1 22 87 23
REMARK SMILES IDX 88 24 89 25 12 26 13 27 17 28 14 29 16 30 15 31 27 32 28 33
REMARK SMILES IDX 29 34 30 35 31 36 32 37 84 38 33 39 83 40 34 41 35 42 36 43
REMARK SMILES IDX 77 44 37 45 82 46 76 47 78 48 38 49 81 50 75 51 74 52 39 54
REMARK SMILES IDX 65 55 48 56 64 57 49 58 52 59 63 60 79 61 50 62 51 63 62 65
REMARK SMILES IDX 80 66 53 67 40 68 41 69 46 70 42 71 43 72 45 73 47 74 44 75
REMARK SMILES IDX 66 76 67 77 72 78 68 79 69 80 71 81 73 82 70 83 54 84 55 85
REMARK SMILES IDX 60 86 56 87 57 88 59 89 61 90 58 91
REMARK H PARENT 78 53 52 64
REMARK Flexibility Score: inf
ROOT
ATOM      1  C   UNL A   1      32.567  27.153  26.436  1.00  0.00     0.202 C 
ENDROOT
BRANCH   1   2
ATOM      2  O   UNL A   1      31.404  26.451  26.876  1.00  0.00    -0.374 OA
BRANCH   2   3
ATOM      3  C   UNL A   1      31.202  25.145  26.332  1.00  0.00     0.202 C 
BRANCH   3   4
ATOM      4  C   UNL A   1      29.813  24.926  25.734  1.00  0.00     0.260 C 
BRANCH   4   5
ATOM      5  O   UNL A   1      29.893  25.044  24.294  1.00  0.00    -0.475 OA
BRANCH   5   6
ATOM      6  C   UNL A   1      29.572  26.217  23.734  1.00  0.00     0.231 C 
ATOM      7  C   UNL A   1      31.952  26.467  22.773  1.00  0.00     0.027 C 
ATOM      8  C   UNL A   1      30.663  26.858  22.983  1.00  0.00     0.103 C 
ATOM      9  C   UNL A   1      30.283  28.235  22.462  1.00  0.00     0.272 C 
ATOM     10  O   UNL A   1      31.071  28.873  21.760  1.00  0.00    -0.268 OA
ATOM     11  N   UNL A   1      29.044  28.721  22.888  1.00  0.00    -0.226 N 
ATOM     12  N   UNL A   1      28.413  26.697  23.951  1.00  0.00    -0.156 NA
ATOM     13  C   UNL A   1      28.073  27.939  23.528  1.00  0.00     0.358 C 
ATOM     14  O   UNL A   1      26.925  28.317  23.709  1.00  0.00    -0.245 OA
BRANCH   7  15
ATOM     15  C   UNL A   1      32.858  25.319  23.122  1.00  0.00    -0.024 A 
ATOM     16  C   UNL A   1      34.381  22.961  23.789  1.00  0.00     0.127 A 
ATOM     17  C   UNL A   1      34.850  24.242  24.071  1.00  0.00     0.048 A 
ATOM     18  C   UNL A   1      33.119  22.842  23.208  1.00  0.00     0.040 A 
ATOM     19  C   UNL A   1      34.085  25.387  23.777  1.00  0.00     0.012 A 
ATOM     20  C   UNL A   1      32.392  24.010  22.854  1.00  0.00     0.022 A 
BRANCH  16  21
ATOM     21  O   UNL A   1      35.116  21.947  24.339  1.00  0.00    -0.496 OA
ATOM     22  C   UNL A   1      35.177  21.943  25.766  1.00  0.00     0.278 C 
ENDBRANCH  16  21
BRANCH  18  23
ATOM     23  C   UNL A   1      32.373  21.569  23.120  1.00  0.00     0.075 C 
ATOM     24  O   UNL A   1      32.079  21.011  22.078  1.00  0.00    -0.545 OA
ATOM     25  O   UNL A   1      32.110  21.002  24.306  1.00  0.00    -0.545 OA
ENDBRANCH  18  23
ENDBRANCH   7  15
BRANCH  11  26
ATOM     26  C   UNL A   1      28.636  30.055  22.561  1.00  0.00     0.054 A 
ATOM     27  C   UNL A   1      28.199  30.348  21.256  1.00  0.00     0.027 A 
ATOM     28  C   UNL A   1      28.823  31.106  23.465  1.00  0.00     0.027 A 
ATOM     29  C   UNL A   1      28.005  31.667  20.845  1.00  0.00     0.002 A 
ATOM     30  C   UNL A   1      28.655  32.428  23.041  1.00  0.00     0.002 A 
ATOM     31  C   UNL A   1      28.255  32.708  21.733  1.00  0.00     0.000 A 
ENDBRANCH  11  26
ENDBRANCH   5   6
ENDBRANCH   4   5
ENDBRANCH   3   4
ENDBRANCH   2   3
ENDBRANCH   1   2
BRANCH   1  32
ATOM     32  C   UNL A   1      32.905  28.414  27.234  1.00  0.00     0.261 C 
BRANCH  32  33
ATOM     33  O   UNL A   1      34.327  28.627  27.269  1.00  0.00    -0.460 OA
BRANCH  33  34
ATOM     34  C   UNL A   1      34.703  29.820  27.786  1.00  0.00     0.338 C 
ATOM     35  O   UNL A   1      33.995  30.790  27.992  1.00  0.00    -0.246 OA
BRANCH  34  36
ATOM     36  C   UNL A   1      36.103  29.747  28.241  1.00  0.00     0.060 A 
ATOM     37  C   UNL A   1      37.105  29.956  27.282  1.00  0.00     0.016 A 
ATOM     38  C   UNL A   1      36.436  29.409  29.554  1.00  0.00     0.016 A 
ATOM     39  C   UNL A   1      38.442  29.756  27.613  1.00  0.00     0.010 A 
ATOM     40  C   UNL A   1      37.777  29.200  29.882  1.00  0.00     0.010 A 
ATOM     41  C   UNL A   1      38.779  29.331  28.903  1.00  0.00    -0.014 A 
BRANCH  41  42
ATOM     42  C   UNL A   1      40.154  28.861  29.194  1.00  0.00     0.031 A 
ATOM     43  C   UNL A   1      41.149  29.837  29.752  1.00  0.00     0.074 A 
ATOM     44  C   UNL A   1      40.519  27.594  28.938  1.00  0.00     0.049 A 
ATOM     45  N   UNL A   1      42.430  29.686  29.962  1.00  0.00    -0.248 NA
ATOM     46  C   UNL A   1      40.628  31.164  30.119  1.00  0.00     0.031 C 
ATOM     47  C   UNL A   1      39.637  26.545  28.430  1.00  0.00     0.029 A 
ATOM     48  N   UNL A   1      41.751  26.995  29.012  1.00  0.00    -0.354 N 
ATOM     49  C   UNL A   1      42.868  30.892  30.495  1.00  0.00     0.074 A 
ATOM     50  C   UNL A   1      41.726  31.781  30.527  1.00  0.00     0.031 C 
ATOM     51  C   UNL A   1      40.373  25.453  28.158  1.00  0.00     0.029 A 
ATOM     52  C   UNL A   1      41.773  25.735  28.469  1.00  0.00     0.049 A 
ATOM     53  H   UNL A   1      42.539  27.426  29.414  1.00  0.00     0.167 HD
ATOM     54  C   UNL A   1      44.103  31.221  30.941  1.00  0.00     0.037 A 
ATOM     55  C   UNL A   1      42.812  24.919  28.212  1.00  0.00     0.037 A 
ATOM     56  C   UNL A   1      45.234  30.332  30.909  1.00  0.00     0.049 A 
ATOM     57  C   UNL A   1      44.199  25.336  28.614  1.00  0.00     0.074 A 
ATOM     58  C   UNL A   1      46.515  30.547  31.385  1.00  0.00     0.029 A 
ATOM     59  N   UNL A   1      45.222  29.062  30.353  1.00  0.00    -0.354 N 
ATOM     60  N   UNL A   1      44.596  26.458  29.166  1.00  0.00    -0.248 NA
ATOM     61  C   UNL A   1      45.277  24.367  28.379  1.00  0.00     0.031 C 
ATOM     62  C   UNL A   1      47.291  29.425  31.074  1.00  0.00     0.029 A 
ATOM     63  C   UNL A   1      46.480  28.492  30.448  1.00  0.00     0.049 A 
ATOM     64  H   UNL A   1      44.434  28.629  29.951  1.00  0.00     0.167 HD
ATOM     65  C   UNL A   1      45.959  26.310  29.387  1.00  0.00     0.074 A 
ATOM     66  C   UNL A   1      46.323  24.997  28.898  1.00  0.00     0.031 C 
ATOM     67  C   UNL A   1      46.827  27.180  29.962  1.00  0.00     0.037 A 
BRANCH  54  68
ATOM     68  C   UNL A   1      44.290  32.602  31.495  1.00  0.00     0.057 A 
ATOM     69  C   UNL A   1      44.097  32.885  32.853  1.00  0.00     0.134 A 
ATOM     70  C   UNL A   1      44.682  33.658  30.664  1.00  0.00     0.134 A 
ATOM     71  F   UNL A   1      43.707  31.921  33.700  1.00  0.00    -0.206 F 
ATOM     72  C   UNL A   1      44.261  34.175  33.361  1.00  0.00     0.040 A 
ATOM     73  C   UNL A   1      44.874  34.947  31.164  1.00  0.00     0.040 A 
ATOM     74  F   UNL A   1      44.886  33.454  29.353  1.00  0.00    -0.206 F 
ATOM     75  C   UNL A   1      44.656  35.210  32.515  1.00  0.00     0.006 A 
ENDBRANCH  54  68
BRANCH  55  76
ATOM     76  C   UNL A   1      42.574  23.630  27.522  1.00  0.00     0.057 A 
ATOM     77  C   UNL A   1      42.606  23.535  26.128  1.00  0.00     0.134 A 
ATOM     78  C   UNL A   1      42.321  22.459  28.248  1.00  0.00     0.134 A 
ATOM     79  F   UNL A   1      42.824  24.628  25.383  1.00  0.00    -0.206 F 
ATOM     80  C   UNL A   1      42.384  22.321  25.475  1.00  0.00     0.040 A 
ATOM     81  C   UNL A   1      42.117  21.235  27.609  1.00  0.00     0.040 A 
ATOM     82  F   UNL A   1      42.279  22.489  29.588  1.00  0.00    -0.206 F 
ATOM     83  C   UNL A   1      42.144  21.166  26.217  1.00  0.00     0.006 A 
ENDBRANCH  55  76
BRANCH  67  84
ATOM     84  C   UNL A   1      48.242  26.719  30.145  1.00  0.00     0.057 A 
ATOM     85  C   UNL A   1      48.654  26.010  31.280  1.00  0.00     0.134 A 
ATOM     86  C   UNL A   1      49.198  26.955  29.148  1.00  0.00     0.134 A 
ATOM     87  F   UNL A   1      47.790  25.763  32.277  1.00  0.00    -0.206 F 
ATOM     88  C   UNL A   1      49.970  25.568  31.426  1.00  0.00     0.040 A 
ATOM     89  C   UNL A   1      50.511  26.498  29.271  1.00  0.00     0.040 A 
ATOM     90  F   UNL A   1      48.867  27.623  28.032  1.00  0.00    -0.206 F 
ATOM     91  C   UNL A   1      50.901  25.806  30.415  1.00  0.00     0.006 A 
ENDBRANCH  67  84
ENDBRANCH  41  42
ENDBRANCH  34  36
ENDBRANCH  33  34
ENDBRANCH  32  33
ENDBRANCH   1  32
TORSDOF 17
ENDMDL
MODEL 3
REMARK VINA RESULT:     -12.1      4.763     10.222
REMARK SMILES COc1ccc(/C=C2/C(=O)N(c3ccccc3)C(=O)N=C2OCCOCCOC(=O)c2ccc(-c3c4nc(c(-c5c(F)cccc5F)c5ccc([nH]5)c(-c5c(F)cccc5F)c5nc(c(-c6c(F)cccc6F)c6ccc3[nH]6)C=C5)C=C4)cc2)cc1C(=O)[O-]
REMARK SMILES IDX 26 1 25 2 24 3 23 4 22 5 21 6 7 7 8 8 9 9 10 10 11 11 20 12
REMARK SMILES IDX 18 13 19 14 6 15 3 16 4 17 86 18 5 19 85 20 2 21 1 22 87 23
REMARK SMILES IDX 88 24 89 25 12 26 13 27 17 28 14 29 16 30 15 31 27 32 28 33
REMARK SMILES IDX 29 34 30 35 31 36 32 37 84 38 33 39 83 40 34 41 35 42 36 43
REMARK SMILES IDX 77 44 37 45 82 46 76 47 78 48 38 49 81 50 75 51 74 52 39 54
REMARK SMILES IDX 65 55 48 56 64 57 49 58 52 59 63 60 79 61 50 62 51 63 62 65
REMARK SMILES IDX 80 66 53 67 40 68 41 69 46 70 42 71 43 72 45 73 47 74 44 75
REMARK SMILES IDX 66 76 67 77 72 78 68 79 69 80 71 81 73 82 70 83 54 84 55 85
REMARK SMILES IDX 60 86 56 87 57 88 59 89 61 90 58 91
REMARK H PARENT 78 53 52 64
REMARK Flexibility Score: inf
ROOT
ATOM      1  C   UNL A   1      39.130  21.954  25.754  1.00  0.00     0.202 C 
ENDROOT
BRANCH   1   2
ATOM      2  O   UNL A   1      39.027  23.109  26.587  1.00  0.00    -0.374 OA
BRANCH   2   3
ATOM      3  C   UNL A   1      38.020  24.061  26.238  1.00  0.00     0.202 C 
BRANCH   3   4
ATOM      4  C   UNL A   1      37.204  23.680  25.002  1.00  0.00     0.260 C 
BRANCH   4   5
ATOM      5  O   UNL A   1      35.836  23.425  25.397  1.00  0.00    -0.475 OA
BRANCH   5   6
ATOM      6  C   UNL A   1      35.289  22.248  25.065  1.00  0.00     0.231 C 
ATOM      7  C   UNL A   1      33.002  23.368  24.660  1.00  0.00     0.027 C 
ATOM      8  C   UNL A   1      33.865  22.314  24.701  1.00  0.00     0.103 C 
ATOM      9  C   UNL A   1      33.265  20.941  24.439  1.00  0.00     0.272 C 
ATOM     10  O   UNL A   1      32.095  20.836  24.064  1.00  0.00    -0.268 OA
ATOM     11  N   UNL A   1      34.099  19.856  24.717  1.00  0.00    -0.226 N 
ATOM     12  N   UNL A   1      36.004  21.199  25.156  1.00  0.00    -0.156 NA
ATOM     13  C   UNL A   1      35.474  19.966  24.966  1.00  0.00     0.358 C 
ATOM     14  O   UNL A   1      36.225  19.002  25.002  1.00  0.00    -0.245 OA
BRANCH   7  15
ATOM     15  C   UNL A   1      33.013  24.850  24.910  1.00  0.00    -0.024 A 
ATOM     16  C   UNL A   1      33.170  27.721  25.163  1.00  0.00     0.127 A 
ATOM     17  C   UNL A   1      32.948  26.897  26.265  1.00  0.00     0.048 A 
ATOM     18  C   UNL A   1      33.362  27.112  23.923  1.00  0.00     0.040 A 
ATOM     19  C   UNL A   1      32.909  25.496  26.141  1.00  0.00     0.012 A 
ATOM     20  C   UNL A   1      33.250  25.700  23.804  1.00  0.00     0.022 A 
BRANCH  16  21
ATOM     21  O   UNL A   1      33.417  29.032  25.466  1.00  0.00    -0.496 OA
ATOM     22  C   UNL A   1      34.200  29.249  26.639  1.00  0.00     0.278 C 
ENDBRANCH  16  21
BRANCH  18  23
ATOM     23  C   UNL A   1      33.889  27.817  22.736  1.00  0.00     0.075 C 
ATOM     24  O   UNL A   1      34.332  28.952  22.745  1.00  0.00    -0.545 OA
ATOM     25  O   UNL A   1      33.932  27.067  21.625  1.00  0.00    -0.545 OA
ENDBRANCH  18  23
ENDBRANCH   7  15
BRANCH  11  26
ATOM     26  C   UNL A   1      33.601  18.515  24.626  1.00  0.00     0.054 A 
ATOM     27  C   UNL A   1      32.910  17.955  25.718  1.00  0.00     0.027 A 
ATOM     28  C   UNL A   1      33.934  17.695  23.543  1.00  0.00     0.027 A 
ATOM     29  C   UNL A   1      32.605  16.594  25.751  1.00  0.00     0.002 A 
ATOM     30  C   UNL A   1      33.652  16.326  23.593  1.00  0.00     0.002 A 
ATOM     31  C   UNL A   1      32.998  15.776  24.696  1.00  0.00     0.000 A 
ENDBRANCH  11  26
ENDBRANCH   5   6
ENDBRANCH   4   5
ENDBRANCH   3   4
ENDBRANCH   2   3
ENDBRANCH   1   2
BRANCH   1  32
ATOM     32  C   UNL A   1      39.641  20.693  26.454  1.00  0.00     0.261 C 
BRANCH  32  33
ATOM     33  O   UNL A   1      40.459  19.915  25.563  1.00  0.00    -0.460 OA
BRANCH  33  34
ATOM     34  C   UNL A   1      41.658  19.552  26.076  1.00  0.00     0.338 C 
ATOM     35  O   UNL A   1      42.110  18.425  26.170  1.00  0.00    -0.246 OA
BRANCH  34  36
ATOM     36  C   UNL A   1      42.457  20.755  26.374  1.00  0.00     0.060 A 
ATOM     37  C   UNL A   1      42.579  21.132  27.719  1.00  0.00     0.016 A 
ATOM     38  C   UNL A   1      43.012  21.542  25.364  1.00  0.00     0.016 A 
ATOM     39  C   UNL A   1      43.192  22.335  28.056  1.00  0.00     0.010 A 
ATOM     40  C   UNL A   1      43.620  22.752  25.701  1.00  0.00     0.010 A 
ATOM     41  C   UNL A   1      43.674  23.172  27.044  1.00  0.00    -0.014 A 
BRANCH  41  42
ATOM     42  C   UNL A   1      44.084  24.560  27.361  1.00  0.00     0.031 A 
ATOM     43  C   UNL A   1      43.029  25.551  27.762  1.00  0.00     0.074 A 
ATOM     44  C   UNL A   1      45.368  24.941  27.262  1.00  0.00     0.049 A 
ATOM     45  N   UNL A   1      43.134  26.840  27.960  1.00  0.00    -0.248 NA
ATOM     46  C   UNL A   1      41.673  25.016  27.967  1.00  0.00     0.031 C 
ATOM     47  C   UNL A   1      46.486  24.066  26.917  1.00  0.00     0.029 A 
ATOM     48  N   UNL A   1      45.935  26.184  27.384  1.00  0.00    -0.354 N 
ATOM     49  C   UNL A   1      41.863  27.268  28.321  1.00  0.00     0.074 A 
ATOM     50  C   UNL A   1      40.993  26.113  28.264  1.00  0.00     0.031 C 
ATOM     51  C   UNL A   1      47.594  24.813  26.771  1.00  0.00     0.029 A 
ATOM     52  C   UNL A   1      47.255  26.215  27.009  1.00  0.00     0.049 A 
ATOM     53  H   UNL A   1      45.445  26.974  27.708  1.00  0.00     0.167 HD
ATOM     54  C   UNL A   1      41.462  28.508  28.691  1.00  0.00     0.037 A 
ATOM     55  C   UNL A   1      48.083  27.262  26.836  1.00  0.00     0.037 A 
ATOM     56  C   UNL A   1      42.332  29.653  28.747  1.00  0.00     0.049 A 
ATOM     57  C   UNL A   1      47.598  28.650  27.146  1.00  0.00     0.074 A 
ATOM     58  C   UNL A   1      42.039  30.939  29.160  1.00  0.00     0.029 A 
ATOM     59  N   UNL A   1      43.664  29.649  28.361  1.00  0.00    -0.354 N 
ATOM     60  N   UNL A   1      46.409  29.040  27.538  1.00  0.00    -0.248 NA
ATOM     61  C   UNL A   1      48.575  29.739  27.013  1.00  0.00     0.031 C 
ATOM     62  C   UNL A   1      43.182  31.727  28.979  1.00  0.00     0.029 A 
ATOM     63  C   UNL A   1      44.200  30.918  28.498  1.00  0.00     0.049 A 
ATOM     64  H   UNL A   1      44.156  28.860  28.038  1.00  0.00     0.167 HD
ATOM     65  C   UNL A   1      46.507  30.411  27.744  1.00  0.00     0.074 A 
ATOM     66  C   UNL A   1      47.868  30.785  27.420  1.00  0.00     0.031 C 
ATOM     67  C   UNL A   1      45.559  31.276  28.179  1.00  0.00     0.037 A 
BRANCH  54  68
ATOM     68  C   UNL A   1      40.019  28.683  29.056  1.00  0.00     0.057 A 
ATOM     69  C   UNL A   1      39.554  28.462  30.358  1.00  0.00     0.134 A 
ATOM     70  C   UNL A   1      39.084  29.094  28.097  1.00  0.00     0.134 A 
ATOM     71  F   UNL A   1      40.395  28.052  31.320  1.00  0.00    -0.206 F 
ATOM     72  C   UNL A   1      38.206  28.616  30.689  1.00  0.00     0.040 A 
ATOM     73  C   UNL A   1      37.739  29.277  28.422  1.00  0.00     0.040 A 
ATOM     74  F   UNL A   1      39.464  29.326  26.831  1.00  0.00    -0.206 F 
ATOM     75  C   UNL A   1      37.296  29.030  29.720  1.00  0.00     0.006 A 
ENDBRANCH  54  68
BRANCH  55  76
ATOM     76  C   UNL A   1      49.454  27.030  26.325  1.00  0.00     0.057 A 
ATOM     77  C   UNL A   1      50.527  26.814  27.195  1.00  0.00     0.134 A 
ATOM     78  C   UNL A   1      49.718  27.010  24.950  1.00  0.00     0.134 A 
ATOM     79  F   UNL A   1      50.335  26.842  28.522  1.00  0.00    -0.206 F 
ATOM     80  C   UNL A   1      51.820  26.594  26.717  1.00  0.00     0.040 A 
ATOM     81  C   UNL A   1      51.002  26.772  24.458  1.00  0.00     0.040 A 
ATOM     82  F   UNL A   1      48.728  27.211  24.068  1.00  0.00    -0.206 F 
ATOM     83  C   UNL A   1      52.058  26.567  25.344  1.00  0.00     0.006 A 
ENDBRANCH  55  76
BRANCH  67  84
ATOM     84  C   UNL A   1      45.973  32.703  28.386  1.00  0.00     0.057 A 
ATOM     85  C   UNL A   1      46.511  33.154  29.598  1.00  0.00     0.134 A 
ATOM     86  C   UNL A   1      45.867  33.629  27.340  1.00  0.00     0.134 A 
ATOM     87  F   UNL A   1      46.626  32.320  30.642  1.00  0.00    -0.206 F 
ATOM     88  C   UNL A   1      46.912  34.480  29.768  1.00  0.00     0.040 A 
ATOM     89  C   UNL A   1      46.287  34.952  27.490  1.00  0.00     0.040 A 
ATOM     90  F   UNL A   1      45.366  33.260  26.152  1.00  0.00    -0.206 F 
ATOM     91  C   UNL A   1      46.807  35.381  28.709  1.00  0.00     0.006 A 
ENDBRANCH  67  84
ENDBRANCH  41  42
ENDBRANCH  34  36
ENDBRANCH  33  34
ENDBRANCH  32  33
ENDBRANCH   1  32
TORSDOF 17
ENDMDL
