MODEL 1
REMARK VINA RESULT:     -10.4      0.000      0.000
REMARK SMILES CSc1nc2nnc(C(=O)OCCOCCOC(=O)c3ccc(-c4c5nc(c(-c6c(F)cccc6F)c6ccc([nH]6)c(-c6c(F)cccc6F)c6nc(c(-c7c(F)cccc7F)c7ccc4[nH]7)C=C6)C=C5)cc3)c(O)n2n1
REMARK SMILES IDX 15 1 14 2 13 3 12 4 11 5 9 6 10 7 8 8 3 9 4 10 77 11 5 12
REMARK SMILES IDX 76 13 6 14 74 15 7 16 2 17 1 18 75 19 16 21 17 22 18 23
REMARK SMILES IDX 19 24 20 25 21 26 73 27 22 28 72 29 23 30 24 31 25 32 66 33
REMARK SMILES IDX 26 34 71 35 65 36 67 37 27 38 70 39 64 40 63 41 28 43 54 44
REMARK SMILES IDX 37 45 53 46 38 47 41 48 52 49 68 50 39 51 40 52 51 54 69 55
REMARK SMILES IDX 42 56 29 57 30 58 35 59 31 60 32 61 34 62 36 63 33 64 55 65
REMARK SMILES IDX 56 66 61 67 57 68 58 69 60 70 62 71 59 72 43 73 44 74 49 75
REMARK SMILES IDX 45 76 46 77 48 78 50 79 47 80
REMARK H PARENT 75 20 67 42 41 53
REMARK Flexibility Score: inf
ROOT
ATOM      1  C   UNL A   1      33.366  35.444  28.912  1.00  0.00     0.202 C 
ENDROOT
BRANCH   1   2
ATOM      2  O   UNL A   1      33.185  34.035  28.821  1.00  0.00    -0.374 OA
BRANCH   2   3
ATOM      3  C   UNL A   1      34.209  33.251  28.206  1.00  0.00     0.202 C 
BRANCH   3   4
ATOM      4  C   UNL A   1      34.027  31.731  28.256  1.00  0.00     0.261 C 
BRANCH   4   5
ATOM      5  O   UNL A   1      33.674  31.176  26.976  1.00  0.00    -0.458 OA
BRANCH   5   6
ATOM      6  C   UNL A   1      32.359  30.872  26.843  1.00  0.00     0.364 C 
ATOM      7  O   UNL A   1      31.439  31.676  26.753  1.00  0.00    -0.244 OA
BRANCH   6   8
ATOM      8  C   UNL A   1      32.155  29.427  26.582  1.00  0.00     0.232 A 
ATOM      9  C   UNL A   1      32.135  25.692  24.373  1.00  0.00     0.210 A 
ATOM     10  N   UNL A   1      31.554  25.617  25.607  1.00  0.00    -0.182 NA
ATOM     11  N   UNL A   1      32.700  26.860  24.078  1.00  0.00    -0.134 NA
ATOM     12  C   UNL A   1      31.729  26.826  26.100  1.00  0.00     0.275 A 
ATOM     13  N   UNL A   1      32.395  27.605  25.163  1.00  0.00    -0.159 N 
ATOM     14  N   UNL A   1      31.354  27.381  27.293  1.00  0.00    -0.108 NA
ATOM     15  C   UNL A   1      32.619  28.957  25.404  1.00  0.00     0.251 A 
ATOM     16  N   UNL A   1      31.559  28.610  27.527  1.00  0.00    -0.134 NA
BRANCH   9  17
ATOM     17  S   UNL A   1      32.114  24.362  23.245  1.00  0.00    -0.088 SA
ATOM     18  C   UNL A   1      33.878  23.980  23.121  1.00  0.00     0.094 C 
ENDBRANCH   9  17
BRANCH  15  19
ATOM     19  O   UNL A   1      33.282  29.707  24.440  1.00  0.00    -0.491 OA
ATOM     20  H   UNL A   1      34.142  30.037  24.613  1.00  0.00     0.295 HD
ENDBRANCH  15  19
ENDBRANCH   6   8
ENDBRANCH   5   6
ENDBRANCH   4   5
ENDBRANCH   3   4
ENDBRANCH   2   3
ENDBRANCH   1   2
BRANCH   1  21
ATOM     21  C   UNL A   1      32.861  36.152  30.159  1.00  0.00     0.261 C 
BRANCH  21  22
ATOM     22  O   UNL A   1      32.537  35.244  31.204  1.00  0.00    -0.460 OA
BRANCH  22  23
ATOM     23  C   UNL A   1      33.132  35.524  32.379  1.00  0.00     0.338 C 
ATOM     24  O   UNL A   1      32.838  36.429  33.159  1.00  0.00    -0.246 OA
BRANCH  23  25
ATOM     25  C   UNL A   1      34.311  34.672  32.535  1.00  0.00     0.060 A 
ATOM     26  C   UNL A   1      35.532  35.317  32.739  1.00  0.00     0.016 A 
ATOM     27  C   UNL A   1      34.240  33.291  32.284  1.00  0.00     0.016 A 
ATOM     28  C   UNL A   1      36.697  34.603  32.557  1.00  0.00     0.010 A 
ATOM     29  C   UNL A   1      35.406  32.580  32.093  1.00  0.00     0.010 A 
ATOM     30  C   UNL A   1      36.620  33.257  32.181  1.00  0.00    -0.014 A 
BRANCH  30  31
ATOM     31  C   UNL A   1      37.870  32.555  31.985  1.00  0.00     0.031 A 
ATOM     32  C   UNL A   1      38.722  32.490  33.194  1.00  0.00     0.074 A 
ATOM     33  C   UNL A   1      38.193  31.938  30.835  1.00  0.00     0.049 A 
ATOM     34  N   UNL A   1      39.900  32.990  33.364  1.00  0.00    -0.248 NA
ATOM     35  C   UNL A   1      38.135  31.891  34.402  1.00  0.00     0.031 C 
ATOM     36  C   UNL A   1      37.328  31.668  29.687  1.00  0.00     0.029 A 
ATOM     37  N   UNL A   1      39.364  31.331  30.500  1.00  0.00    -0.354 N 
ATOM     38  C   UNL A   1      40.285  32.608  34.645  1.00  0.00     0.074 A 
ATOM     39  C   UNL A   1      39.114  32.072  35.287  1.00  0.00     0.031 C 
ATOM     40  C   UNL A   1      37.943  30.781  28.872  1.00  0.00     0.029 A 
ATOM     41  C   UNL A   1      39.282  30.523  29.378  1.00  0.00     0.049 A 
ATOM     42  H   UNL A   1      40.197  31.456  31.010  1.00  0.00     0.167 HD
ATOM     43  C   UNL A   1      41.596  32.542  34.994  1.00  0.00     0.037 A 
ATOM     44  C   UNL A   1      40.229  29.658  28.945  1.00  0.00     0.037 A 
ATOM     45  C   UNL A   1      42.412  33.348  34.124  1.00  0.00     0.049 A 
ATOM     46  C   UNL A   1      41.518  30.055  29.559  1.00  0.00     0.074 A 
ATOM     47  C   UNL A   1      42.476  34.691  33.811  1.00  0.00     0.029 A 
ATOM     48  N   UNL A   1      43.142  32.698  33.162  1.00  0.00    -0.354 N 
ATOM     49  N   UNL A   1      42.187  31.128  29.247  1.00  0.00    -0.248 NA
ATOM     50  C   UNL A   1      41.919  29.412  30.803  1.00  0.00     0.031 C 
ATOM     51  C   UNL A   1      42.883  34.742  32.446  1.00  0.00     0.029 A 
ATOM     52  C   UNL A   1      43.068  33.429  32.007  1.00  0.00     0.049 A 
ATOM     53  H   UNL A   1      43.633  31.853  33.281  1.00  0.00     0.167 HD
ATOM     54  C   UNL A   1      42.787  31.527  30.431  1.00  0.00     0.074 A 
ATOM     55  C   UNL A   1      42.709  30.364  31.305  1.00  0.00     0.031 C 
ATOM     56  C   UNL A   1      43.030  32.845  30.684  1.00  0.00     0.037 A 
BRANCH  43  57
ATOM     57  C   UNL A   1      42.170  31.450  35.866  1.00  0.00     0.057 A 
ATOM     58  C   UNL A   1      42.987  31.803  36.956  1.00  0.00     0.134 A 
ATOM     59  C   UNL A   1      42.204  30.083  35.516  1.00  0.00     0.134 A 
ATOM     60  F   UNL A   1      43.060  33.074  37.380  1.00  0.00    -0.206 F 
ATOM     61  C   UNL A   1      43.830  30.884  37.592  1.00  0.00     0.040 A 
ATOM     62  C   UNL A   1      43.001  29.147  36.180  1.00  0.00     0.040 A 
ATOM     63  F   UNL A   1      41.553  29.593  34.455  1.00  0.00    -0.206 F 
ATOM     64  C   UNL A   1      43.843  29.552  37.200  1.00  0.00     0.006 A 
ENDBRANCH  43  57
BRANCH  44  65
ATOM     65  C   UNL A   1      40.066  28.370  28.233  1.00  0.00     0.057 A 
ATOM     66  C   UNL A   1      40.668  28.161  26.982  1.00  0.00     0.134 A 
ATOM     67  C   UNL A   1      39.558  27.223  28.870  1.00  0.00     0.134 A 
ATOM     68  F   UNL A   1      41.212  29.184  26.308  1.00  0.00    -0.206 F 
ATOM     69  C   UNL A   1      40.793  26.886  26.417  1.00  0.00     0.040 A 
ATOM     70  C   UNL A   1      39.664  25.946  28.309  1.00  0.00     0.040 A 
ATOM     71  F   UNL A   1      39.023  27.286  30.097  1.00  0.00    -0.206 F 
ATOM     72  C   UNL A   1      40.301  25.771  27.088  1.00  0.00     0.006 A 
ENDBRANCH  44  65
BRANCH  56  73
ATOM     73  C   UNL A   1      42.985  33.802  29.527  1.00  0.00     0.057 A 
ATOM     74  C   UNL A   1      41.867  34.579  29.190  1.00  0.00     0.134 A 
ATOM     75  C   UNL A   1      44.167  34.050  28.819  1.00  0.00     0.134 A 
ATOM     76  F   UNL A   1      40.719  34.479  29.874  1.00  0.00    -0.206 F 
ATOM     77  C   UNL A   1      41.916  35.531  28.166  1.00  0.00     0.040 A 
ATOM     78  C   UNL A   1      44.239  35.024  27.821  1.00  0.00     0.040 A 
ATOM     79  F   UNL A   1      45.292  33.382  29.125  1.00  0.00    -0.206 F 
ATOM     80  C   UNL A   1      43.108  35.762  27.484  1.00  0.00     0.006 A 
ENDBRANCH  56  73
ENDBRANCH  30  31
ENDBRANCH  23  25
ENDBRANCH  22  23
ENDBRANCH  21  22
ENDBRANCH   1  21
TORSDOF 16
ENDMDL
MODEL 2
REMARK VINA RESULT:     -10.4      4.968     10.064
REMARK SMILES CSc1nc2nnc(C(=O)OCCOCCOC(=O)c3ccc(-c4c5nc(c(-c6c(F)cccc6F)c6ccc([nH]6)c(-c6c(F)cccc6F)c6nc(c(-c7c(F)cccc7F)c7ccc4[nH]7)C=C6)C=C5)cc3)c(O)n2n1
REMARK SMILES IDX 15 1 14 2 13 3 12 4 11 5 9 6 10 7 8 8 3 9 4 10 77 11 5 12
REMARK SMILES IDX 76 13 6 14 74 15 7 16 2 17 1 18 75 19 16 21 17 22 18 23
REMARK SMILES IDX 19 24 20 25 21 26 73 27 22 28 72 29 23 30 24 31 25 32 66 33
REMARK SMILES IDX 26 34 71 35 65 36 67 37 27 38 70 39 64 40 63 41 28 43 54 44
REMARK SMILES IDX 37 45 53 46 38 47 41 48 52 49 68 50 39 51 40 52 51 54 69 55
REMARK SMILES IDX 42 56 29 57 30 58 35 59 31 60 32 61 34 62 36 63 33 64 55 65
REMARK SMILES IDX 56 66 61 67 57 68 58 69 60 70 62 71 59 72 43 73 44 74 49 75
REMARK SMILES IDX 45 76 46 77 48 78 50 79 47 80
REMARK H PARENT 75 20 67 42 41 53
REMARK Flexibility Score: inf
ROOT
ATOM      1  C   UNL A   1      41.540  20.115  26.881  1.00  0.00     0.202 C 
ENDROOT
BRANCH   1   2
ATOM      2  O   UNL A   1      40.489  20.582  26.041  1.00  0.00    -0.374 OA
BRANCH   2   3
ATOM      3  C   UNL A   1      40.021  21.920  26.209  1.00  0.00     0.202 C 
BRANCH   3   4
ATOM      4  C   UNL A   1      38.507  22.132  26.104  1.00  0.00     0.261 C 
BRANCH   4   5
ATOM      5  O   UNL A   1      38.005  21.878  24.780  1.00  0.00    -0.458 OA
BRANCH   5   6
ATOM      6  C   UNL A   1      36.725  21.435  24.743  1.00  0.00     0.364 C 
ATOM      7  O   UNL A   1      36.336  20.323  25.081  1.00  0.00    -0.244 OA
BRANCH   6   8
ATOM      8  C   UNL A   1      35.773  22.536  24.457  1.00  0.00     0.232 A 
ATOM      9  C   UNL A   1      32.606  25.415  25.171  1.00  0.00     0.210 A 
ATOM     10  N   UNL A   1      33.037  25.365  23.876  1.00  0.00    -0.182 NA
ATOM     11  N   UNL A   1      33.281  24.652  26.027  1.00  0.00    -0.134 NA
ATOM     12  C   UNL A   1      34.017  24.486  23.914  1.00  0.00     0.275 A 
ATOM     13  N   UNL A   1      34.152  24.015  25.215  1.00  0.00    -0.159 N 
ATOM     14  N   UNL A   1      34.832  23.992  22.932  1.00  0.00    -0.108 NA
ATOM     15  C   UNL A   1      35.060  23.002  25.505  1.00  0.00     0.251 A 
ATOM     16  N   UNL A   1      35.668  23.074  23.187  1.00  0.00    -0.134 NA
BRANCH   9  17
ATOM     17  S   UNL A   1      31.245  26.385  25.668  1.00  0.00    -0.088 SA
ATOM     18  C   UNL A   1      30.366  26.585  24.100  1.00  0.00     0.094 C 
ENDBRANCH   9  17
BRANCH  15  19
ATOM     19  O   UNL A   1      35.162  22.552  26.816  1.00  0.00    -0.491 OA
ATOM     20  H   UNL A   1      34.906  23.111  27.524  1.00  0.00     0.295 HD
ENDBRANCH  15  19
ENDBRANCH   6   8
ENDBRANCH   5   6
ENDBRANCH   4   5
ENDBRANCH   3   4
ENDBRANCH   2   3
ENDBRANCH   1   2
BRANCH   1  21
ATOM     21  C   UNL A   1      42.717  19.406  26.229  1.00  0.00     0.261 C 
BRANCH  21  22
ATOM     22  O   UNL A   1      43.111  20.020  25.008  1.00  0.00    -0.460 OA
BRANCH  22  23
ATOM     23  C   UNL A   1      44.362  20.520  25.025  1.00  0.00     0.338 C 
ATOM     24  O   UNL A   1      45.410  19.891  24.895  1.00  0.00    -0.246 OA
BRANCH  23  25
ATOM     25  C   UNL A   1      44.307  21.939  25.378  1.00  0.00     0.060 A 
ATOM     26  C   UNL A   1      45.050  22.339  26.491  1.00  0.00     0.016 A 
ATOM     27  C   UNL A   1      43.391  22.802  24.755  1.00  0.00     0.016 A 
ATOM     28  C   UNL A   1      44.777  23.563  27.064  1.00  0.00     0.010 A 
ATOM     29  C   UNL A   1      43.112  24.022  25.334  1.00  0.00     0.010 A 
ATOM     30  C   UNL A   1      43.772  24.366  26.512  1.00  0.00    -0.014 A 
BRANCH  30  31
ATOM     31  C   UNL A   1      43.511  25.633  27.159  1.00  0.00     0.031 A 
ATOM     32  C   UNL A   1      44.531  26.670  26.889  1.00  0.00     0.074 A 
ATOM     33  C   UNL A   1      42.397  25.878  27.870  1.00  0.00     0.049 A 
ATOM     34  N   UNL A   1      45.311  27.259  27.733  1.00  0.00    -0.248 NA
ATOM     35  C   UNL A   1      44.793  27.010  25.481  1.00  0.00     0.031 C 
ATOM     36  C   UNL A   1      41.189  25.058  27.959  1.00  0.00     0.029 A 
ATOM     37  N   UNL A   1      42.083  26.985  28.597  1.00  0.00    -0.354 N 
ATOM     38  C   UNL A   1      46.037  28.182  26.989  1.00  0.00     0.074 A 
ATOM     39  C   UNL A   1      45.792  27.882  25.603  1.00  0.00     0.031 C 
ATOM     40  C   UNL A   1      40.203  25.787  28.530  1.00  0.00     0.029 A 
ATOM     41  C   UNL A   1      40.746  27.067  28.954  1.00  0.00     0.049 A 
ATOM     42  H   UNL A   1      42.747  27.668  28.847  1.00  0.00     0.167 HD
ATOM     43  C   UNL A   1      46.595  29.274  27.574  1.00  0.00     0.037 A 
ATOM     44  C   UNL A   1      40.129  28.143  29.496  1.00  0.00     0.037 A 
ATOM     45  C   UNL A   1      46.768  29.079  28.990  1.00  0.00     0.049 A 
ATOM     46  C   UNL A   1      41.174  29.017  30.080  1.00  0.00     0.074 A 
ATOM     47  C   UNL A   1      47.476  28.191  29.775  1.00  0.00     0.029 A 
ATOM     48  N   UNL A   1      45.873  29.696  29.826  1.00  0.00    -0.354 N 
ATOM     49  N   UNL A   1      41.869  28.731  31.145  1.00  0.00    -0.248 NA
ATOM     50  C   UNL A   1      41.705  30.102  29.265  1.00  0.00     0.031 C 
ATOM     51  C   UNL A   1      46.688  28.013  30.949  1.00  0.00     0.029 A 
ATOM     52  C   UNL A   1      45.554  28.819  30.828  1.00  0.00     0.049 A 
ATOM     53  H   UNL A   1      45.521  30.609  29.724  1.00  0.00     0.167 HD
ATOM     54  C   UNL A   1      43.115  29.292  30.914  1.00  0.00     0.074 A 
ATOM     55  C   UNL A   1      42.909  30.238  29.826  1.00  0.00     0.031 C 
ATOM     56  C   UNL A   1      44.244  28.730  31.434  1.00  0.00     0.037 A 
BRANCH  43  57
ATOM     57  C   UNL A   1      46.615  30.642  26.933  1.00  0.00     0.057 A 
ATOM     58  C   UNL A   1      47.818  31.372  26.917  1.00  0.00     0.134 A 
ATOM     59  C   UNL A   1      45.463  31.386  26.604  1.00  0.00     0.134 A 
ATOM     60  F   UNL A   1      48.985  30.786  27.228  1.00  0.00    -0.206 F 
ATOM     61  C   UNL A   1      47.858  32.749  26.672  1.00  0.00     0.040 A 
ATOM     62  C   UNL A   1      45.499  32.751  26.305  1.00  0.00     0.040 A 
ATOM     63  F   UNL A   1      44.230  30.869  26.651  1.00  0.00    -0.206 F 
ATOM     64  C   UNL A   1      46.694  33.445  26.371  1.00  0.00     0.006 A 
ENDBRANCH  43  57
BRANCH  44  65
ATOM     65  C   UNL A   1      38.728  28.597  29.340  1.00  0.00     0.057 A 
ATOM     66  C   UNL A   1      37.864  28.648  30.445  1.00  0.00     0.134 A 
ATOM     67  C   UNL A   1      38.280  29.250  28.178  1.00  0.00     0.134 A 
ATOM     68  F   UNL A   1      38.213  28.085  31.610  1.00  0.00    -0.206 F 
ATOM     69  C   UNL A   1      36.647  29.340  30.410  1.00  0.00     0.040 A 
ATOM     70  C   UNL A   1      37.060  29.932  28.125  1.00  0.00     0.040 A 
ATOM     71  F   UNL A   1      39.047  29.328  27.081  1.00  0.00    -0.206 F 
ATOM     72  C   UNL A   1      36.248  29.996  29.250  1.00  0.00     0.006 A 
ENDBRANCH  44  65
BRANCH  56  73
ATOM     73  C   UNL A   1      44.083  27.733  32.546  1.00  0.00     0.057 A 
ATOM     74  C   UNL A   1      44.010  26.345  32.356  1.00  0.00     0.134 A 
ATOM     75  C   UNL A   1      44.152  28.190  33.868  1.00  0.00     0.134 A 
ATOM     76  F   UNL A   1      44.036  25.809  31.129  1.00  0.00    -0.206 F 
ATOM     77  C   UNL A   1      43.967  25.458  33.437  1.00  0.00     0.040 A 
ATOM     78  C   UNL A   1      44.148  27.312  34.954  1.00  0.00     0.040 A 
ATOM     79  F   UNL A   1      44.277  29.503  34.125  1.00  0.00    -0.206 F 
ATOM     80  C   UNL A   1      44.045  25.940  34.741  1.00  0.00     0.006 A 
ENDBRANCH  56  73
ENDBRANCH  30  31
ENDBRANCH  23  25
ENDBRANCH  22  23
ENDBRANCH  21  22
ENDBRANCH   1  21
TORSDOF 16
ENDMDL
MODEL 3
REMARK VINA RESULT:     -10.3      4.560      7.055
REMARK SMILES CSc1nc2nnc(C(=O)OCCOCCOC(=O)c3ccc(-c4c5nc(c(-c6c(F)cccc6F)c6ccc([nH]6)c(-c6c(F)cccc6F)c6nc(c(-c7c(F)cccc7F)c7ccc4[nH]7)C=C6)C=C5)cc3)c(O)n2n1
REMARK SMILES IDX 15 1 14 2 13 3 12 4 11 5 9 6 10 7 8 8 3 9 4 10 77 11 5 12
REMARK SMILES IDX 76 13 6 14 74 15 7 16 2 17 1 18 75 19 16 21 17 22 18 23
REMARK SMILES IDX 19 24 20 25 21 26 73 27 22 28 72 29 23 30 24 31 25 32 66 33
REMARK SMILES IDX 26 34 71 35 65 36 67 37 27 38 70 39 64 40 63 41 28 43 54 44
REMARK SMILES IDX 37 45 53 46 38 47 41 48 52 49 68 50 39 51 40 52 51 54 69 55
REMARK SMILES IDX 42 56 29 57 30 58 35 59 31 60 32 61 34 62 36 63 33 64 55 65
REMARK SMILES IDX 56 66 61 67 57 68 58 69 60 70 62 71 59 72 43 73 44 74 49 75
REMARK SMILES IDX 45 76 46 77 48 78 50 79 47 80
REMARK H PARENT 75 20 67 42 41 53
REMARK Flexibility Score: inf
ROOT
ATOM      1  C   UNL A   1      33.540  33.477  28.006  1.00  0.00     0.202 C 
ENDROOT
BRANCH   1   2
ATOM      2  O   UNL A   1      33.423  34.212  29.220  1.00  0.00    -0.374 OA
BRANCH   2   3
ATOM      3  C   UNL A   1      33.651  35.621  29.193  1.00  0.00     0.202 C 
BRANCH   3   4
ATOM      4  C   UNL A   1      32.524  36.505  29.736  1.00  0.00     0.261 C 
BRANCH   4   5
ATOM      5  O   UNL A   1      32.819  37.037  31.040  1.00  0.00    -0.458 OA
BRANCH   5   6
ATOM      6  C   UNL A   1      32.257  36.349  32.064  1.00  0.00     0.364 C 
ATOM      7  O   UNL A   1      31.079  36.385  32.397  1.00  0.00    -0.244 OA
BRANCH   6   8
ATOM      8  C   UNL A   1      33.191  35.341  32.623  1.00  0.00     0.232 A 
ATOM      9  C   UNL A   1      36.914  33.683  34.113  1.00  0.00     0.210 A 
ATOM     10  N   UNL A   1      35.909  32.769  33.974  1.00  0.00    -0.182 NA
ATOM     11  N   UNL A   1      36.575  34.946  33.866  1.00  0.00    -0.134 NA
ATOM     12  C   UNL A   1      34.887  33.498  33.576  1.00  0.00     0.275 A 
ATOM     13  N   UNL A   1      35.290  34.823  33.470  1.00  0.00    -0.159 N 
ATOM     14  N   UNL A   1      33.602  33.157  33.252  1.00  0.00    -0.108 NA
ATOM     15  C   UNL A   1      34.417  35.787  32.974  1.00  0.00     0.251 A 
ATOM     16  N   UNL A   1      32.795  34.028  32.806  1.00  0.00    -0.134 NA
BRANCH   9  17
ATOM     17  S   UNL A   1      38.539  33.229  34.552  1.00  0.00    -0.088 SA
ATOM     18  C   UNL A   1      38.273  31.563  35.204  1.00  0.00     0.094 C 
ENDBRANCH   9  17
BRANCH  15  19
ATOM     19  O   UNL A   1      34.858  37.101  32.877  1.00  0.00    -0.491 OA
ATOM     20  H   UNL A   1      34.374  37.720  32.366  1.00  0.00     0.295 HD
ENDBRANCH  15  19
ENDBRANCH   6   8
ENDBRANCH   5   6
ENDBRANCH   4   5
ENDBRANCH   3   4
ENDBRANCH   2   3
ENDBRANCH   1   2
BRANCH   1  21
ATOM     21  C   UNL A   1      34.098  32.065  28.073  1.00  0.00     0.261 C 
BRANCH  21  22
ATOM     22  O   UNL A   1      35.519  32.045  28.132  1.00  0.00    -0.460 OA
BRANCH  22  23
ATOM     23  C   UNL A   1      36.014  31.742  29.348  1.00  0.00     0.338 C 
ATOM     24  O   UNL A   1      35.629  32.178  30.431  1.00  0.00    -0.246 OA
BRANCH  23  25
ATOM     25  C   UNL A   1      37.207  30.911  29.186  1.00  0.00     0.060 A 
ATOM     26  C   UNL A   1      37.000  29.545  28.983  1.00  0.00     0.016 A 
ATOM     27  C   UNL A   1      38.488  31.433  29.433  1.00  0.00     0.016 A 
ATOM     28  C   UNL A   1      38.060  28.681  29.159  1.00  0.00     0.010 A 
ATOM     29  C   UNL A   1      39.545  30.567  29.618  1.00  0.00     0.010 A 
ATOM     30  C   UNL A   1      39.306  29.198  29.530  1.00  0.00    -0.014 A 
BRANCH  30  31
ATOM     31  C   UNL A   1      40.383  28.250  29.721  1.00  0.00     0.031 A 
ATOM     32  C   UNL A   1      40.902  28.197  31.106  1.00  0.00     0.074 A 
ATOM     33  C   UNL A   1      40.815  27.425  28.752  1.00  0.00     0.049 A 
ATOM     34  N   UNL A   1      42.091  28.483  31.521  1.00  0.00    -0.248 NA
ATOM     35  C   UNL A   1      39.939  27.899  32.178  1.00  0.00     0.031 C 
ATOM     36  C   UNL A   1      40.196  27.164  27.452  1.00  0.00     0.029 A 
ATOM     37  N   UNL A   1      41.869  26.565  28.780  1.00  0.00    -0.354 N 
ATOM     38  C   UNL A   1      42.082  28.221  32.887  1.00  0.00     0.074 A 
ATOM     39  C   UNL A   1      40.707  28.015  33.259  1.00  0.00     0.031 C 
ATOM     40  C   UNL A   1      40.770  26.069  26.904  1.00  0.00     0.029 A 
ATOM     41  C   UNL A   1      41.868  25.635  27.752  1.00  0.00     0.049 A 
ATOM     42  H   UNL A   1      42.571  26.600  29.470  1.00  0.00     0.167 HD
ATOM     43  C   UNL A   1      43.232  27.957  33.560  1.00  0.00     0.037 A 
ATOM     44  C   UNL A   1      42.675  24.552  27.653  1.00  0.00     0.037 A 
ATOM     45  C   UNL A   1      44.380  28.460  32.853  1.00  0.00     0.049 A 
ATOM     46  C   UNL A   1      43.846  24.781  28.534  1.00  0.00     0.074 A 
ATOM     47  C   UNL A   1      44.807  29.708  32.444  1.00  0.00     0.029 A 
ATOM     48  N   UNL A   1      45.148  27.552  32.170  1.00  0.00    -0.354 N 
ATOM     49  N   UNL A   1      44.788  25.650  28.303  1.00  0.00    -0.248 NA
ATOM     50  C   UNL A   1      43.803  24.257  29.893  1.00  0.00     0.031 C 
ATOM     51  C   UNL A   1      45.514  29.485  31.227  1.00  0.00     0.029 A 
ATOM     52  C   UNL A   1      45.502  28.112  30.971  1.00  0.00     0.049 A 
ATOM     53  H   UNL A   1      45.402  26.655  32.486  1.00  0.00     0.167 HD
ATOM     54  C   UNL A   1      45.175  26.093  29.558  1.00  0.00     0.074 A 
ATOM     55  C   UNL A   1      44.648  25.103  30.487  1.00  0.00     0.031 C 
ATOM     56  C   UNL A   1      45.638  27.363  29.741  1.00  0.00     0.037 A 
BRANCH  43  57
ATOM     57  C   UNL A   1      43.338  26.911  34.645  1.00  0.00     0.057 A 
ATOM     58  C   UNL A   1      43.339  25.551  34.286  1.00  0.00     0.134 A 
ATOM     59  C   UNL A   1      43.143  27.164  36.020  1.00  0.00     0.134 A 
ATOM     60  F   UNL A   1      43.497  25.175  33.008  1.00  0.00    -0.206 F 
ATOM     61  C   UNL A   1      43.083  24.530  35.209  1.00  0.00     0.040 A 
ATOM     62  C   UNL A   1      42.941  26.148  36.958  1.00  0.00     0.040 A 
ATOM     63  F   UNL A   1      43.033  28.400  36.519  1.00  0.00    -0.206 F 
ATOM     64  C   UNL A   1      42.877  24.828  36.550  1.00  0.00     0.006 A 
ENDBRANCH  43  57
BRANCH  44  65
ATOM     65  C   UNL A   1      42.400  23.231  27.045  1.00  0.00     0.057 A 
ATOM     66  C   UNL A   1      43.335  22.626  26.191  1.00  0.00     0.134 A 
ATOM     67  C   UNL A   1      41.354  22.405  27.495  1.00  0.00     0.134 A 
ATOM     68  F   UNL A   1      44.387  23.319  25.733  1.00  0.00    -0.206 F 
ATOM     69  C   UNL A   1      43.258  21.274  25.836  1.00  0.00     0.040 A 
ATOM     70  C   UNL A   1      41.258  21.056  27.137  1.00  0.00     0.040 A 
ATOM     71  F   UNL A   1      40.440  22.850  28.369  1.00  0.00    -0.206 F 
ATOM     72  C   UNL A   1      42.222  20.481  26.321  1.00  0.00     0.006 A 
ENDBRANCH  44  65
BRANCH  56  73
ATOM     73  C   UNL A   1      46.067  28.135  28.527  1.00  0.00     0.057 A 
ATOM     74  C   UNL A   1      45.203  28.905  27.735  1.00  0.00     0.134 A 
ATOM     75  C   UNL A   1      47.435  28.217  28.237  1.00  0.00     0.134 A 
ATOM     76  F   UNL A   1      43.890  28.966  27.996  1.00  0.00    -0.206 F 
ATOM     77  C   UNL A   1      45.677  29.689  26.678  1.00  0.00     0.040 A 
ATOM     78  C   UNL A   1      47.925  29.025  27.208  1.00  0.00     0.040 A 
ATOM     79  F   UNL A   1      48.327  27.550  28.987  1.00  0.00    -0.206 F 
ATOM     80  C   UNL A   1      47.043  29.757  26.418  1.00  0.00     0.006 A 
ENDBRANCH  56  73
ENDBRANCH  30  31
ENDBRANCH  23  25
ENDBRANCH  22  23
ENDBRANCH  21  22
ENDBRANCH   1  21
TORSDOF 16
ENDMDL
