MODEL 1
REMARK VINA RESULT:     -11.1      0.000      0.000
REMARK SMILES COc1ccccc1-c1ccc(C(=O)OCCOCCOC(=O)c2ccc(-c3c4nc(c(-c5c(F)cccc5F)c5ccc([nH]5)c(-c5c(F)cccc5F)c5nc(c(-c6c(F)cccc6F)c6ccc3[nH]6)C=C5)C=C4)cc2)c(O)c1
REMARK SMILES IDX 18 1 17 2 16 3 15 4 13 5 14 6 12 7 9 8 10 9 80 10 11 11
REMARK SMILES IDX 78 12 8 13 3 14 4 15 5 16 7 17 6 18 2 19 1 20 79 21 19 23
REMARK SMILES IDX 20 24 21 25 22 26 23 27 24 28 25 29 77 30 26 31 76 32 27 33
REMARK SMILES IDX 28 34 29 35 70 36 30 37 75 38 69 39 71 40 31 41 74 42 68 43
REMARK SMILES IDX 67 44 32 46 58 47 41 48 57 49 42 50 45 51 56 52 72 53 43 54
REMARK SMILES IDX 44 55 55 57 73 58 46 59 33 60 34 61 39 62 35 63 36 64 38 65
REMARK SMILES IDX 40 66 37 67 59 68 60 69 65 70 61 71 62 72 64 73 66 74 63 75
REMARK SMILES IDX 47 76 48 77 53 78 49 79 50 80 52 81 54 82 51 83
REMARK H PARENT 79 22 71 45 45 56
REMARK Flexibility Score: inf
ROOT
ATOM      1  O   UNL A   1      41.756  21.333  27.463  1.00  0.00    -0.374 OA
ENDROOT
BRANCH   1   2
ATOM      2  C   UNL A   1      40.380  21.633  27.222  1.00  0.00     0.202 C 
BRANCH   2   3
ATOM      3  C   UNL A   1      39.777  21.037  25.950  1.00  0.00     0.261 C 
BRANCH   3   4
ATOM      4  O   UNL A   1      38.522  21.669  25.663  1.00  0.00    -0.460 OA
BRANCH   4   5
ATOM      5  C   UNL A   1      37.637  20.908  24.985  1.00  0.00     0.341 C 
ATOM      6  O   UNL A   1      37.743  19.715  24.739  1.00  0.00    -0.246 OA
BRANCH   5   7
ATOM      7  C   UNL A   1      36.383  21.647  24.717  1.00  0.00     0.101 A 
ATOM      8  C   UNL A   1      34.153  23.343  24.532  1.00  0.00    -0.011 A 
ATOM      9  C   UNL A   1      35.431  23.818  24.209  1.00  0.00     0.010 A 
ATOM     10  C   UNL A   1      33.989  21.974  24.810  1.00  0.00     0.056 A 
ATOM     11  C   UNL A   1      36.538  22.979  24.309  1.00  0.00     0.020 A 
ATOM     12  C   UNL A   1      35.100  21.130  24.915  1.00  0.00     0.130 A 
BRANCH   8  13
ATOM     13  C   UNL A   1      33.068  24.307  24.769  1.00  0.00     0.024 A 
ATOM     14  C   UNL A   1      32.209  24.720  23.727  1.00  0.00     0.126 A 
ATOM     15  C   UNL A   1      31.134  25.578  23.976  1.00  0.00     0.047 A 
ATOM     16  C   UNL A   1      30.876  26.016  25.272  1.00  0.00     0.004 A 
ATOM     17  C   UNL A   1      32.796  24.775  26.067  1.00  0.00     0.012 A 
ATOM     18  C   UNL A   1      31.708  25.620  26.316  1.00  0.00     0.001 A 
BRANCH  14  19
ATOM     19  O   UNL A   1      32.404  24.370  22.412  1.00  0.00    -0.496 OA
ATOM     20  C   UNL A   1      32.839  25.473  21.612  1.00  0.00     0.278 C 
ENDBRANCH  14  19
ENDBRANCH   8  13
BRANCH  12  21
ATOM     21  O   UNL A   1      34.915  19.831  25.292  1.00  0.00    -0.507 OA
ATOM     22  H   UNL A   1      34.252  19.313  24.879  1.00  0.00     0.293 HD
ENDBRANCH  12  21
ENDBRANCH   5   7
ENDBRANCH   4   5
ENDBRANCH   3   4
ENDBRANCH   2   3
ENDBRANCH   1   2
BRANCH   1  23
ATOM     23  C   UNL A   1      42.490  20.711  26.407  1.00  0.00     0.202 C 
BRANCH  23  24
ATOM     24  C   UNL A   1      43.487  21.598  25.651  1.00  0.00     0.261 C 
BRANCH  24  25
ATOM     25  O   UNL A   1      42.850  22.720  25.013  1.00  0.00    -0.460 OA
BRANCH  25  26
ATOM     26  C   UNL A   1      43.580  23.858  25.002  1.00  0.00     0.338 C 
ATOM     27  O   UNL A   1      44.543  24.117  24.291  1.00  0.00    -0.246 OA
BRANCH  26  28
ATOM     28  C   UNL A   1      42.956  24.867  25.876  1.00  0.00     0.060 A 
ATOM     29  C   UNL A   1      43.706  26.010  26.186  1.00  0.00     0.016 A 
ATOM     30  C   UNL A   1      41.697  24.666  26.445  1.00  0.00     0.016 A 
ATOM     31  C   UNL A   1      43.219  26.935  27.107  1.00  0.00     0.010 A 
ATOM     32  C   UNL A   1      41.216  25.590  27.378  1.00  0.00     0.010 A 
ATOM     33  C   UNL A   1      41.990  26.708  27.737  1.00  0.00    -0.014 A 
BRANCH  33  34
ATOM     34  C   UNL A   1      41.584  27.561  28.881  1.00  0.00     0.031 A 
ATOM     35  C   UNL A   1      42.347  27.455  30.172  1.00  0.00     0.074 A 
ATOM     36  C   UNL A   1      40.563  28.427  28.766  1.00  0.00     0.049 A 
ATOM     37  N   UNL A   1      42.134  28.059  31.313  1.00  0.00    -0.248 NA
ATOM     38  C   UNL A   1      43.503  26.545  30.177  1.00  0.00     0.031 C 
ATOM     39  C   UNL A   1      39.776  28.649  27.555  1.00  0.00     0.029 A 
ATOM     40  N   UNL A   1      40.011  29.276  29.691  1.00  0.00    -0.354 N 
ATOM     41  C   UNL A   1      43.122  27.597  32.173  1.00  0.00     0.074 A 
ATOM     42  C   UNL A   1      43.918  26.643  31.431  1.00  0.00     0.031 C 
ATOM     43  C   UNL A   1      38.828  29.567  27.816  1.00  0.00     0.029 A 
ATOM     44  C   UNL A   1      38.925  29.972  29.217  1.00  0.00     0.049 A 
ATOM     45  H   UNL A   1      40.359  29.378  30.605  1.00  0.00     0.167 HD
ATOM     46  C   UNL A   1      43.349  27.941  33.463  1.00  0.00     0.037 A 
ATOM     47  C   UNL A   1      38.093  30.819  29.852  1.00  0.00     0.037 A 
ATOM     48  C   UNL A   1      42.558  28.892  34.199  1.00  0.00     0.049 A 
ATOM     49  C   UNL A   1      38.325  31.135  31.306  1.00  0.00     0.074 A 
ATOM     50  C   UNL A   1      42.719  29.320  35.505  1.00  0.00     0.029 A 
ATOM     51  N   UNL A   1      41.452  29.557  33.691  1.00  0.00    -0.354 N 
ATOM     52  N   UNL A   1      39.272  30.708  32.105  1.00  0.00    -0.248 NA
ATOM     53  C   UNL A   1      37.372  32.055  31.945  1.00  0.00     0.031 C 
ATOM     54  C   UNL A   1      41.683  30.212  35.802  1.00  0.00     0.029 A 
ATOM     55  C   UNL A   1      40.907  30.376  34.667  1.00  0.00     0.049 A 
ATOM     56  H   UNL A   1      41.106  29.461  32.775  1.00  0.00     0.167 HD
ATOM     57  C   UNL A   1      39.048  31.327  33.328  1.00  0.00     0.074 A 
ATOM     58  C   UNL A   1      37.880  32.166  33.165  1.00  0.00     0.031 C 
ATOM     59  C   UNL A   1      39.749  31.213  34.484  1.00  0.00     0.037 A 
BRANCH  46  60
ATOM     60  C   UNL A   1      44.487  27.264  34.167  1.00  0.00     0.057 A 
ATOM     61  C   UNL A   1      44.322  26.046  34.842  1.00  0.00     0.134 A 
ATOM     62  C   UNL A   1      45.771  27.823  34.147  1.00  0.00     0.134 A 
ATOM     63  F   UNL A   1      43.114  25.467  34.911  1.00  0.00    -0.206 F 
ATOM     64  C   UNL A   1      45.388  25.421  35.490  1.00  0.00     0.040 A 
ATOM     65  C   UNL A   1      46.850  27.194  34.771  1.00  0.00     0.040 A 
ATOM     66  F   UNL A   1      45.999  28.985  33.517  1.00  0.00    -0.206 F 
ATOM     67  C   UNL A   1      46.659  25.993  35.449  1.00  0.00     0.006 A 
ENDBRANCH  46  60
BRANCH  47  68
ATOM     68  C   UNL A   1      36.949  31.420  29.122  1.00  0.00     0.057 A 
ATOM     69  C   UNL A   1      35.786  30.686  28.865  1.00  0.00     0.134 A 
ATOM     70  C   UNL A   1      37.000  32.737  28.648  1.00  0.00     0.134 A 
ATOM     71  F   UNL A   1      35.690  29.412  29.272  1.00  0.00    -0.206 F 
ATOM     72  C   UNL A   1      34.719  31.235  28.152  1.00  0.00     0.040 A 
ATOM     73  C   UNL A   1      35.931  33.305  27.955  1.00  0.00     0.040 A 
ATOM     74  F   UNL A   1      38.088  33.491  28.861  1.00  0.00    -0.206 F 
ATOM     75  C   UNL A   1      34.789  32.551  27.699  1.00  0.00     0.006 A 
ENDBRANCH  47  68
BRANCH  59  76
ATOM     76  C   UNL A   1      39.298  32.044  35.648  1.00  0.00     0.057 A 
ATOM     77  C   UNL A   1      38.419  31.546  36.617  1.00  0.00     0.134 A 
ATOM     78  C   UNL A   1      39.787  33.346  35.825  1.00  0.00     0.134 A 
ATOM     79  F   UNL A   1      37.906  30.312  36.501  1.00  0.00    -0.206 F 
ATOM     80  C   UNL A   1      38.028  32.320  37.712  1.00  0.00     0.040 A 
ATOM     81  C   UNL A   1      39.422  34.119  36.927  1.00  0.00     0.040 A 
ATOM     82  F   UNL A   1      40.640  33.879  34.936  1.00  0.00    -0.206 F 
ATOM     83  C   UNL A   1      38.536  33.608  37.872  1.00  0.00     0.006 A 
ENDBRANCH  59  76
ENDBRANCH  33  34
ENDBRANCH  26  28
ENDBRANCH  25  26
ENDBRANCH  24  25
ENDBRANCH  23  24
ENDBRANCH   1  23
TORSDOF 17
ENDMDL
MODEL 2
REMARK VINA RESULT:     -11.0      4.731      9.789
REMARK SMILES COc1ccccc1-c1ccc(C(=O)OCCOCCOC(=O)c2ccc(-c3c4nc(c(-c5c(F)cccc5F)c5ccc([nH]5)c(-c5c(F)cccc5F)c5nc(c(-c6c(F)cccc6F)c6ccc3[nH]6)C=C5)C=C4)cc2)c(O)c1
REMARK SMILES IDX 18 1 17 2 16 3 15 4 13 5 14 6 12 7 9 8 10 9 80 10 11 11
REMARK SMILES IDX 78 12 8 13 3 14 4 15 5 16 7 17 6 18 2 19 1 20 79 21 19 23
REMARK SMILES IDX 20 24 21 25 22 26 23 27 24 28 25 29 77 30 26 31 76 32 27 33
REMARK SMILES IDX 28 34 29 35 70 36 30 37 75 38 69 39 71 40 31 41 74 42 68 43
REMARK SMILES IDX 67 44 32 46 58 47 41 48 57 49 42 50 45 51 56 52 72 53 43 54
REMARK SMILES IDX 44 55 55 57 73 58 46 59 33 60 34 61 39 62 35 63 36 64 38 65
REMARK SMILES IDX 40 66 37 67 59 68 60 69 65 70 61 71 62 72 64 73 66 74 63 75
REMARK SMILES IDX 47 76 48 77 53 78 49 79 50 80 52 81 54 82 51 83
REMARK H PARENT 79 22 71 45 45 56
REMARK Flexibility Score: inf
ROOT
ATOM      1  O   UNL A   1      34.664  32.704  29.337  1.00  0.00    -0.374 OA
ENDROOT
BRANCH   1   2
ATOM      2  C   UNL A   1      33.908  32.478  28.146  1.00  0.00     0.202 C 
BRANCH   2   3
ATOM      3  C   UNL A   1      34.162  31.150  27.432  1.00  0.00     0.261 C 
BRANCH   3   4
ATOM      4  O   UNL A   1      33.026  30.288  27.587  1.00  0.00    -0.460 OA
BRANCH   4   5
ATOM      5  C   UNL A   1      32.308  30.076  26.464  1.00  0.00     0.341 C 
ATOM      6  O   UNL A   1      31.586  30.886  25.899  1.00  0.00    -0.246 OA
BRANCH   5   7
ATOM      7  C   UNL A   1      32.639  28.772  25.849  1.00  0.00     0.101 A 
ATOM      8  C   UNL A   1      33.547  26.238  25.047  1.00  0.00    -0.011 A 
ATOM      9  C   UNL A   1      32.829  26.387  26.242  1.00  0.00     0.010 A 
ATOM     10  C   UNL A   1      33.680  27.348  24.193  1.00  0.00     0.056 A 
ATOM     11  C   UNL A   1      32.387  27.644  26.643  1.00  0.00     0.020 A 
ATOM     12  C   UNL A   1      33.239  28.614  24.597  1.00  0.00     0.130 A 
BRANCH   8  13
ATOM     13  C   UNL A   1      34.307  25.000  24.816  1.00  0.00     0.024 A 
ATOM     14  C   UNL A   1      33.909  24.064  23.836  1.00  0.00     0.126 A 
ATOM     15  C   UNL A   1      34.677  22.928  23.570  1.00  0.00     0.047 A 
ATOM     16  C   UNL A   1      35.872  22.718  24.252  1.00  0.00     0.004 A 
ATOM     17  C   UNL A   1      35.510  24.758  25.503  1.00  0.00     0.012 A 
ATOM     18  C   UNL A   1      36.286  23.629  25.221  1.00  0.00     0.001 A 
BRANCH  14  19
ATOM     19  O   UNL A   1      32.729  24.167  23.137  1.00  0.00    -0.496 OA
ATOM     20  C   UNL A   1      32.931  24.576  21.782  1.00  0.00     0.278 C 
ENDBRANCH  14  19
ENDBRANCH   8  13
BRANCH  12  21
ATOM     21  O   UNL A   1      33.479  29.690  23.791  1.00  0.00    -0.507 OA
ATOM     22  H   UNL A   1      32.900  30.426  23.808  1.00  0.00     0.293 HD
ENDBRANCH  12  21
ENDBRANCH   5   7
ENDBRANCH   4   5
ENDBRANCH   3   4
ENDBRANCH   2   3
ENDBRANCH   1   2
BRANCH   1  23
ATOM     23  C   UNL A   1      34.285  33.809  30.159  1.00  0.00     0.202 C 
BRANCH  23  24
ATOM     24  C   UNL A   1      34.361  33.593  31.675  1.00  0.00     0.261 C 
BRANCH  24  25
ATOM     25  O   UNL A   1      34.815  32.272  32.020  1.00  0.00    -0.460 OA
BRANCH  25  26
ATOM     26  C   UNL A   1      35.980  32.232  32.705  1.00  0.00     0.338 C 
ATOM     27  O   UNL A   1      36.194  32.650  33.835  1.00  0.00    -0.246 OA
BRANCH  26  28
ATOM     28  C   UNL A   1      36.977  31.443  31.960  1.00  0.00     0.060 A 
ATOM     29  C   UNL A   1      37.967  30.781  32.700  1.00  0.00     0.016 A 
ATOM     30  C   UNL A   1      36.995  31.414  30.564  1.00  0.00     0.016 A 
ATOM     31  C   UNL A   1      39.007  30.127  32.044  1.00  0.00     0.010 A 
ATOM     32  C   UNL A   1      38.047  30.766  29.908  1.00  0.00     0.010 A 
ATOM     33  C   UNL A   1      39.074  30.151  30.646  1.00  0.00    -0.014 A 
BRANCH  33  34
ATOM     34  C   UNL A   1      40.295  29.663  29.961  1.00  0.00     0.031 A 
ATOM     35  C   UNL A   1      41.442  30.613  29.757  1.00  0.00     0.074 A 
ATOM     36  C   UNL A   1      40.388  28.390  29.543  1.00  0.00     0.049 A 
ATOM     37  N   UNL A   1      42.578  30.422  29.138  1.00  0.00    -0.248 NA
ATOM     38  C   UNL A   1      41.285  31.962  30.326  1.00  0.00     0.031 C 
ATOM     39  C   UNL A   1      39.362  27.365  29.720  1.00  0.00     0.029 A 
ATOM     40  N   UNL A   1      41.398  27.747  28.874  1.00  0.00    -0.354 N 
ATOM     41  C   UNL A   1      43.267  31.624  29.235  1.00  0.00     0.074 A 
ATOM     42  C   UNL A   1      42.411  32.547  29.949  1.00  0.00     0.031 C 
ATOM     43  C   UNL A   1      39.789  26.220  29.158  1.00  0.00     0.029 A 
ATOM     44  C   UNL A   1      41.103  26.443  28.557  1.00  0.00     0.049 A 
ATOM     45  H   UNL A   1      42.252  28.177  28.642  1.00  0.00     0.167 HD
ATOM     46  C   UNL A   1      44.504  31.930  28.776  1.00  0.00     0.037 A 
ATOM     47  C   UNL A   1      41.805  25.543  27.843  1.00  0.00     0.037 A 
ATOM     48  C   UNL A   1      45.355  31.010  28.069  1.00  0.00     0.049 A 
ATOM     49  C   UNL A   1      43.150  25.927  27.284  1.00  0.00     0.074 A 
ATOM     50  C   UNL A   1      46.632  31.220  27.578  1.00  0.00     0.029 A 
ATOM     51  N   UNL A   1      45.011  29.706  27.747  1.00  0.00    -0.354 N 
ATOM     52  N   UNL A   1      43.800  27.059  27.396  1.00  0.00    -0.248 NA
ATOM     53  C   UNL A   1      43.859  24.904  26.501  1.00  0.00     0.031 C 
ATOM     54  C   UNL A   1      47.043  30.056  26.920  1.00  0.00     0.029 A 
ATOM     55  C   UNL A   1      46.042  29.107  27.043  1.00  0.00     0.049 A 
ATOM     56  H   UNL A   1      44.160  29.271  27.983  1.00  0.00     0.167 HD
ATOM     57  C   UNL A   1      45.003  26.877  26.726  1.00  0.00     0.074 A 
ATOM     58  C   UNL A   1      44.997  25.522  26.216  1.00  0.00     0.031 C 
ATOM     59  C   UNL A   1      46.024  27.752  26.552  1.00  0.00     0.037 A 
BRANCH  46  60
ATOM     60  C   UNL A   1      44.999  33.327  29.005  1.00  0.00     0.057 A 
ATOM     61  C   UNL A   1      45.790  33.661  30.113  1.00  0.00     0.134 A 
ATOM     62  C   UNL A   1      44.703  34.346  28.091  1.00  0.00     0.134 A 
ATOM     63  F   UNL A   1      46.096  32.734  31.033  1.00  0.00    -0.206 F 
ATOM     64  C   UNL A   1      46.250  34.963  30.314  1.00  0.00     0.040 A 
ATOM     65  C   UNL A   1      45.178  35.646  28.270  1.00  0.00     0.040 A 
ATOM     66  F   UNL A   1      43.953  34.094  27.008  1.00  0.00    -0.206 F 
ATOM     67  C   UNL A   1      45.950  35.959  29.386  1.00  0.00     0.006 A 
ENDBRANCH  46  60
BRANCH  47  68
ATOM     68  C   UNL A   1      41.244  24.191  27.600  1.00  0.00     0.057 A 
ATOM     69  C   UNL A   1      41.722  23.072  28.292  1.00  0.00     0.134 A 
ATOM     70  C   UNL A   1      40.230  23.982  26.657  1.00  0.00     0.134 A 
ATOM     71  F   UNL A   1      42.710  23.205  29.188  1.00  0.00    -0.206 F 
ATOM     72  C   UNL A   1      41.221  21.792  28.046  1.00  0.00     0.040 A 
ATOM     73  C   UNL A   1      39.704  22.712  26.418  1.00  0.00     0.040 A 
ATOM     74  F   UNL A   1      39.731  25.014  25.960  1.00  0.00    -0.206 F 
ATOM     75  C   UNL A   1      40.205  21.611  27.109  1.00  0.00     0.006 A 
ENDBRANCH  47  68
BRANCH  59  76
ATOM     76  C   UNL A   1      47.235  27.261  25.814  1.00  0.00     0.057 A 
ATOM     77  C   UNL A   1      48.306  26.648  26.474  1.00  0.00     0.134 A 
ATOM     78  C   UNL A   1      47.306  27.363  24.418  1.00  0.00     0.134 A 
ATOM     79  F   UNL A   1      48.305  26.530  27.811  1.00  0.00    -0.206 F 
ATOM     80  C   UNL A   1      49.416  26.170  25.774  1.00  0.00     0.040 A 
ATOM     81  C   UNL A   1      48.398  26.867  23.706  1.00  0.00     0.040 A 
ATOM     82  F   UNL A   1      46.308  27.931  23.725  1.00  0.00    -0.206 F 
ATOM     83  C   UNL A   1      49.460  26.273  24.385  1.00  0.00     0.006 A 
ENDBRANCH  59  76
ENDBRANCH  33  34
ENDBRANCH  26  28
ENDBRANCH  25  26
ENDBRANCH  24  25
ENDBRANCH  23  24
ENDBRANCH   1  23
TORSDOF 17
ENDMDL
MODEL 3
REMARK VINA RESULT:     -10.8      0.696      6.237
REMARK SMILES COc1ccccc1-c1ccc(C(=O)OCCOCCOC(=O)c2ccc(-c3c4nc(c(-c5c(F)cccc5F)c5ccc([nH]5)c(-c5c(F)cccc5F)c5nc(c(-c6c(F)cccc6F)c6ccc3[nH]6)C=C5)C=C4)cc2)c(O)c1
REMARK SMILES IDX 18 1 17 2 16 3 15 4 13 5 14 6 12 7 9 8 10 9 80 10 11 11
REMARK SMILES IDX 78 12 8 13 3 14 4 15 5 16 7 17 6 18 2 19 1 20 79 21 19 23
REMARK SMILES IDX 20 24 21 25 22 26 23 27 24 28 25 29 77 30 26 31 76 32 27 33
REMARK SMILES IDX 28 34 29 35 70 36 30 37 75 38 69 39 71 40 31 41 74 42 68 43
REMARK SMILES IDX 67 44 32 46 58 47 41 48 57 49 42 50 45 51 56 52 72 53 43 54
REMARK SMILES IDX 44 55 55 57 73 58 46 59 33 60 34 61 39 62 35 63 36 64 38 65
REMARK SMILES IDX 40 66 37 67 59 68 60 69 65 70 61 71 62 72 64 73 66 74 63 75
REMARK SMILES IDX 47 76 48 77 53 78 49 79 50 80 52 81 54 82 51 83
REMARK H PARENT 79 22 71 45 45 56
REMARK Flexibility Score: inf
ROOT
ATOM      1  O   UNL A   1      42.422  20.927  25.656  1.00  0.00    -0.374 OA
ENDROOT
BRANCH   1   2
ATOM      2  C   UNL A   1      41.233  21.505  26.199  1.00  0.00     0.202 C 
BRANCH   2   3
ATOM      3  C   UNL A   1      39.975  20.640  26.132  1.00  0.00     0.261 C 
BRANCH   3   4
ATOM      4  O   UNL A   1      38.894  21.394  25.567  1.00  0.00    -0.460 OA
BRANCH   4   5
ATOM      5  C   UNL A   1      37.904  20.656  25.020  1.00  0.00     0.341 C 
ATOM      6  O   UNL A   1      37.890  19.440  24.891  1.00  0.00    -0.246 OA
BRANCH   5   7
ATOM      7  C   UNL A   1      36.705  21.479  24.749  1.00  0.00     0.101 A 
ATOM      8  C   UNL A   1      34.572  23.299  24.590  1.00  0.00    -0.011 A 
ATOM      9  C   UNL A   1      35.888  23.731  24.377  1.00  0.00     0.010 A 
ATOM     10  C   UNL A   1      34.327  21.922  24.743  1.00  0.00     0.056 A 
ATOM     11  C   UNL A   1      36.945  22.830  24.464  1.00  0.00     0.020 A 
ATOM     12  C   UNL A   1      35.389  21.016  24.834  1.00  0.00     0.130 A 
BRANCH   8  13
ATOM     13  C   UNL A   1      33.522  24.296  24.850  1.00  0.00     0.024 A 
ATOM     14  C   UNL A   1      32.818  24.916  23.794  1.00  0.00     0.126 A 
ATOM     15  C   UNL A   1      31.772  25.806  24.050  1.00  0.00     0.047 A 
ATOM     16  C   UNL A   1      31.385  26.071  25.361  1.00  0.00     0.004 A 
ATOM     17  C   UNL A   1      33.124  24.592  26.166  1.00  0.00     0.012 A 
ATOM     18  C   UNL A   1      32.064  25.469  26.418  1.00  0.00     0.001 A 
BRANCH  14  19
ATOM     19  O   UNL A   1      33.149  24.745  22.471  1.00  0.00    -0.496 OA
ATOM     20  C   UNL A   1      33.124  25.973  21.739  1.00  0.00     0.278 C 
ENDBRANCH  14  19
ENDBRANCH   8  13
BRANCH  12  21
ATOM     21  O   UNL A   1      35.121  19.701  25.090  1.00  0.00    -0.507 OA
ATOM     22  H   UNL A   1      34.577  19.467  25.817  1.00  0.00     0.293 HD
ENDBRANCH  12  21
ENDBRANCH   5   7
ENDBRANCH   4   5
ENDBRANCH   3   4
ENDBRANCH   2   3
ENDBRANCH   1   2
BRANCH   1  23
ATOM     23  C   UNL A   1      43.632  21.677  25.772  1.00  0.00     0.202 C 
BRANCH  23  24
ATOM     24  C   UNL A   1      43.997  22.576  24.585  1.00  0.00     0.261 C 
BRANCH  24  25
ATOM     25  O   UNL A   1      43.325  23.847  24.631  1.00  0.00    -0.460 OA
BRANCH  25  26
ATOM     26  C   UNL A   1      44.082  24.875  25.077  1.00  0.00     0.338 C 
ATOM     27  O   UNL A   1      45.175  25.232  24.656  1.00  0.00    -0.246 OA
BRANCH  26  28
ATOM     28  C   UNL A   1      43.333  25.658  26.075  1.00  0.00     0.060 A 
ATOM     29  C   UNL A   1      43.734  26.983  26.296  1.00  0.00     0.016 A 
ATOM     30  C   UNL A   1      42.310  25.089  26.837  1.00  0.00     0.016 A 
ATOM     31  C   UNL A   1      43.147  27.729  27.315  1.00  0.00     0.010 A 
ATOM     32  C   UNL A   1      41.730  25.836  27.867  1.00  0.00     0.010 A 
ATOM     33  C   UNL A   1      42.171  27.145  28.131  1.00  0.00    -0.014 A 
BRANCH  33  34
ATOM     34  C   UNL A   1      41.718  27.852  29.354  1.00  0.00     0.031 A 
ATOM     35  C   UNL A   1      40.497  28.726  29.278  1.00  0.00     0.074 A 
ATOM     36  C   UNL A   1      42.374  27.704  30.517  1.00  0.00     0.049 A 
ATOM     37  N   UNL A   1      39.957  29.479  30.201  1.00  0.00    -0.248 NA
ATOM     38  C   UNL A   1      39.794  28.758  27.985  1.00  0.00     0.031 C 
ATOM     39  C   UNL A   1      43.543  26.853  30.726  1.00  0.00     0.029 A 
ATOM     40  N   UNL A   1      42.149  28.278  31.742  1.00  0.00    -0.354 N 
ATOM     41  C   UNL A   1      38.857  30.078  29.602  1.00  0.00     0.074 A 
ATOM     42  C   UNL A   1      38.822  29.624  28.229  1.00  0.00     0.031 C 
ATOM     43  C   UNL A   1      43.944  26.971  32.004  1.00  0.00     0.029 A 
ATOM     44  C   UNL A   1      43.079  27.928  32.691  1.00  0.00     0.049 A 
ATOM     45  H   UNL A   1      41.394  28.882  31.925  1.00  0.00     0.167 HD
ATOM     46  C   UNL A   1      37.953  30.926  30.149  1.00  0.00     0.037 A 
ATOM     47  C   UNL A   1      43.225  28.353  33.960  1.00  0.00     0.037 A 
ATOM     48  C   UNL A   1      37.988  31.375  31.516  1.00  0.00     0.049 A 
ATOM     49  C   UNL A   1      42.247  29.348  34.527  1.00  0.00     0.074 A 
ATOM     50  C   UNL A   1      37.108  32.221  32.168  1.00  0.00     0.029 A 
ATOM     51  N   UNL A   1      38.959  31.017  32.438  1.00  0.00    -0.354 N 
ATOM     52  N   UNL A   1      41.201  29.896  33.959  1.00  0.00    -0.248 NA
ATOM     53  C   UNL A   1      42.471  29.783  35.913  1.00  0.00     0.031 C 
ATOM     54  C   UNL A   1      37.572  32.410  33.474  1.00  0.00     0.029 A 
ATOM     55  C   UNL A   1      38.713  31.644  33.648  1.00  0.00     0.049 A 
ATOM     56  H   UNL A   1      39.712  30.409  32.259  1.00  0.00     0.167 HD
ATOM     57  C   UNL A   1      40.626  30.713  34.923  1.00  0.00     0.074 A 
ATOM     58  C   UNL A   1      41.435  30.585  36.117  1.00  0.00     0.031 C 
ATOM     59  C   UNL A   1      39.523  31.498  34.830  1.00  0.00     0.037 A 
BRANCH  46  60
ATOM     60  C   UNL A   1      36.864  31.443  29.256  1.00  0.00     0.057 A 
ATOM     61  C   UNL A   1      35.767  30.652  28.892  1.00  0.00     0.134 A 
ATOM     62  C   UNL A   1      36.901  32.759  28.777  1.00  0.00     0.134 A 
ATOM     63  F   UNL A   1      35.681  29.378  29.304  1.00  0.00    -0.206 F 
ATOM     64  C   UNL A   1      34.756  31.144  28.064  1.00  0.00     0.040 A 
ATOM     65  C   UNL A   1      35.883  33.269  27.970  1.00  0.00     0.040 A 
ATOM     66  F   UNL A   1      37.921  33.571  29.091  1.00  0.00    -0.206 F 
ATOM     67  C   UNL A   1      34.809  32.459  27.607  1.00  0.00     0.006 A 
ENDBRANCH  46  60
BRANCH  47  68
ATOM     68  C   UNL A   1      44.353  27.850  34.784  1.00  0.00     0.057 A 
ATOM     69  C   UNL A   1      44.214  26.714  35.588  1.00  0.00     0.134 A 
ATOM     70  C   UNL A   1      45.591  28.505  34.799  1.00  0.00     0.134 A 
ATOM     71  F   UNL A   1      43.045  26.059  35.634  1.00  0.00    -0.206 F 
ATOM     72  C   UNL A   1      45.261  26.253  36.389  1.00  0.00     0.040 A 
ATOM     73  C   UNL A   1      46.653  28.042  35.577  1.00  0.00     0.040 A 
ATOM     74  F   UNL A   1      45.786  29.600  34.051  1.00  0.00    -0.206 F 
ATOM     75  C   UNL A   1      46.486  26.917  36.381  1.00  0.00     0.006 A 
ENDBRANCH  47  68
BRANCH  59  76
ATOM     76  C   UNL A   1      39.105  32.246  36.061  1.00  0.00     0.057 A 
ATOM     77  C   UNL A   1      39.515  33.562  36.303  1.00  0.00     0.134 A 
ATOM     78  C   UNL A   1      38.241  31.655  36.993  1.00  0.00     0.134 A 
ATOM     79  F   UNL A   1      40.350  34.182  35.455  1.00  0.00    -0.206 F 
ATOM     80  C   UNL A   1      39.096  34.259  37.439  1.00  0.00     0.040 A 
ATOM     81  C   UNL A   1      37.798  32.349  38.119  1.00  0.00     0.040 A 
ATOM     82  F   UNL A   1      37.804  30.399  36.816  1.00  0.00    -0.206 F 
ATOM     83  C   UNL A   1      38.229  33.653  38.347  1.00  0.00     0.006 A 
ENDBRANCH  59  76
ENDBRANCH  33  34
ENDBRANCH  26  28
ENDBRANCH  25  26
ENDBRANCH  24  25
ENDBRANCH  23  24
ENDBRANCH   1  23
TORSDOF 17
ENDMDL
