MODEL 1
REMARK VINA RESULT:     -11.9      0.000      0.000
REMARK SMILES O=C(OCCOCCOC(=O)c1ccc(-n2cc(CSc3nc4ccccc4c(=O)n3-c3ccccc3)nn2)cc1)c1ccc(-c2c3nc(c(-c4c(F)cccc4F)c4ccc([nH]4)c(-c4c(F)cccc4F)c4nc(c(-c5c(F)cccc5F)c5ccc2[nH]5)C=C4)C=C3)cc1
REMARK SMILES IDX 7 1 6 2 5 3 4 4 3 5 2 6 1 7 42 8 43 9 95 10 44 11 94 12
REMARK SMILES IDX 45 13 46 14 47 15 88 16 48 17 93 18 87 19 89 20 49 21 92 22
REMARK SMILES IDX 86 23 85 24 50 26 76 27 59 28 75 29 60 30 63 31 74 32 90 33
REMARK SMILES IDX 61 34 62 35 73 37 91 38 64 39 51 40 52 41 57 42 53 43 54 44
REMARK SMILES IDX 56 45 58 46 55 47 77 48 78 49 83 50 79 51 80 52 82 53 84 54
REMARK SMILES IDX 81 55 65 56 66 57 71 58 67 59 68 60 70 61 72 62 69 63 8 64
REMARK SMILES IDX 9 65 10 66 11 67 12 68 13 69 41 70 14 71 40 72 15 73 16 74
REMARK SMILES IDX 17 75 39 76 18 77 38 78 19 79 20 80 21 81 22 82 31 83 23 84
REMARK SMILES IDX 29 85 24 86 28 87 30 88 25 89 27 90 26 91 32 92 33 93 37 94
REMARK SMILES IDX 34 95 36 96 35 97
REMARK H PARENT 89 25 63 36
REMARK Flexibility Score: inf
ROOT
ATOM      1  C   UNL A   1      40.824  21.503  27.012  1.00  0.00     0.202 C 
ENDROOT
BRANCH   1   2
ATOM      2  O   UNL A   1      41.905  22.237  26.412  1.00  0.00    -0.374 OA
BRANCH   2   3
ATOM      3  C   UNL A   1      42.558  23.204  27.224  1.00  0.00     0.202 C 
BRANCH   3   4
ATOM      4  C   UNL A   1      42.510  24.670  26.801  1.00  0.00     0.261 C 
BRANCH   4   5
ATOM      5  O   UNL A   1      41.354  24.995  26.010  1.00  0.00    -0.460 OA
BRANCH   5   6
ATOM      6  C   UNL A   1      40.120  25.251  26.499  1.00  0.00     0.338 C 
ATOM      7  O   UNL A   1      39.240  24.396  26.439  1.00  0.00    -0.246 OA
BRANCH   6   8
ATOM      8  C   UNL A   1      39.914  26.441  27.358  1.00  0.00     0.060 A 
ATOM      9  C   UNL A   1      40.174  27.757  26.985  1.00  0.00     0.016 A 
ATOM     10  C   UNL A   1      39.546  26.162  28.683  1.00  0.00     0.016 A 
ATOM     11  C   UNL A   1      40.382  28.713  27.955  1.00  0.00     0.010 A 
ATOM     12  C   UNL A   1      39.661  27.136  29.651  1.00  0.00     0.010 A 
ATOM     13  C   UNL A   1      40.182  28.373  29.291  1.00  0.00    -0.014 A 
BRANCH  13  14
ATOM     14  C   UNL A   1      40.349  29.425  30.273  1.00  0.00     0.031 A 
ATOM     15  C   UNL A   1      39.139  30.277  30.399  1.00  0.00     0.074 A 
ATOM     16  C   UNL A   1      41.450  29.509  31.044  1.00  0.00     0.049 A 
ATOM     17  N   UNL A   1      39.032  31.544  30.175  1.00  0.00    -0.248 NA
ATOM     18  C   UNL A   1      37.846  29.597  30.609  1.00  0.00     0.031 C 
ATOM     19  C   UNL A   1      42.559  28.554  31.119  1.00  0.00     0.029 A 
ATOM     20  N   UNL A   1      41.758  30.406  32.017  1.00  0.00    -0.354 N 
ATOM     21  C   UNL A   1      37.705  31.858  30.458  1.00  0.00     0.074 A 
ATOM     22  C   UNL A   1      36.991  30.613  30.504  1.00  0.00     0.031 C 
ATOM     23  C   UNL A   1      43.270  28.786  32.244  1.00  0.00     0.029 A 
ATOM     24  C   UNL A   1      42.743  29.970  32.898  1.00  0.00     0.049 A 
ATOM     25  H   UNL A   1      41.324  31.287  32.093  1.00  0.00     0.167 HD
ATOM     26  C   UNL A   1      37.389  33.080  30.964  1.00  0.00     0.037 A 
ATOM     27  C   UNL A   1      43.023  30.502  34.115  1.00  0.00     0.037 A 
ATOM     28  C   UNL A   1      38.392  34.056  30.607  1.00  0.00     0.049 A 
ATOM     29  C   UNL A   1      42.424  31.860  34.157  1.00  0.00     0.074 A 
ATOM     30  C   UNL A   1      38.936  34.501  29.416  1.00  0.00     0.029 A 
ATOM     31  N   UNL A   1      39.264  34.464  31.586  1.00  0.00    -0.354 N 
ATOM     32  N   UNL A   1      42.862  32.868  33.457  1.00  0.00    -0.248 NA
ATOM     33  C   UNL A   1      41.048  31.974  34.620  1.00  0.00     0.031 C 
ATOM     34  C   UNL A   1      40.318  34.719  29.697  1.00  0.00     0.029 A 
ATOM     35  C   UNL A   1      40.524  34.468  31.053  1.00  0.00     0.049 A 
ATOM     36  H   UNL A   1      39.025  34.709  32.509  1.00  0.00     0.167 HD
ATOM     37  C   UNL A   1      41.715  33.508  33.010  1.00  0.00     0.074 A 
ATOM     38  C   UNL A   1      40.633  32.968  33.830  1.00  0.00     0.031 C 
ATOM     39  C   UNL A   1      41.710  34.186  31.824  1.00  0.00     0.037 A 
BRANCH  26  40
ATOM     40  C   UNL A   1      36.484  33.248  32.171  1.00  0.00     0.057 A 
ATOM     41  C   UNL A   1      35.454  34.205  32.103  1.00  0.00     0.134 A 
ATOM     42  C   UNL A   1      36.774  32.787  33.474  1.00  0.00     0.134 A 
ATOM     43  F   UNL A   1      35.065  34.714  30.924  1.00  0.00    -0.206 F 
ATOM     44  C   UNL A   1      34.865  34.758  33.246  1.00  0.00     0.040 A 
ATOM     45  C   UNL A   1      36.161  33.299  34.618  1.00  0.00     0.040 A 
ATOM     46  F   UNL A   1      37.725  31.886  33.738  1.00  0.00    -0.206 F 
ATOM     47  C   UNL A   1      35.235  34.321  34.511  1.00  0.00     0.006 A 
ENDBRANCH  26  40
BRANCH  27  48
ATOM     48  C   UNL A   1      43.481  29.808  35.344  1.00  0.00     0.057 A 
ATOM     49  C   UNL A   1      42.863  28.626  35.777  1.00  0.00     0.134 A 
ATOM     50  C   UNL A   1      44.696  30.130  35.973  1.00  0.00     0.134 A 
ATOM     51  F   UNL A   1      41.721  28.206  35.212  1.00  0.00    -0.206 F 
ATOM     52  C   UNL A   1      43.432  27.800  36.757  1.00  0.00     0.040 A 
ATOM     53  C   UNL A   1      45.270  29.322  36.961  1.00  0.00     0.040 A 
ATOM     54  F   UNL A   1      45.419  31.192  35.590  1.00  0.00    -0.206 F 
ATOM     55  C   UNL A   1      44.646  28.144  37.345  1.00  0.00     0.006 A 
ENDBRANCH  27  48
BRANCH  39  56
ATOM     56  C   UNL A   1      43.032  34.462  31.167  1.00  0.00     0.057 A 
ATOM     57  C   UNL A   1      43.636  33.627  30.214  1.00  0.00     0.134 A 
ATOM     58  C   UNL A   1      43.657  35.688  31.418  1.00  0.00     0.134 A 
ATOM     59  F   UNL A   1      43.059  32.481  29.829  1.00  0.00    -0.206 F 
ATOM     60  C   UNL A   1      44.835  33.974  29.585  1.00  0.00     0.040 A 
ATOM     61  C   UNL A   1      44.834  36.064  30.769  1.00  0.00     0.040 A 
ATOM     62  F   UNL A   1      43.106  36.564  32.274  1.00  0.00    -0.206 F 
ATOM     63  C   UNL A   1      45.435  35.200  29.859  1.00  0.00     0.006 A 
ENDBRANCH  39  56
ENDBRANCH  13  14
ENDBRANCH   6   8
ENDBRANCH   5   6
ENDBRANCH   4   5
ENDBRANCH   3   4
ENDBRANCH   2   3
ENDBRANCH   1   2
BRANCH   1  64
ATOM     64  C   UNL A   1      39.900  20.631  26.138  1.00  0.00     0.261 C 
BRANCH  64  65
ATOM     65  O   UNL A   1      38.688  21.309  25.750  1.00  0.00    -0.460 OA
BRANCH  65  66
ATOM     66  C   UNL A   1      37.768  20.534  25.109  1.00  0.00     0.338 C 
ATOM     67  O   UNL A   1      37.917  19.404  24.709  1.00  0.00    -0.246 OA
BRANCH  66  68
ATOM     68  C   UNL A   1      36.436  21.180  25.234  1.00  0.00     0.060 A 
ATOM     69  C   UNL A   1      36.413  22.509  25.687  1.00  0.00     0.018 A 
ATOM     70  C   UNL A   1      35.247  20.516  24.920  1.00  0.00     0.018 A 
ATOM     71  C   UNL A   1      35.207  23.187  25.821  1.00  0.00     0.029 A 
ATOM     72  C   UNL A   1      34.027  21.182  25.090  1.00  0.00     0.029 A 
ATOM     73  C   UNL A   1      34.020  22.519  25.524  1.00  0.00     0.066 A 
BRANCH  73  74
ATOM     74  N   UNL A   1      32.831  23.094  25.997  1.00  0.00    -0.220 N 
ATOM     75  C   UNL A   1      32.001  23.859  25.223  1.00  0.00     0.141 A 
ATOM     76  N   UNL A   1      32.448  23.145  27.280  1.00  0.00    -0.062 NA
ATOM     77  C   UNL A   1      31.110  24.440  26.086  1.00  0.00     0.093 A 
ATOM     78  N   UNL A   1      31.377  23.933  27.345  1.00  0.00    -0.134 NA
BRANCH  77  79
ATOM     79  C   UNL A   1      30.257  25.650  25.955  1.00  0.00     0.138 C 
BRANCH  79  80
ATOM     80  S   UNL A   1      30.390  26.929  24.716  1.00  0.00    -0.081 SA
BRANCH  80  81
ATOM     81  C   UNL A   1      31.365  28.302  25.150  1.00  0.00     0.176 A 
ATOM     82  N   UNL A   1      32.491  27.933  25.689  1.00  0.00    -0.223 NA
ATOM     83  N   UNL A   1      31.056  29.642  24.973  1.00  0.00    -0.255 N 
ATOM     84  C   UNL A   1      33.336  28.912  26.219  1.00  0.00     0.079 A 
ATOM     85  C   UNL A   1      31.491  30.459  26.028  1.00  0.00     0.266 A 
ATOM     86  C   UNL A   1      34.670  28.634  26.517  1.00  0.00     0.029 A 
ATOM     87  C   UNL A   1      32.818  30.146  26.574  1.00  0.00     0.066 A 
ATOM     88  O   UNL A   1      30.852  31.374  26.546  1.00  0.00    -0.268 OA
ATOM     89  C   UNL A   1      35.439  29.562  27.231  1.00  0.00     0.002 A 
ATOM     90  C   UNL A   1      33.547  31.058  27.342  1.00  0.00     0.016 A 
ATOM     91  C   UNL A   1      34.865  30.754  27.679  1.00  0.00     0.001 A 
BRANCH  83  92
ATOM     92  C   UNL A   1      30.287  30.252  23.903  1.00  0.00     0.051 A 
ATOM     93  C   UNL A   1      29.630  31.482  24.124  1.00  0.00     0.027 A 
ATOM     94  C   UNL A   1      30.097  29.683  22.640  1.00  0.00     0.027 A 
ATOM     95  C   UNL A   1      28.661  31.978  23.248  1.00  0.00     0.002 A 
ATOM     96  C   UNL A   1      29.082  30.136  21.785  1.00  0.00     0.002 A 
ATOM     97  C   UNL A   1      28.340  31.264  22.106  1.00  0.00     0.000 A 
ENDBRANCH  83  92
ENDBRANCH  80  81
ENDBRANCH  79  80
ENDBRANCH  77  79
ENDBRANCH  73  74
ENDBRANCH  66  68
ENDBRANCH  65  66
ENDBRANCH  64  65
ENDBRANCH   1  64
TORSDOF 19
ENDMDL
MODEL 2
REMARK VINA RESULT:     -11.7      2.041      6.331
REMARK SMILES O=C(OCCOCCOC(=O)c1ccc(-n2cc(CSc3nc4ccccc4c(=O)n3-c3ccccc3)nn2)cc1)c1ccc(-c2c3nc(c(-c4c(F)cccc4F)c4ccc([nH]4)c(-c4c(F)cccc4F)c4nc(c(-c5c(F)cccc5F)c5ccc2[nH]5)C=C4)C=C3)cc1
REMARK SMILES IDX 7 1 6 2 5 3 4 4 3 5 2 6 1 7 42 8 43 9 95 10 44 11 94 12
REMARK SMILES IDX 45 13 46 14 47 15 88 16 48 17 93 18 87 19 89 20 49 21 92 22
REMARK SMILES IDX 86 23 85 24 50 26 76 27 59 28 75 29 60 30 63 31 74 32 90 33
REMARK SMILES IDX 61 34 62 35 73 37 91 38 64 39 51 40 52 41 57 42 53 43 54 44
REMARK SMILES IDX 56 45 58 46 55 47 77 48 78 49 83 50 79 51 80 52 82 53 84 54
REMARK SMILES IDX 81 55 65 56 66 57 71 58 67 59 68 60 70 61 72 62 69 63 8 64
REMARK SMILES IDX 9 65 10 66 11 67 12 68 13 69 41 70 14 71 40 72 15 73 16 74
REMARK SMILES IDX 17 75 39 76 18 77 38 78 19 79 20 80 21 81 22 82 31 83 23 84
REMARK SMILES IDX 29 85 24 86 28 87 30 88 25 89 27 90 26 91 32 92 33 93 37 94
REMARK SMILES IDX 34 95 36 96 35 97
REMARK H PARENT 89 25 63 36
REMARK Flexibility Score: inf
ROOT
ATOM      1  C   UNL A   1      41.571  21.402  27.131  1.00  0.00     0.202 C 
ENDROOT
BRANCH   1   2
ATOM      2  O   UNL A   1      42.923  21.766  26.804  1.00  0.00    -0.374 OA
BRANCH   2   3
ATOM      3  C   UNL A   1      43.422  22.973  27.365  1.00  0.00     0.202 C 
BRANCH   3   4
ATOM      4  C   UNL A   1      42.982  24.303  26.756  1.00  0.00     0.261 C 
BRANCH   4   5
ATOM      5  O   UNL A   1      41.586  24.333  26.409  1.00  0.00    -0.460 OA
BRANCH   5   6
ATOM      6  C   UNL A   1      40.606  24.881  27.161  1.00  0.00     0.338 C 
ATOM      7  O   UNL A   1      39.652  24.199  27.528  1.00  0.00    -0.246 OA
BRANCH   6   8
ATOM      8  C   UNL A   1      40.825  26.209  27.781  1.00  0.00     0.060 A 
ATOM      9  C   UNL A   1      41.193  26.426  29.107  1.00  0.00     0.016 A 
ATOM     10  C   UNL A   1      40.503  27.306  26.968  1.00  0.00     0.016 A 
ATOM     11  C   UNL A   1      40.937  27.645  29.695  1.00  0.00     0.010 A 
ATOM     12  C   UNL A   1      40.333  28.554  27.528  1.00  0.00     0.010 A 
ATOM     13  C   UNL A   1      40.448  28.685  28.907  1.00  0.00    -0.014 A 
BRANCH  13  14
ATOM     14  C   UNL A   1      40.254  29.968  29.551  1.00  0.00     0.031 A 
ATOM     15  C   UNL A   1      41.496  30.784  29.570  1.00  0.00     0.074 A 
ATOM     16  C   UNL A   1      39.041  30.378  29.965  1.00  0.00     0.049 A 
ATOM     17  N   UNL A   1      42.145  31.220  30.597  1.00  0.00    -0.248 NA
ATOM     18  C   UNL A   1      42.208  30.969  28.291  1.00  0.00     0.031 C 
ATOM     19  C   UNL A   1      37.754  29.710  29.753  1.00  0.00     0.029 A 
ATOM     20  N   UNL A   1      38.679  31.545  30.562  1.00  0.00    -0.354 N 
ATOM     21  C   UNL A   1      43.215  31.944  30.077  1.00  0.00     0.074 A 
ATOM     22  C   UNL A   1      43.324  31.577  28.694  1.00  0.00     0.031 C 
ATOM     23  C   UNL A   1      36.753  30.588  29.980  1.00  0.00     0.029 A 
ATOM     24  C   UNL A   1      37.321  31.833  30.466  1.00  0.00     0.049 A 
ATOM     25  H   UNL A   1      39.320  32.135  31.021  1.00  0.00     0.167 HD
ATOM     26  C   UNL A   1      43.691  33.027  30.746  1.00  0.00     0.037 A 
ATOM     27  C   UNL A   1      36.740  33.040  30.683  1.00  0.00     0.037 A 
ATOM     28  C   UNL A   1      43.388  32.931  32.156  1.00  0.00     0.049 A 
ATOM     29  C   UNL A   1      37.705  33.868  31.450  1.00  0.00     0.074 A 
ATOM     30  C   UNL A   1      43.642  31.998  33.144  1.00  0.00     0.029 A 
ATOM     31  N   UNL A   1      42.386  33.729  32.650  1.00  0.00    -0.354 N 
ATOM     32  N   UNL A   1      38.029  33.642  32.692  1.00  0.00    -0.248 NA
ATOM     33  C   UNL A   1      38.661  34.663  30.691  1.00  0.00     0.031 C 
ATOM     34  C   UNL A   1      42.468  31.987  33.954  1.00  0.00     0.029 A 
ATOM     35  C   UNL A   1      41.599  32.960  33.464  1.00  0.00     0.049 A 
ATOM     36  H   UNL A   1      42.256  34.685  32.453  1.00  0.00     0.167 HD
ATOM     37  C   UNL A   1      39.398  33.858  32.740  1.00  0.00     0.074 A 
ATOM     38  C   UNL A   1      39.717  34.571  31.504  1.00  0.00     0.031 C 
ATOM     39  C   UNL A   1      40.182  33.178  33.628  1.00  0.00     0.037 A 
BRANCH  26  40
ATOM     40  C   UNL A   1      43.949  34.356  30.059  1.00  0.00     0.057 A 
ATOM     41  C   UNL A   1      45.126  35.055  30.380  1.00  0.00     0.134 A 
ATOM     42  C   UNL A   1      42.973  35.124  29.385  1.00  0.00     0.134 A 
ATOM     43  F   UNL A   1      46.142  34.441  31.006  1.00  0.00    -0.206 F 
ATOM     44  C   UNL A   1      45.262  36.434  30.177  1.00  0.00     0.040 A 
ATOM     45  C   UNL A   1      43.117  36.490  29.136  1.00  0.00     0.040 A 
ATOM     46  F   UNL A   1      41.788  34.636  29.006  1.00  0.00    -0.206 F 
ATOM     47  C   UNL A   1      44.245  37.160  29.574  1.00  0.00     0.006 A 
ENDBRANCH  26  40
BRANCH  27  48
ATOM     48  C   UNL A   1      35.562  33.635  30.005  1.00  0.00     0.057 A 
ATOM     49  C   UNL A   1      34.558  34.284  30.739  1.00  0.00     0.134 A 
ATOM     50  C   UNL A   1      35.520  33.822  28.612  1.00  0.00     0.134 A 
ATOM     51  F   UNL A   1      34.533  34.204  32.078  1.00  0.00    -0.206 F 
ATOM     52  C   UNL A   1      33.588  35.090  30.128  1.00  0.00     0.040 A 
ATOM     53  C   UNL A   1      34.551  34.615  27.987  1.00  0.00     0.040 A 
ATOM     54  F   UNL A   1      36.471  33.319  27.812  1.00  0.00    -0.206 F 
ATOM     55  C   UNL A   1      33.589  35.265  28.747  1.00  0.00     0.006 A 
ENDBRANCH  27  48
BRANCH  39  56
ATOM     56  C   UNL A   1      39.499  32.417  34.729  1.00  0.00     0.057 A 
ATOM     57  C   UNL A   1      39.190  32.951  35.990  1.00  0.00     0.134 A 
ATOM     58  C   UNL A   1      39.023  31.131  34.454  1.00  0.00     0.134 A 
ATOM     59  F   UNL A   1      39.511  34.212  36.309  1.00  0.00    -0.206 F 
ATOM     60  C   UNL A   1      38.489  32.214  36.949  1.00  0.00     0.040 A 
ATOM     61  C   UNL A   1      38.289  30.400  35.388  1.00  0.00     0.040 A 
ATOM     62  F   UNL A   1      39.230  30.578  33.247  1.00  0.00    -0.206 F 
ATOM     63  C   UNL A   1      38.031  30.935  36.646  1.00  0.00     0.006 A 
ENDBRANCH  39  56
ENDBRANCH  13  14
ENDBRANCH   6   8
ENDBRANCH   5   6
ENDBRANCH   4   5
ENDBRANCH   3   4
ENDBRANCH   2   3
ENDBRANCH   1   2
BRANCH   1  64
ATOM     64  C   UNL A   1      40.861  20.277  26.354  1.00  0.00     0.261 C 
BRANCH  64  65
ATOM     65  O   UNL A   1      39.559  20.662  25.869  1.00  0.00    -0.460 OA
BRANCH  65  66
ATOM     66  C   UNL A   1      38.804  19.647  25.361  1.00  0.00     0.338 C 
ATOM     67  O   UNL A   1      39.096  18.476  25.307  1.00  0.00    -0.246 OA
BRANCH  66  68
ATOM     68  C   UNL A   1      37.422  20.147  25.145  1.00  0.00     0.060 A 
ATOM     69  C   UNL A   1      37.240  21.539  25.160  1.00  0.00     0.018 A 
ATOM     70  C   UNL A   1      36.338  19.292  24.934  1.00  0.00     0.018 A 
ATOM     71  C   UNL A   1      35.979  22.087  24.956  1.00  0.00     0.029 A 
ATOM     72  C   UNL A   1      35.059  19.837  24.765  1.00  0.00     0.029 A 
ATOM     73  C   UNL A   1      34.895  21.233  24.762  1.00  0.00     0.066 A 
BRANCH  73  74
ATOM     74  N   UNL A   1      33.615  21.786  24.911  1.00  0.00    -0.220 N 
ATOM     75  C   UNL A   1      32.988  22.517  23.938  1.00  0.00     0.141 A 
ATOM     76  N   UNL A   1      32.923  21.849  26.057  1.00  0.00    -0.062 NA
ATOM     77  C   UNL A   1      31.898  23.090  24.539  1.00  0.00     0.093 A 
ATOM     78  N   UNL A   1      31.853  22.611  25.836  1.00  0.00    -0.134 NA
BRANCH  77  79
ATOM     79  C   UNL A   1      31.081  24.276  24.172  1.00  0.00     0.138 C 
BRANCH  79  80
ATOM     80  S   UNL A   1      30.538  25.584  25.260  1.00  0.00    -0.081 SA
BRANCH  80  81
ATOM     81  C   UNL A   1      30.405  27.160  24.538  1.00  0.00     0.176 A 
ATOM     82  N   UNL A   1      29.257  27.313  23.942  1.00  0.00    -0.223 NA
ATOM     83  N   UNL A   1      31.349  28.175  24.555  1.00  0.00    -0.255 N 
ATOM     84  C   UNL A   1      29.037  28.473  23.194  1.00  0.00     0.079 A 
ATOM     85  C   UNL A   1      31.409  28.902  23.357  1.00  0.00     0.266 A 
ATOM     86  C   UNL A   1      27.753  28.849  22.801  1.00  0.00     0.029 A 
ATOM     87  C   UNL A   1      30.117  29.201  22.725  1.00  0.00     0.066 A 
ATOM     88  O   UNL A   1      32.433  29.272  22.785  1.00  0.00    -0.268 OA
ATOM     89  C   UNL A   1      27.576  29.896  21.887  1.00  0.00     0.002 A 
ATOM     90  C   UNL A   1      29.967  30.206  21.765  1.00  0.00     0.016 A 
ATOM     91  C   UNL A   1      28.684  30.545  21.338  1.00  0.00     0.001 A 
BRANCH  83  92
ATOM     92  C   UNL A   1      32.301  28.497  25.603  1.00  0.00     0.051 A 
ATOM     93  C   UNL A   1      32.041  29.573  26.481  1.00  0.00     0.027 A 
ATOM     94  C   UNL A   1      33.519  27.839  25.797  1.00  0.00     0.027 A 
ATOM     95  C   UNL A   1      33.025  30.107  27.316  1.00  0.00     0.002 A 
ATOM     96  C   UNL A   1      34.534  28.405  26.583  1.00  0.00     0.002 A 
ATOM     97  C   UNL A   1      34.297  29.560  27.316  1.00  0.00     0.000 A 
ENDBRANCH  83  92
ENDBRANCH  80  81
ENDBRANCH  79  80
ENDBRANCH  77  79
ENDBRANCH  73  74
ENDBRANCH  66  68
ENDBRANCH  65  66
ENDBRANCH  64  65
ENDBRANCH   1  64
TORSDOF 19
ENDMDL
MODEL 3
REMARK VINA RESULT:     -11.4      2.744      6.669
REMARK SMILES O=C(OCCOCCOC(=O)c1ccc(-n2cc(CSc3nc4ccccc4c(=O)n3-c3ccccc3)nn2)cc1)c1ccc(-c2c3nc(c(-c4c(F)cccc4F)c4ccc([nH]4)c(-c4c(F)cccc4F)c4nc(c(-c5c(F)cccc5F)c5ccc2[nH]5)C=C4)C=C3)cc1
REMARK SMILES IDX 7 1 6 2 5 3 4 4 3 5 2 6 1 7 42 8 43 9 95 10 44 11 94 12
REMARK SMILES IDX 45 13 46 14 47 15 88 16 48 17 93 18 87 19 89 20 49 21 92 22
REMARK SMILES IDX 86 23 85 24 50 26 76 27 59 28 75 29 60 30 63 31 74 32 90 33
REMARK SMILES IDX 61 34 62 35 73 37 91 38 64 39 51 40 52 41 57 42 53 43 54 44
REMARK SMILES IDX 56 45 58 46 55 47 77 48 78 49 83 50 79 51 80 52 82 53 84 54
REMARK SMILES IDX 81 55 65 56 66 57 71 58 67 59 68 60 70 61 72 62 69 63 8 64
REMARK SMILES IDX 9 65 10 66 11 67 12 68 13 69 41 70 14 71 40 72 15 73 16 74
REMARK SMILES IDX 17 75 39 76 18 77 38 78 19 79 20 80 21 81 22 82 31 83 23 84
REMARK SMILES IDX 29 85 24 86 28 87 30 88 25 89 27 90 26 91 32 92 33 93 37 94
REMARK SMILES IDX 34 95 36 96 35 97
REMARK H PARENT 89 25 63 36
REMARK Flexibility Score: inf
ROOT
ATOM      1  C   UNL A   1      42.315  22.217  25.863  1.00  0.00     0.202 C 
ENDROOT
BRANCH   1   2
ATOM      2  O   UNL A   1      43.047  22.315  24.629  1.00  0.00    -0.374 OA
BRANCH   2   3
ATOM      3  C   UNL A   1      44.448  22.087  24.689  1.00  0.00     0.202 C 
BRANCH   3   4
ATOM      4  C   UNL A   1      45.185  22.378  25.995  1.00  0.00     0.261 C 
BRANCH   4   5
ATOM      5  O   UNL A   1      46.476  22.979  25.796  1.00  0.00    -0.460 OA
BRANCH   5   6
ATOM      6  C   UNL A   1      46.697  24.196  25.253  1.00  0.00     0.338 C 
ATOM      7  O   UNL A   1      47.014  24.300  24.070  1.00  0.00    -0.246 OA
BRANCH   6   8
ATOM      8  C   UNL A   1      46.276  25.408  25.996  1.00  0.00     0.060 A 
ATOM      9  C   UNL A   1      46.777  25.806  27.233  1.00  0.00     0.016 A 
ATOM     10  C   UNL A   1      45.200  26.109  25.432  1.00  0.00     0.016 A 
ATOM     11  C   UNL A   1      46.036  26.652  28.029  1.00  0.00     0.010 A 
ATOM     12  C   UNL A   1      44.503  27.028  26.187  1.00  0.00     0.010 A 
ATOM     13  C   UNL A   1      44.867  27.209  27.516  1.00  0.00    -0.014 A 
BRANCH  13  14
ATOM     14  C   UNL A   1      44.153  28.144  28.362  1.00  0.00     0.031 A 
ATOM     15  C   UNL A   1      44.895  29.417  28.549  1.00  0.00     0.074 A 
ATOM     16  C   UNL A   1      42.909  27.889  28.809  1.00  0.00     0.049 A 
ATOM     17  N   UNL A   1      45.334  29.926  29.651  1.00  0.00    -0.248 NA
ATOM     18  C   UNL A   1      45.379  30.107  27.337  1.00  0.00     0.031 C 
ATOM     19  C   UNL A   1      42.050  26.756  28.454  1.00  0.00     0.029 A 
ATOM     20  N   UNL A   1      42.095  28.654  29.584  1.00  0.00    -0.354 N 
ATOM     21  C   UNL A   1      45.936  31.129  29.287  1.00  0.00     0.074 A 
ATOM     22  C   UNL A   1      46.123  31.079  27.864  1.00  0.00     0.031 C 
ATOM     23  C   UNL A   1      40.775  27.039  28.801  1.00  0.00     0.029 A 
ATOM     24  C   UNL A   1      40.749  28.309  29.504  1.00  0.00     0.049 A 
ATOM     25  H   UNL A   1      42.427  29.387  30.151  1.00  0.00     0.167 HD
ATOM     26  C   UNL A   1      45.910  32.187  30.140  1.00  0.00     0.037 A 
ATOM     27  C   UNL A   1      39.701  29.071  29.907  1.00  0.00     0.037 A 
ATOM     28  C   UNL A   1      45.760  31.738  31.505  1.00  0.00     0.049 A 
ATOM     29  C   UNL A   1      40.231  30.109  30.826  1.00  0.00     0.074 A 
ATOM     30  C   UNL A   1      46.458  30.874  32.328  1.00  0.00     0.029 A 
ATOM     31  N   UNL A   1      44.534  31.906  32.102  1.00  0.00    -0.354 N 
ATOM     32  N   UNL A   1      40.690  29.856  32.019  1.00  0.00    -0.248 NA
ATOM     33  C   UNL A   1      40.686  31.361  30.236  1.00  0.00     0.031 C 
ATOM     34  C   UNL A   1      45.460  30.204  33.096  1.00  0.00     0.029 A 
ATOM     35  C   UNL A   1      44.221  30.745  32.754  1.00  0.00     0.049 A 
ATOM     36  H   UNL A   1      43.979  32.718  32.065  1.00  0.00     0.167 HD
ATOM     37  C   UNL A   1      41.816  30.656  32.138  1.00  0.00     0.074 A 
ATOM     38  C   UNL A   1      41.714  31.625  31.048  1.00  0.00     0.031 C 
ATOM     39  C   UNL A   1      42.869  30.270  32.918  1.00  0.00     0.037 A 
BRANCH  26  40
ATOM     40  C   UNL A   1      45.506  33.580  29.693  1.00  0.00     0.057 A 
ATOM     41  C   UNL A   1      46.258  34.674  30.161  1.00  0.00     0.134 A 
ATOM     42  C   UNL A   1      44.257  33.921  29.130  1.00  0.00     0.134 A 
ATOM     43  F   UNL A   1      47.472  34.493  30.703  1.00  0.00    -0.206 F 
ATOM     44  C   UNL A   1      45.747  35.977  30.197  1.00  0.00     0.040 A 
ATOM     45  C   UNL A   1      43.757  35.225  29.119  1.00  0.00     0.040 A 
ATOM     46  F   UNL A   1      43.401  33.019  28.641  1.00  0.00    -0.206 F 
ATOM     47  C   UNL A   1      44.483  36.252  29.694  1.00  0.00     0.006 A 
ENDBRANCH  26  40
BRANCH  27  48
ATOM     48  C   UNL A   1      38.347  29.171  29.309  1.00  0.00     0.057 A 
ATOM     49  C   UNL A   1      37.202  29.223  30.119  1.00  0.00     0.134 A 
ATOM     50  C   UNL A   1      38.152  29.488  27.953  1.00  0.00     0.134 A 
ATOM     51  F   UNL A   1      37.287  28.979  31.435  1.00  0.00    -0.206 F 
ATOM     52  C   UNL A   1      35.947  29.594  29.617  1.00  0.00     0.040 A 
ATOM     53  C   UNL A   1      36.903  29.849  27.436  1.00  0.00     0.040 A 
ATOM     54  F   UNL A   1      39.182  29.550  27.097  1.00  0.00    -0.206 F 
ATOM     55  C   UNL A   1      35.797  29.918  28.272  1.00  0.00     0.006 A 
ENDBRANCH  27  48
BRANCH  39  56
ATOM     56  C   UNL A   1      42.661  29.116  33.857  1.00  0.00     0.057 A 
ATOM     57  C   UNL A   1      42.096  29.226  35.138  1.00  0.00     0.134 A 
ATOM     58  C   UNL A   1      42.927  27.824  33.394  1.00  0.00     0.134 A 
ATOM     59  F   UNL A   1      41.710  30.412  35.628  1.00  0.00    -0.206 F 
ATOM     60  C   UNL A   1      41.863  28.104  35.938  1.00  0.00     0.040 A 
ATOM     61  C   UNL A   1      42.663  26.693  34.168  1.00  0.00     0.040 A 
ATOM     62  F   UNL A   1      43.413  27.637  32.156  1.00  0.00    -0.206 F 
ATOM     63  C   UNL A   1      42.142  26.831  35.451  1.00  0.00     0.006 A 
ENDBRANCH  39  56
ENDBRANCH  13  14
ENDBRANCH   6   8
ENDBRANCH   5   6
ENDBRANCH   4   5
ENDBRANCH   3   4
ENDBRANCH   2   3
ENDBRANCH   1   2
BRANCH   1  64
ATOM     64  C   UNL A   1      41.601  20.903  26.239  1.00  0.00     0.261 C 
BRANCH  64  65
ATOM     65  O   UNL A   1      40.213  21.094  26.581  1.00  0.00    -0.460 OA
BRANCH  65  66
ATOM     66  C   UNL A   1      39.319  20.591  25.684  1.00  0.00     0.338 C 
ATOM     67  O   UNL A   1      39.278  19.467  25.246  1.00  0.00    -0.246 OA
BRANCH  66  68
ATOM     68  C   UNL A   1      38.200  21.558  25.538  1.00  0.00     0.060 A 
ATOM     69  C   UNL A   1      37.081  21.130  24.807  1.00  0.00     0.018 A 
ATOM     70  C   UNL A   1      38.237  22.838  26.096  1.00  0.00     0.018 A 
ATOM     71  C   UNL A   1      35.988  21.972  24.634  1.00  0.00     0.029 A 
ATOM     72  C   UNL A   1      37.155  23.704  25.893  1.00  0.00     0.029 A 
ATOM     73  C   UNL A   1      36.033  23.256  25.176  1.00  0.00     0.066 A 
BRANCH  73  74
ATOM     74  N   UNL A   1      35.094  24.182  24.696  1.00  0.00    -0.220 N 
ATOM     75  C   UNL A   1      34.493  24.085  23.470  1.00  0.00     0.141 A 
ATOM     76  N   UNL A   1      34.808  25.362  25.262  1.00  0.00    -0.062 NA
ATOM     77  C   UNL A   1      33.860  25.282  23.265  1.00  0.00     0.093 A 
ATOM     78  N   UNL A   1      34.025  26.030  24.416  1.00  0.00    -0.134 NA
BRANCH  77  79
ATOM     79  C   UNL A   1      33.401  25.953  22.020  1.00  0.00     0.138 C 
BRANCH  79  80
ATOM     80  S   UNL A   1      31.715  26.288  21.539  1.00  0.00    -0.081 SA
BRANCH  80  81
ATOM     81  C   UNL A   1      30.866  27.446  22.519  1.00  0.00     0.176 A 
ATOM     82  N   UNL A   1      30.241  28.321  21.785  1.00  0.00    -0.223 NA
ATOM     83  N   UNL A   1      30.810  27.496  23.904  1.00  0.00    -0.255 N 
ATOM     84  C   UNL A   1      29.617  29.403  22.412  1.00  0.00     0.079 A 
ATOM     85  C   UNL A   1      30.824  28.802  24.416  1.00  0.00     0.266 A 
ATOM     86  C   UNL A   1      28.680  30.188  21.741  1.00  0.00     0.029 A 
ATOM     87  C   UNL A   1      30.022  29.787  23.680  1.00  0.00     0.066 A 
ATOM     88  O   UNL A   1      31.467  29.189  25.391  1.00  0.00    -0.268 OA
ATOM     89  C   UNL A   1      28.222  31.381  22.315  1.00  0.00     0.002 A 
ATOM     90  C   UNL A   1      29.627  31.004  24.242  1.00  0.00     0.016 A 
ATOM     91  C   UNL A   1      28.727  31.808  23.546  1.00  0.00     0.001 A 
BRANCH  83  92
ATOM     92  C   UNL A   1      30.825  26.388  24.843  1.00  0.00     0.051 A 
ATOM     93  C   UNL A   1      31.310  26.586  26.154  1.00  0.00     0.027 A 
ATOM     94  C   UNL A   1      30.427  25.083  24.535  1.00  0.00     0.027 A 
ATOM     95  C   UNL A   1      31.611  25.521  27.006  1.00  0.00     0.002 A 
ATOM     96  C   UNL A   1      30.785  24.003  25.355  1.00  0.00     0.002 A 
ATOM     97  C   UNL A   1      31.409  24.220  26.576  1.00  0.00     0.000 A 
ENDBRANCH  83  92
ENDBRANCH  80  81
ENDBRANCH  79  80
ENDBRANCH  77  79
ENDBRANCH  73  74
ENDBRANCH  66  68
ENDBRANCH  65  66
ENDBRANCH  64  65
ENDBRANCH   1  64
TORSDOF 19
ENDMDL
