MODEL 1
REMARK VINA RESULT:     -10.1      0.000      0.000
REMARK SMILES O=C(C[C@H]1C(=O)N[NH+]=C2c3ccc(F)cc3N=CN21)OCCOCCOC(=O)c1ccc(-c2c3nc(c(-c4c(F)cccc4F)c4ccc([nH]4)c(-c4c(F)cccc4F)c4nc(c(-c5c(F)cccc5F)c5ccc2[nH]5)C=C4)C=C3)cc1
REMARK SMILES IDX 24 1 23 2 22 3 21 4 20 5 2 6 1 7 3 8 4 9 5 10 19 11 6 12
REMARK SMILES IDX 7 13 9 14 18 15 8 16 10 18 17 19 11 21 16 22 12 23 15 24
REMARK SMILES IDX 13 25 14 26 25 27 26 28 27 29 28 30 29 31 30 32 82 33 31 34
REMARK SMILES IDX 81 35 32 36 33 37 34 38 75 39 35 40 80 41 74 42 76 43 36 44
REMARK SMILES IDX 79 45 73 46 72 47 37 49 63 50 46 51 62 52 47 53 50 54 61 55
REMARK SMILES IDX 77 56 48 57 49 58 60 60 78 61 51 62 38 63 39 64 44 65 40 66
REMARK SMILES IDX 41 67 43 68 45 69 42 70 64 71 65 72 70 73 66 74 67 75 69 76
REMARK SMILES IDX 71 77 68 78 52 79 53 80 58 81 54 82 55 83 57 84 59 85 56 86
REMARK H PARENT 7 17 8 20 76 48 50 59
REMARK Flexibility Score: inf
ROOT
ATOM      1  C   UNL A   1      33.262  34.764  28.381  1.00  0.00     0.202 C 
ENDROOT
BRANCH   1   2
ATOM      2  O   UNL A   1      32.879  34.856  29.762  1.00  0.00    -0.374 OA
BRANCH   2   3
ATOM      3  C   UNL A   1      32.550  36.169  30.216  1.00  0.00     0.202 C 
BRANCH   3   4
ATOM      4  C   UNL A   1      32.973  36.399  31.663  1.00  0.00     0.261 C 
BRANCH   4   5
ATOM      5  O   UNL A   1      34.032  35.490  32.024  1.00  0.00    -0.463 OA
BRANCH   5   6
ATOM      6  C   UNL A   1      34.479  35.414  33.300  1.00  0.00     0.310 C 
ATOM      7  O   UNL A   1      34.545  36.421  33.994  1.00  0.00    -0.252 OA
BRANCH   6   8
ATOM      8  C   UNL A   1      34.841  34.037  33.795  1.00  0.00     0.183 C 
BRANCH   8   9
ATOM      9  C   UNL A   1      35.789  33.310  32.854  1.00  0.00     0.286 C 
ATOM     10  C   UNL A   1      35.056  33.001  31.556  1.00  0.00     0.300 C 
ATOM     11  N   UNL A   1      37.080  33.979  32.672  1.00  0.00    -0.202 N 
ATOM     12  O   UNL A   1      34.024  32.328  31.536  1.00  0.00    -0.267 OA
ATOM     13  N   UNL A   1      35.583  33.509  30.403  1.00  0.00    -0.193 N 
ATOM     14  C   UNL A   1      37.510  34.211  31.374  1.00  0.00     0.309 C 
ATOM     15  C   UNL A   1      37.903  34.207  33.752  1.00  0.00     0.317 C 
ATOM     16  N   UNL A   1      36.819  34.045  30.285  1.00  0.00    -0.169 N 
ATOM     17  H   UNL A   1      35.020  33.484  29.596  1.00  0.00     0.216 HD
ATOM     18  C   UNL A   1      38.951  34.562  31.235  1.00  0.00     0.092 A 
ATOM     19  N   UNL A   1      39.157  34.518  33.706  1.00  0.00    -0.216 NA
ATOM     20  H   UNL A   1      37.183  34.300  29.407  1.00  0.00     0.340 HD
ATOM     21  C   UNL A   1      39.547  34.598  29.968  1.00  0.00     0.022 A 
ATOM     22  C   UNL A   1      39.721  34.583  32.413  1.00  0.00     0.085 A 
ATOM     23  C   UNL A   1      40.934  34.556  29.875  1.00  0.00     0.040 A 
ATOM     24  C   UNL A   1      41.109  34.562  32.298  1.00  0.00     0.068 A 
ATOM     25  C   UNL A   1      41.698  34.514  31.038  1.00  0.00     0.125 A 
ATOM     26  F   UNL A   1      43.027  34.378  30.940  1.00  0.00    -0.207 F 
ENDBRANCH   8   9
ENDBRANCH   6   8
ENDBRANCH   5   6
ENDBRANCH   4   5
ENDBRANCH   3   4
ENDBRANCH   2   3
ENDBRANCH   1   2
BRANCH   1  27
ATOM     27  C   UNL A   1      33.144  33.357  27.786  1.00  0.00     0.261 C 
BRANCH  27  28
ATOM     28  O   UNL A   1      34.351  32.617  28.025  1.00  0.00    -0.460 OA
BRANCH  28  29
ATOM     29  C   UNL A   1      34.266  31.275  27.846  1.00  0.00     0.338 C 
ATOM     30  O   UNL A   1      33.406  30.661  27.252  1.00  0.00    -0.246 OA
BRANCH  29  31
ATOM     31  C   UNL A   1      35.553  30.681  28.278  1.00  0.00     0.060 A 
ATOM     32  C   UNL A   1      36.753  30.979  27.627  1.00  0.00     0.016 A 
ATOM     33  C   UNL A   1      35.526  29.750  29.326  1.00  0.00     0.016 A 
ATOM     34  C   UNL A   1      37.932  30.361  28.043  1.00  0.00     0.010 A 
ATOM     35  C   UNL A   1      36.703  29.125  29.736  1.00  0.00     0.010 A 
ATOM     36  C   UNL A   1      37.914  29.448  29.111  1.00  0.00    -0.014 A 
BRANCH  36  37
ATOM     37  C   UNL A   1      39.188  28.975  29.691  1.00  0.00     0.031 A 
ATOM     38  C   UNL A   1      39.776  29.598  30.918  1.00  0.00     0.074 A 
ATOM     39  C   UNL A   1      39.816  27.968  29.055  1.00  0.00     0.049 A 
ATOM     40  N   UNL A   1      40.859  29.259  31.568  1.00  0.00    -0.248 NA
ATOM     41  C   UNL A   1      39.066  30.753  31.487  1.00  0.00     0.031 C 
ATOM     42  C   UNL A   1      39.337  27.322  27.830  1.00  0.00     0.029 A 
ATOM     43  N   UNL A   1      40.984  27.314  29.342  1.00  0.00    -0.354 N 
ATOM     44  C   UNL A   1      40.959  30.147  32.630  1.00  0.00     0.074 A 
ATOM     45  C   UNL A   1      39.843  31.063  32.518  1.00  0.00     0.031 C 
ATOM     46  C   UNL A   1      40.195  26.352  27.481  1.00  0.00     0.029 A 
ATOM     47  C   UNL A   1      41.294  26.328  28.437  1.00  0.00     0.049 A 
ATOM     48  H   UNL A   1      41.547  27.530  30.120  1.00  0.00     0.167 HD
ATOM     49  C   UNL A   1      41.896  30.178  33.609  1.00  0.00     0.037 A 
ATOM     50  C   UNL A   1      42.353  25.501  28.388  1.00  0.00     0.037 A 
ATOM     51  C   UNL A   1      43.003  29.260  33.698  1.00  0.00     0.049 A 
ATOM     52  C   UNL A   1      43.389  25.589  29.471  1.00  0.00     0.074 A 
ATOM     53  C   UNL A   1      43.974  29.173  34.681  1.00  0.00     0.029 A 
ATOM     54  N   UNL A   1      43.296  28.281  32.761  1.00  0.00    -0.354 N 
ATOM     55  N   UNL A   1      43.419  26.369  30.525  1.00  0.00    -0.248 NA
ATOM     56  C   UNL A   1      44.535  24.678  29.362  1.00  0.00     0.031 C 
ATOM     57  C   UNL A   1      44.883  28.175  34.312  1.00  0.00     0.029 A 
ATOM     58  C   UNL A   1      44.450  27.606  33.125  1.00  0.00     0.049 A 
ATOM     59  H   UNL A   1      42.763  28.092  31.955  1.00  0.00     0.167 HD
ATOM     60  C   UNL A   1      44.565  26.017  31.224  1.00  0.00     0.074 A 
ATOM     61  C   UNL A   1      45.196  24.946  30.479  1.00  0.00     0.031 C 
ATOM     62  C   UNL A   1      45.053  26.533  32.377  1.00  0.00     0.037 A 
BRANCH  49  63
ATOM     63  C   UNL A   1      41.775  31.238  34.665  1.00  0.00     0.057 A 
ATOM     64  C   UNL A   1      40.842  31.111  35.701  1.00  0.00     0.134 A 
ATOM     65  C   UNL A   1      42.523  32.421  34.609  1.00  0.00     0.134 A 
ATOM     66  F   UNL A   1      40.086  30.008  35.807  1.00  0.00    -0.206 F 
ATOM     67  C   UNL A   1      40.649  32.128  36.639  1.00  0.00     0.040 A 
ATOM     68  C   UNL A   1      42.354  33.435  35.553  1.00  0.00     0.040 A 
ATOM     69  F   UNL A   1      43.436  32.603  33.644  1.00  0.00    -0.206 F 
ATOM     70  C   UNL A   1      41.407  33.294  36.567  1.00  0.00     0.006 A 
ENDBRANCH  49  63
BRANCH  50  71
ATOM     71  C   UNL A   1      42.487  24.516  27.287  1.00  0.00     0.057 A 
ATOM     72  C   UNL A   1      43.247  24.798  26.146  1.00  0.00     0.134 A 
ATOM     73  C   UNL A   1      41.889  23.253  27.370  1.00  0.00     0.134 A 
ATOM     74  F   UNL A   1      43.834  25.995  26.000  1.00  0.00    -0.206 F 
ATOM     75  C   UNL A   1      43.418  23.856  25.132  1.00  0.00     0.040 A 
ATOM     76  C   UNL A   1      42.075  22.291  26.376  1.00  0.00     0.040 A 
ATOM     77  F   UNL A   1      41.159  22.920  28.444  1.00  0.00    -0.206 F 
ATOM     78  C   UNL A   1      42.842  22.592  25.252  1.00  0.00     0.006 A 
ENDBRANCH  50  71
BRANCH  62  79
ATOM     79  C   UNL A   1      46.303  25.910  32.923  1.00  0.00     0.057 A 
ATOM     80  C   UNL A   1      46.228  24.835  33.817  1.00  0.00     0.134 A 
ATOM     81  C   UNL A   1      47.576  26.383  32.583  1.00  0.00     0.134 A 
ATOM     82  F   UNL A   1      45.037  24.338  34.188  1.00  0.00    -0.206 F 
ATOM     83  C   UNL A   1      47.375  24.253  34.356  1.00  0.00     0.040 A 
ATOM     84  C   UNL A   1      48.732  25.791  33.093  1.00  0.00     0.040 A 
ATOM     85  F   UNL A   1      47.715  27.398  31.716  1.00  0.00    -0.206 F 
ATOM     86  C   UNL A   1      48.633  24.727  33.988  1.00  0.00     0.006 A 
ENDBRANCH  62  79
ENDBRANCH  36  37
ENDBRANCH  29  31
ENDBRANCH  28  29
ENDBRANCH  27  28
ENDBRANCH   1  27
TORSDOF 15
ENDMDL
MODEL 2
REMARK VINA RESULT:     -10.1      4.186      7.485
REMARK SMILES O=C(C[C@H]1C(=O)N[NH+]=C2c3ccc(F)cc3N=CN21)OCCOCCOC(=O)c1ccc(-c2c3nc(c(-c4c(F)cccc4F)c4ccc([nH]4)c(-c4c(F)cccc4F)c4nc(c(-c5c(F)cccc5F)c5ccc2[nH]5)C=C4)C=C3)cc1
REMARK SMILES IDX 24 1 23 2 22 3 21 4 20 5 2 6 1 7 3 8 4 9 5 10 19 11 6 12
REMARK SMILES IDX 7 13 9 14 18 15 8 16 10 18 17 19 11 21 16 22 12 23 15 24
REMARK SMILES IDX 13 25 14 26 25 27 26 28 27 29 28 30 29 31 30 32 82 33 31 34
REMARK SMILES IDX 81 35 32 36 33 37 34 38 75 39 35 40 80 41 74 42 76 43 36 44
REMARK SMILES IDX 79 45 73 46 72 47 37 49 63 50 46 51 62 52 47 53 50 54 61 55
REMARK SMILES IDX 77 56 48 57 49 58 60 60 78 61 51 62 38 63 39 64 44 65 40 66
REMARK SMILES IDX 41 67 43 68 45 69 42 70 64 71 65 72 70 73 66 74 67 75 69 76
REMARK SMILES IDX 71 77 68 78 52 79 53 80 58 81 54 82 55 83 57 84 59 85 56 86
REMARK H PARENT 7 17 8 20 76 48 50 59
REMARK Flexibility Score: inf
ROOT
ATOM      1  C   UNL A   1      31.423  31.956  26.817  1.00  0.00     0.202 C 
ENDROOT
BRANCH   1   2
ATOM      2  O   UNL A   1      32.018  30.659  26.973  1.00  0.00    -0.374 OA
BRANCH   2   3
ATOM      3  C   UNL A   1      32.444  30.036  25.761  1.00  0.00     0.202 C 
BRANCH   3   4
ATOM      4  C   UNL A   1      31.376  29.113  25.183  1.00  0.00     0.261 C 
BRANCH   4   5
ATOM      5  O   UNL A   1      31.848  27.751  25.166  1.00  0.00    -0.463 OA
BRANCH   5   6
ATOM      6  C   UNL A   1      31.319  26.821  25.996  1.00  0.00     0.310 C 
ATOM      7  O   UNL A   1      31.046  27.110  27.154  1.00  0.00    -0.252 OA
BRANCH   6   8
ATOM      8  C   UNL A   1      31.070  25.462  25.396  1.00  0.00     0.183 C 
BRANCH   8   9
ATOM      9  C   UNL A   1      31.764  24.348  26.163  1.00  0.00     0.286 C 
ATOM     10  C   UNL A   1      30.718  23.354  26.646  1.00  0.00     0.300 C 
ATOM     11  N   UNL A   1      32.887  23.738  25.444  1.00  0.00    -0.202 N 
ATOM     12  O   UNL A   1      29.784  23.695  27.375  1.00  0.00    -0.267 OA
ATOM     13  N   UNL A   1      30.845  22.059  26.233  1.00  0.00    -0.193 N 
ATOM     14  C   UNL A   1      32.904  22.357  25.326  1.00  0.00     0.309 C 
ATOM     15  C   UNL A   1      33.964  24.505  25.059  1.00  0.00     0.317 C 
ATOM     16  N   UNL A   1      31.946  21.538  25.643  1.00  0.00    -0.169 N 
ATOM     17  H   UNL A   1      30.078  21.458  26.373  1.00  0.00     0.216 HD
ATOM     18  C   UNL A   1      34.208  21.770  24.911  1.00  0.00     0.092 A 
ATOM     19  N   UNL A   1      35.121  24.065  24.684  1.00  0.00    -0.216 NA
ATOM     20  H   UNL A   1      32.018  20.573  25.461  1.00  0.00     0.340 HD
ATOM     21  C   UNL A   1      34.410  20.386  24.973  1.00  0.00     0.022 A 
ATOM     22  C   UNL A   1      35.281  22.663  24.723  1.00  0.00     0.085 A 
ATOM     23  C   UNL A   1      35.710  19.892  24.947  1.00  0.00     0.040 A 
ATOM     24  C   UNL A   1      36.574  22.147  24.678  1.00  0.00     0.068 A 
ATOM     25  C   UNL A   1      36.777  20.777  24.824  1.00  0.00     0.125 A 
ATOM     26  F   UNL A   1      38.027  20.304  24.894  1.00  0.00    -0.207 F 
ENDBRANCH   8   9
ENDBRANCH   6   8
ENDBRANCH   5   6
ENDBRANCH   4   5
ENDBRANCH   3   4
ENDBRANCH   2   3
ENDBRANCH   1   2
BRANCH   1  27
ATOM     27  C   UNL A   1      32.411  33.121  26.926  1.00  0.00     0.261 C 
BRANCH  27  28
ATOM     28  O   UNL A   1      32.214  33.822  28.164  1.00  0.00    -0.460 OA
BRANCH  28  29
ATOM     29  C   UNL A   1      33.179  34.716  28.497  1.00  0.00     0.338 C 
ATOM     30  O   UNL A   1      33.068  35.918  28.606  1.00  0.00    -0.246 OA
BRANCH  29  31
ATOM     31  C   UNL A   1      34.357  33.951  28.970  1.00  0.00     0.060 A 
ATOM     32  C   UNL A   1      35.660  34.337  28.647  1.00  0.00     0.016 A 
ATOM     33  C   UNL A   1      34.125  32.779  29.704  1.00  0.00     0.016 A 
ATOM     34  C   UNL A   1      36.734  33.559  29.080  1.00  0.00     0.010 A 
ATOM     35  C   UNL A   1      35.198  31.997  30.130  1.00  0.00     0.010 A 
ATOM     36  C   UNL A   1      36.507  32.399  29.839  1.00  0.00    -0.014 A 
BRANCH  36  37
ATOM     37  C   UNL A   1      37.646  31.712  30.484  1.00  0.00     0.031 A 
ATOM     38  C   UNL A   1      38.060  32.020  31.888  1.00  0.00     0.074 A 
ATOM     39  C   UNL A   1      38.315  30.807  29.745  1.00  0.00     0.049 A 
ATOM     40  N   UNL A   1      39.006  31.464  32.602  1.00  0.00    -0.248 NA
ATOM     41  C   UNL A   1      37.328  33.089  32.582  1.00  0.00     0.031 C 
ATOM     42  C   UNL A   1      38.007  30.468  28.353  1.00  0.00     0.029 A 
ATOM     43  N   UNL A   1      39.387  30.013  30.052  1.00  0.00    -0.354 N 
ATOM     44  C   UNL A   1      38.979  32.105  33.832  1.00  0.00     0.074 A 
ATOM     45  C   UNL A   1      37.945  33.116  33.758  1.00  0.00     0.031 C 
ATOM     46  C   UNL A   1      38.859  29.522  27.932  1.00  0.00     0.029 A 
ATOM     47  C   UNL A   1      39.788  29.210  29.012  1.00  0.00     0.049 A 
ATOM     48  H   UNL A   1      39.828  30.017  30.932  1.00  0.00     0.167 HD
ATOM     49  C   UNL A   1      39.747  31.857  34.921  1.00  0.00     0.037 A 
ATOM     50  C   UNL A   1      40.797  28.324  28.941  1.00  0.00     0.037 A 
ATOM     51  C   UNL A   1      40.778  30.851  34.972  1.00  0.00     0.049 A 
ATOM     52  C   UNL A   1      41.649  28.102  30.158  1.00  0.00     0.074 A 
ATOM     53  C   UNL A   1      41.572  30.483  36.044  1.00  0.00     0.029 A 
ATOM     54  N   UNL A   1      41.166  30.062  33.899  1.00  0.00    -0.354 N 
ATOM     55  N   UNL A   1      41.549  28.645  31.347  1.00  0.00    -0.248 NA
ATOM     56  C   UNL A   1      42.748  27.139  30.024  1.00  0.00     0.031 C 
ATOM     57  C   UNL A   1      42.477  29.509  35.606  1.00  0.00     0.029 A 
ATOM     58  C   UNL A   1      42.211  29.233  34.274  1.00  0.00     0.049 A 
ATOM     59  H   UNL A   1      40.761  30.088  33.002  1.00  0.00     0.167 HD
ATOM     60  C   UNL A   1      42.548  28.062  32.113  1.00  0.00     0.074 A 
ATOM     61  C   UNL A   1      43.234  27.117  31.256  1.00  0.00     0.031 C 
ATOM     62  C   UNL A   1      42.870  28.289  33.410  1.00  0.00     0.037 A 
BRANCH  49  63
ATOM     63  C   UNL A   1      39.513  32.685  36.151  1.00  0.00     0.057 A 
ATOM     64  C   UNL A   1      38.572  32.290  37.110  1.00  0.00     0.134 A 
ATOM     65  C   UNL A   1      40.157  33.914  36.345  1.00  0.00     0.134 A 
ATOM     66  F   UNL A   1      37.913  31.129  36.980  1.00  0.00    -0.206 F 
ATOM     67  C   UNL A   1      38.273  33.092  38.213  1.00  0.00     0.040 A 
ATOM     68  C   UNL A   1      39.881  34.714  37.455  1.00  0.00     0.040 A 
ATOM     69  F   UNL A   1      41.071  34.348  35.465  1.00  0.00    -0.206 F 
ATOM     70  C   UNL A   1      38.929  34.308  38.388  1.00  0.00     0.006 A 
ENDBRANCH  49  63
BRANCH  50  71
ATOM     71  C   UNL A   1      41.055  27.577  27.686  1.00  0.00     0.057 A 
ATOM     72  C   UNL A   1      41.953  28.056  26.725  1.00  0.00     0.134 A 
ATOM     73  C   UNL A   1      40.438  26.346  27.437  1.00  0.00     0.134 A 
ATOM     74  F   UNL A   1      42.566  29.237  26.898  1.00  0.00    -0.206 F 
ATOM     75  C   UNL A   1      42.237  27.333  25.567  1.00  0.00     0.040 A 
ATOM     76  C   UNL A   1      40.735  25.598  26.297  1.00  0.00     0.040 A 
ATOM     77  F   UNL A   1      39.577  25.830  28.326  1.00  0.00    -0.206 F 
ATOM     78  C   UNL A   1      41.638  26.092  25.357  1.00  0.00     0.006 A 
ENDBRANCH  50  71
BRANCH  62  79
ATOM     79  C   UNL A   1      43.982  27.465  33.985  1.00  0.00     0.057 A 
ATOM     80  C   UNL A   1      43.708  26.248  34.622  1.00  0.00     0.134 A 
ATOM     81  C   UNL A   1      45.319  27.880  33.929  1.00  0.00     0.134 A 
ATOM     82  F   UNL A   1      42.448  25.796  34.715  1.00  0.00    -0.206 F 
ATOM     83  C   UNL A   1      44.723  25.475  35.186  1.00  0.00     0.040 A 
ATOM     84  C   UNL A   1      46.346  27.101  34.463  1.00  0.00     0.040 A 
ATOM     85  F   UNL A   1      45.649  29.027  33.315  1.00  0.00    -0.206 F 
ATOM     86  C   UNL A   1      46.048  25.898  35.100  1.00  0.00     0.006 A 
ENDBRANCH  62  79
ENDBRANCH  36  37
ENDBRANCH  29  31
ENDBRANCH  28  29
ENDBRANCH  27  28
ENDBRANCH   1  27
TORSDOF 15
ENDMDL
MODEL 3
REMARK VINA RESULT:     -10.0      4.703      9.549
REMARK SMILES O=C(C[C@H]1C(=O)N[NH+]=C2c3ccc(F)cc3N=CN21)OCCOCCOC(=O)c1ccc(-c2c3nc(c(-c4c(F)cccc4F)c4ccc([nH]4)c(-c4c(F)cccc4F)c4nc(c(-c5c(F)cccc5F)c5ccc2[nH]5)C=C4)C=C3)cc1
REMARK SMILES IDX 24 1 23 2 22 3 21 4 20 5 2 6 1 7 3 8 4 9 5 10 19 11 6 12
REMARK SMILES IDX 7 13 9 14 18 15 8 16 10 18 17 19 11 21 16 22 12 23 15 24
REMARK SMILES IDX 13 25 14 26 25 27 26 28 27 29 28 30 29 31 30 32 82 33 31 34
REMARK SMILES IDX 81 35 32 36 33 37 34 38 75 39 35 40 80 41 74 42 76 43 36 44
REMARK SMILES IDX 79 45 73 46 72 47 37 49 63 50 46 51 62 52 47 53 50 54 61 55
REMARK SMILES IDX 77 56 48 57 49 58 60 60 78 61 51 62 38 63 39 64 44 65 40 66
REMARK SMILES IDX 41 67 43 68 45 69 42 70 64 71 65 72 70 73 66 74 67 75 69 76
REMARK SMILES IDX 71 77 68 78 52 79 53 80 58 81 54 82 55 83 57 84 59 85 56 86
REMARK H PARENT 7 17 8 20 76 48 50 59
REMARK Flexibility Score: inf
ROOT
ATOM      1  C   UNL A   1      31.414  31.744  26.517  1.00  0.00     0.202 C 
ENDROOT
BRANCH   1   2
ATOM      2  O   UNL A   1      32.427  30.804  26.908  1.00  0.00    -0.374 OA
BRANCH   2   3
ATOM      3  C   UNL A   1      32.170  29.447  26.545  1.00  0.00     0.202 C 
BRANCH   3   4
ATOM      4  C   UNL A   1      33.012  28.467  27.355  1.00  0.00     0.261 C 
BRANCH   4   5
ATOM      5  O   UNL A   1      33.561  27.449  26.494  1.00  0.00    -0.463 OA
BRANCH   5   6
ATOM      6  C   UNL A   1      32.822  26.375  26.128  1.00  0.00     0.310 C 
ATOM      7  O   UNL A   1      31.912  25.977  26.844  1.00  0.00    -0.252 OA
BRANCH   6   8
ATOM      8  C   UNL A   1      33.171  25.751  24.802  1.00  0.00     0.183 C 
BRANCH   8   9
ATOM      9  C   UNL A   1      31.993  25.722  23.841  1.00  0.00     0.286 C 
ATOM     10  C   UNL A   1      31.029  24.628  24.274  1.00  0.00     0.300 C 
ATOM     11  N   UNL A   1      31.364  27.029  23.629  1.00  0.00    -0.202 N 
ATOM     12  O   UNL A   1      31.381  23.450  24.366  1.00  0.00    -0.267 OA
ATOM     13  N   UNL A   1      29.748  25.000  24.569  1.00  0.00    -0.193 N 
ATOM     14  C   UNL A   1      29.990  27.119  23.792  1.00  0.00     0.309 C 
ATOM     15  C   UNL A   1      32.096  28.078  23.119  1.00  0.00     0.317 C 
ATOM     16  N   UNL A   1      29.203  26.203  24.273  1.00  0.00    -0.169 N 
ATOM     17  H   UNL A   1      29.179  24.345  25.033  1.00  0.00     0.216 HD
ATOM     18  C   UNL A   1      29.362  28.349  23.234  1.00  0.00     0.092 A 
ATOM     19  N   UNL A   1      31.620  29.174  22.624  1.00  0.00    -0.216 NA
ATOM     20  H   UNL A   1      28.245  26.378  24.417  1.00  0.00     0.340 HD
ATOM     21  C   UNL A   1      27.969  28.447  23.140  1.00  0.00     0.022 A 
ATOM     22  C   UNL A   1      30.212  29.258  22.576  1.00  0.00     0.085 A 
ATOM     23  C   UNL A   1      27.416  29.406  22.298  1.00  0.00     0.040 A 
ATOM     24  C   UNL A   1      29.638  30.226  21.754  1.00  0.00     0.068 A 
ATOM     25  C   UNL A   1      28.256  30.267  21.596  1.00  0.00     0.125 A 
ATOM     26  F   UNL A   1      27.722  31.125  20.717  1.00  0.00    -0.207 F 
ENDBRANCH   8   9
ENDBRANCH   6   8
ENDBRANCH   5   6
ENDBRANCH   4   5
ENDBRANCH   3   4
ENDBRANCH   2   3
ENDBRANCH   1   2
BRANCH   1  27
ATOM     27  C   UNL A   1      31.810  33.212  26.704  1.00  0.00     0.261 C 
BRANCH  27  28
ATOM     28  O   UNL A   1      32.190  33.451  28.067  1.00  0.00    -0.460 OA
BRANCH  28  29
ATOM     29  C   UNL A   1      33.180  34.361  28.254  1.00  0.00     0.338 C 
ATOM     30  O   UNL A   1      33.086  35.569  28.236  1.00  0.00    -0.246 OA
BRANCH  29  31
ATOM     31  C   UNL A   1      34.372  33.634  28.750  1.00  0.00     0.060 A 
ATOM     32  C   UNL A   1      35.639  34.222  28.756  1.00  0.00     0.016 A 
ATOM     33  C   UNL A   1      34.205  32.303  29.156  1.00  0.00     0.016 A 
ATOM     34  C   UNL A   1      36.737  33.482  29.193  1.00  0.00     0.010 A 
ATOM     35  C   UNL A   1      35.304  31.560  29.585  1.00  0.00     0.010 A 
ATOM     36  C   UNL A   1      36.570  32.156  29.627  1.00  0.00    -0.014 A 
BRANCH  36  37
ATOM     37  C   UNL A   1      37.688  31.459  30.298  1.00  0.00     0.031 A 
ATOM     38  C   UNL A   1      38.537  30.458  29.581  1.00  0.00     0.074 A 
ATOM     39  C   UNL A   1      37.899  31.746  31.596  1.00  0.00     0.049 A 
ATOM     40  N   UNL A   1      39.580  29.804  30.024  1.00  0.00    -0.248 NA
ATOM     41  C   UNL A   1      38.171  30.142  28.193  1.00  0.00     0.031 C 
ATOM     42  C   UNL A   1      37.097  32.683  32.390  1.00  0.00     0.029 A 
ATOM     43  N   UNL A   1      38.840  31.284  32.477  1.00  0.00    -0.354 N 
ATOM     44  C   UNL A   1      40.005  29.008  28.970  1.00  0.00     0.074 A 
ATOM     45  C   UNL A   1      39.085  29.234  27.875  1.00  0.00     0.031 C 
ATOM     46  C   UNL A   1      37.592  32.739  33.635  1.00  0.00     0.029 A 
ATOM     47  C   UNL A   1      38.723  31.825  33.734  1.00  0.00     0.049 A 
ATOM     48  H   UNL A   1      39.533  30.628  32.232  1.00  0.00     0.167 HD
ATOM     49  C   UNL A   1      41.073  28.174  28.930  1.00  0.00     0.037 A 
ATOM     50  C   UNL A   1      39.450  31.601  34.843  1.00  0.00     0.037 A 
ATOM     51  C   UNL A   1      41.972  27.957  30.035  1.00  0.00     0.049 A 
ATOM     52  C   UNL A   1      40.604  30.643  34.769  1.00  0.00     0.074 A 
ATOM     53  C   UNL A   1      43.114  27.177  30.078  1.00  0.00     0.029 A 
ATOM     54  N   UNL A   1      41.820  28.510  31.298  1.00  0.00    -0.354 N 
ATOM     55  N   UNL A   1      41.055  29.970  33.738  1.00  0.00    -0.248 NA
ATOM     56  C   UNL A   1      41.355  30.419  36.010  1.00  0.00     0.031 C 
ATOM     57  C   UNL A   1      43.625  27.216  31.380  1.00  0.00     0.029 A 
ATOM     58  C   UNL A   1      42.829  28.062  32.136  1.00  0.00     0.049 A 
ATOM     59  H   UNL A   1      41.102  29.129  31.562  1.00  0.00     0.167 HD
ATOM     60  C   UNL A   1      42.163  29.273  34.196  1.00  0.00     0.074 A 
ATOM     61  C   UNL A   1      42.321  29.614  35.595  1.00  0.00     0.031 C 
ATOM     62  C   UNL A   1      42.977  28.425  33.522  1.00  0.00     0.037 A 
BRANCH  49  63
ATOM     63  C   UNL A   1      41.333  27.425  27.656  1.00  0.00     0.057 A 
ATOM     64  C   UNL A   1      40.830  26.131  27.471  1.00  0.00     0.134 A 
ATOM     65  C   UNL A   1      42.151  27.951  26.647  1.00  0.00     0.134 A 
ATOM     66  F   UNL A   1      40.048  25.565  28.402  1.00  0.00    -0.206 F 
ATOM     67  C   UNL A   1      41.138  25.383  26.333  1.00  0.00     0.040 A 
ATOM     68  C   UNL A   1      42.450  27.220  25.496  1.00  0.00     0.040 A 
ATOM     69  F   UNL A   1      42.663  29.185  26.761  1.00  0.00    -0.206 F 
ATOM     70  C   UNL A   1      41.950  25.927  25.341  1.00  0.00     0.006 A 
ENDBRANCH  49  63
BRANCH  50  71
ATOM     71  C   UNL A   1      39.120  32.296  36.111  1.00  0.00     0.057 A 
ATOM     72  C   UNL A   1      39.631  33.568  36.399  1.00  0.00     0.134 A 
ATOM     73  C   UNL A   1      38.253  31.721  37.047  1.00  0.00     0.134 A 
ATOM     74  F   UNL A   1      40.477  34.167  35.549  1.00  0.00    -0.206 F 
ATOM     75  C   UNL A   1      39.283  34.247  37.566  1.00  0.00     0.040 A 
ATOM     76  C   UNL A   1      37.874  32.402  38.205  1.00  0.00     0.040 A 
ATOM     77  F   UNL A   1      37.722  30.510  36.821  1.00  0.00    -0.206 F 
ATOM     78  C   UNL A   1      38.390  33.669  38.467  1.00  0.00     0.006 A 
ENDBRANCH  50  71
BRANCH  62  79
ATOM     79  C   UNL A   1      44.135  27.851  34.280  1.00  0.00     0.057 A 
ATOM     80  C   UNL A   1      44.020  26.610  34.919  1.00  0.00     0.134 A 
ATOM     81  C   UNL A   1      45.354  28.530  34.398  1.00  0.00     0.134 A 
ATOM     82  F   UNL A   1      42.877  25.911  34.849  1.00  0.00    -0.206 F 
ATOM     83  C   UNL A   1      45.076  26.065  35.650  1.00  0.00     0.040 A 
ATOM     84  C   UNL A   1      46.427  27.983  35.103  1.00  0.00     0.040 A 
ATOM     85  F   UNL A   1      45.534  29.715  33.794  1.00  0.00    -0.206 F 
ATOM     86  C   UNL A   1      46.287  26.750  35.737  1.00  0.00     0.006 A 
ENDBRANCH  62  79
ENDBRANCH  36  37
ENDBRANCH  29  31
ENDBRANCH  28  29
ENDBRANCH  27  28
ENDBRANCH   1  27
TORSDOF 15
ENDMDL
