MODEL 1
REMARK VINA RESULT:     -12.3      0.000      0.000
REMARK SMILES Cc1cccc(OC2(C(=O)OCCOCCOC(=O)c3ccc(-c4c5nc(c(-c6c(F)cccc6F)c6ccc([nH]6)c(-c6c(F)cccc6F)c6nc(c(-c7c(F)cccc7F)c7ccc4[nH]7)C=C6)C=C5)cc3)CCN(C(=O)c3cnc[nH]c3=O)CC2)c1
REMARK SMILES IDX 14 1 13 2 12 3 11 4 9 5 10 6 8 7 74 8 87 9 75 10 86 11 76 12
REMARK SMILES IDX 77 13 78 14 7 15 6 16 1 17 2 18 3 19 88 20 4 21 5 22 79 23
REMARK SMILES IDX 80 24 84 25 81 26 83 27 85 28 82 29 15 31 16 32 17 33 18 34
REMARK SMILES IDX 19 35 20 36 21 37 73 38 22 39 72 40 23 41 24 42 25 43 66 44
REMARK SMILES IDX 26 45 71 46 65 47 67 48 27 49 70 50 64 51 63 52 28 54 54 55
REMARK SMILES IDX 37 56 53 57 38 58 41 59 52 60 68 61 39 62 40 63 51 65 69 66
REMARK SMILES IDX 42 67 29 68 30 69 35 70 31 71 32 72 34 73 36 74 33 75 55 76
REMARK SMILES IDX 56 77 61 78 57 79 58 80 60 81 62 82 59 83 43 84 44 85 49 86
REMARK SMILES IDX 45 87 46 88 48 89 50 90 47 91
REMARK H PARENT 83 30 67 53 41 64
REMARK Flexibility Score: inf
ROOT
ATOM      1  O   UNL A   1      34.828  30.387  27.739  1.00  0.00    -0.374 OA
ENDROOT
BRANCH   1   2
ATOM      2  C   UNL A   1      33.658  29.964  27.068  1.00  0.00     0.202 C 
BRANCH   2   3
ATOM      3  C   UNL A   1      33.620  28.466  27.169  1.00  0.00     0.261 C 
BRANCH   3   4
ATOM      4  O   UNL A   1      32.259  27.872  27.103  1.00  0.00    -0.460 OA
BRANCH   4   5
ATOM      5  C   UNL A   1      31.503  27.053  26.335  1.00  0.00     0.350 C 
ATOM      6  O   UNL A   1      31.155  25.966  26.805  1.00  0.00    -0.247 OA
BRANCH   5   7
ATOM      7  C   UNL A   1      31.187  27.399  24.864  1.00  0.00     0.209 C 
ATOM      8  C   UNL A   1      29.884  26.736  24.430  1.00  0.00     0.082 C 
ATOM      9  C   UNL A   1      31.010  28.936  24.749  1.00  0.00     0.082 C 
ATOM     10  C   UNL A   1      29.225  27.193  23.167  1.00  0.00     0.124 C 
ATOM     11  C   UNL A   1      30.486  29.287  23.349  1.00  0.00     0.124 C 
ATOM     12  N   UNL A   1      29.196  28.628  23.159  1.00  0.00    -0.338 N 
ATOM     13  C   UNL A   1      27.975  29.273  23.034  1.00  0.00     0.261 C 
ATOM     14  O   UNL A   1      26.925  28.851  23.451  1.00  0.00    -0.269 OA
BRANCH   7  15
ATOM     15  O   UNL A   1      32.321  27.178  23.989  1.00  0.00    -0.475 OA
BRANCH  15  16
ATOM     16  C   UNL A   1      32.967  25.985  24.069  1.00  0.00     0.121 A 
ATOM     17  C   UNL A   1      32.630  22.565  22.521  1.00  0.00     0.044 C 
ATOM     18  C   UNL A   1      33.213  23.703  23.297  1.00  0.00    -0.047 A 
ATOM     19  C   UNL A   1      34.376  23.580  24.059  1.00  0.00     0.003 A 
ATOM     20  C   UNL A   1      32.568  24.937  23.252  1.00  0.00     0.050 A 
ATOM     21  C   UNL A   1      34.838  24.664  24.813  1.00  0.00     0.004 A 
ATOM     22  C   UNL A   1      34.124  25.866  24.831  1.00  0.00     0.046 A 
ENDBRANCH  15  16
ENDBRANCH   7  15
BRANCH  13  23
ATOM     23  C   UNL A   1      28.062  30.483  22.201  1.00  0.00     0.123 A 
ATOM     24  C   UNL A   1      27.835  30.436  20.886  1.00  0.00     0.132 A 
ATOM     25  C   UNL A   1      28.303  31.799  22.821  1.00  0.00     0.263 A 
ATOM     26  N   UNL A   1      27.781  31.543  20.070  1.00  0.00    -0.246 NA
ATOM     27  N   UNL A   1      28.211  32.856  21.968  1.00  0.00    -0.312 N 
ATOM     28  O   UNL A   1      28.552  31.953  24.013  1.00  0.00    -0.269 OA
ATOM     29  C   UNL A   1      27.958  32.687  20.638  1.00  0.00     0.199 A 
ATOM     30  H   UNL A   1      28.329  33.767  22.322  1.00  0.00     0.171 HD
ENDBRANCH  13  23
ENDBRANCH   5   7
ENDBRANCH   4   5
ENDBRANCH   3   4
ENDBRANCH   2   3
ENDBRANCH   1   2
BRANCH   1  31
ATOM     31  C   UNL A   1      35.069  31.780  27.738  1.00  0.00     0.202 C 
BRANCH  31  32
ATOM     32  C   UNL A   1      33.936  32.607  28.353  1.00  0.00     0.261 C 
BRANCH  32  33
ATOM     33  O   UNL A   1      34.451  33.853  28.865  1.00  0.00    -0.460 OA
BRANCH  33  34
ATOM     34  C   UNL A   1      34.500  33.949  30.223  1.00  0.00     0.338 C 
ATOM     35  O   UNL A   1      33.614  34.405  30.927  1.00  0.00    -0.246 OA
BRANCH  34  36
ATOM     36  C   UNL A   1      35.898  33.720  30.694  1.00  0.00     0.060 A 
ATOM     37  C   UNL A   1      36.979  34.037  29.848  1.00  0.00     0.016 A 
ATOM     38  C   UNL A   1      36.095  32.878  31.785  1.00  0.00     0.016 A 
ATOM     39  C   UNL A   1      38.216  33.397  30.016  1.00  0.00     0.010 A 
ATOM     40  C   UNL A   1      37.261  32.147  31.852  1.00  0.00     0.010 A 
ATOM     41  C   UNL A   1      38.328  32.394  30.975  1.00  0.00    -0.014 A 
BRANCH  41  42
ATOM     42  C   UNL A   1      39.480  31.510  31.165  1.00  0.00     0.031 A 
ATOM     43  C   UNL A   1      39.596  30.322  30.303  1.00  0.00     0.074 A 
ATOM     44  C   UNL A   1      40.551  31.887  31.901  1.00  0.00     0.049 A 
ATOM     45  N   UNL A   1      40.427  29.364  30.516  1.00  0.00    -0.248 NA
ATOM     46  C   UNL A   1      38.726  30.066  29.159  1.00  0.00     0.031 C 
ATOM     47  C   UNL A   1      41.948  31.476  31.762  1.00  0.00     0.029 A 
ATOM     48  N   UNL A   1      40.614  32.832  32.924  1.00  0.00    -0.354 N 
ATOM     49  C   UNL A   1      40.484  28.614  29.367  1.00  0.00     0.074 A 
ATOM     50  C   UNL A   1      39.283  28.962  28.658  1.00  0.00     0.031 C 
ATOM     51  C   UNL A   1      42.661  31.938  32.807  1.00  0.00     0.029 A 
ATOM     52  C   UNL A   1      41.723  32.554  33.729  1.00  0.00     0.049 A 
ATOM     53  H   UNL A   1      39.980  33.573  33.058  1.00  0.00     0.167 HD
ATOM     54  C   UNL A   1      41.638  27.935  29.103  1.00  0.00     0.037 A 
ATOM     55  C   UNL A   1      41.561  32.299  35.054  1.00  0.00     0.037 A 
ATOM     56  C   UNL A   1      42.571  28.043  30.250  1.00  0.00     0.049 A 
ATOM     57  C   UNL A   1      41.954  30.874  35.296  1.00  0.00     0.074 A 
ATOM     58  C   UNL A   1      43.782  28.692  30.437  1.00  0.00     0.029 A 
ATOM     59  N   UNL A   1      42.137  27.682  31.533  1.00  0.00    -0.354 N 
ATOM     60  N   UNL A   1      41.942  29.983  34.341  1.00  0.00    -0.248 NA
ATOM     61  C   UNL A   1      42.500  30.359  36.544  1.00  0.00     0.031 C 
ATOM     62  C   UNL A   1      44.040  28.759  31.839  1.00  0.00     0.029 A 
ATOM     63  C   UNL A   1      43.004  28.130  32.513  1.00  0.00     0.049 A 
ATOM     64  H   UNL A   1      41.314  27.171  31.714  1.00  0.00     0.167 HD
ATOM     65  C   UNL A   1      42.558  28.851  34.769  1.00  0.00     0.074 A 
ATOM     66  C   UNL A   1      42.846  29.112  36.171  1.00  0.00     0.031 C 
ATOM     67  C   UNL A   1      42.792  27.805  33.928  1.00  0.00     0.037 A 
BRANCH  54  68
ATOM     68  C   UNL A   1      42.036  27.379  27.734  1.00  0.00     0.057 A 
ATOM     69  C   UNL A   1      42.358  26.013  27.586  1.00  0.00     0.134 A 
ATOM     70  C   UNL A   1      42.177  28.107  26.532  1.00  0.00     0.134 A 
ATOM     71  F   UNL A   1      42.257  25.152  28.607  1.00  0.00    -0.206 F 
ATOM     72  C   UNL A   1      42.807  25.446  26.379  1.00  0.00     0.040 A 
ATOM     73  C   UNL A   1      42.615  27.554  25.318  1.00  0.00     0.040 A 
ATOM     74  F   UNL A   1      41.901  29.405  26.426  1.00  0.00    -0.206 F 
ATOM     75  C   UNL A   1      42.939  26.217  25.236  1.00  0.00     0.006 A 
ENDBRANCH  54  68
BRANCH  55  76
ATOM     76  C   UNL A   1      40.442  33.095  35.642  1.00  0.00     0.057 A 
ATOM     77  C   UNL A   1      39.225  32.417  35.869  1.00  0.00     0.134 A 
ATOM     78  C   UNL A   1      40.666  34.246  36.406  1.00  0.00     0.134 A 
ATOM     79  F   UNL A   1      38.950  31.287  35.196  1.00  0.00    -0.206 F 
ATOM     80  C   UNL A   1      38.336  32.792  36.886  1.00  0.00     0.040 A 
ATOM     81  C   UNL A   1      39.787  34.622  37.436  1.00  0.00     0.040 A 
ATOM     82  F   UNL A   1      41.803  34.941  36.272  1.00  0.00    -0.206 F 
ATOM     83  C   UNL A   1      38.640  33.874  37.704  1.00  0.00     0.006 A 
ENDBRANCH  55  76
BRANCH  67  84
ATOM     84  C   UNL A   1      42.905  26.380  34.391  1.00  0.00     0.057 A 
ATOM     85  C   UNL A   1      41.895  25.707  35.096  1.00  0.00     0.134 A 
ATOM     86  C   UNL A   1      43.972  25.566  33.951  1.00  0.00     0.134 A 
ATOM     87  F   UNL A   1      40.764  26.315  35.478  1.00  0.00    -0.206 F 
ATOM     88  C   UNL A   1      41.963  24.342  35.389  1.00  0.00     0.040 A 
ATOM     89  C   UNL A   1      44.015  24.191  34.177  1.00  0.00     0.040 A 
ATOM     90  F   UNL A   1      45.000  26.058  33.245  1.00  0.00    -0.206 F 
ATOM     91  C   UNL A   1      43.016  23.575  34.913  1.00  0.00     0.006 A 
ENDBRANCH  67  84
ENDBRANCH  41  42
ENDBRANCH  34  36
ENDBRANCH  33  34
ENDBRANCH  32  33
ENDBRANCH  31  32
ENDBRANCH   1  31
TORSDOF 17
ENDMDL
MODEL 2
REMARK VINA RESULT:     -12.0      4.200      9.086
REMARK SMILES Cc1cccc(OC2(C(=O)OCCOCCOC(=O)c3ccc(-c4c5nc(c(-c6c(F)cccc6F)c6ccc([nH]6)c(-c6c(F)cccc6F)c6nc(c(-c7c(F)cccc7F)c7ccc4[nH]7)C=C6)C=C5)cc3)CCN(C(=O)c3cnc[nH]c3=O)CC2)c1
REMARK SMILES IDX 14 1 13 2 12 3 11 4 9 5 10 6 8 7 74 8 87 9 75 10 86 11 76 12
REMARK SMILES IDX 77 13 78 14 7 15 6 16 1 17 2 18 3 19 88 20 4 21 5 22 79 23
REMARK SMILES IDX 80 24 84 25 81 26 83 27 85 28 82 29 15 31 16 32 17 33 18 34
REMARK SMILES IDX 19 35 20 36 21 37 73 38 22 39 72 40 23 41 24 42 25 43 66 44
REMARK SMILES IDX 26 45 71 46 65 47 67 48 27 49 70 50 64 51 63 52 28 54 54 55
REMARK SMILES IDX 37 56 53 57 38 58 41 59 52 60 68 61 39 62 40 63 51 65 69 66
REMARK SMILES IDX 42 67 29 68 30 69 35 70 31 71 32 72 34 73 36 74 33 75 55 76
REMARK SMILES IDX 56 77 61 78 57 79 58 80 60 81 62 82 59 83 43 84 44 85 49 86
REMARK SMILES IDX 45 87 46 88 48 89 50 90 47 91
REMARK H PARENT 83 30 67 53 41 64
REMARK Flexibility Score: inf
ROOT
ATOM      1  O   UNL A   1      38.431  20.696  25.357  1.00  0.00    -0.374 OA
ENDROOT
BRANCH   1   2
ATOM      2  C   UNL A   1      37.520  21.701  24.958  1.00  0.00     0.202 C 
BRANCH   2   3
ATOM      3  C   UNL A   1      37.688  22.844  25.918  1.00  0.00     0.261 C 
BRANCH   3   4
ATOM      4  O   UNL A   1      36.438  23.584  26.228  1.00  0.00    -0.460 OA
BRANCH   4   5
ATOM      5  C   UNL A   1      35.122  23.376  26.471  1.00  0.00     0.350 C 
ATOM      6  O   UNL A   1      34.805  22.776  27.502  1.00  0.00    -0.247 OA
BRANCH   5   7
ATOM      7  C   UNL A   1      34.045  23.756  25.433  1.00  0.00     0.209 C 
ATOM      8  C   UNL A   1      32.651  23.482  25.987  1.00  0.00     0.082 C 
ATOM      9  C   UNL A   1      34.161  25.276  25.141  1.00  0.00     0.082 C 
ATOM     10  C   UNL A   1      31.467  24.072  25.291  1.00  0.00     0.124 C 
ATOM     11  C   UNL A   1      32.971  25.722  24.280  1.00  0.00     0.124 C 
ATOM     12  N   UNL A   1      31.738  25.455  25.017  1.00  0.00    -0.338 N 
ATOM     13  C   UNL A   1      30.869  26.418  25.507  1.00  0.00     0.261 C 
ATOM     14  O   UNL A   1      30.244  26.326  26.534  1.00  0.00    -0.269 OA
BRANCH   7  15
ATOM     15  O   UNL A   1      34.317  23.195  24.125  1.00  0.00    -0.475 OA
BRANCH  15  16
ATOM     16  C   UNL A   1      33.650  22.069  23.760  1.00  0.00     0.121 A 
ATOM     17  C   UNL A   1      33.277  18.550  25.057  1.00  0.00     0.044 C 
ATOM     18  C   UNL A   1      33.033  19.777  24.236  1.00  0.00    -0.047 A 
ATOM     19  C   UNL A   1      32.152  19.797  23.154  1.00  0.00     0.003 A 
ATOM     20  C   UNL A   1      33.712  20.946  24.571  1.00  0.00     0.050 A 
ATOM     21  C   UNL A   1      32.013  20.958  22.386  1.00  0.00     0.004 A 
ATOM     22  C   UNL A   1      32.775  22.093  22.679  1.00  0.00     0.046 A 
ENDBRANCH  15  16
ENDBRANCH   7  15
BRANCH  13  23
ATOM     23  C   UNL A   1      30.673  27.529  24.562  1.00  0.00     0.123 A 
ATOM     24  C   UNL A   1      29.890  27.394  23.489  1.00  0.00     0.132 A 
ATOM     25  C   UNL A   1      31.258  28.854  24.836  1.00  0.00     0.263 A 
ATOM     26  N   UNL A   1      29.566  28.421  22.633  1.00  0.00    -0.246 NA
ATOM     27  N   UNL A   1      30.880  29.834  23.971  1.00  0.00    -0.312 N 
ATOM     28  O   UNL A   1      32.015  29.081  25.776  1.00  0.00    -0.269 OA
ATOM     29  C   UNL A   1      30.059  29.580  22.911  1.00  0.00     0.199 A 
ATOM     30  H   UNL A   1      31.208  30.751  24.114  1.00  0.00     0.171 HD
ENDBRANCH  13  23
ENDBRANCH   5   7
ENDBRANCH   4   5
ENDBRANCH   3   4
ENDBRANCH   2   3
ENDBRANCH   1   2
BRANCH   1  31
ATOM     31  C   UNL A   1      39.548  21.139  26.102  1.00  0.00     0.202 C 
BRANCH  31  32
ATOM     32  C   UNL A   1      40.572  20.039  26.401  1.00  0.00     0.261 C 
BRANCH  32  33
ATOM     33  O   UNL A   1      41.727  20.600  27.056  1.00  0.00    -0.460 OA
BRANCH  33  34
ATOM     34  C   UNL A   1      42.627  21.206  26.233  1.00  0.00     0.338 C 
ATOM     35  O   UNL A   1      43.049  20.738  25.188  1.00  0.00    -0.246 OA
BRANCH  34  36
ATOM     36  C   UNL A   1      43.257  22.361  26.938  1.00  0.00     0.060 A 
ATOM     37  C   UNL A   1      43.072  22.514  28.326  1.00  0.00     0.016 A 
ATOM     38  C   UNL A   1      43.698  23.438  26.174  1.00  0.00     0.016 A 
ATOM     39  C   UNL A   1      43.191  23.781  28.916  1.00  0.00     0.010 A 
ATOM     40  C   UNL A   1      43.668  24.697  26.730  1.00  0.00     0.010 A 
ATOM     41  C   UNL A   1      43.416  24.885  28.098  1.00  0.00    -0.014 A 
BRANCH  41  42
ATOM     42  C   UNL A   1      43.393  26.287  28.519  1.00  0.00     0.031 A 
ATOM     43  C   UNL A   1      42.092  26.973  28.586  1.00  0.00     0.074 A 
ATOM     44  C   UNL A   1      44.469  26.874  29.093  1.00  0.00     0.049 A 
ATOM     45  N   UNL A   1      41.962  28.246  28.724  1.00  0.00    -0.248 NA
ATOM     46  C   UNL A   1      40.811  26.293  28.425  1.00  0.00     0.031 C 
ATOM     47  C   UNL A   1      44.506  27.973  30.058  1.00  0.00     0.029 A 
ATOM     48  N   UNL A   1      45.813  26.524  28.981  1.00  0.00    -0.354 N 
ATOM     49  C   UNL A   1      40.655  28.485  29.069  1.00  0.00     0.074 A 
ATOM     50  C   UNL A   1      39.960  27.291  28.670  1.00  0.00     0.031 C 
ATOM     51  C   UNL A   1      45.779  28.377  30.235  1.00  0.00     0.029 A 
ATOM     52  C   UNL A   1      46.599  27.640  29.288  1.00  0.00     0.049 A 
ATOM     53  H   UNL A   1      46.154  25.636  28.726  1.00  0.00     0.167 HD
ATOM     54  C   UNL A   1      40.383  29.598  29.810  1.00  0.00     0.037 A 
ATOM     55  C   UNL A   1      47.473  28.136  28.373  1.00  0.00     0.037 A 
ATOM     56  C   UNL A   1      41.603  30.427  29.959  1.00  0.00     0.049 A 
ATOM     57  C   UNL A   1      46.996  29.499  27.980  1.00  0.00     0.074 A 
ATOM     58  C   UNL A   1      42.426  30.728  31.033  1.00  0.00     0.029 A 
ATOM     59  N   UNL A   1      42.314  30.825  28.818  1.00  0.00    -0.354 N 
ATOM     60  N   UNL A   1      45.749  29.861  28.116  1.00  0.00    -0.248 NA
ATOM     61  C   UNL A   1      47.855  30.589  27.536  1.00  0.00     0.031 C 
ATOM     62  C   UNL A   1      43.648  31.261  30.523  1.00  0.00     0.029 A 
ATOM     63  C   UNL A   1      43.568  31.311  29.139  1.00  0.00     0.049 A 
ATOM     64  H   UNL A   1      41.962  30.766  27.900  1.00  0.00     0.167 HD
ATOM     65  C   UNL A   1      45.638  31.198  27.910  1.00  0.00     0.074 A 
ATOM     66  C   UNL A   1      46.973  31.605  27.499  1.00  0.00     0.031 C 
ATOM     67  C   UNL A   1      44.462  31.857  28.112  1.00  0.00     0.037 A 
BRANCH  54  68
ATOM     68  C   UNL A   1      39.097  29.831  30.605  1.00  0.00     0.057 A 
ATOM     69  C   UNL A   1      38.207  30.861  30.235  1.00  0.00     0.134 A 
ATOM     70  C   UNL A   1      38.678  29.136  31.762  1.00  0.00     0.134 A 
ATOM     71  F   UNL A   1      38.415  31.613  29.146  1.00  0.00    -0.206 F 
ATOM     72  C   UNL A   1      37.045  31.184  30.961  1.00  0.00     0.040 A 
ATOM     73  C   UNL A   1      37.518  29.442  32.492  1.00  0.00     0.040 A 
ATOM     74  F   UNL A   1      39.345  28.107  32.279  1.00  0.00    -0.206 F 
ATOM     75  C   UNL A   1      36.696  30.475  32.098  1.00  0.00     0.006 A 
ENDBRANCH  54  68
BRANCH  55  76
ATOM     76  C   UNL A   1      48.076  27.056  27.536  1.00  0.00     0.057 A 
ATOM     77  C   UNL A   1      47.547  26.880  26.239  1.00  0.00     0.134 A 
ATOM     78  C   UNL A   1      49.377  26.587  27.747  1.00  0.00     0.134 A 
ATOM     79  F   UNL A   1      46.315  27.331  25.950  1.00  0.00    -0.206 F 
ATOM     80  C   UNL A   1      48.314  26.380  25.177  1.00  0.00     0.040 A 
ATOM     81  C   UNL A   1      50.158  26.096  26.686  1.00  0.00     0.040 A 
ATOM     82  F   UNL A   1      49.967  26.729  28.942  1.00  0.00    -0.206 F 
ATOM     83  C   UNL A   1      49.642  26.029  25.392  1.00  0.00     0.006 A 
ENDBRANCH  55  76
BRANCH  67  84
ATOM     84  C   UNL A   1      44.088  33.122  27.391  1.00  0.00     0.057 A 
ATOM     85  C   UNL A   1      43.894  33.199  26.003  1.00  0.00     0.134 A 
ATOM     86  C   UNL A   1      43.702  34.271  28.114  1.00  0.00     0.134 A 
ATOM     87  F   UNL A   1      44.102  32.153  25.193  1.00  0.00    -0.206 F 
ATOM     88  C   UNL A   1      43.406  34.348  25.375  1.00  0.00     0.040 A 
ATOM     89  C   UNL A   1      43.147  35.396  27.505  1.00  0.00     0.040 A 
ATOM     90  F   UNL A   1      43.803  34.340  29.450  1.00  0.00    -0.206 F 
ATOM     91  C   UNL A   1      43.012  35.445  26.127  1.00  0.00     0.006 A 
ENDBRANCH  67  84
ENDBRANCH  41  42
ENDBRANCH  34  36
ENDBRANCH  33  34
ENDBRANCH  32  33
ENDBRANCH  31  32
ENDBRANCH   1  31
TORSDOF 17
ENDMDL
MODEL 3
REMARK VINA RESULT:     -12.0      2.230      4.674
REMARK SMILES Cc1cccc(OC2(C(=O)OCCOCCOC(=O)c3ccc(-c4c5nc(c(-c6c(F)cccc6F)c6ccc([nH]6)c(-c6c(F)cccc6F)c6nc(c(-c7c(F)cccc7F)c7ccc4[nH]7)C=C6)C=C5)cc3)CCN(C(=O)c3cnc[nH]c3=O)CC2)c1
REMARK SMILES IDX 14 1 13 2 12 3 11 4 9 5 10 6 8 7 74 8 87 9 75 10 86 11 76 12
REMARK SMILES IDX 77 13 78 14 7 15 6 16 1 17 2 18 3 19 88 20 4 21 5 22 79 23
REMARK SMILES IDX 80 24 84 25 81 26 83 27 85 28 82 29 15 31 16 32 17 33 18 34
REMARK SMILES IDX 19 35 20 36 21 37 73 38 22 39 72 40 23 41 24 42 25 43 66 44
REMARK SMILES IDX 26 45 71 46 65 47 67 48 27 49 70 50 64 51 63 52 28 54 54 55
REMARK SMILES IDX 37 56 53 57 38 58 41 59 52 60 68 61 39 62 40 63 51 65 69 66
REMARK SMILES IDX 42 67 29 68 30 69 35 70 31 71 32 72 34 73 36 74 33 75 55 76
REMARK SMILES IDX 56 77 61 78 57 79 58 80 60 81 62 82 59 83 43 84 44 85 49 86
REMARK SMILES IDX 45 87 46 88 48 89 50 90 47 91
REMARK H PARENT 83 30 67 53 41 64
REMARK Flexibility Score: inf
ROOT
ATOM      1  O   UNL A   1      32.051  32.067  26.912  1.00  0.00    -0.374 OA
ENDROOT
BRANCH   1   2
ATOM      2  C   UNL A   1      32.026  30.724  26.471  1.00  0.00     0.202 C 
BRANCH   2   3
ATOM      3  C   UNL A   1      33.312  30.096  26.926  1.00  0.00     0.261 C 
BRANCH   3   4
ATOM      4  O   UNL A   1      33.567  28.736  26.383  1.00  0.00    -0.460 OA
BRANCH   4   5
ATOM      5  C   UNL A   1      33.663  28.073  25.206  1.00  0.00     0.350 C 
ATOM      6  O   UNL A   1      34.316  28.589  24.295  1.00  0.00    -0.247 OA
BRANCH   5   7
ATOM      7  C   UNL A   1      32.875  26.770  24.954  1.00  0.00     0.209 C 
ATOM      8  C   UNL A   1      32.890  26.418  23.470  1.00  0.00     0.082 C 
ATOM      9  C   UNL A   1      33.568  25.620  25.732  1.00  0.00     0.082 C 
ATOM     10  C   UNL A   1      32.475  25.044  23.048  1.00  0.00     0.124 C 
ATOM     11  C   UNL A   1      32.937  24.279  25.330  1.00  0.00     0.124 C 
ATOM     12  N   UNL A   1      33.130  24.088  23.895  1.00  0.00    -0.338 N 
ATOM     13  C   UNL A   1      33.924  23.111  23.313  1.00  0.00     0.261 C 
ATOM     14  O   UNL A   1      34.560  23.252  22.297  1.00  0.00    -0.269 OA
BRANCH   7  15
ATOM     15  O   UNL A   1      31.567  26.786  25.578  1.00  0.00    -0.475 OA
BRANCH  15  16
ATOM     16  C   UNL A   1      30.504  27.173  24.826  1.00  0.00     0.121 A 
ATOM     17  C   UNL A   1      29.617  30.092  22.612  1.00  0.00     0.044 C 
ATOM     18  C   UNL A   1      29.527  28.753  23.273  1.00  0.00    -0.047 A 
ATOM     19  C   UNL A   1      28.423  27.911  23.124  1.00  0.00     0.003 A 
ATOM     20  C   UNL A   1      30.592  28.329  24.064  1.00  0.00     0.050 A 
ATOM     21  C   UNL A   1      28.370  26.697  23.815  1.00  0.00     0.004 A 
ATOM     22  C   UNL A   1      29.405  26.333  24.682  1.00  0.00     0.046 A 
ENDBRANCH  15  16
ENDBRANCH   7  15
BRANCH  13  23
ATOM     23  C   UNL A   1      33.805  21.812  23.994  1.00  0.00     0.123 A 
ATOM     24  C   UNL A   1      32.713  21.056  23.855  1.00  0.00     0.132 A 
ATOM     25  C   UNL A   1      34.937  21.268  24.766  1.00  0.00     0.263 A 
ATOM     26  N   UNL A   1      32.584  19.783  24.362  1.00  0.00    -0.246 NA
ATOM     27  N   UNL A   1      34.759  19.997  25.218  1.00  0.00    -0.312 N 
ATOM     28  O   UNL A   1      35.974  21.889  24.980  1.00  0.00    -0.269 OA
ATOM     29  C   UNL A   1      33.599  19.312  25.003  1.00  0.00     0.199 A 
ATOM     30  H   UNL A   1      35.489  19.559  25.714  1.00  0.00     0.171 HD
ENDBRANCH  13  23
ENDBRANCH   5   7
ENDBRANCH   4   5
ENDBRANCH   3   4
ENDBRANCH   2   3
ENDBRANCH   1   2
BRANCH   1  31
ATOM     31  C   UNL A   1      33.214  32.465  27.609  1.00  0.00     0.202 C 
BRANCH  31  32
ATOM     32  C   UNL A   1      33.199  33.929  28.059  1.00  0.00     0.261 C 
BRANCH  32  33
ATOM     33  O   UNL A   1      34.487  34.299  28.589  1.00  0.00    -0.460 OA
BRANCH  33  34
ATOM     34  C   UNL A   1      34.734  33.885  29.863  1.00  0.00     0.338 C 
ATOM     35  O   UNL A   1      34.515  34.539  30.869  1.00  0.00    -0.246 OA
BRANCH  34  36
ATOM     36  C   UNL A   1      35.595  32.665  29.838  1.00  0.00     0.060 A 
ATOM     37  C   UNL A   1      35.524  31.741  30.898  1.00  0.00     0.016 A 
ATOM     38  C   UNL A   1      36.688  32.648  28.975  1.00  0.00     0.016 A 
ATOM     39  C   UNL A   1      36.613  30.901  31.174  1.00  0.00     0.010 A 
ATOM     40  C   UNL A   1      37.805  31.930  29.340  1.00  0.00     0.010 A 
ATOM     41  C   UNL A   1      37.784  31.055  30.436  1.00  0.00    -0.014 A 
BRANCH  41  42
ATOM     42  C   UNL A   1      39.062  30.391  30.702  1.00  0.00     0.031 A 
ATOM     43  C   UNL A   1      39.356  29.136  29.990  1.00  0.00     0.074 A 
ATOM     44  C   UNL A   1      40.066  31.018  31.357  1.00  0.00     0.049 A 
ATOM     45  N   UNL A   1      40.329  28.353  30.296  1.00  0.00    -0.248 NA
ATOM     46  C   UNL A   1      38.529  28.607  28.910  1.00  0.00     0.031 C 
ATOM     47  C   UNL A   1      41.509  30.814  31.232  1.00  0.00     0.029 A 
ATOM     48  N   UNL A   1      39.988  32.083  32.254  1.00  0.00    -0.354 N 
ATOM     49  C   UNL A   1      40.495  27.482  29.248  1.00  0.00     0.074 A 
ATOM     50  C   UNL A   1      39.248  27.549  28.534  1.00  0.00     0.031 C 
ATOM     51  C   UNL A   1      42.149  31.509  32.192  1.00  0.00     0.029 A 
ATOM     52  C   UNL A   1      41.133  32.084  33.057  1.00  0.00     0.049 A 
ATOM     53  H   UNL A   1      39.246  32.728  32.313  1.00  0.00     0.167 HD
ATOM     54  C   UNL A   1      41.739  26.963  29.038  1.00  0.00     0.037 A 
ATOM     55  C   UNL A   1      41.023  31.975  34.407  1.00  0.00     0.037 A 
ATOM     56  C   UNL A   1      42.652  27.357  30.137  1.00  0.00     0.049 A 
ATOM     57  C   UNL A   1      41.636  30.670  34.811  1.00  0.00     0.074 A 
ATOM     58  C   UNL A   1      43.747  28.204  30.210  1.00  0.00     0.029 A 
ATOM     59  N   UNL A   1      42.290  27.097  31.466  1.00  0.00    -0.354 N 
ATOM     60  N   UNL A   1      41.757  29.676  33.974  1.00  0.00    -0.248 NA
ATOM     61  C   UNL A   1      42.265  30.407  36.098  1.00  0.00     0.031 C 
ATOM     62  C   UNL A   1      44.002  28.486  31.585  1.00  0.00     0.029 A 
ATOM     63  C   UNL A   1      43.083  27.794  32.360  1.00  0.00     0.049 A 
ATOM     64  H   UNL A   1      41.559  26.492  31.731  1.00  0.00     0.167 HD
ATOM     65  C   UNL A   1      42.546  28.715  34.521  1.00  0.00     0.074 A 
ATOM     66  C   UNL A   1      42.801  29.192  35.872  1.00  0.00     0.031 C 
ATOM     67  C   UNL A   1      42.935  27.621  33.809  1.00  0.00     0.037 A 
BRANCH  54  68
ATOM     68  C   UNL A   1      42.209  26.307  27.738  1.00  0.00     0.057 A 
ATOM     69  C   UNL A   1      42.660  27.101  26.662  1.00  0.00     0.134 A 
ATOM     70  C   UNL A   1      42.209  24.927  27.437  1.00  0.00     0.134 A 
ATOM     71  F   UNL A   1      42.760  28.432  26.764  1.00  0.00    -0.206 F 
ATOM     72  C   UNL A   1      43.034  26.575  25.411  1.00  0.00     0.040 A 
ATOM     73  C   UNL A   1      42.587  24.387  26.197  1.00  0.00     0.040 A 
ATOM     74  F   UNL A   1      41.851  23.987  28.309  1.00  0.00    -0.206 F 
ATOM     75  C   UNL A   1      42.998  25.212  25.172  1.00  0.00     0.006 A 
ENDBRANCH  54  68
BRANCH  55  76
ATOM     76  C   UNL A   1      39.797  32.656  34.923  1.00  0.00     0.057 A 
ATOM     77  C   UNL A   1      38.704  31.832  35.269  1.00  0.00     0.134 A 
ATOM     78  C   UNL A   1      39.842  33.916  35.529  1.00  0.00     0.134 A 
ATOM     79  F   UNL A   1      38.607  30.595  34.751  1.00  0.00    -0.206 F 
ATOM     80  C   UNL A   1      37.776  32.191  36.256  1.00  0.00     0.040 A 
ATOM     81  C   UNL A   1      38.924  34.280  36.528  1.00  0.00     0.040 A 
ATOM     82  F   UNL A   1      40.854  34.757  35.275  1.00  0.00    -0.206 F 
ATOM     83  C   UNL A   1      37.913  33.403  36.922  1.00  0.00     0.006 A 
ENDBRANCH  55  76
BRANCH  67  84
ATOM     84  C   UNL A   1      43.275  26.300  34.441  1.00  0.00     0.057 A 
ATOM     85  C   UNL A   1      42.326  25.455  35.039  1.00  0.00     0.134 A 
ATOM     86  C   UNL A   1      44.559  25.736  34.277  1.00  0.00     0.134 A 
ATOM     87  F   UNL A   1      41.037  25.801  35.158  1.00  0.00    -0.206 F 
ATOM     88  C   UNL A   1      42.641  24.171  35.490  1.00  0.00     0.040 A 
ATOM     89  C   UNL A   1      44.864  24.430  34.659  1.00  0.00     0.040 A 
ATOM     90  F   UNL A   1      45.565  26.409  33.701  1.00  0.00    -0.206 F 
ATOM     91  C   UNL A   1      43.908  23.647  35.283  1.00  0.00     0.006 A 
ENDBRANCH  67  84
ENDBRANCH  41  42
ENDBRANCH  34  36
ENDBRANCH  33  34
ENDBRANCH  32  33
ENDBRANCH  31  32
ENDBRANCH   1  31
TORSDOF 17
ENDMDL
