MODEL 1
REMARK VINA RESULT:     -11.0      0.000      0.000
REMARK SMILES Cc1cccc(-c2cc(C(=O)OCCOCCOC(=O)c3ccc(-c4c5nc(c(-c6c(F)cccc6F)c6ccc([nH]6)c(-c6c(F)cccc6F)c6nc(c(-c7c(F)cccc7F)c7ccc4[nH]7)C=C6)C=C5)cc3)ccn2)c1
REMARK SMILES IDX 16 1 15 2 14 3 13 4 12 5 10 6 11 7 9 8 7 9 8 10 77 11 76 12
REMARK SMILES IDX 75 13 6 14 1 15 2 16 3 17 78 18 4 19 5 20 17 21 18 22 19 23
REMARK SMILES IDX 20 24 21 25 22 26 74 27 23 28 73 29 24 30 25 31 26 32 67 33
REMARK SMILES IDX 27 34 72 35 66 36 68 37 28 38 71 39 65 40 64 41 29 43 55 44
REMARK SMILES IDX 38 45 54 46 39 47 42 48 53 49 69 50 40 51 41 52 52 54 70 55
REMARK SMILES IDX 43 56 30 57 31 58 36 59 32 60 33 61 35 62 37 63 34 64 56 65
REMARK SMILES IDX 57 66 62 67 58 68 59 69 61 70 63 71 60 72 44 73 45 74 50 75
REMARK SMILES IDX 46 76 47 77 49 78 51 79 48 80
REMARK H PARENT 68 42 42 53
REMARK Flexibility Score: inf
ROOT
ATOM      1  C   UNL A   1      32.374  30.172  27.116  1.00  0.00     0.202 C 
ENDROOT
BRANCH   1   2
ATOM      2  O   UNL A   1      33.102  29.030  27.504  1.00  0.00    -0.374 OA
BRANCH   2   3
ATOM      3  C   UNL A   1      33.837  28.390  26.482  1.00  0.00     0.202 C 
BRANCH   3   4
ATOM      4  C   UNL A   1      32.854  28.134  25.385  1.00  0.00     0.261 C 
BRANCH   4   5
ATOM      5  O   UNL A   1      32.426  26.757  25.368  1.00  0.00    -0.460 OA
BRANCH   5   6
ATOM      6  C   UNL A   1      31.665  26.136  26.316  1.00  0.00     0.338 C 
ATOM      7  O   UNL A   1      30.785  26.576  27.014  1.00  0.00    -0.246 OA
BRANCH   6   8
ATOM      8  C   UNL A   1      32.049  24.707  26.236  1.00  0.00     0.063 A 
ATOM      9  C   UNL A   1      33.779  23.123  25.748  1.00  0.00     0.071 A 
ATOM     10  C   UNL A   1      33.396  24.394  26.120  1.00  0.00     0.044 A 
ATOM     11  N   UNL A   1      32.877  22.140  25.540  1.00  0.00    -0.256 NA
ATOM     12  C   UNL A   1      31.569  22.445  25.759  1.00  0.00     0.112 A 
ATOM     13  C   UNL A   1      31.102  23.704  26.106  1.00  0.00     0.036 A 
BRANCH   9  14
ATOM     14  C   UNL A   1      35.206  22.899  25.500  1.00  0.00     0.000 A 
ATOM     15  C   UNL A   1      37.427  19.850  24.902  1.00  0.00     0.044 C 
ATOM     16  C   UNL A   1      37.006  21.262  25.179  1.00  0.00    -0.050 A 
ATOM     17  C   UNL A   1      37.944  22.267  25.422  1.00  0.00     0.003 A 
ATOM     18  C   UNL A   1      35.651  21.595  25.196  1.00  0.00     0.013 A 
ATOM     19  C   UNL A   1      37.527  23.572  25.700  1.00  0.00     0.001 A 
ATOM     20  C   UNL A   1      36.165  23.887  25.745  1.00  0.00     0.010 A 
ENDBRANCH   9  14
ENDBRANCH   6   8
ENDBRANCH   5   6
ENDBRANCH   4   5
ENDBRANCH   3   4
ENDBRANCH   2   3
ENDBRANCH   1   2
BRANCH   1  21
ATOM     21  C   UNL A   1      33.224  31.440  27.224  1.00  0.00     0.261 C 
BRANCH  21  22
ATOM     22  O   UNL A   1      34.120  31.345  28.357  1.00  0.00    -0.460 OA
BRANCH  22  23
ATOM     23  C   UNL A   1      35.435  31.616  28.112  1.00  0.00     0.338 C 
ATOM     24  O   UNL A   1      35.855  32.618  27.555  1.00  0.00    -0.246 OA
BRANCH  23  25
ATOM     25  C   UNL A   1      36.265  30.396  28.354  1.00  0.00     0.060 A 
ATOM     26  C   UNL A   1      36.231  29.750  29.608  1.00  0.00     0.016 A 
ATOM     27  C   UNL A   1      37.318  30.156  27.482  1.00  0.00     0.016 A 
ATOM     28  C   UNL A   1      37.342  29.015  30.057  1.00  0.00     0.010 A 
ATOM     29  C   UNL A   1      38.456  29.572  27.987  1.00  0.00     0.010 A 
ATOM     30  C   UNL A   1      38.494  29.015  29.279  1.00  0.00    -0.014 A 
BRANCH  30  31
ATOM     31  C   UNL A   1      39.825  28.513  29.646  1.00  0.00     0.031 A 
ATOM     32  C   UNL A   1      40.216  27.204  29.071  1.00  0.00     0.074 A 
ATOM     33  C   UNL A   1      40.778  29.345  30.136  1.00  0.00     0.049 A 
ATOM     34  N   UNL A   1      41.363  26.654  29.235  1.00  0.00    -0.248 NA
ATOM     35  C   UNL A   1      39.326  26.382  28.253  1.00  0.00     0.031 C 
ATOM     36  C   UNL A   1      42.230  29.272  29.940  1.00  0.00     0.029 A 
ATOM     37  N   UNL A   1      40.644  30.483  30.937  1.00  0.00    -0.354 N 
ATOM     38  C   UNL A   1      41.495  25.643  28.311  1.00  0.00     0.074 A 
ATOM     39  C   UNL A   1      40.166  25.449  27.798  1.00  0.00     0.031 C 
ATOM     40  C   UNL A   1      42.850  30.098  30.802  1.00  0.00     0.029 A 
ATOM     41  C   UNL A   1      41.828  30.643  31.675  1.00  0.00     0.049 A 
ATOM     42  H   UNL A   1      39.855  31.070  30.976  1.00  0.00     0.167 HD
ATOM     43  C   UNL A   1      42.759  25.208  28.038  1.00  0.00     0.037 A 
ATOM     44  C   UNL A   1      41.799  30.619  33.033  1.00  0.00     0.037 A 
ATOM     45  C   UNL A   1      43.702  25.804  29.005  1.00  0.00     0.049 A 
ATOM     46  C   UNL A   1      42.552  29.403  33.482  1.00  0.00     0.074 A 
ATOM     47  C   UNL A   1      44.648  26.813  28.925  1.00  0.00     0.029 A 
ATOM     48  N   UNL A   1      43.484  25.588  30.369  1.00  0.00    -0.354 N 
ATOM     49  N   UNL A   1      42.682  28.344  32.725  1.00  0.00    -0.248 NA
ATOM     50  C   UNL A   1      43.347  29.330  34.701  1.00  0.00     0.031 C 
ATOM     51  C   UNL A   1      44.931  27.252  30.253  1.00  0.00     0.029 A 
ATOM     52  C   UNL A   1      44.178  26.498  31.143  1.00  0.00     0.049 A 
ATOM     53  H   UNL A   1      42.908  24.877  30.732  1.00  0.00     0.167 HD
ATOM     54  C   UNL A   1      43.638  27.533  33.253  1.00  0.00     0.074 A 
ATOM     55  C   UNL A   1      43.986  28.159  34.519  1.00  0.00     0.031 C 
ATOM     56  C   UNL A   1      44.122  26.438  32.602  1.00  0.00     0.037 A 
BRANCH  43  57
ATOM     57  C   UNL A   1      43.196  24.411  26.818  1.00  0.00     0.057 A 
ATOM     58  C   UNL A   1      42.836  23.052  26.692  1.00  0.00     0.134 A 
ATOM     59  C   UNL A   1      44.010  24.871  25.762  1.00  0.00     0.134 A 
ATOM     60  F   UNL A   1      42.050  22.447  27.592  1.00  0.00    -0.206 F 
ATOM     61  C   UNL A   1      43.270  22.229  25.639  1.00  0.00     0.040 A 
ATOM     62  C   UNL A   1      44.447  24.060  24.701  1.00  0.00     0.040 A 
ATOM     63  F   UNL A   1      44.436  26.129  25.670  1.00  0.00    -0.206 F 
ATOM     64  C   UNL A   1      44.083  22.730  24.637  1.00  0.00     0.006 A 
ENDBRANCH  43  57
BRANCH  44  65
ATOM     65  C   UNL A   1      40.547  31.241  33.561  1.00  0.00     0.057 A 
ATOM     66  C   UNL A   1      39.544  30.353  34.006  1.00  0.00     0.134 A 
ATOM     67  C   UNL A   1      40.544  32.522  34.128  1.00  0.00     0.134 A 
ATOM     68  F   UNL A   1      39.495  29.099  33.528  1.00  0.00    -0.206 F 
ATOM     69  C   UNL A   1      38.677  30.672  35.061  1.00  0.00     0.040 A 
ATOM     70  C   UNL A   1      39.688  32.845  35.194  1.00  0.00     0.040 A 
ATOM     71  F   UNL A   1      41.472  33.424  33.779  1.00  0.00    -0.206 F 
ATOM     72  C   UNL A   1      38.782  31.906  35.690  1.00  0.00     0.006 A 
ENDBRANCH  44  65
BRANCH  56  73
ATOM     73  C   UNL A   1      44.660  25.235  33.326  1.00  0.00     0.057 A 
ATOM     74  C   UNL A   1      46.017  24.873  33.314  1.00  0.00     0.134 A 
ATOM     75  C   UNL A   1      43.853  24.510  34.227  1.00  0.00     0.134 A 
ATOM     76  F   UNL A   1      46.930  25.558  32.613  1.00  0.00    -0.206 F 
ATOM     77  C   UNL A   1      46.518  23.817  34.078  1.00  0.00     0.040 A 
ATOM     78  C   UNL A   1      44.359  23.503  35.049  1.00  0.00     0.040 A 
ATOM     79  F   UNL A   1      42.547  24.771  34.386  1.00  0.00    -0.206 F 
ATOM     80  C   UNL A   1      45.692  23.137  34.959  1.00  0.00     0.006 A 
ENDBRANCH  56  73
ENDBRANCH  30  31
ENDBRANCH  23  25
ENDBRANCH  22  23
ENDBRANCH  21  22
ENDBRANCH   1  21
TORSDOF 15
ENDMDL
MODEL 2
REMARK VINA RESULT:     -10.9      1.727      2.591
REMARK SMILES Cc1cccc(-c2cc(C(=O)OCCOCCOC(=O)c3ccc(-c4c5nc(c(-c6c(F)cccc6F)c6ccc([nH]6)c(-c6c(F)cccc6F)c6nc(c(-c7c(F)cccc7F)c7ccc4[nH]7)C=C6)C=C5)cc3)ccn2)c1
REMARK SMILES IDX 16 1 15 2 14 3 13 4 12 5 10 6 11 7 9 8 7 9 8 10 77 11 76 12
REMARK SMILES IDX 75 13 6 14 1 15 2 16 3 17 78 18 4 19 5 20 17 21 18 22 19 23
REMARK SMILES IDX 20 24 21 25 22 26 74 27 23 28 73 29 24 30 25 31 26 32 67 33
REMARK SMILES IDX 27 34 72 35 66 36 68 37 28 38 71 39 65 40 64 41 29 43 55 44
REMARK SMILES IDX 38 45 54 46 39 47 42 48 53 49 69 50 40 51 41 52 52 54 70 55
REMARK SMILES IDX 43 56 30 57 31 58 36 59 32 60 33 61 35 62 37 63 34 64 56 65
REMARK SMILES IDX 57 66 62 67 58 68 59 69 61 70 63 71 60 72 44 73 45 74 50 75
REMARK SMILES IDX 46 76 47 77 49 78 51 79 48 80
REMARK H PARENT 68 42 42 53
REMARK Flexibility Score: inf
ROOT
ATOM      1  C   UNL A   1      31.986  29.664  26.891  1.00  0.00     0.202 C 
ENDROOT
BRANCH   1   2
ATOM      2  O   UNL A   1      31.630  28.310  27.048  1.00  0.00    -0.374 OA
BRANCH   2   3
ATOM      3  C   UNL A   1      31.589  27.542  25.864  1.00  0.00     0.202 C 
BRANCH   3   4
ATOM      4  C   UNL A   1      30.819  26.309  26.213  1.00  0.00     0.261 C 
BRANCH   4   5
ATOM      5  O   UNL A   1      31.659  25.319  26.839  1.00  0.00    -0.460 OA
BRANCH   5   6
ATOM      6  C   UNL A   1      31.481  23.966  26.797  1.00  0.00     0.338 C 
ATOM      7  O   UNL A   1      30.662  23.274  27.351  1.00  0.00    -0.246 OA
BRANCH   6   8
ATOM      8  C   UNL A   1      32.453  23.485  25.788  1.00  0.00     0.063 A 
ATOM      9  C   UNL A   1      33.298  21.614  24.552  1.00  0.00     0.071 A 
ATOM     10  C   UNL A   1      32.276  22.215  25.257  1.00  0.00     0.044 A 
ATOM     11  N   UNL A   1      34.465  22.248  24.311  1.00  0.00    -0.256 NA
ATOM     12  C   UNL A   1      34.576  23.530  24.754  1.00  0.00     0.112 A 
ATOM     13  C   UNL A   1      33.607  24.193  25.493  1.00  0.00     0.036 A 
BRANCH   9  14
ATOM     14  C   UNL A   1      33.102  20.219  24.147  1.00  0.00     0.000 A 
ATOM     15  C   UNL A   1      34.898  16.912  24.792  1.00  0.00     0.044 C 
ATOM     16  C   UNL A   1      33.962  17.922  24.200  1.00  0.00    -0.050 A 
ATOM     17  C   UNL A   1      33.110  17.593  23.145  1.00  0.00     0.003 A 
ATOM     18  C   UNL A   1      33.930  19.223  24.704  1.00  0.00     0.013 A 
ATOM     19  C   UNL A   1      32.262  18.558  22.594  1.00  0.00     0.001 A 
ATOM     20  C   UNL A   1      32.260  19.867  23.087  1.00  0.00     0.010 A 
ENDBRANCH   9  14
ENDBRANCH   6   8
ENDBRANCH   5   6
ENDBRANCH   4   5
ENDBRANCH   3   4
ENDBRANCH   2   3
ENDBRANCH   1   2
BRANCH   1  21
ATOM     21  C   UNL A   1      33.499  29.861  27.018  1.00  0.00     0.261 C 
BRANCH  21  22
ATOM     22  O   UNL A   1      33.785  30.946  27.931  1.00  0.00    -0.460 OA
BRANCH  22  23
ATOM     23  C   UNL A   1      35.073  31.399  27.948  1.00  0.00     0.338 C 
ATOM     24  O   UNL A   1      35.437  32.500  27.567  1.00  0.00    -0.246 OA
BRANCH  23  25
ATOM     25  C   UNL A   1      36.011  30.267  28.220  1.00  0.00     0.060 A 
ATOM     26  C   UNL A   1      36.145  29.752  29.527  1.00  0.00     0.016 A 
ATOM     27  C   UNL A   1      36.992  30.007  27.272  1.00  0.00     0.016 A 
ATOM     28  C   UNL A   1      37.346  29.141  29.929  1.00  0.00     0.010 A 
ATOM     29  C   UNL A   1      38.213  29.554  27.712  1.00  0.00     0.010 A 
ATOM     30  C   UNL A   1      38.416  29.136  29.040  1.00  0.00    -0.014 A 
BRANCH  30  31
ATOM     31  C   UNL A   1      39.810  28.763  29.316  1.00  0.00     0.031 A 
ATOM     32  C   UNL A   1      40.198  27.373  28.977  1.00  0.00     0.074 A 
ATOM     33  C   UNL A   1      40.768  29.707  29.487  1.00  0.00     0.049 A 
ATOM     34  N   UNL A   1      41.385  26.904  29.092  1.00  0.00    -0.248 NA
ATOM     35  C   UNL A   1      39.258  26.370  28.479  1.00  0.00     0.031 C 
ATOM     36  C   UNL A   1      42.185  29.636  29.111  1.00  0.00     0.029 A 
ATOM     37  N   UNL A   1      40.674  30.986  30.044  1.00  0.00    -0.354 N 
ATOM     38  C   UNL A   1      41.455  25.724  28.389  1.00  0.00     0.074 A 
ATOM     39  C   UNL A   1      40.084  25.386  28.116  1.00  0.00     0.031 C 
ATOM     40  C   UNL A   1      42.862  30.644  29.689  1.00  0.00     0.029 A 
ATOM     41  C   UNL A   1      41.932  31.334  30.562  1.00  0.00     0.049 A 
ATOM     42  H   UNL A   1      39.864  31.545  30.069  1.00  0.00     0.167 HD
ATOM     43  C   UNL A   1      42.696  25.277  28.041  1.00  0.00     0.037 A 
ATOM     44  C   UNL A   1      42.080  31.600  31.886  1.00  0.00     0.037 A 
ATOM     45  C   UNL A   1      43.720  26.092  28.723  1.00  0.00     0.049 A 
ATOM     46  C   UNL A   1      42.953  30.530  32.469  1.00  0.00     0.074 A 
ATOM     47  C   UNL A   1      44.589  27.087  28.304  1.00  0.00     0.029 A 
ATOM     48  N   UNL A   1      43.693  26.166  30.118  1.00  0.00    -0.354 N 
ATOM     49  N   UNL A   1      43.044  29.337  31.939  1.00  0.00    -0.248 NA
ATOM     50  C   UNL A   1      43.902  30.741  33.555  1.00  0.00     0.031 C 
ATOM     51  C   UNL A   1      45.015  27.808  29.460  1.00  0.00     0.029 A 
ATOM     52  C   UNL A   1      44.427  27.240  30.583  1.00  0.00     0.049 A 
ATOM     53  H   UNL A   1      43.211  25.533  30.697  1.00  0.00     0.167 HD
ATOM     54  C   UNL A   1      44.106  28.686  32.486  1.00  0.00     0.074 A 
ATOM     55  C   UNL A   1      44.578  29.578  33.534  1.00  0.00     0.031 C 
ATOM     56  C   UNL A   1      44.564  27.492  32.016  1.00  0.00     0.037 A 
BRANCH  43  57
ATOM     57  C   UNL A   1      43.018  24.250  26.964  1.00  0.00     0.057 A 
ATOM     58  C   UNL A   1      42.891  22.871  27.238  1.00  0.00     0.134 A 
ATOM     59  C   UNL A   1      43.507  24.517  25.668  1.00  0.00     0.134 A 
ATOM     60  F   UNL A   1      42.423  22.428  28.413  1.00  0.00    -0.206 F 
ATOM     61  C   UNL A   1      43.247  21.863  26.326  1.00  0.00     0.040 A 
ATOM     62  C   UNL A   1      43.863  23.519  24.746  1.00  0.00     0.040 A 
ATOM     63  F   UNL A   1      43.671  25.751  25.195  1.00  0.00    -0.206 F 
ATOM     64  C   UNL A   1      43.739  22.184  25.073  1.00  0.00     0.006 A 
ENDBRANCH  43  57
BRANCH  44  65
ATOM     65  C   UNL A   1      40.873  32.284  32.441  1.00  0.00     0.057 A 
ATOM     66  C   UNL A   1      40.724  33.652  32.122  1.00  0.00     0.134 A 
ATOM     67  C   UNL A   1      39.698  31.580  32.736  1.00  0.00     0.134 A 
ATOM     68  F   UNL A   1      41.801  34.389  31.804  1.00  0.00    -0.206 F 
ATOM     69  C   UNL A   1      39.466  34.250  31.964  1.00  0.00     0.040 A 
ATOM     70  C   UNL A   1      38.433  32.168  32.566  1.00  0.00     0.040 A 
ATOM     71  F   UNL A   1      39.742  30.273  33.029  1.00  0.00    -0.206 F 
ATOM     72  C   UNL A   1      38.315  33.491  32.140  1.00  0.00     0.006 A 
ENDBRANCH  44  65
BRANCH  56  73
ATOM     73  C   UNL A   1      45.259  26.486  32.892  1.00  0.00     0.057 A 
ATOM     74  C   UNL A   1      44.582  25.669  33.813  1.00  0.00     0.134 A 
ATOM     75  C   UNL A   1      46.618  26.168  32.693  1.00  0.00     0.134 A 
ATOM     76  F   UNL A   1      43.260  25.760  34.006  1.00  0.00    -0.206 F 
ATOM     77  C   UNL A   1      45.226  24.666  34.540  1.00  0.00     0.040 A 
ATOM     78  C   UNL A   1      47.252  25.120  33.360  1.00  0.00     0.040 A 
ATOM     79  F   UNL A   1      47.385  26.828  31.813  1.00  0.00    -0.206 F 
ATOM     80  C   UNL A   1      46.562  24.380  34.306  1.00  0.00     0.006 A 
ENDBRANCH  56  73
ENDBRANCH  30  31
ENDBRANCH  23  25
ENDBRANCH  22  23
ENDBRANCH  21  22
ENDBRANCH   1  21
TORSDOF 15
ENDMDL
MODEL 3
REMARK VINA RESULT:     -10.8      3.339      6.078
REMARK SMILES Cc1cccc(-c2cc(C(=O)OCCOCCOC(=O)c3ccc(-c4c5nc(c(-c6c(F)cccc6F)c6ccc([nH]6)c(-c6c(F)cccc6F)c6nc(c(-c7c(F)cccc7F)c7ccc4[nH]7)C=C6)C=C5)cc3)ccn2)c1
REMARK SMILES IDX 16 1 15 2 14 3 13 4 12 5 10 6 11 7 9 8 7 9 8 10 77 11 76 12
REMARK SMILES IDX 75 13 6 14 1 15 2 16 3 17 78 18 4 19 5 20 17 21 18 22 19 23
REMARK SMILES IDX 20 24 21 25 22 26 74 27 23 28 73 29 24 30 25 31 26 32 67 33
REMARK SMILES IDX 27 34 72 35 66 36 68 37 28 38 71 39 65 40 64 41 29 43 55 44
REMARK SMILES IDX 38 45 54 46 39 47 42 48 53 49 69 50 40 51 41 52 52 54 70 55
REMARK SMILES IDX 43 56 30 57 31 58 36 59 32 60 33 61 35 62 37 63 34 64 56 65
REMARK SMILES IDX 57 66 62 67 58 68 59 69 61 70 63 71 60 72 44 73 45 74 50 75
REMARK SMILES IDX 46 76 47 77 49 78 51 79 48 80
REMARK H PARENT 68 42 42 53
REMARK Flexibility Score: inf
ROOT
ATOM      1  C   UNL A   1      33.299  32.014  27.622  1.00  0.00     0.202 C 
ENDROOT
BRANCH   1   2
ATOM      2  O   UNL A   1      33.660  33.086  28.462  1.00  0.00    -0.374 OA
BRANCH   2   3
ATOM      3  C   UNL A   1      34.058  34.273  27.809  1.00  0.00     0.202 C 
BRANCH   3   4
ATOM      4  C   UNL A   1      33.491  35.388  28.627  1.00  0.00     0.261 C 
BRANCH   4   5
ATOM      5  O   UNL A   1      33.902  35.295  30.006  1.00  0.00    -0.460 OA
BRANCH   5   6
ATOM      6  C   UNL A   1      33.405  36.024  31.048  1.00  0.00     0.338 C 
ATOM      7  O   UNL A   1      32.435  36.740  31.101  1.00  0.00    -0.246 OA
BRANCH   6   8
ATOM      8  C   UNL A   1      34.248  35.653  32.208  1.00  0.00     0.063 A 
ATOM      9  C   UNL A   1      35.897  34.154  33.088  1.00  0.00     0.071 A 
ATOM     10  C   UNL A   1      35.283  34.751  32.007  1.00  0.00     0.044 A 
ATOM     11  N   UNL A   1      35.557  34.459  34.358  1.00  0.00    -0.256 NA
ATOM     12  C   UNL A   1      34.609  35.422  34.531  1.00  0.00     0.112 A 
ATOM     13  C   UNL A   1      33.927  36.047  33.498  1.00  0.00     0.036 A 
BRANCH   9  14
ATOM     14  C   UNL A   1      36.879  33.103  32.805  1.00  0.00     0.000 A 
ATOM     15  C   UNL A   1      39.852  32.710  30.441  1.00  0.00     0.044 C 
ATOM     16  C   UNL A   1      38.770  32.373  31.422  1.00  0.00    -0.050 A 
ATOM     17  C   UNL A   1      38.566  31.064  31.860  1.00  0.00     0.003 A 
ATOM     18  C   UNL A   1      37.940  33.380  31.919  1.00  0.00     0.013 A 
ATOM     19  C   UNL A   1      37.535  30.770  32.758  1.00  0.00     0.001 A 
ATOM     20  C   UNL A   1      36.692  31.782  33.225  1.00  0.00     0.010 A 
ENDBRANCH   9  14
ENDBRANCH   6   8
ENDBRANCH   5   6
ENDBRANCH   4   5
ENDBRANCH   3   4
ENDBRANCH   2   3
ENDBRANCH   1   2
BRANCH   1  21
ATOM     21  C   UNL A   1      34.464  31.040  27.428  1.00  0.00     0.261 C 
BRANCH  21  22
ATOM     22  O   UNL A   1      35.219  30.915  28.656  1.00  0.00    -0.460 OA
BRANCH  22  23
ATOM     23  C   UNL A   1      36.541  31.250  28.590  1.00  0.00     0.338 C 
ATOM     24  O   UNL A   1      36.972  32.368  28.359  1.00  0.00    -0.246 OA
BRANCH  23  25
ATOM     25  C   UNL A   1      37.382  30.015  28.547  1.00  0.00     0.060 A 
ATOM     26  C   UNL A   1      37.207  29.001  29.514  1.00  0.00     0.016 A 
ATOM     27  C   UNL A   1      38.553  30.064  27.801  1.00  0.00     0.016 A 
ATOM     28  C   UNL A   1      38.279  28.159  29.859  1.00  0.00     0.010 A 
ATOM     29  C   UNL A   1      39.636  29.346  28.251  1.00  0.00     0.010 A 
ATOM     30  C   UNL A   1      39.524  28.405  29.292  1.00  0.00    -0.014 A 
BRANCH  30  31
ATOM     31  C   UNL A   1      40.814  27.809  29.665  1.00  0.00     0.031 A 
ATOM     32  C   UNL A   1      41.119  26.482  29.080  1.00  0.00     0.074 A 
ATOM     33  C   UNL A   1      41.817  28.569  30.172  1.00  0.00     0.049 A 
ATOM     34  N   UNL A   1      42.224  25.853  29.249  1.00  0.00    -0.248 NA
ATOM     35  C   UNL A   1      40.182  25.731  28.246  1.00  0.00     0.031 C 
ATOM     36  C   UNL A   1      43.262  28.398  29.987  1.00  0.00     0.029 A 
ATOM     37  N   UNL A   1      41.754  29.706  30.983  1.00  0.00    -0.354 N 
ATOM     38  C   UNL A   1      42.295  24.844  28.315  1.00  0.00     0.074 A 
ATOM     39  C   UNL A   1      40.960  24.747  27.789  1.00  0.00     0.031 C 
ATOM     40  C   UNL A   1      43.929  29.171  30.863  1.00  0.00     0.029 A 
ATOM     41  C   UNL A   1      42.939  29.777  31.732  1.00  0.00     0.049 A 
ATOM     42  H   UNL A   1      41.007  30.345  31.021  1.00  0.00     0.167 HD
ATOM     43  C   UNL A   1      43.528  24.326  28.049  1.00  0.00     0.037 A 
ATOM     44  C   UNL A   1      42.897  29.742  33.090  1.00  0.00     0.037 A 
ATOM     45  C   UNL A   1      44.501  24.846  29.030  1.00  0.00     0.049 A 
ATOM     46  C   UNL A   1      43.560  28.473  33.533  1.00  0.00     0.074 A 
ATOM     47  C   UNL A   1      45.515  25.788  28.968  1.00  0.00     0.029 A 
ATOM     48  N   UNL A   1      44.256  24.633  30.389  1.00  0.00    -0.354 N 
ATOM     49  N   UNL A   1      43.624  27.414  32.767  1.00  0.00    -0.248 NA
ATOM     50  C   UNL A   1      44.337  28.333  34.758  1.00  0.00     0.031 C 
ATOM     51  C   UNL A   1      45.815  26.194  30.303  1.00  0.00     0.029 A 
ATOM     52  C   UNL A   1      45.003  25.485  31.179  1.00  0.00     0.049 A 
ATOM     53  H   UNL A   1      43.630  23.960  30.740  1.00  0.00     0.167 HD
ATOM     54  C   UNL A   1      44.517  26.535  33.295  1.00  0.00     0.074 A 
ATOM     55  C   UNL A   1      44.895  27.124  34.570  1.00  0.00     0.031 C 
ATOM     56  C   UNL A   1      44.930  25.415  32.637  1.00  0.00     0.037 A 
BRANCH  43  57
ATOM     57  C   UNL A   1      43.921  23.512  26.825  1.00  0.00     0.057 A 
ATOM     58  C   UNL A   1      44.652  24.113  25.778  1.00  0.00     0.134 A 
ATOM     59  C   UNL A   1      43.579  22.169  26.564  1.00  0.00     0.134 A 
ATOM     60  F   UNL A   1      45.080  25.380  25.857  1.00  0.00    -0.206 F 
ATOM     61  C   UNL A   1      44.980  23.453  24.581  1.00  0.00     0.040 A 
ATOM     62  C   UNL A   1      43.903  21.495  25.375  1.00  0.00     0.040 A 
ATOM     63  F   UNL A   1      42.917  21.407  27.433  1.00  0.00    -0.206 F 
ATOM     64  C   UNL A   1      44.602  22.138  24.372  1.00  0.00     0.006 A 
ENDBRANCH  43  57
BRANCH  44  65
ATOM     65  C   UNL A   1      41.686  30.444  33.613  1.00  0.00     0.057 A 
ATOM     66  C   UNL A   1      40.828  29.685  34.439  1.00  0.00     0.134 A 
ATOM     67  C   UNL A   1      41.661  31.833  33.796  1.00  0.00     0.134 A 
ATOM     68  F   UNL A   1      40.811  28.346  34.341  1.00  0.00    -0.206 F 
ATOM     69  C   UNL A   1      40.094  30.261  35.485  1.00  0.00     0.040 A 
ATOM     70  C   UNL A   1      40.940  32.416  34.851  1.00  0.00     0.040 A 
ATOM     71  F   UNL A   1      42.457  32.630  33.071  1.00  0.00    -0.206 F 
ATOM     72  C   UNL A   1      40.189  31.627  35.723  1.00  0.00     0.006 A 
ENDBRANCH  44  65
BRANCH  56  73
ATOM     73  C   UNL A   1      45.378  24.171  33.353  1.00  0.00     0.057 A 
ATOM     74  C   UNL A   1      46.643  24.037  33.947  1.00  0.00     0.134 A 
ATOM     75  C   UNL A   1      44.467  23.133  33.640  1.00  0.00     0.134 A 
ATOM     76  F   UNL A   1      47.566  25.006  33.878  1.00  0.00    -0.206 F 
ATOM     77  C   UNL A   1      47.004  22.919  34.701  1.00  0.00     0.040 A 
ATOM     78  C   UNL A   1      44.794  22.048  34.453  1.00  0.00     0.040 A 
ATOM     79  F   UNL A   1      43.206  23.142  33.183  1.00  0.00    -0.206 F 
ATOM     80  C   UNL A   1      46.074  21.926  34.967  1.00  0.00     0.006 A 
ENDBRANCH  56  73
ENDBRANCH  30  31
ENDBRANCH  23  25
ENDBRANCH  22  23
ENDBRANCH  21  22
ENDBRANCH   1  21
TORSDOF 15
ENDMDL
