MODEL 1
REMARK VINA RESULT:     -11.3      0.000      0.000
REMARK SMILES O=C(N[C@@H](C(=O)OCCOCCOC(=O)c1ccc(-c2c3nc(c(-c4c(F)cccc4F)c4ccc([nH]4)c(-c4c(F)cccc4F)c4nc(c(-c5c(F)cccc5F)c5ccc2[nH]5)C=C4)C=C3)cc1)c1ccccc1)c1ccc(Br)nc1
REMARK SMILES IDX 10 1 9 2 8 3 7 4 5 5 6 6 4 7 3 8 1 9 2 10 76 12 77 13 82 14
REMARK SMILES IDX 78 15 81 16 79 17 80 18 70 19 71 20 75 21 72 22 74 23 73 24
REMARK SMILES IDX 11 25 12 26 13 27 14 28 15 29 16 30 17 31 69 32 18 33 68 34
REMARK SMILES IDX 19 35 20 36 21 37 62 38 22 39 67 40 61 41 63 42 23 43 66 44
REMARK SMILES IDX 60 45 59 46 24 48 50 49 33 50 49 51 34 52 37 53 48 54 64 55
REMARK SMILES IDX 35 56 36 57 47 59 65 60 38 61 25 62 26 63 31 64 27 65 28 66
REMARK SMILES IDX 30 67 32 68 29 69 51 70 52 71 57 72 53 73 54 74 56 75 58 76
REMARK SMILES IDX 55 77 39 78 40 79 45 80 41 81 42 82 44 83 46 84 43 85
REMARK H PARENT 3 11 63 47 37 58
REMARK Flexibility Score: inf
ROOT
ATOM      1  O   UNL A   1      34.938  19.072  24.554  1.00  0.00    -0.374 OA
ENDROOT
BRANCH   1   2
ATOM      2  C   UNL A   1      33.568  19.135  24.948  1.00  0.00     0.202 C 
BRANCH   2   3
ATOM      3  C   UNL A   1      32.578  19.591  23.875  1.00  0.00     0.261 C 
BRANCH   3   4
ATOM      4  O   UNL A   1      32.371  21.013  23.932  1.00  0.00    -0.461 OA
BRANCH   4   5
ATOM      5  C   UNL A   1      32.227  21.630  22.725  1.00  0.00     0.333 C 
ATOM      6  O   UNL A   1      31.931  21.053  21.685  1.00  0.00    -0.249 OA
BRANCH   5   7
ATOM      7  C   UNL A   1      32.521  23.147  22.800  1.00  0.00     0.223 C 
BRANCH   7   8
ATOM      8  N   UNL A   1      32.777  23.839  21.526  1.00  0.00    -0.335 N 
ATOM      9  O   UNL A   1      32.969  25.549  20.074  1.00  0.00    -0.269 OA
ATOM     10  C   UNL A   1      32.792  25.175  21.229  1.00  0.00     0.253 C 
ATOM     11  H   UNL A   1      32.969  23.245  20.764  1.00  0.00     0.165 HD
BRANCH  10  12
ATOM     12  C   UNL A   1      32.504  26.168  22.271  1.00  0.00     0.058 A 
ATOM     13  C   UNL A   1      33.563  26.863  22.848  1.00  0.00     0.018 A 
ATOM     14  C   UNL A   1      31.213  26.472  22.675  1.00  0.00     0.126 A 
ATOM     15  C   UNL A   1      33.289  27.904  23.730  1.00  0.00     0.037 A 
ATOM     16  N   UNL A   1      30.917  27.494  23.514  1.00  0.00    -0.249 NA
ATOM     17  C   UNL A   1      31.960  28.199  24.010  1.00  0.00     0.106 A 
ATOM     18  Br  UNL A   1      31.569  29.696  25.104  1.00  0.00    -0.029 Br
ENDBRANCH  10  12
ENDBRANCH   7   8
BRANCH   7  19
ATOM     19  C   UNL A   1      33.632  23.448  23.797  1.00  0.00    -0.014 A 
ATOM     20  C   UNL A   1      34.971  23.318  23.392  1.00  0.00     0.006 A 
ATOM     21  C   UNL A   1      33.373  23.897  25.103  1.00  0.00     0.006 A 
ATOM     22  C   UNL A   1      36.015  23.623  24.265  1.00  0.00     0.000 A 
ATOM     23  C   UNL A   1      34.420  24.205  25.975  1.00  0.00     0.000 A 
ATOM     24  C   UNL A   1      35.740  24.068  25.555  1.00  0.00     0.000 A 
ENDBRANCH   7  19
ENDBRANCH   5   7
ENDBRANCH   4   5
ENDBRANCH   3   4
ENDBRANCH   2   3
ENDBRANCH   1   2
BRANCH   1  25
ATOM     25  C   UNL A   1      35.802  20.117  24.998  1.00  0.00     0.202 C 
BRANCH  25  26
ATOM     26  C   UNL A   1      37.305  19.818  24.994  1.00  0.00     0.261 C 
BRANCH  26  27
ATOM     27  O   UNL A   1      38.092  20.994  25.251  1.00  0.00    -0.460 OA
BRANCH  27  28
ATOM     28  C   UNL A   1      39.223  20.769  25.960  1.00  0.00     0.338 C 
ATOM     29  O   UNL A   1      39.893  19.743  25.980  1.00  0.00    -0.246 OA
BRANCH  28  30
ATOM     30  C   UNL A   1      39.686  22.010  26.606  1.00  0.00     0.060 A 
ATOM     31  C   UNL A   1      39.131  23.215  26.153  1.00  0.00     0.016 A 
ATOM     32  C   UNL A   1      40.704  22.010  27.561  1.00  0.00     0.016 A 
ATOM     33  C   UNL A   1      39.637  24.430  26.604  1.00  0.00     0.010 A 
ATOM     34  C   UNL A   1      41.222  23.233  28.003  1.00  0.00     0.010 A 
ATOM     35  C   UNL A   1      40.719  24.446  27.494  1.00  0.00    -0.014 A 
BRANCH  35  36
ATOM     36  C   UNL A   1      41.436  25.719  27.740  1.00  0.00     0.031 A 
ATOM     37  C   UNL A   1      40.733  26.806  28.507  1.00  0.00     0.074 A 
ATOM     38  C   UNL A   1      42.706  25.892  27.333  1.00  0.00     0.049 A 
ATOM     39  N   UNL A   1      41.146  28.010  28.812  1.00  0.00    -0.248 NA
ATOM     40  C   UNL A   1      39.381  26.491  29.001  1.00  0.00     0.031 C 
ATOM     41  C   UNL A   1      43.512  24.894  26.634  1.00  0.00     0.029 A 
ATOM     42  N   UNL A   1      43.537  26.976  27.451  1.00  0.00    -0.354 N 
ATOM     43  C   UNL A   1      40.108  28.594  29.528  1.00  0.00     0.074 A 
ATOM     44  C   UNL A   1      39.035  27.625  29.591  1.00  0.00     0.031 C 
ATOM     45  C   UNL A   1      44.722  25.418  26.373  1.00  0.00     0.029 A 
ATOM     46  C   UNL A   1      44.763  26.796  26.861  1.00  0.00     0.049 A 
ATOM     47  H   UNL A   1      43.279  27.806  27.914  1.00  0.00     0.167 HD
ATOM     48  C   UNL A   1      40.057  29.823  30.091  1.00  0.00     0.037 A 
ATOM     49  C   UNL A   1      45.790  27.655  26.714  1.00  0.00     0.037 A 
ATOM     50  C   UNL A   1      41.121  30.789  30.026  1.00  0.00     0.049 A 
ATOM     51  C   UNL A   1      45.676  29.047  27.279  1.00  0.00     0.074 A 
ATOM     52  C   UNL A   1      41.162  32.067  30.557  1.00  0.00     0.029 A 
ATOM     53  N   UNL A   1      42.335  30.580  29.391  1.00  0.00    -0.354 N 
ATOM     54  N   UNL A   1      44.693  29.588  27.956  1.00  0.00    -0.248 NA
ATOM     55  C   UNL A   1      46.819  29.947  27.058  1.00  0.00     0.031 C 
ATOM     56  C   UNL A   1      42.388  32.645  30.210  1.00  0.00     0.029 A 
ATOM     57  C   UNL A   1      43.126  31.711  29.500  1.00  0.00     0.049 A 
ATOM     58  H   UNL A   1      42.595  29.751  28.928  1.00  0.00     0.167 HD
ATOM     59  C   UNL A   1      45.110  30.876  28.270  1.00  0.00     0.074 A 
ATOM     60  C   UNL A   1      46.437  31.034  27.715  1.00  0.00     0.031 C 
ATOM     61  C   UNL A   1      44.453  31.842  28.959  1.00  0.00     0.037 A 
BRANCH  48  62
ATOM     62  C   UNL A   1      38.796  30.202  30.810  1.00  0.00     0.057 A 
ATOM     63  C   UNL A   1      37.742  30.851  30.155  1.00  0.00     0.134 A 
ATOM     64  C   UNL A   1      38.621  29.884  32.162  1.00  0.00     0.134 A 
ATOM     65  F   UNL A   1      37.855  31.197  28.863  1.00  0.00    -0.206 F 
ATOM     66  C   UNL A   1      36.564  31.185  30.825  1.00  0.00     0.040 A 
ATOM     67  C   UNL A   1      37.440  30.193  32.836  1.00  0.00     0.040 A 
ATOM     68  F   UNL A   1      39.592  29.260  32.845  1.00  0.00    -0.206 F 
ATOM     69  C   UNL A   1      36.408  30.850  32.168  1.00  0.00     0.006 A 
ENDBRANCH  48  62
BRANCH  49  70
ATOM     70  C   UNL A   1      47.017  27.237  25.990  1.00  0.00     0.057 A 
ATOM     71  C   UNL A   1      47.131  27.396  24.604  1.00  0.00     0.134 A 
ATOM     72  C   UNL A   1      48.087  26.634  26.661  1.00  0.00     0.134 A 
ATOM     73  F   UNL A   1      46.128  27.943  23.902  1.00  0.00    -0.206 F 
ATOM     74  C   UNL A   1      48.257  26.952  23.908  1.00  0.00     0.040 A 
ATOM     75  C   UNL A   1      49.229  26.207  25.980  1.00  0.00     0.040 A 
ATOM     76  F   UNL A   1      48.040  26.453  27.989  1.00  0.00    -0.206 F 
ATOM     77  C   UNL A   1      49.312  26.358  24.598  1.00  0.00     0.006 A 
ENDBRANCH  49  70
BRANCH  61  78
ATOM     78  C   UNL A   1      45.177  33.134  29.195  1.00  0.00     0.057 A 
ATOM     79  C   UNL A   1      45.056  34.220  28.321  1.00  0.00     0.134 A 
ATOM     80  C   UNL A   1      45.966  33.305  30.340  1.00  0.00     0.134 A 
ATOM     81  F   UNL A   1      44.324  34.115  27.202  1.00  0.00    -0.206 F 
ATOM     82  C   UNL A   1      45.709  35.429  28.569  1.00  0.00     0.040 A 
ATOM     83  C   UNL A   1      46.606  34.516  30.610  1.00  0.00     0.040 A 
ATOM     84  F   UNL A   1      46.115  32.305  31.221  1.00  0.00    -0.206 F 
ATOM     85  C   UNL A   1      46.482  35.580  29.719  1.00  0.00     0.006 A 
ENDBRANCH  61  78
ENDBRANCH  35  36
ENDBRANCH  28  30
ENDBRANCH  27  28
ENDBRANCH  26  27
ENDBRANCH  25  26
ENDBRANCH   1  25
TORSDOF 17
ENDMDL
MODEL 2
REMARK VINA RESULT:     -11.1      4.527      8.031
REMARK SMILES O=C(N[C@@H](C(=O)OCCOCCOC(=O)c1ccc(-c2c3nc(c(-c4c(F)cccc4F)c4ccc([nH]4)c(-c4c(F)cccc4F)c4nc(c(-c5c(F)cccc5F)c5ccc2[nH]5)C=C4)C=C3)cc1)c1ccccc1)c1ccc(Br)nc1
REMARK SMILES IDX 10 1 9 2 8 3 7 4 5 5 6 6 4 7 3 8 1 9 2 10 76 12 77 13 82 14
REMARK SMILES IDX 78 15 81 16 79 17 80 18 70 19 71 20 75 21 72 22 74 23 73 24
REMARK SMILES IDX 11 25 12 26 13 27 14 28 15 29 16 30 17 31 69 32 18 33 68 34
REMARK SMILES IDX 19 35 20 36 21 37 62 38 22 39 67 40 61 41 63 42 23 43 66 44
REMARK SMILES IDX 60 45 59 46 24 48 50 49 33 50 49 51 34 52 37 53 48 54 64 55
REMARK SMILES IDX 35 56 36 57 47 59 65 60 38 61 25 62 26 63 31 64 27 65 28 66
REMARK SMILES IDX 30 67 32 68 29 69 51 70 52 71 57 72 53 73 54 74 56 75 58 76
REMARK SMILES IDX 55 77 39 78 40 79 45 80 41 81 42 82 44 83 46 84 43 85
REMARK H PARENT 3 11 63 47 37 58
REMARK Flexibility Score: inf
ROOT
ATOM      1  O   UNL A   1      31.620  30.825  26.682  1.00  0.00    -0.374 OA
ENDROOT
BRANCH   1   2
ATOM      2  C   UNL A   1      32.943  30.320  26.856  1.00  0.00     0.202 C 
BRANCH   2   3
ATOM      3  C   UNL A   1      33.461  29.392  25.756  1.00  0.00     0.261 C 
BRANCH   3   4
ATOM      4  O   UNL A   1      32.389  28.940  24.912  1.00  0.00    -0.461 OA
BRANCH   4   5
ATOM      5  C   UNL A   1      32.736  28.672  23.620  1.00  0.00     0.333 C 
ATOM      6  O   UNL A   1      33.725  29.133  23.061  1.00  0.00    -0.249 OA
BRANCH   5   7
ATOM      7  C   UNL A   1      31.716  27.748  22.915  1.00  0.00     0.223 C 
BRANCH   7   8
ATOM      8  N   UNL A   1      32.149  27.114  21.658  1.00  0.00    -0.335 N 
ATOM      9  O   UNL A   1      33.028  25.553  20.295  1.00  0.00    -0.269 OA
ATOM     10  C   UNL A   1      32.669  25.870  21.425  1.00  0.00     0.253 C 
ATOM     11  H   UNL A   1      32.048  27.677  20.856  1.00  0.00     0.165 HD
BRANCH  10  12
ATOM     12  C   UNL A   1      32.888  24.939  22.539  1.00  0.00     0.058 A 
ATOM     13  C   UNL A   1      31.883  24.029  22.861  1.00  0.00     0.018 A 
ATOM     14  C   UNL A   1      34.073  24.899  23.256  1.00  0.00     0.126 A 
ATOM     15  C   UNL A   1      32.138  23.051  23.817  1.00  0.00     0.037 A 
ATOM     16  N   UNL A   1      34.355  23.945  24.175  1.00  0.00    -0.249 NA
ATOM     17  C   UNL A   1      33.388  23.031  24.423  1.00  0.00     0.106 A 
ATOM     18  Br  UNL A   1      33.794  21.626  25.629  1.00  0.00    -0.029 Br
ENDBRANCH  10  12
ENDBRANCH   7   8
BRANCH   7  19
ATOM     19  C   UNL A   1      30.377  28.448  22.719  1.00  0.00    -0.014 A 
ATOM     20  C   UNL A   1      30.329  29.644  21.985  1.00  0.00     0.006 A 
ATOM     21  C   UNL A   1      29.170  27.918  23.207  1.00  0.00     0.006 A 
ATOM     22  C   UNL A   1      29.116  30.292  21.752  1.00  0.00     0.000 A 
ATOM     23  C   UNL A   1      27.956  28.566  22.970  1.00  0.00     0.000 A 
ATOM     24  C   UNL A   1      27.930  29.752  22.242  1.00  0.00     0.000 A 
ENDBRANCH   7  19
ENDBRANCH   5   7
ENDBRANCH   4   5
ENDBRANCH   3   4
ENDBRANCH   2   3
ENDBRANCH   1   2
BRANCH   1  25
ATOM     25  C   UNL A   1      31.429  32.233  26.801  1.00  0.00     0.202 C 
BRANCH  25  26
ATOM     26  C   UNL A   1      32.647  33.062  27.226  1.00  0.00     0.261 C 
BRANCH  26  27
ATOM     27  O   UNL A   1      32.276  34.197  28.028  1.00  0.00    -0.460 OA
BRANCH  27  28
ATOM     28  C   UNL A   1      33.312  34.814  28.641  1.00  0.00     0.338 C 
ATOM     29  O   UNL A   1      33.322  35.940  29.126  1.00  0.00    -0.246 OA
BRANCH  28  30
ATOM     30  C   UNL A   1      34.435  33.879  28.828  1.00  0.00     0.060 A 
ATOM     31  C   UNL A   1      34.174  32.693  29.527  1.00  0.00     0.016 A 
ATOM     32  C   UNL A   1      35.734  34.192  28.419  1.00  0.00     0.016 A 
ATOM     33  C   UNL A   1      35.219  31.844  29.879  1.00  0.00     0.010 A 
ATOM     34  C   UNL A   1      36.785  33.344  28.785  1.00  0.00     0.010 A 
ATOM     35  C   UNL A   1      36.536  32.191  29.553  1.00  0.00    -0.014 A 
BRANCH  35  36
ATOM     36  C   UNL A   1      37.656  31.446  30.176  1.00  0.00     0.031 A 
ATOM     37  C   UNL A   1      37.969  31.694  31.627  1.00  0.00     0.074 A 
ATOM     38  C   UNL A   1      38.354  30.532  29.480  1.00  0.00     0.049 A 
ATOM     39  N   UNL A   1      38.919  31.188  32.371  1.00  0.00    -0.248 NA
ATOM     40  C   UNL A   1      37.088  32.639  32.335  1.00  0.00     0.031 C 
ATOM     41  C   UNL A   1      38.109  30.162  28.088  1.00  0.00     0.029 A 
ATOM     42  N   UNL A   1      39.416  29.749  29.857  1.00  0.00    -0.354 N 
ATOM     43  C   UNL A   1      38.752  31.752  33.630  1.00  0.00     0.074 A 
ATOM     44  C   UNL A   1      37.628  32.659  33.545  1.00  0.00     0.031 C 
ATOM     45  C   UNL A   1      39.006  29.228  27.722  1.00  0.00     0.029 A 
ATOM     46  C   UNL A   1      39.903  28.960  28.845  1.00  0.00     0.049 A 
ATOM     47  H   UNL A   1      39.793  29.753  30.766  1.00  0.00     0.167 HD
ATOM     48  C   UNL A   1      39.465  31.527  34.758  1.00  0.00     0.037 A 
ATOM     49  C   UNL A   1      40.966  28.133  28.825  1.00  0.00     0.037 A 
ATOM     50  C   UNL A   1      40.584  30.629  34.844  1.00  0.00     0.049 A 
ATOM     51  C   UNL A   1      41.794  27.963  30.073  1.00  0.00     0.074 A 
ATOM     52  C   UNL A   1      41.379  30.339  35.939  1.00  0.00     0.029 A 
ATOM     53  N   UNL A   1      41.067  29.872  33.787  1.00  0.00    -0.354 N 
ATOM     54  N   UNL A   1      41.626  28.498  31.257  1.00  0.00    -0.248 NA
ATOM     55  C   UNL A   1      42.960  27.071  29.977  1.00  0.00     0.031 C 
ATOM     56  C   UNL A   1      42.366  29.435  35.537  1.00  0.00     0.029 A 
ATOM     57  C   UNL A   1      42.160  29.129  34.200  1.00  0.00     0.049 A 
ATOM     58  H   UNL A   1      40.691  29.866  32.878  1.00  0.00     0.167 HD
ATOM     59  C   UNL A   1      42.641  27.984  32.055  1.00  0.00     0.074 A 
ATOM     60  C   UNL A   1      43.417  27.090  31.222  1.00  0.00     0.031 C 
ATOM     61  C   UNL A   1      42.907  28.228  33.362  1.00  0.00     0.037 A 
BRANCH  48  62
ATOM     62  C   UNL A   1      39.065  32.285  35.989  1.00  0.00     0.057 A 
ATOM     63  C   UNL A   1      39.493  33.600  36.216  1.00  0.00     0.134 A 
ATOM     64  C   UNL A   1      38.218  31.707  36.941  1.00  0.00     0.134 A 
ATOM     65  F   UNL A   1      40.320  34.204  35.348  1.00  0.00    -0.206 F 
ATOM     66  C   UNL A   1      39.105  34.306  37.355  1.00  0.00     0.040 A 
ATOM     67  C   UNL A   1      37.805  32.411  38.073  1.00  0.00     0.040 A 
ATOM     68  F   UNL A   1      37.771  30.452  36.782  1.00  0.00    -0.206 F 
ATOM     69  C   UNL A   1      38.252  33.714  38.285  1.00  0.00     0.006 A 
ENDBRANCH  48  62
BRANCH  49  70
ATOM     70  C   UNL A   1      41.326  27.408  27.581  1.00  0.00     0.057 A 
ATOM     71  C   UNL A   1      40.902  26.093  27.358  1.00  0.00     0.134 A 
ATOM     72  C   UNL A   1      42.134  28.000  26.602  1.00  0.00     0.134 A 
ATOM     73  F   UNL A   1      40.148  25.463  28.271  1.00  0.00    -0.206 F 
ATOM     74  C   UNL A   1      41.285  25.385  26.217  1.00  0.00     0.040 A 
ATOM     75  C   UNL A   1      42.504  27.312  25.446  1.00  0.00     0.040 A 
ATOM     76  F   UNL A   1      42.572  29.258  26.756  1.00  0.00    -0.206 F 
ATOM     77  C   UNL A   1      42.086  25.997  25.255  1.00  0.00     0.006 A 
ENDBRANCH  49  70
BRANCH  61  78
ATOM     78  C   UNL A   1      44.049  27.483  33.985  1.00  0.00     0.057 A 
ATOM     79  C   UNL A   1      45.345  28.011  34.022  1.00  0.00     0.134 A 
ATOM     80  C   UNL A   1      43.836  26.241  34.598  1.00  0.00     0.134 A 
ATOM     81  F   UNL A   1      45.616  29.190  33.443  1.00  0.00    -0.206 F 
ATOM     82  C   UNL A   1      46.394  27.322  34.633  1.00  0.00     0.040 A 
ATOM     83  C   UNL A   1      44.872  25.553  35.232  1.00  0.00     0.040 A 
ATOM     84  F   UNL A   1      42.616  25.686  34.604  1.00  0.00    -0.206 F 
ATOM     85  C   UNL A   1      46.157  26.092  35.245  1.00  0.00     0.006 A 
ENDBRANCH  61  78
ENDBRANCH  35  36
ENDBRANCH  28  30
ENDBRANCH  27  28
ENDBRANCH  26  27
ENDBRANCH  25  26
ENDBRANCH   1  25
TORSDOF 17
ENDMDL
MODEL 3
REMARK VINA RESULT:     -11.1      0.323      6.062
REMARK SMILES O=C(N[C@@H](C(=O)OCCOCCOC(=O)c1ccc(-c2c3nc(c(-c4c(F)cccc4F)c4ccc([nH]4)c(-c4c(F)cccc4F)c4nc(c(-c5c(F)cccc5F)c5ccc2[nH]5)C=C4)C=C3)cc1)c1ccccc1)c1ccc(Br)nc1
REMARK SMILES IDX 10 1 9 2 8 3 7 4 5 5 6 6 4 7 3 8 1 9 2 10 76 12 77 13 82 14
REMARK SMILES IDX 78 15 81 16 79 17 80 18 70 19 71 20 75 21 72 22 74 23 73 24
REMARK SMILES IDX 11 25 12 26 13 27 14 28 15 29 16 30 17 31 69 32 18 33 68 34
REMARK SMILES IDX 19 35 20 36 21 37 62 38 22 39 67 40 61 41 63 42 23 43 66 44
REMARK SMILES IDX 60 45 59 46 24 48 50 49 33 50 49 51 34 52 37 53 48 54 64 55
REMARK SMILES IDX 35 56 36 57 47 59 65 60 38 61 25 62 26 63 31 64 27 65 28 66
REMARK SMILES IDX 30 67 32 68 29 69 51 70 52 71 57 72 53 73 54 74 56 75 58 76
REMARK SMILES IDX 55 77 39 78 40 79 45 80 41 81 42 82 44 83 46 84 43 85
REMARK H PARENT 3 11 63 47 37 58
REMARK Flexibility Score: inf
ROOT
ATOM      1  O   UNL A   1      35.153  19.365  24.626  1.00  0.00    -0.374 OA
ENDROOT
BRANCH   1   2
ATOM      2  C   UNL A   1      33.807  19.508  25.077  1.00  0.00     0.202 C 
BRANCH   2   3
ATOM      3  C   UNL A   1      32.746  19.692  23.991  1.00  0.00     0.261 C 
BRANCH   3   4
ATOM      4  O   UNL A   1      32.236  21.036  23.988  1.00  0.00    -0.461 OA
BRANCH   4   5
ATOM      5  C   UNL A   1      32.193  21.642  22.767  1.00  0.00     0.333 C 
ATOM      6  O   UNL A   1      31.985  21.055  21.711  1.00  0.00    -0.249 OA
BRANCH   5   7
ATOM      7  C   UNL A   1      32.481  23.160  22.851  1.00  0.00     0.223 C 
BRANCH   7   8
ATOM      8  N   UNL A   1      32.715  23.865  21.580  1.00  0.00    -0.335 N 
ATOM      9  O   UNL A   1      32.914  25.592  20.150  1.00  0.00    -0.269 OA
ATOM     10  C   UNL A   1      32.766  25.204  21.305  1.00  0.00     0.253 C 
ATOM     11  H   UNL A   1      32.858  23.278  20.803  1.00  0.00     0.165 HD
BRANCH  10  12
ATOM     12  C   UNL A   1      32.550  26.188  22.374  1.00  0.00     0.058 A 
ATOM     13  C   UNL A   1      33.638  26.921  22.841  1.00  0.00     0.018 A 
ATOM     14  C   UNL A   1      31.297  26.448  22.907  1.00  0.00     0.126 A 
ATOM     15  C   UNL A   1      33.419  27.953  23.748  1.00  0.00     0.037 A 
ATOM     16  N   UNL A   1      31.053  27.460  23.774  1.00  0.00    -0.249 NA
ATOM     17  C   UNL A   1      32.116  28.202  24.162  1.00  0.00     0.106 A 
ATOM     18  Br  UNL A   1      31.787  29.686  25.294  1.00  0.00    -0.029 Br
ENDBRANCH  10  12
ENDBRANCH   7   8
BRANCH   7  19
ATOM     19  C   UNL A   1      33.606  23.457  23.835  1.00  0.00    -0.014 A 
ATOM     20  C   UNL A   1      34.939  23.325  23.412  1.00  0.00     0.006 A 
ATOM     21  C   UNL A   1      33.365  23.904  25.145  1.00  0.00     0.006 A 
ATOM     22  C   UNL A   1      35.996  23.627  24.272  1.00  0.00     0.000 A 
ATOM     23  C   UNL A   1      34.424  24.209  26.004  1.00  0.00     0.000 A 
ATOM     24  C   UNL A   1      35.738  24.070  25.566  1.00  0.00     0.000 A 
ENDBRANCH   7  19
ENDBRANCH   5   7
ENDBRANCH   4   5
ENDBRANCH   3   4
ENDBRANCH   2   3
ENDBRANCH   1   2
BRANCH   1  25
ATOM     25  C   UNL A   1      36.102  20.338  25.058  1.00  0.00     0.202 C 
BRANCH  25  26
ATOM     26  C   UNL A   1      37.581  19.943  24.975  1.00  0.00     0.261 C 
BRANCH  26  27
ATOM     27  O   UNL A   1      38.453  21.075  25.135  1.00  0.00    -0.460 OA
BRANCH  27  28
ATOM     28  C   UNL A   1      39.472  20.881  26.004  1.00  0.00     0.338 C 
ATOM     29  O   UNL A   1      40.138  19.861  26.148  1.00  0.00    -0.246 OA
BRANCH  28  30
ATOM     30  C   UNL A   1      39.831  22.142  26.674  1.00  0.00     0.060 A 
ATOM     31  C   UNL A   1      39.150  23.300  26.272  1.00  0.00     0.016 A 
ATOM     32  C   UNL A   1      40.872  22.216  27.602  1.00  0.00     0.016 A 
ATOM     33  C   UNL A   1      39.549  24.546  26.746  1.00  0.00     0.010 A 
ATOM     34  C   UNL A   1      41.281  23.471  28.068  1.00  0.00     0.010 A 
ATOM     35  C   UNL A   1      40.649  24.643  27.608  1.00  0.00    -0.014 A 
BRANCH  35  36
ATOM     36  C   UNL A   1      41.247  25.972  27.873  1.00  0.00     0.031 A 
ATOM     37  C   UNL A   1      42.641  26.249  27.378  1.00  0.00     0.074 A 
ATOM     38  C   UNL A   1      40.549  26.935  28.501  1.00  0.00     0.049 A 
ATOM     39  N   UNL A   1      43.377  27.321  27.522  1.00  0.00    -0.248 NA
ATOM     40  C   UNL A   1      43.291  25.171  26.613  1.00  0.00     0.031 C 
ATOM     41  C   UNL A   1      39.173  26.807  28.976  1.00  0.00     0.029 A 
ATOM     42  N   UNL A   1      40.910  28.212  28.848  1.00  0.00    -0.354 N 
ATOM     43  C   UNL A   1      44.573  27.047  26.870  1.00  0.00     0.074 A 
ATOM     44  C   UNL A   1      44.477  25.699  26.352  1.00  0.00     0.031 C 
ATOM     45  C   UNL A   1      38.808  27.960  29.565  1.00  0.00     0.029 A 
ATOM     46  C   UNL A   1      39.934  28.892  29.532  1.00  0.00     0.049 A 
ATOM     47  H   UNL A   1      41.786  28.603  28.626  1.00  0.00     0.167 HD
ATOM     48  C   UNL A   1      45.651  27.848  26.708  1.00  0.00     0.037 A 
ATOM     49  C   UNL A   1      39.959  30.119  30.088  1.00  0.00     0.037 A 
ATOM     50  C   UNL A   1      45.750  29.187  27.226  1.00  0.00     0.049 A 
ATOM     51  C   UNL A   1      41.202  30.961  29.965  1.00  0.00     0.074 A 
ATOM     52  C   UNL A   1      46.804  30.077  27.124  1.00  0.00     0.029 A 
ATOM     53  N   UNL A   1      44.752  29.828  27.943  1.00  0.00    -0.354 N 
ATOM     54  N   UNL A   1      42.326  30.693  29.346  1.00  0.00    -0.248 NA
ATOM     55  C   UNL A   1      41.178  32.278  30.622  1.00  0.00     0.031 C 
ATOM     56  C   UNL A   1      46.459  31.245  27.812  1.00  0.00     0.029 A 
ATOM     57  C   UNL A   1      45.172  31.096  28.305  1.00  0.00     0.049 A 
ATOM     58  H   UNL A   1      43.875  29.439  28.164  1.00  0.00     0.167 HD
ATOM     59  C   UNL A   1      43.127  31.817  29.507  1.00  0.00     0.074 A 
ATOM     60  C   UNL A   1      42.360  32.772  30.278  1.00  0.00     0.031 C 
ATOM     61  C   UNL A   1      44.386  32.041  29.055  1.00  0.00     0.037 A 
BRANCH  48  62
ATOM     62  C   UNL A   1      46.822  27.288  25.958  1.00  0.00     0.057 A 
ATOM     63  C   UNL A   1      46.968  27.473  24.577  1.00  0.00     0.134 A 
ATOM     64  C   UNL A   1      47.830  26.585  26.627  1.00  0.00     0.134 A 
ATOM     65  F   UNL A   1      46.028  28.124  23.875  1.00  0.00    -0.206 F 
ATOM     66  C   UNL A   1      48.069  26.963  23.886  1.00  0.00     0.040 A 
ATOM     67  C   UNL A   1      48.946  26.090  25.951  1.00  0.00     0.040 A 
ATOM     68  F   UNL A   1      47.751  26.376  27.950  1.00  0.00    -0.206 F 
ATOM     69  C   UNL A   1      49.066  26.275  24.575  1.00  0.00     0.006 A 
ENDBRANCH  48  62
BRANCH  49  70
ATOM     70  C   UNL A   1      38.777  30.629  30.827  1.00  0.00     0.057 A 
ATOM     71  C   UNL A   1      37.804  31.409  30.192  1.00  0.00     0.134 A 
ATOM     72  C   UNL A   1      38.612  30.380  32.195  1.00  0.00     0.134 A 
ATOM     73  F   UNL A   1      37.920  31.703  28.888  1.00  0.00    -0.206 F 
ATOM     74  C   UNL A   1      36.720  31.940  30.893  1.00  0.00     0.040 A 
ATOM     75  C   UNL A   1      37.521  30.885  32.904  1.00  0.00     0.040 A 
ATOM     76  F   UNL A   1      39.509  29.639  32.862  1.00  0.00    -0.206 F 
ATOM     77  C   UNL A   1      36.575  31.675  32.254  1.00  0.00     0.006 A 
ENDBRANCH  49  70
BRANCH  61  78
ATOM     78  C   UNL A   1      44.992  33.383  29.337  1.00  0.00     0.057 A 
ATOM     79  C   UNL A   1      44.782  34.482  28.496  1.00  0.00     0.134 A 
ATOM     80  C   UNL A   1      45.756  33.587  30.494  1.00  0.00     0.134 A 
ATOM     81  F   UNL A   1      44.070  34.348  27.368  1.00  0.00    -0.206 F 
ATOM     82  C   UNL A   1      45.326  35.734  28.786  1.00  0.00     0.040 A 
ATOM     83  C   UNL A   1      46.286  34.839  30.807  1.00  0.00     0.040 A 
ATOM     84  F   UNL A   1      45.986  32.577  31.345  1.00  0.00    -0.206 F 
ATOM     85  C   UNL A   1      46.076  35.916  29.948  1.00  0.00     0.006 A 
ENDBRANCH  61  78
ENDBRANCH  35  36
ENDBRANCH  28  30
ENDBRANCH  27  28
ENDBRANCH  26  27
ENDBRANCH  25  26
ENDBRANCH   1  25
TORSDOF 17
ENDMDL
