MODEL 1
REMARK VINA RESULT:     -11.0      0.000      0.000
REMARK SMILES CC(C)(C)OC(=O)N1CC[N@H+](Cc2ccc(Cl)nc2)[C@H](C(=O)OCCOCCOC(=O)c2ccc(-c3c4nc(c(-c5c(F)cccc5F)c5ccc([nH]5)c(-c5c(F)cccc5F)c5nc(c(-c6c(F)cccc6F)c6ccc3[nH]6)C=C5)C=C4)cc2)C1
REMARK SMILES IDX 25 1 24 2 23 3 21 4 22 5 20 6 8 7 9 8 86 9 10 10 11 11 6 13
REMARK SMILES IDX 7 14 5 15 2 16 1 17 3 18 4 19 12 20 13 21 14 22 19 23 15 24
REMARK SMILES IDX 18 25 16 26 17 27 26 28 27 29 28 30 29 31 30 32 31 33 32 34
REMARK SMILES IDX 33 35 85 36 34 37 84 38 35 39 36 40 37 41 78 42 38 43 83 44
REMARK SMILES IDX 77 45 79 46 39 47 82 48 76 49 75 50 40 52 66 53 49 54 65 55
REMARK SMILES IDX 50 56 53 57 64 58 80 59 51 60 52 61 63 63 81 64 54 65 41 66
REMARK SMILES IDX 42 67 47 68 43 69 44 70 46 71 48 72 45 73 67 74 68 75 73 76
REMARK SMILES IDX 69 77 70 78 72 79 74 80 71 81 55 82 56 83 61 84 57 85 58 86
REMARK SMILES IDX 60 87 62 88 59 89
REMARK H PARENT 11 12 79 51 53 62
REMARK Flexibility Score: inf
ROOT
ATOM      1  C   UNL A   1      38.006  21.771  25.419  1.00  0.00     0.202 C 
ENDROOT
BRANCH   1   2
ATOM      2  C   UNL A   1      36.794  22.646  25.747  1.00  0.00     0.261 C 
BRANCH   2   3
ATOM      3  O   UNL A   1      36.621  23.760  24.849  1.00  0.00    -0.459 OA
BRANCH   3   4
ATOM      4  C   UNL A   1      35.812  23.499  23.780  1.00  0.00     0.366 C 
ATOM      5  O   UNL A   1      36.181  22.852  22.806  1.00  0.00    -0.245 OA
BRANCH   4   6
ATOM      6  C   UNL A   1      34.444  24.207  23.891  1.00  0.00     0.315 C 
ATOM      7  N   UNL A   1      33.011  25.963  25.036  1.00  0.00    -0.296 N 
ATOM      8  C   UNL A   1      31.851  25.103  24.847  1.00  0.00     0.184 C 
ATOM      9  C   UNL A   1      34.362  25.382  24.901  1.00  0.00     0.200 C 
ATOM     10  C   UNL A   1      32.042  23.934  23.881  1.00  0.00     0.285 C 
ATOM     11  N   UNL A   1      33.318  23.230  23.992  1.00  0.00    -0.316 N 
ATOM     12  H   UNL A   1      33.462  22.625  23.183  1.00  0.00     0.349 HD
BRANCH   7  13
ATOM     13  C   UNL A   1      32.753  27.118  25.762  1.00  0.00     0.410 C 
ATOM     14  O   UNL A   1      33.475  27.476  26.689  1.00  0.00    -0.224 OA
BRANCH  13  15
ATOM     15  O   UNL A   1      31.589  27.731  25.423  1.00  0.00    -0.444 OA
BRANCH  15  16
ATOM     16  C   UNL A   1      31.661  28.949  24.621  1.00  0.00     0.106 C 
ATOM     17  C   UNL A   1      31.700  30.106  25.632  1.00  0.00     0.056 C 
ATOM     18  C   UNL A   1      30.411  29.095  23.746  1.00  0.00     0.056 C 
ATOM     19  C   UNL A   1      32.949  29.038  23.778  1.00  0.00     0.056 C 
ENDBRANCH  15  16
ENDBRANCH  13  15
ENDBRANCH   7  13
BRANCH  11  20
ATOM     20  C   UNL A   1      33.355  22.146  24.987  1.00  0.00     0.301 C 
BRANCH  20  21
ATOM     21  C   UNL A   1      33.395  20.721  24.504  1.00  0.00     0.025 A 
ATOM     22  C   UNL A   1      32.409  20.188  23.668  1.00  0.00     0.014 A 
ATOM     23  C   UNL A   1      34.445  19.879  24.847  1.00  0.00     0.122 A 
ATOM     24  C   UNL A   1      32.440  18.840  23.324  1.00  0.00     0.041 A 
ATOM     25  N   UNL A   1      34.509  18.564  24.537  1.00  0.00    -0.244 NA
ATOM     26  C   UNL A   1      33.493  18.078  23.796  1.00  0.00     0.129 A 
ATOM     27  Cl  UNL A   1      33.580  16.399  23.466  1.00  0.00    -0.062 Cl
ENDBRANCH  20  21
ENDBRANCH  11  20
ENDBRANCH   4   6
ENDBRANCH   3   4
ENDBRANCH   2   3
ENDBRANCH   1   2
BRANCH   1  28
ATOM     28  O   UNL A   1      37.775  20.554  24.719  1.00  0.00    -0.374 OA
BRANCH  28  29
ATOM     29  C   UNL A   1      38.505  19.401  25.132  1.00  0.00     0.202 C 
BRANCH  29  30
ATOM     30  C   UNL A   1      39.734  19.596  26.024  1.00  0.00     0.261 C 
BRANCH  30  31
ATOM     31  O   UNL A   1      40.874  18.864  25.547  1.00  0.00    -0.460 OA
BRANCH  31  32
ATOM     32  C   UNL A   1      42.007  19.074  26.257  1.00  0.00     0.338 C 
ATOM     33  O   UNL A   1      42.928  18.289  26.439  1.00  0.00    -0.246 OA
BRANCH  32  34
ATOM     34  C   UNL A   1      42.099  20.490  26.648  1.00  0.00     0.060 A 
ATOM     35  C   UNL A   1      42.235  21.430  25.618  1.00  0.00     0.016 A 
ATOM     36  C   UNL A   1      42.120  20.889  27.987  1.00  0.00     0.016 A 
ATOM     37  C   UNL A   1      42.459  22.768  25.922  1.00  0.00     0.010 A 
ATOM     38  C   UNL A   1      42.358  22.231  28.292  1.00  0.00     0.010 A 
ATOM     39  C   UNL A   1      42.572  23.164  27.261  1.00  0.00    -0.014 A 
BRANCH  39  40
ATOM     40  C   UNL A   1      43.099  24.513  27.564  1.00  0.00     0.031 A 
ATOM     41  C   UNL A   1      42.134  25.582  27.997  1.00  0.00     0.074 A 
ATOM     42  C   UNL A   1      44.417  24.766  27.507  1.00  0.00     0.049 A 
ATOM     43  N   UNL A   1      42.366  26.828  28.318  1.00  0.00    -0.248 NA
ATOM     44  C   UNL A   1      40.718  25.190  28.080  1.00  0.00     0.031 C 
ATOM     45  C   UNL A   1      45.448  23.796  27.142  1.00  0.00     0.029 A 
ATOM     46  N   UNL A   1      45.111  25.921  27.757  1.00  0.00    -0.354 N 
ATOM     47  C   UNL A   1      41.127  27.369  28.639  1.00  0.00     0.074 A 
ATOM     48  C   UNL A   1      40.144  26.326  28.446  1.00  0.00     0.031 C 
ATOM     49  C   UNL A   1      46.648  24.402  27.184  1.00  0.00     0.029 A 
ATOM     50  C   UNL A   1      46.463  25.804  27.555  1.00  0.00     0.049 A 
ATOM     51  H   UNL A   1      44.680  26.756  28.052  1.00  0.00     0.167 HD
ATOM     52  C   UNL A   1      40.838  28.620  29.066  1.00  0.00     0.037 A 
ATOM     53  C   UNL A   1      47.435  26.731  27.646  1.00  0.00     0.037 A 
ATOM     54  C   UNL A   1      41.817  29.655  29.256  1.00  0.00     0.049 A 
ATOM     55  C   UNL A   1      47.081  28.134  28.059  1.00  0.00     0.074 A 
ATOM     56  C   UNL A   1      41.629  30.952  29.699  1.00  0.00     0.029 A 
ATOM     57  N   UNL A   1      43.174  29.509  29.006  1.00  0.00    -0.354 N 
ATOM     58  N   UNL A   1      45.910  28.629  28.383  1.00  0.00    -0.248 NA
ATOM     59  C   UNL A   1      48.182  29.105  28.123  1.00  0.00     0.031 C 
ATOM     60  C   UNL A   1      42.867  31.604  29.676  1.00  0.00     0.029 A 
ATOM     61  C   UNL A   1      43.832  30.699  29.262  1.00  0.00     0.049 A 
ATOM     62  H   UNL A   1      43.605  28.680  28.694  1.00  0.00     0.167 HD
ATOM     63  C   UNL A   1      46.137  29.960  28.711  1.00  0.00     0.074 A 
ATOM     64  C   UNL A   1      47.558  30.191  28.558  1.00  0.00     0.031 C 
ATOM     65  C   UNL A   1      45.249  30.906  29.106  1.00  0.00     0.037 A 
BRANCH  52  66
ATOM     66  C   UNL A   1      39.396  28.939  29.332  1.00  0.00     0.057 A 
ATOM     67  C   UNL A   1      38.554  29.442  28.332  1.00  0.00     0.134 A 
ATOM     68  C   UNL A   1      38.842  28.728  30.600  1.00  0.00     0.134 A 
ATOM     69  F   UNL A   1      39.029  29.683  27.101  1.00  0.00    -0.206 F 
ATOM     70  C   UNL A   1      37.215  29.743  28.590  1.00  0.00     0.040 A 
ATOM     71  C   UNL A   1      37.500  29.004  30.865  1.00  0.00     0.040 A 
ATOM     72  F   UNL A   1      39.595  28.248  31.602  1.00  0.00    -0.206 F 
ATOM     73  C   UNL A   1      36.684  29.519  29.859  1.00  0.00     0.006 A 
ENDBRANCH  52  66
BRANCH  53  74
ATOM     74  C   UNL A   1      48.839  26.365  27.333  1.00  0.00     0.057 A 
ATOM     75  C   UNL A   1      49.715  25.923  28.330  1.00  0.00     0.134 A 
ATOM     76  C   UNL A   1      49.340  26.458  26.028  1.00  0.00     0.134 A 
ATOM     77  F   UNL A   1      49.300  25.835  29.602  1.00  0.00    -0.206 F 
ATOM     78  C   UNL A   1      51.043  25.600  28.045  1.00  0.00     0.040 A 
ATOM     79  C   UNL A   1      50.657  26.117  25.725  1.00  0.00     0.040 A 
ATOM     80  F   UNL A   1      48.548  26.874  25.028  1.00  0.00    -0.206 F 
ATOM     81  C   UNL A   1      51.515  25.692  26.737  1.00  0.00     0.006 A 
ENDBRANCH  53  74
BRANCH  65  82
ATOM     82  C   UNL A   1      45.793  32.266  29.426  1.00  0.00     0.057 A 
ATOM     83  C   UNL A   1      45.854  33.281  28.463  1.00  0.00     0.134 A 
ATOM     84  C   UNL A   1      46.220  32.575  30.723  1.00  0.00     0.134 A 
ATOM     85  F   UNL A   1      45.471  33.044  27.199  1.00  0.00    -0.206 F 
ATOM     86  C   UNL A   1      46.339  34.552  28.775  1.00  0.00     0.040 A 
ATOM     87  C   UNL A   1      46.685  33.849  31.053  1.00  0.00     0.040 A 
ATOM     88  F   UNL A   1      46.179  31.650  31.693  1.00  0.00    -0.206 F 
ATOM     89  C   UNL A   1      46.750  34.840  30.076  1.00  0.00     0.006 A 
ENDBRANCH  65  82
ENDBRANCH  39  40
ENDBRANCH  32  34
ENDBRANCH  31  32
ENDBRANCH  30  31
ENDBRANCH  29  30
ENDBRANCH  28  29
ENDBRANCH   1  28
TORSDOF 19
ENDMDL
MODEL 2
REMARK VINA RESULT:     -10.8      5.023      9.565
REMARK SMILES CC(C)(C)OC(=O)N1CC[N@H+](Cc2ccc(Cl)nc2)[C@H](C(=O)OCCOCCOC(=O)c2ccc(-c3c4nc(c(-c5c(F)cccc5F)c5ccc([nH]5)c(-c5c(F)cccc5F)c5nc(c(-c6c(F)cccc6F)c6ccc3[nH]6)C=C5)C=C4)cc2)C1
REMARK SMILES IDX 25 1 24 2 23 3 21 4 22 5 20 6 8 7 9 8 86 9 10 10 11 11 6 13
REMARK SMILES IDX 7 14 5 15 2 16 1 17 3 18 4 19 12 20 13 21 14 22 19 23 15 24
REMARK SMILES IDX 18 25 16 26 17 27 26 28 27 29 28 30 29 31 30 32 31 33 32 34
REMARK SMILES IDX 33 35 85 36 34 37 84 38 35 39 36 40 37 41 78 42 38 43 83 44
REMARK SMILES IDX 77 45 79 46 39 47 82 48 76 49 75 50 40 52 66 53 49 54 65 55
REMARK SMILES IDX 50 56 53 57 64 58 80 59 51 60 52 61 63 63 81 64 54 65 41 66
REMARK SMILES IDX 42 67 47 68 43 69 44 70 46 71 48 72 45 73 67 74 68 75 73 76
REMARK SMILES IDX 69 77 70 78 72 79 74 80 71 81 55 82 56 83 61 84 57 85 58 86
REMARK SMILES IDX 60 87 62 88 59 89
REMARK H PARENT 11 12 79 51 53 62
REMARK Flexibility Score: inf
ROOT
ATOM      1  C   UNL A   1      34.308  29.625  27.014  1.00  0.00     0.202 C 
ENDROOT
BRANCH   1   2
ATOM      2  C   UNL A   1      33.604  28.690  26.027  1.00  0.00     0.261 C 
BRANCH   2   3
ATOM      3  O   UNL A   1      33.194  27.436  26.607  1.00  0.00    -0.459 OA
BRANCH   3   4
ATOM      4  C   UNL A   1      31.852  27.337  26.840  1.00  0.00     0.366 C 
ATOM      5  O   UNL A   1      31.290  27.919  27.762  1.00  0.00    -0.245 OA
BRANCH   4   6
ATOM      6  C   UNL A   1      31.164  26.327  25.896  1.00  0.00     0.315 C 
ATOM      7  N   UNL A   1      31.336  24.204  24.512  1.00  0.00    -0.296 N 
ATOM      8  C   UNL A   1      30.412  24.788  23.549  1.00  0.00     0.184 C 
ATOM      9  C   UNL A   1      32.005  25.089  25.488  1.00  0.00     0.200 C 
ATOM     10  C   UNL A   1      29.672  26.042  24.015  1.00  0.00     0.285 C 
ATOM     11  N   UNL A   1      30.481  27.009  24.754  1.00  0.00    -0.316 N 
ATOM     12  H   UNL A   1      29.881  27.692  25.218  1.00  0.00     0.349 HD
BRANCH   7  13
ATOM     13  C   UNL A   1      31.844  22.968  24.139  1.00  0.00     0.410 C 
ATOM     14  O   UNL A   1      31.905  22.620  22.963  1.00  0.00    -0.224 OA
BRANCH  13  15
ATOM     15  O   UNL A   1      32.154  22.162  25.188  1.00  0.00    -0.444 OA
BRANCH  15  16
ATOM     16  C   UNL A   1      33.508  21.622  25.266  1.00  0.00     0.106 C 
ATOM     17  C   UNL A   1      33.851  21.587  26.764  1.00  0.00     0.056 C 
ATOM     18  C   UNL A   1      34.501  22.545  24.550  1.00  0.00     0.056 C 
ATOM     19  C   UNL A   1      33.609  20.175  24.742  1.00  0.00     0.056 C 
ENDBRANCH  15  16
ENDBRANCH  13  15
ENDBRANCH   7  13
BRANCH  11  20
ATOM     20  C   UNL A   1      31.202  27.991  23.929  1.00  0.00     0.301 C 
BRANCH  20  21
ATOM     21  C   UNL A   1      30.439  29.154  23.355  1.00  0.00     0.025 A 
ATOM     22  C   UNL A   1      29.949  30.192  24.152  1.00  0.00     0.014 A 
ATOM     23  C   UNL A   1      30.219  29.259  21.987  1.00  0.00     0.122 A 
ATOM     24  C   UNL A   1      29.170  31.198  23.588  1.00  0.00     0.041 A 
ATOM     25  N   UNL A   1      29.464  30.216  21.402  1.00  0.00    -0.244 NA
ATOM     26  C   UNL A   1      28.946  31.151  22.224  1.00  0.00     0.129 A 
ATOM     27  Cl  UNL A   1      27.954  32.318  21.455  1.00  0.00    -0.062 Cl
ENDBRANCH  20  21
ENDBRANCH  11  20
ENDBRANCH   4   6
ENDBRANCH   3   4
ENDBRANCH   2   3
ENDBRANCH   1   2
BRANCH   1  28
ATOM     28  O   UNL A   1      33.518  30.606  27.676  1.00  0.00    -0.374 OA
BRANCH  28  29
ATOM     29  C   UNL A   1      32.425  31.175  26.959  1.00  0.00     0.202 C 
BRANCH  29  30
ATOM     30  C   UNL A   1      32.029  32.623  27.261  1.00  0.00     0.261 C 
BRANCH  30  31
ATOM     31  O   UNL A   1      33.158  33.510  27.248  1.00  0.00    -0.460 OA
BRANCH  31  32
ATOM     32  C   UNL A   1      33.266  34.289  28.349  1.00  0.00     0.338 C 
ATOM     33  O   UNL A   1      32.493  35.159  28.725  1.00  0.00    -0.246 OA
BRANCH  32  34
ATOM     34  C   UNL A   1      34.378  33.818  29.191  1.00  0.00     0.060 A 
ATOM     35  C   UNL A   1      35.670  34.219  28.827  1.00  0.00     0.016 A 
ATOM     36  C   UNL A   1      34.176  32.953  30.269  1.00  0.00     0.016 A 
ATOM     37  C   UNL A   1      36.773  33.705  29.498  1.00  0.00     0.010 A 
ATOM     38  C   UNL A   1      35.286  32.426  30.935  1.00  0.00     0.010 A 
ATOM     39  C   UNL A   1      36.587  32.768  30.522  1.00  0.00    -0.014 A 
BRANCH  39  40
ATOM     40  C   UNL A   1      37.757  32.012  31.021  1.00  0.00     0.031 A 
ATOM     41  C   UNL A   1      38.270  32.311  32.402  1.00  0.00     0.074 A 
ATOM     42  C   UNL A   1      38.319  31.043  30.279  1.00  0.00     0.049 A 
ATOM     43  N   UNL A   1      39.273  31.776  33.049  1.00  0.00    -0.248 NA
ATOM     44  C   UNL A   1      37.553  33.353  33.155  1.00  0.00     0.031 C 
ATOM     45  C   UNL A   1      37.879  30.638  28.946  1.00  0.00     0.029 A 
ATOM     46  N   UNL A   1      39.383  30.223  30.549  1.00  0.00    -0.354 N 
ATOM     47  C   UNL A   1      39.308  32.416  34.281  1.00  0.00     0.074 A 
ATOM     48  C   UNL A   1      38.247  33.399  34.282  1.00  0.00     0.031 C 
ATOM     49  C   UNL A   1      38.676  29.648  28.508  1.00  0.00     0.029 A 
ATOM     50  C   UNL A   1      39.692  29.369  29.521  1.00  0.00     0.049 A 
ATOM     51  H   UNL A   1      39.879  30.246  31.399  1.00  0.00     0.167 HD
ATOM     52  C   UNL A   1      40.144  32.195  35.323  1.00  0.00     0.037 A 
ATOM     53  C   UNL A   1      40.694  28.475  29.409  1.00  0.00     0.037 A 
ATOM     54  C   UNL A   1      41.198  31.218  35.319  1.00  0.00     0.049 A 
ATOM     55  C   UNL A   1      41.652  28.295  30.555  1.00  0.00     0.074 A 
ATOM     56  C   UNL A   1      42.093  30.907  36.328  1.00  0.00     0.029 A 
ATOM     57  N   UNL A   1      41.504  30.397  34.245  1.00  0.00    -0.354 N 
ATOM     58  N   UNL A   1      41.663  28.888  31.725  1.00  0.00    -0.248 NA
ATOM     59  C   UNL A   1      42.735  27.318  30.367  1.00  0.00     0.031 C 
ATOM     60  C   UNL A   1      42.966  29.926  35.848  1.00  0.00     0.029 A 
ATOM     61  C   UNL A   1      42.588  29.595  34.557  1.00  0.00     0.049 A 
ATOM     62  H   UNL A   1      41.021  30.384  33.387  1.00  0.00     0.167 HD
ATOM     63  C   UNL A   1      42.735  28.341  32.419  1.00  0.00     0.074 A 
ATOM     64  C   UNL A   1      43.343  27.361  31.544  1.00  0.00     0.031 C 
ATOM     65  C   UNL A   1      43.176  28.623  33.671  1.00  0.00     0.037 A 
BRANCH  52  66
ATOM     66  C   UNL A   1      39.961  33.049  36.542  1.00  0.00     0.057 A 
ATOM     67  C   UNL A   1      39.015  32.738  37.528  1.00  0.00     0.134 A 
ATOM     68  C   UNL A   1      40.750  34.189  36.739  1.00  0.00     0.134 A 
ATOM     69  F   UNL A   1      38.216  31.670  37.390  1.00  0.00    -0.206 F 
ATOM     70  C   UNL A   1      38.846  33.543  38.656  1.00  0.00     0.040 A 
ATOM     71  C   UNL A   1      40.605  34.989  37.873  1.00  0.00     0.040 A 
ATOM     72  F   UNL A   1      41.674  34.543  35.833  1.00  0.00    -0.206 F 
ATOM     73  C   UNL A   1      39.647  34.670  38.833  1.00  0.00     0.006 A 
ENDBRANCH  52  66
BRANCH  53  74
ATOM     74  C   UNL A   1      40.846  27.687  28.162  1.00  0.00     0.057 A 
ATOM     75  C   UNL A   1      41.577  28.178  27.076  1.00  0.00     0.134 A 
ATOM     76  C   UNL A   1      40.254  26.424  28.024  1.00  0.00     0.134 A 
ATOM     77  F   UNL A   1      42.148  29.390  27.139  1.00  0.00    -0.206 F 
ATOM     78  C   UNL A   1      41.704  27.450  25.891  1.00  0.00     0.040 A 
ATOM     79  C   UNL A   1      40.392  25.676  26.855  1.00  0.00     0.040 A 
ATOM     80  F   UNL A   1      39.542  25.898  29.031  1.00  0.00    -0.206 F 
ATOM     81  C   UNL A   1      41.113  26.192  25.781  1.00  0.00     0.006 A 
ENDBRANCH  53  74
BRANCH  65  82
ATOM     82  C   UNL A   1      44.353  27.843  34.175  1.00  0.00     0.057 A 
ATOM     83  C   UNL A   1      45.662  28.330  34.066  1.00  0.00     0.134 A 
ATOM     84  C   UNL A   1      44.170  26.611  34.815  1.00  0.00     0.134 A 
ATOM     85  F   UNL A   1      45.904  29.498  33.452  1.00  0.00    -0.206 F 
ATOM     86  C   UNL A   1      46.749  27.609  34.560  1.00  0.00     0.040 A 
ATOM     87  C   UNL A   1      45.247  25.892  35.334  1.00  0.00     0.040 A 
ATOM     88  F   UNL A   1      42.941  26.094  34.959  1.00  0.00    -0.206 F 
ATOM     89  C   UNL A   1      46.543  26.389  35.203  1.00  0.00     0.006 A 
ENDBRANCH  65  82
ENDBRANCH  39  40
ENDBRANCH  32  34
ENDBRANCH  31  32
ENDBRANCH  30  31
ENDBRANCH  29  30
ENDBRANCH  28  29
ENDBRANCH   1  28
TORSDOF 19
ENDMDL
MODEL 3
REMARK VINA RESULT:     -10.8      3.042      8.142
REMARK SMILES CC(C)(C)OC(=O)N1CC[N@H+](Cc2ccc(Cl)nc2)[C@H](C(=O)OCCOCCOC(=O)c2ccc(-c3c4nc(c(-c5c(F)cccc5F)c5ccc([nH]5)c(-c5c(F)cccc5F)c5nc(c(-c6c(F)cccc6F)c6ccc3[nH]6)C=C5)C=C4)cc2)C1
REMARK SMILES IDX 25 1 24 2 23 3 21 4 22 5 20 6 8 7 9 8 86 9 10 10 11 11 6 13
REMARK SMILES IDX 7 14 5 15 2 16 1 17 3 18 4 19 12 20 13 21 14 22 19 23 15 24
REMARK SMILES IDX 18 25 16 26 17 27 26 28 27 29 28 30 29 31 30 32 31 33 32 34
REMARK SMILES IDX 33 35 85 36 34 37 84 38 35 39 36 40 37 41 78 42 38 43 83 44
REMARK SMILES IDX 77 45 79 46 39 47 82 48 76 49 75 50 40 52 66 53 49 54 65 55
REMARK SMILES IDX 50 56 53 57 64 58 80 59 51 60 52 61 63 63 81 64 54 65 41 66
REMARK SMILES IDX 42 67 47 68 43 69 44 70 46 71 48 72 45 73 67 74 68 75 73 76
REMARK SMILES IDX 69 77 70 78 72 79 74 80 71 81 55 82 56 83 61 84 57 85 58 86
REMARK SMILES IDX 60 87 62 88 59 89
REMARK H PARENT 11 12 79 51 53 62
REMARK Flexibility Score: inf
ROOT
ATOM      1  C   UNL A   1      34.376  30.282  27.478  1.00  0.00     0.202 C 
ENDROOT
BRANCH   1   2
ATOM      2  C   UNL A   1      33.235  29.329  27.111  1.00  0.00     0.261 C 
BRANCH   2   3
ATOM      3  O   UNL A   1      32.915  29.320  25.706  1.00  0.00    -0.459 OA
BRANCH   3   4
ATOM      4  C   UNL A   1      33.118  28.117  25.092  1.00  0.00     0.366 C 
ATOM      5  O   UNL A   1      33.783  27.994  24.069  1.00  0.00    -0.245 OA
BRANCH   4   6
ATOM      6  C   UNL A   1      32.322  26.974  25.760  1.00  0.00     0.315 C 
ATOM      7  N   UNL A   1      32.214  24.528  26.435  1.00  0.00    -0.296 N 
ATOM      8  C   UNL A   1      30.778  24.552  26.195  1.00  0.00     0.184 C 
ATOM      9  C   UNL A   1      33.051  25.609  25.875  1.00  0.00     0.200 C 
ATOM     10  C   UNL A   1      30.154  25.939  26.033  1.00  0.00     0.285 C 
ATOM     11  N   UNL A   1      30.928  26.883  25.229  1.00  0.00    -0.316 N 
ATOM     12  H   UNL A   1      30.570  27.831  25.353  1.00  0.00     0.349 HD
BRANCH   7  13
ATOM     13  C   UNL A   1      32.717  23.279  26.769  1.00  0.00     0.410 C 
ATOM     14  O   UNL A   1      32.323  22.664  27.757  1.00  0.00    -0.224 OA
BRANCH  13  15
ATOM     15  O   UNL A   1      33.741  22.869  25.976  1.00  0.00    -0.444 OA
BRANCH  15  16
ATOM     16  C   UNL A   1      33.457  21.877  24.942  1.00  0.00     0.106 C 
ATOM     17  C   UNL A   1      34.555  20.812  25.082  1.00  0.00     0.056 C 
ATOM     18  C   UNL A   1      33.549  22.507  23.548  1.00  0.00     0.056 C 
ATOM     19  C   UNL A   1      32.104  21.166  25.148  1.00  0.00     0.056 C 
ENDBRANCH  15  16
ENDBRANCH  13  15
ENDBRANCH   7  13
BRANCH  11  20
ATOM     20  C   UNL A   1      30.681  26.828  23.779  1.00  0.00     0.301 C 
BRANCH  20  21
ATOM     21  C   UNL A   1      29.938  27.963  23.127  1.00  0.00     0.025 A 
ATOM     22  C   UNL A   1      28.558  28.130  23.266  1.00  0.00     0.014 A 
ATOM     23  C   UNL A   1      30.612  28.923  22.382  1.00  0.00     0.122 A 
ATOM     24  C   UNL A   1      27.903  29.141  22.568  1.00  0.00     0.041 A 
ATOM     25  N   UNL A   1      30.012  29.915  21.686  1.00  0.00    -0.244 NA
ATOM     26  C   UNL A   1      28.670  29.986  21.787  1.00  0.00     0.129 A 
ATOM     27  Cl  UNL A   1      27.940  31.223  20.853  1.00  0.00    -0.062 Cl
ENDBRANCH  20  21
ENDBRANCH  11  20
ENDBRANCH   4   6
ENDBRANCH   3   4
ENDBRANCH   2   3
ENDBRANCH   1   2
BRANCH   1  28
ATOM     28  O   UNL A   1      34.102  31.678  27.473  1.00  0.00    -0.374 OA
BRANCH  28  29
ATOM     29  C   UNL A   1      34.935  32.522  28.264  1.00  0.00     0.202 C 
BRANCH  29  30
ATOM     30  C   UNL A   1      35.091  32.204  29.754  1.00  0.00     0.261 C 
BRANCH  30  31
ATOM     31  O   UNL A   1      36.457  31.954  30.117  1.00  0.00    -0.460 OA
BRANCH  31  32
ATOM     32  C   UNL A   1      36.654  30.790  30.779  1.00  0.00     0.338 C 
ATOM     33  O   UNL A   1      35.923  30.276  31.615  1.00  0.00    -0.246 OA
BRANCH  32  34
ATOM     34  C   UNL A   1      37.811  30.080  30.212  1.00  0.00     0.060 A 
ATOM     35  C   UNL A   1      38.653  29.409  31.109  1.00  0.00     0.016 A 
ATOM     36  C   UNL A   1      38.109  30.119  28.847  1.00  0.00     0.016 A 
ATOM     37  C   UNL A   1      39.833  28.830  30.657  1.00  0.00     0.010 A 
ATOM     38  C   UNL A   1      39.301  29.548  28.395  1.00  0.00     0.010 A 
ATOM     39  C   UNL A   1      40.186  28.942  29.306  1.00  0.00    -0.014 A 
BRANCH  39  40
ATOM     40  C   UNL A   1      41.563  28.590  28.896  1.00  0.00     0.031 A 
ATOM     41  C   UNL A   1      41.843  27.181  28.453  1.00  0.00     0.074 A 
ATOM     42  C   UNL A   1      42.532  29.520  28.868  1.00  0.00     0.049 A 
ATOM     43  N   UNL A   1      42.966  26.646  28.048  1.00  0.00    -0.248 NA
ATOM     44  C   UNL A   1      40.703  26.251  28.469  1.00  0.00     0.031 C 
ATOM     45  C   UNL A   1      42.366  30.925  29.234  1.00  0.00     0.029 A 
ATOM     46  N   UNL A   1      43.852  29.416  28.514  1.00  0.00    -0.354 N 
ATOM     47  C   UNL A   1      42.668  25.320  27.762  1.00  0.00     0.074 A 
ATOM     48  C   UNL A   1      41.268  25.122  28.067  1.00  0.00     0.031 C 
ATOM     49  C   UNL A   1      43.546  31.553  29.093  1.00  0.00     0.029 A 
ATOM     50  C   UNL A   1      44.551  30.589  28.650  1.00  0.00     0.049 A 
ATOM     51  H   UNL A   1      44.260  28.579  28.194  1.00  0.00     0.167 HD
ATOM     52  C   UNL A   1      43.486  24.357  27.277  1.00  0.00     0.037 A 
ATOM     53  C   UNL A   1      45.858  30.845  28.454  1.00  0.00     0.037 A 
ATOM     54  C   UNL A   1      44.877  24.556  26.975  1.00  0.00     0.049 A 
ATOM     55  C   UNL A   1      46.763  29.741  27.978  1.00  0.00     0.074 A 
ATOM     56  C   UNL A   1      45.790  23.649  26.467  1.00  0.00     0.029 A 
ATOM     57  N   UNL A   1      45.559  25.749  27.161  1.00  0.00    -0.354 N 
ATOM     58  N   UNL A   1      46.467  28.496  27.689  1.00  0.00    -0.248 NA
ATOM     59  C   UNL A   1      48.183  30.078  27.799  1.00  0.00     0.031 C 
ATOM     60  C   UNL A   1      47.034  24.282  26.386  1.00  0.00     0.029 A 
ATOM     61  C   UNL A   1      46.886  25.596  26.801  1.00  0.00     0.049 A 
ATOM     62  H   UNL A   1      45.157  26.583  27.498  1.00  0.00     0.167 HD
ATOM     63  C   UNL A   1      47.655  27.910  27.271  1.00  0.00     0.074 A 
ATOM     64  C   UNL A   1      48.673  28.937  27.334  1.00  0.00     0.031 C 
ATOM     65  C   UNL A   1      47.883  26.634  26.869  1.00  0.00     0.037 A 
BRANCH  52  66
ATOM     66  C   UNL A   1      42.894  22.994  27.070  1.00  0.00     0.057 A 
ATOM     67  C   UNL A   1      42.568  22.515  25.794  1.00  0.00     0.134 A 
ATOM     68  C   UNL A   1      42.661  22.146  28.159  1.00  0.00     0.134 A 
ATOM     69  F   UNL A   1      42.750  23.286  24.712  1.00  0.00    -0.206 F 
ATOM     70  C   UNL A   1      42.010  21.249  25.612  1.00  0.00     0.040 A 
ATOM     71  C   UNL A   1      42.124  20.869  27.987  1.00  0.00     0.040 A 
ATOM     72  F   UNL A   1      42.951  22.544  29.407  1.00  0.00    -0.206 F 
ATOM     73  C   UNL A   1      41.792  20.420  26.710  1.00  0.00     0.006 A 
ENDBRANCH  52  66
BRANCH  53  74
ATOM     74  C   UNL A   1      46.393  32.205  28.712  1.00  0.00     0.057 A 
ATOM     75  C   UNL A   1      46.830  32.585  29.985  1.00  0.00     0.134 A 
ATOM     76  C   UNL A   1      46.469  33.161  27.691  1.00  0.00     0.134 A 
ATOM     77  F   UNL A   1      46.759  31.720  31.008  1.00  0.00    -0.206 F 
ATOM     78  C   UNL A   1      47.311  33.870  30.239  1.00  0.00     0.040 A 
ATOM     79  C   UNL A   1      46.970  34.442  27.925  1.00  0.00     0.040 A 
ATOM     80  F   UNL A   1      46.067  32.857  26.448  1.00  0.00    -0.206 F 
ATOM     81  C   UNL A   1      47.387  34.801  29.205  1.00  0.00     0.006 A 
ENDBRANCH  53  74
BRANCH  65  82
ATOM     82  C   UNL A   1      49.277  26.289  26.441  1.00  0.00     0.057 A 
ATOM     83  C   UNL A   1      49.760  26.616  25.167  1.00  0.00     0.134 A 
ATOM     84  C   UNL A   1      50.160  25.661  27.327  1.00  0.00     0.134 A 
ATOM     85  F   UNL A   1      48.959  27.208  24.267  1.00  0.00    -0.206 F 
ATOM     86  C   UNL A   1      51.067  26.314  24.785  1.00  0.00     0.040 A 
ATOM     87  C   UNL A   1      51.477  25.374  26.965  1.00  0.00     0.040 A 
ATOM     88  F   UNL A   1      49.762  25.329  28.565  1.00  0.00    -0.206 F 
ATOM     89  C   UNL A   1      51.932  25.696  25.688  1.00  0.00     0.006 A 
ENDBRANCH  65  82
ENDBRANCH  39  40
ENDBRANCH  32  34
ENDBRANCH  31  32
ENDBRANCH  30  31
ENDBRANCH  29  30
ENDBRANCH  28  29
ENDBRANCH   1  28
TORSDOF 19
ENDMDL
