MODEL 1
REMARK VINA RESULT:     -11.4      0.000      0.000
REMARK SMILES C[C@]1(c2ccccc2C(=O)OCCOCCOC(=O)c2ccc(-c3c4nc(c(-c5c(F)cccc5F)c5ccc([nH]5)c(-c5c(F)cccc5F)c5nc(c(-c6c(F)cccc6F)c6ccc3[nH]6)C=C5)C=C4)cc2)NN=C(c2ccccc2)S1
REMARK SMILES IDX 14 1 13 2 12 3 11 4 9 5 10 6 8 7 3 8 4 9 5 10 7 11 6 12 2 13
REMARK SMILES IDX 1 14 74 15 83 16 75 17 76 19 77 20 78 21 82 22 79 23 81 24
REMARK SMILES IDX 80 25 15 26 16 27 17 28 18 29 19 30 20 31 21 32 73 33 22 34
REMARK SMILES IDX 72 35 23 36 24 37 25 38 66 39 26 40 71 41 65 42 67 43 27 44
REMARK SMILES IDX 70 45 64 46 63 47 28 49 54 50 37 51 53 52 38 53 41 54 52 55
REMARK SMILES IDX 68 56 39 57 40 58 51 60 69 61 42 62 29 63 30 64 35 65 31 66
REMARK SMILES IDX 32 67 34 68 36 69 33 70 55 71 56 72 61 73 57 74 58 75 60 76
REMARK SMILES IDX 62 77 59 78 43 79 44 80 49 81 45 82 46 83 48 84 50 85 47 86
REMARK H PARENT 74 18 67 48 41 59
REMARK Flexibility Score: inf
ROOT
ATOM      1  O   UNL A   1      37.150  21.828  24.308  1.00  0.00    -0.374 OA
ENDROOT
BRANCH   1   2
ATOM      2  C   UNL A   1      37.190  23.102  24.953  1.00  0.00     0.202 C 
BRANCH   2   3
ATOM      3  C   UNL A   1      35.964  23.475  25.790  1.00  0.00     0.261 C 
BRANCH   3   4
ATOM      4  O   UNL A   1      35.431  24.748  25.384  1.00  0.00    -0.460 OA
BRANCH   4   5
ATOM      5  C   UNL A   1      34.151  24.991  25.755  1.00  0.00     0.338 C 
ATOM      6  O   UNL A   1      33.470  24.362  26.554  1.00  0.00    -0.246 OA
BRANCH   5   7
ATOM      7  C   UNL A   1      33.741  26.289  25.193  1.00  0.00     0.066 A 
ATOM      8  C   UNL A   1      33.299  26.506  23.873  1.00  0.00     0.004 A 
ATOM      9  C   UNL A   1      33.045  27.864  23.521  1.00  0.00     0.008 A 
ATOM     10  C   UNL A   1      33.148  28.918  24.434  1.00  0.00     0.000 A 
ATOM     11  C   UNL A   1      33.811  27.353  26.121  1.00  0.00     0.016 A 
ATOM     12  C   UNL A   1      33.507  28.658  25.746  1.00  0.00     0.001 A 
BRANCH   8  13
ATOM     13  C   UNL A   1      32.902  25.440  22.836  1.00  0.00     0.129 C 
ATOM     14  C   UNL A   1      32.087  26.138  21.728  1.00  0.00     0.054 C 
ATOM     15  N   UNL A   1      34.080  24.773  22.251  1.00  0.00    -0.288 NA
ATOM     16  S   UNL A   1      31.842  24.046  23.328  1.00  0.00    -0.070 SA
ATOM     17  N   UNL A   1      34.260  23.452  22.545  1.00  0.00    -0.171 NA
ATOM     18  H   UNL A   1      34.712  25.260  21.674  1.00  0.00     0.185 HD
ATOM     19  C   UNL A   1      33.169  22.954  23.035  1.00  0.00     0.126 C 
BRANCH  19  20
ATOM     20  C   UNL A   1      32.980  21.554  23.408  1.00  0.00     0.009 A 
ATOM     21  C   UNL A   1      32.184  20.731  22.612  1.00  0.00     0.011 A 
ATOM     22  C   UNL A   1      33.656  21.040  24.520  1.00  0.00     0.011 A 
ATOM     23  C   UNL A   1      32.103  19.370  22.912  1.00  0.00     0.001 A 
ATOM     24  C   UNL A   1      33.544  19.685  24.828  1.00  0.00     0.001 A 
ATOM     25  C   UNL A   1      32.774  18.851  24.021  1.00  0.00     0.000 A 
ENDBRANCH  19  20
ENDBRANCH   8  13
ENDBRANCH   5   7
ENDBRANCH   4   5
ENDBRANCH   3   4
ENDBRANCH   2   3
ENDBRANCH   1   2
BRANCH   1  26
ATOM     26  C   UNL A   1      37.790  20.737  24.966  1.00  0.00     0.202 C 
BRANCH  26  27
ATOM     27  C   UNL A   1      39.102  21.038  25.702  1.00  0.00     0.261 C 
BRANCH  27  28
ATOM     28  O   UNL A   1      39.801  19.870  26.160  1.00  0.00    -0.460 OA
BRANCH  28  29
ATOM     29  C   UNL A   1      41.138  19.897  25.938  1.00  0.00     0.338 C 
ATOM     30  O   UNL A   1      41.793  19.106  25.277  1.00  0.00    -0.246 OA
BRANCH  29  31
ATOM     31  C   UNL A   1      41.741  21.114  26.519  1.00  0.00     0.060 A 
ATOM     32  C   UNL A   1      41.675  21.265  27.908  1.00  0.00     0.016 A 
ATOM     33  C   UNL A   1      42.260  22.139  25.721  1.00  0.00     0.016 A 
ATOM     34  C   UNL A   1      42.087  22.459  28.499  1.00  0.00     0.010 A 
ATOM     35  C   UNL A   1      42.663  23.343  26.315  1.00  0.00     0.010 A 
ATOM     36  C   UNL A   1      42.551  23.519  27.704  1.00  0.00    -0.014 A 
BRANCH  36  37
ATOM     37  C   UNL A   1      42.757  24.843  28.342  1.00  0.00     0.031 A 
ATOM     38  C   UNL A   1      44.156  25.274  28.672  1.00  0.00     0.074 A 
ATOM     39  C   UNL A   1      41.730  25.684  28.554  1.00  0.00     0.049 A 
ATOM     40  N   UNL A   1      44.583  26.422  29.128  1.00  0.00    -0.248 NA
ATOM     41  C   UNL A   1      45.209  24.265  28.482  1.00  0.00     0.031 C 
ATOM     42  C   UNL A   1      40.331  25.361  28.318  1.00  0.00     0.029 A 
ATOM     43  N   UNL A   1      41.703  26.989  28.979  1.00  0.00    -0.354 N 
ATOM     44  C   UNL A   1      45.951  26.270  29.302  1.00  0.00     0.074 A 
ATOM     45  C   UNL A   1      46.282  24.919  28.901  1.00  0.00     0.031 C 
ATOM     46  C   UNL A   1      39.586  26.463  28.495  1.00  0.00     0.029 A 
ATOM     47  C   UNL A   1      40.451  27.556  28.928  1.00  0.00     0.049 A 
ATOM     48  H   UNL A   1      42.504  27.471  29.289  1.00  0.00     0.167 HD
ATOM     49  C   UNL A   1      46.845  27.169  29.776  1.00  0.00     0.037 A 
ATOM     50  C   UNL A   1      40.055  28.814  29.204  1.00  0.00     0.037 A 
ATOM     51  C   UNL A   1      46.505  28.500  30.206  1.00  0.00     0.049 A 
ATOM     52  C   UNL A   1      41.072  29.801  29.711  1.00  0.00     0.074 A 
ATOM     53  C   UNL A   1      47.332  29.477  30.730  1.00  0.00     0.029 A 
ATOM     54  N   UNL A   1      45.225  29.035  30.171  1.00  0.00    -0.354 N 
ATOM     55  N   UNL A   1      42.366  29.651  29.862  1.00  0.00    -0.248 NA
ATOM     56  C   UNL A   1      40.569  31.121  30.120  1.00  0.00     0.031 C 
ATOM     57  C   UNL A   1      46.546  30.590  31.050  1.00  0.00     0.029 A 
ATOM     58  C   UNL A   1      45.237  30.324  30.678  1.00  0.00     0.049 A 
ATOM     59  H   UNL A   1      44.426  28.568  29.835  1.00  0.00     0.167 HD
ATOM     60  C   UNL A   1      42.829  30.850  30.389  1.00  0.00     0.074 A 
ATOM     61  C   UNL A   1      41.685  31.732  30.492  1.00  0.00     0.031 C 
ATOM     62  C   UNL A   1      44.085  31.185  30.774  1.00  0.00     0.037 A 
BRANCH  49  63
ATOM     63  C   UNL A   1      48.266  26.707  29.906  1.00  0.00     0.057 A 
ATOM     64  C   UNL A   1      49.207  26.909  28.889  1.00  0.00     0.134 A 
ATOM     65  C   UNL A   1      48.691  26.034  31.057  1.00  0.00     0.134 A 
ATOM     66  F   UNL A   1      48.857  27.527  27.750  1.00  0.00    -0.206 F 
ATOM     67  C   UNL A   1      50.514  26.430  29.000  1.00  0.00     0.040 A 
ATOM     68  C   UNL A   1      50.001  25.573  31.191  1.00  0.00     0.040 A 
ATOM     69  F   UNL A   1      47.839  25.806  32.068  1.00  0.00    -0.206 F 
ATOM     70  C   UNL A   1      50.915  25.763  30.156  1.00  0.00     0.006 A 
ENDBRANCH  49  63
BRANCH  50  71
ATOM     71  C   UNL A   1      38.637  29.223  29.016  1.00  0.00     0.057 A 
ATOM     72  C   UNL A   1      37.730  29.189  30.085  1.00  0.00     0.134 A 
ATOM     73  C   UNL A   1      38.141  29.624  27.770  1.00  0.00     0.134 A 
ATOM     74  F   UNL A   1      38.134  28.787  31.299  1.00  0.00    -0.206 F 
ATOM     75  C   UNL A   1      36.385  29.524  29.918  1.00  0.00     0.040 A 
ATOM     76  C   UNL A   1      36.805  29.993  27.596  1.00  0.00     0.040 A 
ATOM     77  F   UNL A   1      38.951  29.673  26.702  1.00  0.00    -0.206 F 
ATOM     78  C   UNL A   1      35.920  29.934  28.671  1.00  0.00     0.006 A 
ENDBRANCH  50  71
BRANCH  62  79
ATOM     79  C   UNL A   1      44.284  32.562  31.334  1.00  0.00     0.057 A 
ATOM     80  C   UNL A   1      44.204  32.818  32.709  1.00  0.00     0.134 A 
ATOM     81  C   UNL A   1      44.600  33.636  30.492  1.00  0.00     0.134 A 
ATOM     82  F   UNL A   1      43.892  31.835  33.567  1.00  0.00    -0.206 F 
ATOM     83  C   UNL A   1      44.410  34.098  33.226  1.00  0.00     0.040 A 
ATOM     84  C   UNL A   1      44.833  34.915  31.000  1.00  0.00     0.040 A 
ATOM     85  F   UNL A   1      44.700  33.457  29.168  1.00  0.00    -0.206 F 
ATOM     86  C   UNL A   1      44.732  35.151  32.370  1.00  0.00     0.006 A 
ENDBRANCH  62  79
ENDBRANCH  36  37
ENDBRANCH  29  31
ENDBRANCH  28  29
ENDBRANCH  27  28
ENDBRANCH  26  27
ENDBRANCH   1  26
TORSDOF 16
ENDMDL
MODEL 2
REMARK VINA RESULT:     -11.4      3.777      7.777
REMARK SMILES C[C@]1(c2ccccc2C(=O)OCCOCCOC(=O)c2ccc(-c3c4nc(c(-c5c(F)cccc5F)c5ccc([nH]5)c(-c5c(F)cccc5F)c5nc(c(-c6c(F)cccc6F)c6ccc3[nH]6)C=C5)C=C4)cc2)NN=C(c2ccccc2)S1
REMARK SMILES IDX 14 1 13 2 12 3 11 4 9 5 10 6 8 7 3 8 4 9 5 10 7 11 6 12 2 13
REMARK SMILES IDX 1 14 74 15 83 16 75 17 76 19 77 20 78 21 82 22 79 23 81 24
REMARK SMILES IDX 80 25 15 26 16 27 17 28 18 29 19 30 20 31 21 32 73 33 22 34
REMARK SMILES IDX 72 35 23 36 24 37 25 38 66 39 26 40 71 41 65 42 67 43 27 44
REMARK SMILES IDX 70 45 64 46 63 47 28 49 54 50 37 51 53 52 38 53 41 54 52 55
REMARK SMILES IDX 68 56 39 57 40 58 51 60 69 61 42 62 29 63 30 64 35 65 31 66
REMARK SMILES IDX 32 67 34 68 36 69 33 70 55 71 56 72 61 73 57 74 58 75 60 76
REMARK SMILES IDX 62 77 59 78 43 79 44 80 49 81 45 82 46 83 48 84 50 85 47 86
REMARK H PARENT 74 18 67 48 41 59
REMARK Flexibility Score: inf
ROOT
ATOM      1  O   UNL A   1      37.784  21.920  24.570  1.00  0.00    -0.374 OA
ENDROOT
BRANCH   1   2
ATOM      2  C   UNL A   1      36.417  22.335  24.564  1.00  0.00     0.202 C 
BRANCH   2   3
ATOM      3  C   UNL A   1      36.022  23.381  25.609  1.00  0.00     0.261 C 
BRANCH   3   4
ATOM      4  O   UNL A   1      35.386  24.512  24.990  1.00  0.00    -0.460 OA
BRANCH   4   5
ATOM      5  C   UNL A   1      34.186  24.866  25.511  1.00  0.00     0.338 C 
ATOM      6  O   UNL A   1      33.577  24.326  26.424  1.00  0.00    -0.246 OA
BRANCH   5   7
ATOM      7  C   UNL A   1      33.794  26.166  24.939  1.00  0.00     0.066 A 
ATOM      8  C   UNL A   1      33.236  26.362  23.661  1.00  0.00     0.004 A 
ATOM      9  C   UNL A   1      33.023  27.718  23.279  1.00  0.00     0.008 A 
ATOM     10  C   UNL A   1      33.273  28.796  24.135  1.00  0.00     0.000 A 
ATOM     11  C   UNL A   1      34.014  27.256  25.811  1.00  0.00     0.016 A 
ATOM     12  C   UNL A   1      33.746  28.562  25.415  1.00  0.00     0.001 A 
BRANCH   8  13
ATOM     13  C   UNL A   1      32.680  25.285  22.712  1.00  0.00     0.129 C 
ATOM     14  C   UNL A   1      31.779  25.986  21.675  1.00  0.00     0.054 C 
ATOM     15  N   UNL A   1      33.756  24.545  22.026  1.00  0.00    -0.288 NA
ATOM     16  S   UNL A   1      31.620  23.957  23.365  1.00  0.00    -0.070 SA
ATOM     17  N   UNL A   1      33.909  23.226  22.345  1.00  0.00    -0.171 NA
ATOM     18  H   UNL A   1      34.341  24.983  21.367  1.00  0.00     0.185 HD
ATOM     19  C   UNL A   1      32.858  22.796  22.968  1.00  0.00     0.126 C 
BRANCH  19  20
ATOM     20  C   UNL A   1      32.650  21.418  23.409  1.00  0.00     0.009 A 
ATOM     21  C   UNL A   1      32.212  20.461  22.494  1.00  0.00     0.011 A 
ATOM     22  C   UNL A   1      32.959  21.062  24.726  1.00  0.00     0.011 A 
ATOM     23  C   UNL A   1      32.126  19.127  22.897  1.00  0.00     0.001 A 
ATOM     24  C   UNL A   1      32.842  19.732  25.126  1.00  0.00     0.001 A 
ATOM     25  C   UNL A   1      32.432  18.765  24.210  1.00  0.00     0.000 A 
ENDBRANCH  19  20
ENDBRANCH   8  13
ENDBRANCH   5   7
ENDBRANCH   4   5
ENDBRANCH   3   4
ENDBRANCH   2   3
ENDBRANCH   1   2
BRANCH   1  26
ATOM     26  C   UNL A   1      38.324  21.453  25.805  1.00  0.00     0.202 C 
BRANCH  26  27
ATOM     27  C   UNL A   1      39.555  22.187  26.350  1.00  0.00     0.261 C 
BRANCH  27  28
ATOM     28  O   UNL A   1      39.451  23.619  26.313  1.00  0.00    -0.460 OA
BRANCH  28  29
ATOM     29  C   UNL A   1      40.590  24.270  26.654  1.00  0.00     0.338 C 
ATOM     30  O   UNL A   1      41.723  24.027  26.267  1.00  0.00    -0.246 OA
BRANCH  29  31
ATOM     31  C   UNL A   1      40.292  25.440  27.504  1.00  0.00     0.060 A 
ATOM     32  C   UNL A   1      41.089  26.577  27.337  1.00  0.00     0.016 A 
ATOM     33  C   UNL A   1      39.331  25.395  28.519  1.00  0.00     0.016 A 
ATOM     34  C   UNL A   1      40.959  27.654  28.213  1.00  0.00     0.010 A 
ATOM     35  C   UNL A   1      39.209  26.474  29.406  1.00  0.00     0.010 A 
ATOM     36  C   UNL A   1      40.042  27.596  29.274  1.00  0.00    -0.014 A 
BRANCH  36  37
ATOM     37  C   UNL A   1      40.097  28.655  30.314  1.00  0.00     0.031 A 
ATOM     38  C   UNL A   1      39.067  29.745  30.285  1.00  0.00     0.074 A 
ATOM     39  C   UNL A   1      40.995  28.608  31.312  1.00  0.00     0.049 A 
ATOM     40  N   UNL A   1      38.854  30.706  31.146  1.00  0.00    -0.248 NA
ATOM     41  C   UNL A   1      38.173  29.767  29.118  1.00  0.00     0.031 C 
ATOM     42  C   UNL A   1      42.066  27.628  31.419  1.00  0.00     0.029 A 
ATOM     43  N   UNL A   1      41.131  29.374  32.442  1.00  0.00    -0.354 N 
ATOM     44  C   UNL A   1      37.818  31.461  30.616  1.00  0.00     0.074 A 
ATOM     45  C   UNL A   1      37.444  30.846  29.360  1.00  0.00     0.031 C 
ATOM     46  C   UNL A   1      42.686  27.778  32.600  1.00  0.00     0.029 A 
ATOM     47  C   UNL A   1      42.099  28.913  33.304  1.00  0.00     0.049 A 
ATOM     48  H   UNL A   1      40.586  30.174  32.619  1.00  0.00     0.167 HD
ATOM     49  C   UNL A   1      37.246  32.578  31.122  1.00  0.00     0.037 A 
ATOM     50  C   UNL A   1      42.468  29.364  34.519  1.00  0.00     0.037 A 
ATOM     51  C   UNL A   1      37.645  33.205  32.355  1.00  0.00     0.049 A 
ATOM     52  C   UNL A   1      41.804  30.598  35.068  1.00  0.00     0.074 A 
ATOM     53  C   UNL A   1      37.149  34.357  32.938  1.00  0.00     0.029 A 
ATOM     54  N   UNL A   1      38.648  32.734  33.189  1.00  0.00    -0.354 N 
ATOM     55  N   UNL A   1      40.816  31.299  34.564  1.00  0.00    -0.248 NA
ATOM     56  C   UNL A   1      42.328  31.125  36.337  1.00  0.00     0.031 C 
ATOM     57  C   UNL A   1      37.880  34.606  34.106  1.00  0.00     0.029 A 
ATOM     58  C   UNL A   1      38.797  33.580  34.276  1.00  0.00     0.049 A 
ATOM     59  H   UNL A   1      39.176  31.917  33.032  1.00  0.00     0.167 HD
ATOM     60  C   UNL A   1      40.607  32.351  35.447  1.00  0.00     0.074 A 
ATOM     61  C   UNL A   1      41.541  32.173  36.539  1.00  0.00     0.031 C 
ATOM     62  C   UNL A   1      39.735  33.385  35.352  1.00  0.00     0.037 A 
BRANCH  49  63
ATOM     63  C   UNL A   1      36.170  33.220  30.298  1.00  0.00     0.057 A 
ATOM     64  C   UNL A   1      34.811  33.060  30.599  1.00  0.00     0.134 A 
ATOM     65  C   UNL A   1      36.498  33.992  29.177  1.00  0.00     0.134 A 
ATOM     66  F   UNL A   1      34.430  32.313  31.646  1.00  0.00    -0.206 F 
ATOM     67  C   UNL A   1      33.816  33.621  29.796  1.00  0.00     0.040 A 
ATOM     68  C   UNL A   1      35.514  34.579  28.382  1.00  0.00     0.040 A 
ATOM     69  F   UNL A   1      37.780  34.182  28.832  1.00  0.00    -0.206 F 
ATOM     70  C   UNL A   1      34.167  34.386  28.685  1.00  0.00     0.006 A 
ENDBRANCH  49  63
BRANCH  50  71
ATOM     71  C   UNL A   1      43.516  28.659  35.306  1.00  0.00     0.057 A 
ATOM     72  C   UNL A   1      44.876  28.915  35.085  1.00  0.00     0.134 A 
ATOM     73  C   UNL A   1      43.195  27.696  36.269  1.00  0.00     0.134 A 
ATOM     74  F   UNL A   1      45.252  29.807  34.156  1.00  0.00    -0.206 F 
ATOM     75  C   UNL A   1      45.875  28.231  35.780  1.00  0.00     0.040 A 
ATOM     76  C   UNL A   1      44.183  27.026  36.994  1.00  0.00     0.040 A 
ATOM     77  F   UNL A   1      41.914  27.395  36.527  1.00  0.00    -0.206 F 
ATOM     78  C   UNL A   1      45.529  27.287  36.744  1.00  0.00     0.006 A 
ENDBRANCH  50  71
BRANCH  62  79
ATOM     79  C   UNL A   1      39.749  34.394  36.461  1.00  0.00     0.057 A 
ATOM     80  C   UNL A   1      40.483  35.584  36.368  1.00  0.00     0.134 A 
ATOM     81  C   UNL A   1      38.985  34.194  37.618  1.00  0.00     0.134 A 
ATOM     82  F   UNL A   1      41.245  35.829  35.291  1.00  0.00    -0.206 F 
ATOM     83  C   UNL A   1      40.476  36.528  37.395  1.00  0.00     0.040 A 
ATOM     84  C   UNL A   1      38.950  35.142  38.641  1.00  0.00     0.040 A 
ATOM     85  F   UNL A   1      38.253  33.081  37.767  1.00  0.00    -0.206 F 
ATOM     86  C   UNL A   1      39.701  36.311  38.534  1.00  0.00     0.006 A 
ENDBRANCH  62  79
ENDBRANCH  36  37
ENDBRANCH  29  31
ENDBRANCH  28  29
ENDBRANCH  27  28
ENDBRANCH  26  27
ENDBRANCH   1  26
TORSDOF 16
ENDMDL
MODEL 3
REMARK VINA RESULT:     -11.3      3.105      8.053
REMARK SMILES C[C@]1(c2ccccc2C(=O)OCCOCCOC(=O)c2ccc(-c3c4nc(c(-c5c(F)cccc5F)c5ccc([nH]5)c(-c5c(F)cccc5F)c5nc(c(-c6c(F)cccc6F)c6ccc3[nH]6)C=C5)C=C4)cc2)NN=C(c2ccccc2)S1
REMARK SMILES IDX 14 1 13 2 12 3 11 4 9 5 10 6 8 7 3 8 4 9 5 10 7 11 6 12 2 13
REMARK SMILES IDX 1 14 74 15 83 16 75 17 76 19 77 20 78 21 82 22 79 23 81 24
REMARK SMILES IDX 80 25 15 26 16 27 17 28 18 29 19 30 20 31 21 32 73 33 22 34
REMARK SMILES IDX 72 35 23 36 24 37 25 38 66 39 26 40 71 41 65 42 67 43 27 44
REMARK SMILES IDX 70 45 64 46 63 47 28 49 54 50 37 51 53 52 38 53 41 54 52 55
REMARK SMILES IDX 68 56 39 57 40 58 51 60 69 61 42 62 29 63 30 64 35 65 31 66
REMARK SMILES IDX 32 67 34 68 36 69 33 70 55 71 56 72 61 73 57 74 58 75 60 76
REMARK SMILES IDX 62 77 59 78 43 79 44 80 49 81 45 82 46 83 48 84 50 85 47 86
REMARK H PARENT 74 18 67 48 41 59
REMARK Flexibility Score: inf
ROOT
ATOM      1  O   UNL A   1      32.780  30.405  26.159  1.00  0.00    -0.374 OA
ENDROOT
BRANCH   1   2
ATOM      2  C   UNL A   1      32.696  28.999  26.395  1.00  0.00     0.202 C 
BRANCH   2   3
ATOM      3  C   UNL A   1      33.847  28.150  25.850  1.00  0.00     0.261 C 
BRANCH   3   4
ATOM      4  O   UNL A   1      33.634  26.755  26.126  1.00  0.00    -0.460 OA
BRANCH   4   5
ATOM      5  C   UNL A   1      33.838  25.915  25.083  1.00  0.00     0.338 C 
ATOM      6  O   UNL A   1      34.031  26.208  23.911  1.00  0.00    -0.246 OA
BRANCH   5   7
ATOM      7  C   UNL A   1      34.004  24.549  25.610  1.00  0.00     0.066 A 
ATOM      8  C   UNL A   1      32.965  23.721  26.077  1.00  0.00     0.004 A 
ATOM      9  C   UNL A   1      33.370  22.472  26.632  1.00  0.00     0.008 A 
ATOM     10  C   UNL A   1      34.702  22.045  26.649  1.00  0.00     0.000 A 
ATOM     11  C   UNL A   1      35.344  24.099  25.600  1.00  0.00     0.016 A 
ATOM     12  C   UNL A   1      35.689  22.851  26.107  1.00  0.00     0.001 A 
BRANCH   8  13
ATOM     13  C   UNL A   1      31.451  23.937  25.903  1.00  0.00     0.129 C 
ATOM     14  C   UNL A   1      30.749  22.583  26.130  1.00  0.00     0.054 C 
ATOM     15  N   UNL A   1      30.925  24.942  26.847  1.00  0.00    -0.288 NA
ATOM     16  S   UNL A   1      30.791  24.493  24.301  1.00  0.00    -0.070 SA
ATOM     17  N   UNL A   1      30.471  26.117  26.320  1.00  0.00    -0.171 NA
ATOM     18  H   UNL A   1      30.902  24.772  27.816  1.00  0.00     0.185 HD
ATOM     19  C   UNL A   1      30.300  25.992  25.041  1.00  0.00     0.126 C 
BRANCH  19  20
ATOM     20  C   UNL A   1      29.769  27.032  24.161  1.00  0.00     0.009 A 
ATOM     21  C   UNL A   1      28.405  27.061  23.876  1.00  0.00     0.011 A 
ATOM     22  C   UNL A   1      30.626  28.024  23.674  1.00  0.00     0.011 A 
ATOM     23  C   UNL A   1      27.892  28.123  23.128  1.00  0.00     0.001 A 
ATOM     24  C   UNL A   1      30.108  29.065  22.905  1.00  0.00     0.001 A 
ATOM     25  C   UNL A   1      28.741  29.117  22.638  1.00  0.00     0.000 A 
ENDBRANCH  19  20
ENDBRANCH   8  13
ENDBRANCH   5   7
ENDBRANCH   4   5
ENDBRANCH   3   4
ENDBRANCH   2   3
ENDBRANCH   1   2
BRANCH   1  26
ATOM     26  C   UNL A   1      32.923  31.255  27.294  1.00  0.00     0.202 C 
BRANCH  26  27
ATOM     27  C   UNL A   1      34.348  31.507  27.802  1.00  0.00     0.261 C 
BRANCH  27  28
ATOM     28  O   UNL A   1      34.957  30.370  28.434  1.00  0.00    -0.460 OA
BRANCH  28  29
ATOM     29  C   UNL A   1      35.926  30.682  29.329  1.00  0.00     0.338 C 
ATOM     30  O   UNL A   1      35.816  31.386  30.322  1.00  0.00    -0.246 OA
BRANCH  29  31
ATOM     31  C   UNL A   1      37.175  29.955  29.026  1.00  0.00     0.060 A 
ATOM     32  C   UNL A   1      37.905  29.449  30.107  1.00  0.00     0.016 A 
ATOM     33  C   UNL A   1      37.685  29.863  27.727  1.00  0.00     0.016 A 
ATOM     34  C   UNL A   1      39.165  28.890  29.897  1.00  0.00     0.010 A 
ATOM     35  C   UNL A   1      38.956  29.311  27.518  1.00  0.00     0.010 A 
ATOM     36  C   UNL A   1      39.714  28.849  28.606  1.00  0.00    -0.014 A 
BRANCH  36  37
ATOM     37  C   UNL A   1      41.140  28.465  28.457  1.00  0.00     0.031 A 
ATOM     38  C   UNL A   1      41.468  27.057  28.055  1.00  0.00     0.074 A 
ATOM     39  C   UNL A   1      42.125  29.367  28.599  1.00  0.00     0.049 A 
ATOM     40  N   UNL A   1      42.627  26.528  27.761  1.00  0.00    -0.248 NA
ATOM     41  C   UNL A   1      40.339  26.116  27.998  1.00  0.00     0.031 C 
ATOM     42  C   UNL A   1      41.935  30.744  29.030  1.00  0.00     0.029 A 
ATOM     43  N   UNL A   1      43.474  29.277  28.363  1.00  0.00    -0.354 N 
ATOM     44  C   UNL A   1      42.373  25.188  27.506  1.00  0.00     0.074 A 
ATOM     45  C   UNL A   1      40.950  24.986  27.678  1.00  0.00     0.031 C 
ATOM     46  C   UNL A   1      43.098  31.406  28.927  1.00  0.00     0.029 A 
ATOM     47  C   UNL A   1      44.135  30.477  28.490  1.00  0.00     0.049 A 
ATOM     48  H   UNL A   1      43.925  28.434  28.124  1.00  0.00     0.167 HD
ATOM     49  C   UNL A   1      43.252  24.211  27.181  1.00  0.00     0.037 A 
ATOM     50  C   UNL A   1      45.430  30.784  28.279  1.00  0.00     0.037 A 
ATOM     51  C   UNL A   1      44.671  24.411  27.044  1.00  0.00     0.049 A 
ATOM     52  C   UNL A   1      46.384  29.683  27.899  1.00  0.00     0.074 A 
ATOM     53  C   UNL A   1      45.650  23.481  26.747  1.00  0.00     0.029 A 
ATOM     54  N   UNL A   1      45.313  25.630  27.209  1.00  0.00    -0.354 N 
ATOM     55  N   UNL A   1      46.133  28.420  27.649  1.00  0.00    -0.248 NA
ATOM     56  C   UNL A   1      47.807  30.041  27.806  1.00  0.00     0.031 C 
ATOM     57  C   UNL A   1      46.891  24.128  26.772  1.00  0.00     0.029 A 
ATOM     58  C   UNL A   1      46.679  25.473  27.034  1.00  0.00     0.049 A 
ATOM     59  H   UNL A   1      44.865  26.482  27.418  1.00  0.00     0.167 HD
ATOM     60  C   UNL A   1      47.362  27.833  27.379  1.00  0.00     0.074 A 
ATOM     61  C   UNL A   1      48.354  28.886  27.452  1.00  0.00     0.031 C 
ATOM     62  C   UNL A   1      47.649  26.535  27.114  1.00  0.00     0.037 A 
BRANCH  49  63
ATOM     63  C   UNL A   1      42.696  22.829  27.013  1.00  0.00     0.057 A 
ATOM     64  C   UNL A   1      42.498  22.257  25.750  1.00  0.00     0.134 A 
ATOM     65  C   UNL A   1      42.335  22.068  28.132  1.00  0.00     0.134 A 
ATOM     66  F   UNL A   1      42.802  22.943  24.638  1.00  0.00    -0.206 F 
ATOM     67  C   UNL A   1      41.933  20.989  25.604  1.00  0.00     0.040 A 
ATOM     68  C   UNL A   1      41.793  20.789  28.000  1.00  0.00     0.040 A 
ATOM     69  F   UNL A   1      42.495  22.558  29.370  1.00  0.00    -0.206 F 
ATOM     70  C   UNL A   1      41.582  20.249  26.733  1.00  0.00     0.006 A 
ENDBRANCH  49  63
BRANCH  50  71
ATOM     71  C   UNL A   1      45.913  32.183  28.423  1.00  0.00     0.057 A 
ATOM     72  C   UNL A   1      45.953  33.048  27.321  1.00  0.00     0.134 A 
ATOM     73  C   UNL A   1      46.375  32.684  29.646  1.00  0.00     0.134 A 
ATOM     74  F   UNL A   1      45.550  32.622  26.114  1.00  0.00    -0.206 F 
ATOM     75  C   UNL A   1      46.446  34.350  27.426  1.00  0.00     0.040 A 
ATOM     76  C   UNL A   1      46.842  33.994  29.773  1.00  0.00     0.040 A 
ATOM     77  F   UNL A   1      46.373  31.909  30.740  1.00  0.00    -0.206 F 
ATOM     78  C   UNL A   1      46.887  34.829  28.658  1.00  0.00     0.006 A 
ENDBRANCH  50  71
BRANCH  62  79
ATOM     79  C   UNL A   1      49.089  26.187  26.879  1.00  0.00     0.057 A 
ATOM     80  C   UNL A   1      49.655  26.218  25.598  1.00  0.00     0.134 A 
ATOM     81  C   UNL A   1      49.929  25.860  27.950  1.00  0.00     0.134 A 
ATOM     82  F   UNL A   1      48.901  26.511  24.527  1.00  0.00    -0.206 F 
ATOM     83  C   UNL A   1      51.001  25.913  25.388  1.00  0.00     0.040 A 
ATOM     84  C   UNL A   1      51.282  25.578  27.756  1.00  0.00     0.040 A 
ATOM     85  F   UNL A   1      49.452  25.821  29.203  1.00  0.00    -0.206 F 
ATOM     86  C   UNL A   1      51.820  25.598  26.471  1.00  0.00     0.006 A 
ENDBRANCH  62  79
ENDBRANCH  36  37
ENDBRANCH  29  31
ENDBRANCH  28  29
ENDBRANCH  27  28
ENDBRANCH  26  27
ENDBRANCH   1  26
TORSDOF 16
ENDMDL
