MODEL 1
REMARK VINA RESULT:      -9.6      0.000      0.000
REMARK SMILES CCOC(=O)NC(=O)COc1csc(C(=O)OCCOCCOC(=O)c2ccc(-c3c4nc(c(-c5c(F)cccc5F)c5ccc([nH]5)c(-c5c(F)cccc5F)c5nc(c(-c6c(F)cccc6F)c6ccc3[nH]6)C=C5)C=C4)cc2)c1
REMARK SMILES IDX 18 1 17 2 15 3 16 4 14 5 11 6 12 7 80 8 13 9 10 10 9 11 7 12
REMARK SMILES IDX 4 13 5 14 6 15 8 17 3 18 2 19 1 20 19 21 20 22 21 23 22 24
REMARK SMILES IDX 23 25 24 26 25 27 26 28 27 29 79 30 28 31 78 32 29 33 30 34
REMARK SMILES IDX 31 35 72 36 32 37 77 38 71 39 73 40 33 41 76 42 70 43 69 44
REMARK SMILES IDX 34 46 60 47 43 48 59 49 44 50 47 51 58 52 74 53 45 54 46 55
REMARK SMILES IDX 57 57 75 58 48 59 35 60 36 61 41 62 37 63 38 64 40 65 42 66
REMARK SMILES IDX 39 67 61 68 62 69 67 70 63 71 64 72 66 73 68 74 65 75 49 76
REMARK SMILES IDX 50 77 55 78 51 79 52 80 54 81 56 82 53 83
REMARK H PARENT 6 16 73 45 47 56
REMARK Flexibility Score: inf
ROOT
ATOM      1  C   UNL A   1      33.054  29.350  25.342  1.00  0.00     0.261 C 
ENDROOT
BRANCH   1   2
ATOM      2  O   UNL A   1      32.425  28.568  24.312  1.00  0.00    -0.459 OA
BRANCH   2   3
ATOM      3  C   UNL A   1      33.232  28.198  23.275  1.00  0.00     0.348 C 
ATOM      4  O   UNL A   1      34.051  28.933  22.736  1.00  0.00    -0.245 OA
BRANCH   3   5
ATOM      5  C   UNL A   1      33.046  26.788  23.001  1.00  0.00     0.116 A 
ATOM      6  C   UNL A   1      32.811  24.465  23.181  1.00  0.00     0.131 A 
ATOM      7  C   UNL A   1      32.913  24.626  21.818  1.00  0.00     0.112 A 
ATOM      8  C   UNL A   1      32.932  25.714  23.865  1.00  0.00     0.074 A 
ATOM      9  S   UNL A   1      33.014  26.274  21.367  1.00  0.00    -0.133 S 
BRANCH   6  10
ATOM     10  O   UNL A   1      32.600  23.319  23.871  1.00  0.00    -0.483 OA
BRANCH  10  11
ATOM     11  C   UNL A   1      33.195  23.188  25.145  1.00  0.00     0.329 C 
BRANCH  11  12
ATOM     12  C   UNL A   1      32.668  22.209  26.205  1.00  0.00     0.267 C 
ATOM     13  C   UNL A   1      30.511  23.400  26.812  1.00  0.00     0.413 C 
ATOM     14  O   UNL A   1      29.486  23.296  27.475  1.00  0.00    -0.224 OA
ATOM     15  N   UNL A   1      31.463  22.407  26.833  1.00  0.00    -0.258 N 
ATOM     16  H   UNL A   1      31.226  21.668  27.438  1.00  0.00     0.176 HD
ATOM     17  O   UNL A   1      33.337  21.222  26.531  1.00  0.00    -0.271 OA
BRANCH  13  18
ATOM     18  O   UNL A   1      30.823  24.454  26.029  1.00  0.00    -0.450 OA
BRANCH  18  19
ATOM     19  C   UNL A   1      29.948  25.588  26.122  1.00  0.00     0.231 C 
ATOM     20  C   UNL A   1      29.460  26.014  24.748  1.00  0.00     0.049 C 
ENDBRANCH  18  19
ENDBRANCH  13  18
ENDBRANCH  11  12
ENDBRANCH  10  11
ENDBRANCH   6  10
ENDBRANCH   3   5
ENDBRANCH   2   3
ENDBRANCH   1   2
BRANCH   1  21
ATOM     21  C   UNL A   1      32.260  29.232  26.648  1.00  0.00     0.202 C 
BRANCH  21  22
ATOM     22  O   UNL A   1      31.833  30.486  27.180  1.00  0.00    -0.374 OA
BRANCH  22  23
ATOM     23  C   UNL A   1      31.424  31.469  26.224  1.00  0.00     0.202 C 
BRANCH  23  24
ATOM     24  C   UNL A   1      31.746  32.912  26.623  1.00  0.00     0.261 C 
BRANCH  24  25
ATOM     25  O   UNL A   1      32.398  32.946  27.907  1.00  0.00    -0.460 OA
BRANCH  25  26
ATOM     26  C   UNL A   1      33.412  33.836  28.013  1.00  0.00     0.338 C 
ATOM     27  O   UNL A   1      33.338  35.052  27.975  1.00  0.00    -0.246 OA
BRANCH  26  28
ATOM     28  C   UNL A   1      34.660  33.126  28.363  1.00  0.00     0.060 A 
ATOM     29  C   UNL A   1      34.559  31.765  28.673  1.00  0.00     0.016 A 
ATOM     30  C   UNL A   1      35.895  33.778  28.431  1.00  0.00     0.016 A 
ATOM     31  C   UNL A   1      35.681  31.062  29.103  1.00  0.00     0.010 A 
ATOM     32  C   UNL A   1      37.020  33.073  28.870  1.00  0.00     0.010 A 
ATOM     33  C   UNL A   1      36.909  31.721  29.241  1.00  0.00    -0.014 A 
BRANCH  33  34
ATOM     34  C   UNL A   1      38.035  31.035  29.919  1.00  0.00     0.031 A 
ATOM     35  C   UNL A   1      38.296  31.328  31.369  1.00  0.00     0.074 A 
ATOM     36  C   UNL A   1      38.789  30.135  29.266  1.00  0.00     0.049 A 
ATOM     37  N   UNL A   1      39.223  30.849  32.160  1.00  0.00    -0.248 NA
ATOM     38  C   UNL A   1      37.390  32.290  32.016  1.00  0.00     0.031 C 
ATOM     39  C   UNL A   1      38.608  29.732  27.873  1.00  0.00     0.029 A 
ATOM     40  N   UNL A   1      39.863  29.397  29.696  1.00  0.00    -0.354 N 
ATOM     41  C   UNL A   1      39.012  31.449  33.394  1.00  0.00     0.074 A 
ATOM     42  C   UNL A   1      37.891  32.352  33.240  1.00  0.00     0.031 C 
ATOM     43  C   UNL A   1      39.541  28.815  27.561  1.00  0.00     0.029 A 
ATOM     44  C   UNL A   1      40.398  28.589  28.725  1.00  0.00     0.049 A 
ATOM     45  H   UNL A   1      40.215  29.443  30.614  1.00  0.00     0.167 HD
ATOM     46  C   UNL A   1      39.681  31.257  34.555  1.00  0.00     0.037 A 
ATOM     47  C   UNL A   1      41.466  27.770  28.768  1.00  0.00     0.037 A 
ATOM     48  C   UNL A   1      40.800  30.366  34.709  1.00  0.00     0.049 A 
ATOM     49  C   UNL A   1      42.251  27.639  30.045  1.00  0.00     0.074 A 
ATOM     50  C   UNL A   1      41.538  30.094  35.849  1.00  0.00     0.029 A 
ATOM     51  N   UNL A   1      41.349  29.607  33.687  1.00  0.00    -0.354 N 
ATOM     52  N   UNL A   1      42.032  28.198  31.211  1.00  0.00    -0.248 NA
ATOM     53  C   UNL A   1      43.433  26.767  30.010  1.00  0.00     0.031 C 
ATOM     54  C   UNL A   1      42.559  29.202  35.505  1.00  0.00     0.029 A 
ATOM     55  C   UNL A   1      42.432  28.887  34.161  1.00  0.00     0.049 A 
ATOM     56  H   UNL A   1      41.017  29.584  32.760  1.00  0.00     0.167 HD
ATOM     57  C   UNL A   1      43.030  27.723  32.054  1.00  0.00     0.074 A 
ATOM     58  C   UNL A   1      43.852  26.828  31.266  1.00  0.00     0.031 C 
ATOM     59  C   UNL A   1      43.240  28.000  33.364  1.00  0.00     0.037 A 
BRANCH  46  60
ATOM     60  C   UNL A   1      39.229  32.056  35.740  1.00  0.00     0.057 A 
ATOM     61  C   UNL A   1      39.717  33.346  35.992  1.00  0.00     0.134 A 
ATOM     62  C   UNL A   1      38.299  31.529  36.644  1.00  0.00     0.134 A 
ATOM     63  F   UNL A   1      40.623  33.901  35.172  1.00  0.00    -0.206 F 
ATOM     64  C   UNL A   1      39.318  34.070  37.116  1.00  0.00     0.040 A 
ATOM     65  C   UNL A   1      37.874  32.253  37.759  1.00  0.00     0.040 A 
ATOM     66  F   UNL A   1      37.791  30.300  36.461  1.00  0.00    -0.206 F 
ATOM     67  C   UNL A   1      38.390  33.524  38.002  1.00  0.00     0.006 A 
ENDBRANCH  46  60
BRANCH  47  68
ATOM     68  C   UNL A   1      41.855  27.002  27.561  1.00  0.00     0.057 A 
ATOM     69  C   UNL A   1      42.673  27.570  26.578  1.00  0.00     0.134 A 
ATOM     70  C   UNL A   1      41.419  25.687  27.360  1.00  0.00     0.134 A 
ATOM     71  F   UNL A   1      43.103  28.833  26.707  1.00  0.00    -0.206 F 
ATOM     72  C   UNL A   1      43.040  26.859  25.435  1.00  0.00     0.040 A 
ATOM     73  C   UNL A   1      41.793  24.958  26.230  1.00  0.00     0.040 A 
ATOM     74  F   UNL A   1      40.631  25.089  28.266  1.00  0.00    -0.206 F 
ATOM     75  C   UNL A   1      42.604  25.547  25.261  1.00  0.00     0.006 A 
ENDBRANCH  47  68
BRANCH  59  76
ATOM     76  C   UNL A   1      44.388  27.305  34.037  1.00  0.00     0.057 A 
ATOM     77  C   UNL A   1      45.655  27.893  34.129  1.00  0.00     0.134 A 
ATOM     78  C   UNL A   1      44.210  26.051  34.636  1.00  0.00     0.134 A 
ATOM     79  F   UNL A   1      45.894  29.086  33.565  1.00  0.00    -0.206 F 
ATOM     80  C   UNL A   1      46.711  27.250  34.778  1.00  0.00     0.040 A 
ATOM     81  C   UNL A   1      45.251  25.409  35.307  1.00  0.00     0.040 A 
ATOM     82  F   UNL A   1      43.017  25.438  34.589  1.00  0.00    -0.206 F 
ATOM     83  C   UNL A   1      46.507  26.006  35.376  1.00  0.00     0.006 A 
ENDBRANCH  59  76
ENDBRANCH  33  34
ENDBRANCH  26  28
ENDBRANCH  25  26
ENDBRANCH  24  25
ENDBRANCH  23  24
ENDBRANCH  22  23
ENDBRANCH  21  22
ENDBRANCH   1  21
TORSDOF 19
ENDMDL
MODEL 2
REMARK VINA RESULT:      -9.6      4.592      7.754
REMARK SMILES CCOC(=O)NC(=O)COc1csc(C(=O)OCCOCCOC(=O)c2ccc(-c3c4nc(c(-c5c(F)cccc5F)c5ccc([nH]5)c(-c5c(F)cccc5F)c5nc(c(-c6c(F)cccc6F)c6ccc3[nH]6)C=C5)C=C4)cc2)c1
REMARK SMILES IDX 18 1 17 2 15 3 16 4 14 5 11 6 12 7 80 8 13 9 10 10 9 11 7 12
REMARK SMILES IDX 4 13 5 14 6 15 8 17 3 18 2 19 1 20 19 21 20 22 21 23 22 24
REMARK SMILES IDX 23 25 24 26 25 27 26 28 27 29 79 30 28 31 78 32 29 33 30 34
REMARK SMILES IDX 31 35 72 36 32 37 77 38 71 39 73 40 33 41 76 42 70 43 69 44
REMARK SMILES IDX 34 46 60 47 43 48 59 49 44 50 47 51 58 52 74 53 45 54 46 55
REMARK SMILES IDX 57 57 75 58 48 59 35 60 36 61 41 62 37 63 38 64 40 65 42 66
REMARK SMILES IDX 39 67 61 68 62 69 67 70 63 71 64 72 66 73 68 74 65 75 49 76
REMARK SMILES IDX 50 77 55 78 51 79 52 80 54 81 56 82 53 83
REMARK H PARENT 6 16 73 45 47 56
REMARK Flexibility Score: inf
ROOT
ATOM      1  C   UNL A   1      33.154  35.744  31.145  1.00  0.00     0.261 C 
ENDROOT
BRANCH   1   2
ATOM      2  O   UNL A   1      34.426  35.202  31.542  1.00  0.00    -0.459 OA
BRANCH   2   3
ATOM      3  C   UNL A   1      34.374  34.093  32.337  1.00  0.00     0.348 C 
ATOM      4  O   UNL A   1      33.340  33.599  32.771  1.00  0.00    -0.245 OA
BRANCH   3   5
ATOM      5  C   UNL A   1      35.705  33.544  32.482  1.00  0.00     0.116 A 
ATOM      6  C   UNL A   1      37.538  32.123  32.809  1.00  0.00     0.131 A 
ATOM      7  C   UNL A   1      38.141  33.359  32.835  1.00  0.00     0.112 A 
ATOM      8  C   UNL A   1      36.123  32.236  32.647  1.00  0.00     0.074 A 
ATOM      9  S   UNL A   1      37.032  34.627  32.533  1.00  0.00    -0.133 S 
BRANCH   6  10
ATOM     10  O   UNL A   1      38.127  30.906  32.891  1.00  0.00    -0.483 OA
BRANCH  10  11
ATOM     11  C   UNL A   1      38.045  30.207  34.116  1.00  0.00     0.329 C 
BRANCH  11  12
ATOM     12  C   UNL A   1      38.425  30.849  35.459  1.00  0.00     0.267 C 
ATOM     13  C   UNL A   1      40.673  29.728  35.817  1.00  0.00     0.413 C 
ATOM     14  O   UNL A   1      41.656  29.712  36.549  1.00  0.00    -0.224 OA
ATOM     15  N   UNL A   1      39.620  30.574  36.077  1.00  0.00    -0.258 N 
ATOM     16  H   UNL A   1      39.754  31.106  36.895  1.00  0.00     0.176 HD
ATOM     17  O   UNL A   1      37.642  31.620  36.026  1.00  0.00    -0.271 OA
BRANCH  13  18
ATOM     18  O   UNL A   1      40.505  28.948  34.728  1.00  0.00    -0.450 OA
BRANCH  18  19
ATOM     19  C   UNL A   1      41.528  27.969  34.492  1.00  0.00     0.231 C 
ATOM     20  C   UNL A   1      42.491  28.435  33.414  1.00  0.00     0.049 C 
ENDBRANCH  18  19
ENDBRANCH  13  18
ENDBRANCH  11  12
ENDBRANCH  10  11
ENDBRANCH   6  10
ENDBRANCH   3   5
ENDBRANCH   2   3
ENDBRANCH   1   2
BRANCH   1  21
ATOM     21  C   UNL A   1      32.935  35.525  29.645  1.00  0.00     0.202 C 
BRANCH  21  22
ATOM     22  O   UNL A   1      34.109  35.717  28.855  1.00  0.00    -0.374 OA
BRANCH  22  23
ATOM     23  C   UNL A   1      34.773  34.529  28.415  1.00  0.00     0.202 C 
BRANCH  23  24
ATOM     24  C   UNL A   1      33.920  33.260  28.501  1.00  0.00     0.261 C 
BRANCH  24  25
ATOM     25  O   UNL A   1      34.681  32.179  29.073  1.00  0.00    -0.460 OA
BRANCH  25  26
ATOM     26  C   UNL A   1      34.619  31.010  28.393  1.00  0.00     0.338 C 
ATOM     27  O   UNL A   1      33.701  30.600  27.706  1.00  0.00    -0.246 OA
BRANCH  26  28
ATOM     28  C   UNL A   1      35.932  30.333  28.454  1.00  0.00     0.060 A 
ATOM     29  C   UNL A   1      36.299  29.752  29.673  1.00  0.00     0.016 A 
ATOM     30  C   UNL A   1      36.805  30.302  27.363  1.00  0.00     0.016 A 
ATOM     31  C   UNL A   1      37.561  29.183  29.823  1.00  0.00     0.010 A 
ATOM     32  C   UNL A   1      38.075  29.736  27.517  1.00  0.00     0.010 A 
ATOM     33  C   UNL A   1      38.470  29.207  28.759  1.00  0.00    -0.014 A 
BRANCH  33  34
ATOM     34  C   UNL A   1      39.881  28.818  28.994  1.00  0.00     0.031 A 
ATOM     35  C   UNL A   1      40.793  29.783  29.697  1.00  0.00     0.074 A 
ATOM     36  C   UNL A   1      40.335  27.609  28.623  1.00  0.00     0.049 A 
ATOM     37  N   UNL A   1      42.059  29.656  30.004  1.00  0.00    -0.248 NA
ATOM     38  C   UNL A   1      40.197  31.063  30.109  1.00  0.00     0.031 C 
ATOM     39  C   UNL A   1      39.539  26.569  27.974  1.00  0.00     0.029 A 
ATOM     40  N   UNL A   1      41.584  27.054  28.743  1.00  0.00    -0.354 N 
ATOM     41  C   UNL A   1      42.410  30.837  30.646  1.00  0.00     0.074 A 
ATOM     42  C   UNL A   1      41.234  31.681  30.654  1.00  0.00     0.031 C 
ATOM     43  C   UNL A   1      40.321  25.498  27.753  1.00  0.00     0.029 A 
ATOM     44  C   UNL A   1      41.676  25.789  28.220  1.00  0.00     0.049 A 
ATOM     45  H   UNL A   1      42.343  27.520  29.163  1.00  0.00     0.167 HD
ATOM     46  C   UNL A   1      43.599  31.183  31.191  1.00  0.00     0.037 A 
ATOM     47  C   UNL A   1      42.736  24.965  28.121  1.00  0.00     0.037 A 
ATOM     48  C   UNL A   1      44.772  30.349  31.178  1.00  0.00     0.049 A 
ATOM     49  C   UNL A   1      44.072  25.407  28.654  1.00  0.00     0.074 A 
ATOM     50  C   UNL A   1      46.022  30.607  31.715  1.00  0.00     0.029 A 
ATOM     51  N   UNL A   1      44.840  29.096  30.589  1.00  0.00    -0.354 N 
ATOM     52  N   UNL A   1      44.389  26.517  29.274  1.00  0.00    -0.248 NA
ATOM     53  C   UNL A   1      45.199  24.480  28.469  1.00  0.00     0.031 C 
ATOM     54  C   UNL A   1      46.858  29.527  31.413  1.00  0.00     0.029 A 
ATOM     55  C   UNL A   1      46.117  28.579  30.724  1.00  0.00     0.049 A 
ATOM     56  H   UNL A   1      44.091  28.642  30.139  1.00  0.00     0.167 HD
ATOM     57  C   UNL A   1      45.741  26.412  29.579  1.00  0.00     0.074 A 
ATOM     58  C   UNL A   1      46.183  25.126  29.078  1.00  0.00     0.031 C 
ATOM     59  C   UNL A   1      46.541  27.297  30.221  1.00  0.00     0.037 A 
BRANCH  46  60
ATOM     60  C   UNL A   1      43.689  32.541  31.821  1.00  0.00     0.057 A 
ATOM     61  C   UNL A   1      43.447  32.738  33.188  1.00  0.00     0.134 A 
ATOM     62  C   UNL A   1      44.016  33.665  31.054  1.00  0.00     0.134 A 
ATOM     63  F   UNL A   1      43.111  31.704  33.974  1.00  0.00    -0.206 F 
ATOM     64  C   UNL A   1      43.498  34.009  33.761  1.00  0.00     0.040 A 
ATOM     65  C   UNL A   1      44.094  34.938  31.620  1.00  0.00     0.040 A 
ATOM     66  F   UNL A   1      44.262  33.545  29.739  1.00  0.00    -0.206 F 
ATOM     67  C   UNL A   1      43.826  35.114  32.976  1.00  0.00     0.006 A 
ENDBRANCH  46  60
BRANCH  47  68
ATOM     68  C   UNL A   1      42.578  23.632  27.493  1.00  0.00     0.057 A 
ATOM     69  C   UNL A   1      42.637  23.478  26.103  1.00  0.00     0.134 A 
ATOM     70  C   UNL A   1      42.361  22.482  28.263  1.00  0.00     0.134 A 
ATOM     71  F   UNL A   1      42.818  24.546  25.314  1.00  0.00    -0.206 F 
ATOM     72  C   UNL A   1      42.480  22.229  25.500  1.00  0.00     0.040 A 
ATOM     73  C   UNL A   1      42.223  21.225  27.674  1.00  0.00     0.040 A 
ATOM     74  F   UNL A   1      42.294  22.567  29.600  1.00  0.00    -0.206 F 
ATOM     75  C   UNL A   1      42.279  21.097  26.288  1.00  0.00     0.006 A 
ENDBRANCH  47  68
BRANCH  59  76
ATOM     76  C   UNL A   1      47.970  26.895  30.446  1.00  0.00     0.057 A 
ATOM     77  C   UNL A   1      48.947  27.057  29.455  1.00  0.00     0.134 A 
ATOM     78  C   UNL A   1      48.379  26.379  31.682  1.00  0.00     0.134 A 
ATOM     79  F   UNL A   1      48.617  27.534  28.246  1.00  0.00    -0.206 F 
ATOM     80  C   UNL A   1      50.278  26.703  29.682  1.00  0.00     0.040 A 
ATOM     81  C   UNL A   1      49.711  26.043  31.927  1.00  0.00     0.040 A 
ATOM     82  F   UNL A   1      47.492  26.207  32.675  1.00  0.00    -0.206 F 
ATOM     83  C   UNL A   1      50.664  26.200  30.924  1.00  0.00     0.006 A 
ENDBRANCH  59  76
ENDBRANCH  33  34
ENDBRANCH  26  28
ENDBRANCH  25  26
ENDBRANCH  24  25
ENDBRANCH  23  24
ENDBRANCH  22  23
ENDBRANCH  21  22
ENDBRANCH   1  21
TORSDOF 19
ENDMDL
MODEL 3
REMARK VINA RESULT:      -9.6      3.149      8.258
REMARK SMILES CCOC(=O)NC(=O)COc1csc(C(=O)OCCOCCOC(=O)c2ccc(-c3c4nc(c(-c5c(F)cccc5F)c5ccc([nH]5)c(-c5c(F)cccc5F)c5nc(c(-c6c(F)cccc6F)c6ccc3[nH]6)C=C5)C=C4)cc2)c1
REMARK SMILES IDX 18 1 17 2 15 3 16 4 14 5 11 6 12 7 80 8 13 9 10 10 9 11 7 12
REMARK SMILES IDX 4 13 5 14 6 15 8 17 3 18 2 19 1 20 19 21 20 22 21 23 22 24
REMARK SMILES IDX 23 25 24 26 25 27 26 28 27 29 79 30 28 31 78 32 29 33 30 34
REMARK SMILES IDX 31 35 72 36 32 37 77 38 71 39 73 40 33 41 76 42 70 43 69 44
REMARK SMILES IDX 34 46 60 47 43 48 59 49 44 50 47 51 58 52 74 53 45 54 46 55
REMARK SMILES IDX 57 57 75 58 48 59 35 60 36 61 41 62 37 63 38 64 40 65 42 66
REMARK SMILES IDX 39 67 61 68 62 69 67 70 63 71 64 72 66 73 68 74 65 75 49 76
REMARK SMILES IDX 50 77 55 78 51 79 52 80 54 81 56 82 53 83
REMARK H PARENT 6 16 73 45 47 56
REMARK Flexibility Score: inf
ROOT
ATOM      1  C   UNL A   1      40.584  20.882  26.801  1.00  0.00     0.261 C 
ENDROOT
BRANCH   1   2
ATOM      2  O   UNL A   1      39.771  21.535  25.811  1.00  0.00    -0.459 OA
BRANCH   2   3
ATOM      3  C   UNL A   1      38.962  22.532  26.273  1.00  0.00     0.348 C 
ATOM      4  O   UNL A   1      39.319  23.413  27.047  1.00  0.00    -0.245 OA
BRANCH   3   5
ATOM      5  C   UNL A   1      37.672  22.445  25.622  1.00  0.00     0.116 A 
ATOM      6  C   UNL A   1      35.552  22.907  24.743  1.00  0.00     0.131 A 
ATOM      7  C   UNL A   1      35.609  21.538  24.616  1.00  0.00     0.112 A 
ATOM      8  C   UNL A   1      36.730  23.424  25.365  1.00  0.00     0.074 A 
ATOM      9  S   UNL A   1      37.118  20.905  25.116  1.00  0.00    -0.133 S 
BRANCH   6  10
ATOM     10  O   UNL A   1      34.564  23.741  24.338  1.00  0.00    -0.483 OA
BRANCH  10  11
ATOM     11  C   UNL A   1      33.241  23.453  24.740  1.00  0.00     0.329 C 
BRANCH  11  12
ATOM     12  C   UNL A   1      32.794  23.516  26.208  1.00  0.00     0.267 C 
ATOM     13  C   UNL A   1      31.416  25.645  26.116  1.00  0.00     0.413 C 
ATOM     14  O   UNL A   1      30.671  26.360  26.774  1.00  0.00    -0.224 OA
ATOM     15  N   UNL A   1      31.969  24.513  26.668  1.00  0.00    -0.258 N 
ATOM     16  H   UNL A   1      31.715  24.389  27.611  1.00  0.00     0.176 HD
ATOM     17  O   UNL A   1      33.189  22.670  27.019  1.00  0.00    -0.271 OA
BRANCH  13  18
ATOM     18  O   UNL A   1      31.781  25.875  24.837  1.00  0.00    -0.450 OA
BRANCH  18  19
ATOM     19  C   UNL A   1      32.761  26.904  24.638  1.00  0.00     0.231 C 
ATOM     20  C   UNL A   1      33.148  27.013  23.173  1.00  0.00     0.049 C 
ENDBRANCH  18  19
ENDBRANCH  13  18
ENDBRANCH  11  12
ENDBRANCH  10  11
ENDBRANCH   6  10
ENDBRANCH   3   5
ENDBRANCH   2   3
ENDBRANCH   1   2
BRANCH   1  21
ATOM     21  C   UNL A   1      41.654  20.024  26.119  1.00  0.00     0.202 C 
BRANCH  21  22
ATOM     22  O   UNL A   1      42.993  20.401  26.444  1.00  0.00    -0.374 OA
BRANCH  22  23
ATOM     23  C   UNL A   1      43.910  20.472  25.348  1.00  0.00     0.202 C 
BRANCH  23  24
ATOM     24  C   UNL A   1      44.183  21.891  24.842  1.00  0.00     0.261 C 
BRANCH  24  25
ATOM     25  O   UNL A   1      44.225  22.818  25.943  1.00  0.00    -0.460 OA
BRANCH  25  26
ATOM     26  C   UNL A   1      44.433  24.111  25.598  1.00  0.00     0.338 C 
ATOM     27  O   UNL A   1      45.050  24.530  24.635  1.00  0.00    -0.246 OA
BRANCH  26  28
ATOM     28  C   UNL A   1      43.643  24.992  26.482  1.00  0.00     0.060 A 
ATOM     29  C   UNL A   1      44.050  26.327  26.587  1.00  0.00     0.016 A 
ATOM     30  C   UNL A   1      42.558  24.522  27.227  1.00  0.00     0.016 A 
ATOM     31  C   UNL A   1      43.407  27.185  27.476  1.00  0.00     0.010 A 
ATOM     32  C   UNL A   1      41.917  25.382  28.124  1.00  0.00     0.010 A 
ATOM     33  C   UNL A   1      42.362  26.708  28.278  1.00  0.00    -0.014 A 
BRANCH  33  34
ATOM     34  C   UNL A   1      41.844  27.551  29.381  1.00  0.00     0.031 A 
ATOM     35  C   UNL A   1      42.547  27.522  30.709  1.00  0.00     0.074 A 
ATOM     36  C   UNL A   1      40.787  28.359  29.194  1.00  0.00     0.049 A 
ATOM     37  N   UNL A   1      42.268  28.171  31.811  1.00  0.00    -0.248 NA
ATOM     38  C   UNL A   1      43.723  26.644  30.807  1.00  0.00     0.031 C 
ATOM     39  C   UNL A   1      40.048  28.509  27.943  1.00  0.00     0.029 A 
ATOM     40  N   UNL A   1      40.154  29.208  30.066  1.00  0.00    -0.354 N 
ATOM     41  C   UNL A   1      43.233  27.782  32.731  1.00  0.00     0.074 A 
ATOM     42  C   UNL A   1      44.083  26.815  32.070  1.00  0.00     0.031 C 
ATOM     43  C   UNL A   1      39.059  29.401  28.127  1.00  0.00     0.029 A 
ATOM     44  C   UNL A   1      39.081  29.862  29.515  1.00  0.00     0.049 A 
ATOM     45  H   UNL A   1      40.442  29.336  30.999  1.00  0.00     0.167 HD
ATOM     46  C   UNL A   1      43.403  28.199  34.007  1.00  0.00     0.037 A 
ATOM     47  C   UNL A   1      38.210  30.724  30.071  1.00  0.00     0.037 A 
ATOM     48  C   UNL A   1      42.554  29.155  34.669  1.00  0.00     0.049 A 
ATOM     49  C   UNL A   1      38.365  31.107  31.518  1.00  0.00     0.074 A 
ATOM     50  C   UNL A   1      42.653  29.651  35.958  1.00  0.00     0.029 A 
ATOM     51  N   UNL A   1      41.443  29.752  34.093  1.00  0.00    -0.354 N 
ATOM     52  N   UNL A   1      39.291  30.747  32.374  1.00  0.00    -0.248 NA
ATOM     53  C   UNL A   1      37.351  32.014  32.076  1.00  0.00     0.031 C 
ATOM     54  C   UNL A   1      41.576  30.517  36.175  1.00  0.00     0.029 A 
ATOM     55  C   UNL A   1      40.831  30.591  35.008  1.00  0.00     0.049 A 
ATOM     56  H   UNL A   1      41.135  29.600  33.171  1.00  0.00     0.167 HD
ATOM     57  C   UNL A   1      38.988  31.404  33.561  1.00  0.00     0.074 A 
ATOM     58  C   UNL A   1      37.795  32.188  33.313  1.00  0.00     0.031 C 
ATOM     59  C   UNL A   1      39.644  31.366  34.746  1.00  0.00     0.037 A 
BRANCH  46  60
ATOM     60  C   UNL A   1      44.541  27.596  34.773  1.00  0.00     0.057 A 
ATOM     61  C   UNL A   1      44.384  26.425  35.529  1.00  0.00     0.134 A 
ATOM     62  C   UNL A   1      45.807  28.192  34.761  1.00  0.00     0.134 A 
ATOM     63  F   UNL A   1      43.191  25.815  35.596  1.00  0.00    -0.206 F 
ATOM     64  C   UNL A   1      45.439  25.888  36.268  1.00  0.00     0.040 A 
ATOM     65  C   UNL A   1      46.876  27.651  35.476  1.00  0.00     0.040 A 
ATOM     66  F   UNL A   1      46.026  29.313  34.056  1.00  0.00    -0.206 F 
ATOM     67  C   UNL A   1      46.691  26.500  36.240  1.00  0.00     0.006 A 
ENDBRANCH  46  60
BRANCH  47  68
ATOM     68  C   UNL A   1      37.110  31.292  29.254  1.00  0.00     0.057 A 
ATOM     69  C   UNL A   1      37.179  32.601  28.764  1.00  0.00     0.134 A 
ATOM     70  C   UNL A   1      35.967  30.544  28.948  1.00  0.00     0.134 A 
ATOM     71  F   UNL A   1      38.239  33.371  29.045  1.00  0.00    -0.206 F 
ATOM     72  C   UNL A   1      36.147  33.148  28.001  1.00  0.00     0.040 A 
ATOM     73  C   UNL A   1      34.936  31.073  28.169  1.00  0.00     0.040 A 
ATOM     74  F   UNL A   1      35.843  29.285  29.391  1.00  0.00    -0.206 F 
ATOM     75  C   UNL A   1      35.023  32.381  27.697  1.00  0.00     0.006 A 
ENDBRANCH  47  68
BRANCH  59  76
ATOM     76  C   UNL A   1      39.104  32.217  35.858  1.00  0.00     0.057 A 
ATOM     77  C   UNL A   1      38.206  31.711  36.805  1.00  0.00     0.134 A 
ATOM     78  C   UNL A   1      39.523  33.546  36.005  1.00  0.00     0.134 A 
ATOM     79  F   UNL A   1      37.757  30.451  36.712  1.00  0.00    -0.206 F 
ATOM     80  C   UNL A   1      37.728  32.504  37.851  1.00  0.00     0.040 A 
ATOM     81  C   UNL A   1      39.069  34.341  37.059  1.00  0.00     0.040 A 
ATOM     82  F   UNL A   1      40.389  34.088  35.135  1.00  0.00    -0.206 F 
ATOM     83  C   UNL A   1      38.165  33.821  37.983  1.00  0.00     0.006 A 
ENDBRANCH  59  76
ENDBRANCH  33  34
ENDBRANCH  26  28
ENDBRANCH  25  26
ENDBRANCH  24  25
ENDBRANCH  23  24
ENDBRANCH  22  23
ENDBRANCH  21  22
ENDBRANCH   1  21
TORSDOF 19
ENDMDL
