MODEL 1
REMARK VINA RESULT:     -12.7      0.000      0.000
REMARK SMILES O=C(OCCOCCOC(=O)c1ccc(N2C(=O)C[C@H]([NH+]3CCN(c4ccc(F)cc4)CC3)C2=O)cc1)c1ccc(-c2c3nc(c(-c4c(F)cccc4F)c4ccc([nH]4)c(-c4c(F)cccc4F)c4nc(c(-c5c(F)cccc5F)c5ccc2[nH]5)C=C4)C=C3)cc1
REMARK SMILES IDX 7 1 6 2 5 3 4 4 3 5 2 6 1 7 38 8 39 9 91 10 40 11 90 12
REMARK SMILES IDX 41 13 42 14 43 15 84 16 44 17 89 18 83 19 85 20 45 21 88 22
REMARK SMILES IDX 82 23 81 24 46 26 72 27 55 28 71 29 56 30 59 31 70 32 86 33
REMARK SMILES IDX 57 34 58 35 69 37 87 38 60 39 47 40 48 41 53 42 49 43 50 44
REMARK SMILES IDX 52 45 54 46 51 47 73 48 74 49 79 50 75 51 76 52 78 53 80 54
REMARK SMILES IDX 77 55 61 56 62 57 67 58 63 59 64 60 66 61 68 62 65 63 8 64
REMARK SMILES IDX 9 65 10 66 11 67 12 68 13 69 37 70 14 71 36 72 15 73 16 74
REMARK SMILES IDX 17 75 34 76 18 77 19 78 20 79 35 80 21 81 22 82 33 83 23 85
REMARK SMILES IDX 32 86 24 87 25 88 26 89 31 90 27 91 30 92 28 93 29 94
REMARK H PARENT 85 25 59 36 21 84
REMARK Flexibility Score: inf
ROOT
ATOM      1  C   UNL A   1      43.023  19.526  25.730  1.00  0.00     0.202 C 
ENDROOT
BRANCH   1   2
ATOM      2  O   UNL A   1      43.865  20.126  24.733  1.00  0.00    -0.374 OA
BRANCH   2   3
ATOM      3  C   UNL A   1      44.470  21.371  25.096  1.00  0.00     0.202 C 
BRANCH   3   4
ATOM      4  C   UNL A   1      44.421  22.460  24.023  1.00  0.00     0.261 C 
BRANCH   4   5
ATOM      5  O   UNL A   1      43.788  23.641  24.538  1.00  0.00    -0.460 OA
BRANCH   5   6
ATOM      6  C   UNL A   1      44.368  24.718  25.116  1.00  0.00     0.338 C 
ATOM      7  O   UNL A   1      45.497  25.042  24.757  1.00  0.00    -0.246 OA
BRANCH   6   8
ATOM      8  C   UNL A   1      43.703  25.552  26.161  1.00  0.00     0.060 A 
ATOM      9  C   UNL A   1      43.898  26.923  26.342  1.00  0.00     0.016 A 
ATOM     10  C   UNL A   1      42.746  24.912  26.968  1.00  0.00     0.016 A 
ATOM     11  C   UNL A   1      43.247  27.624  27.345  1.00  0.00     0.010 A 
ATOM     12  C   UNL A   1      42.048  25.619  27.951  1.00  0.00     0.010 A 
ATOM     13  C   UNL A   1      42.326  26.973  28.158  1.00  0.00    -0.014 A 
BRANCH  13  14
ATOM     14  C   UNL A   1      41.781  27.722  29.303  1.00  0.00     0.031 A 
ATOM     15  C   UNL A   1      42.574  27.741  30.572  1.00  0.00     0.074 A 
ATOM     16  C   UNL A   1      40.689  28.486  29.136  1.00  0.00     0.049 A 
ATOM     17  N   UNL A   1      42.313  28.335  31.704  1.00  0.00    -0.248 NA
ATOM     18  C   UNL A   1      43.847  26.999  30.559  1.00  0.00     0.031 C 
ATOM     19  C   UNL A   1      39.939  28.621  27.884  1.00  0.00     0.029 A 
ATOM     20  N   UNL A   1      40.048  29.326  30.004  1.00  0.00    -0.354 N 
ATOM     21  C   UNL A   1      43.368  28.013  32.546  1.00  0.00     0.074 A 
ATOM     22  C   UNL A   1      44.275  27.171  31.799  1.00  0.00     0.031 C 
ATOM     23  C   UNL A   1      38.960  29.523  28.057  1.00  0.00     0.029 A 
ATOM     24  C   UNL A   1      38.976  29.977  29.442  1.00  0.00     0.049 A 
ATOM     25  H   UNL A   1      40.326  29.453  30.939  1.00  0.00     0.167 HD
ATOM     26  C   UNL A   1      43.549  28.383  33.834  1.00  0.00     0.037 A 
ATOM     27  C   UNL A   1      38.100  30.829  30.006  1.00  0.00     0.037 A 
ATOM     28  C   UNL A   1      42.628  29.225  34.547  1.00  0.00     0.049 A 
ATOM     29  C   UNL A   1      38.281  31.161  31.461  1.00  0.00     0.074 A 
ATOM     30  C   UNL A   1      42.657  29.620  35.870  1.00  0.00     0.029 A 
ATOM     31  N   UNL A   1      41.503  29.807  33.974  1.00  0.00    -0.354 N 
ATOM     32  N   UNL A   1      39.238  30.793  32.280  1.00  0.00    -0.248 NA
ATOM     33  C   UNL A   1      37.255  32.012  32.076  1.00  0.00     0.031 C 
ATOM     34  C   UNL A   1      41.525  30.410  36.108  1.00  0.00     0.029 A 
ATOM     35  C   UNL A   1      40.820  30.547  34.921  1.00  0.00     0.049 A 
ATOM     36  H   UNL A   1      41.232  29.707  33.033  1.00  0.00     0.167 HD
ATOM     37  C   UNL A   1      38.946  31.384  33.501  1.00  0.00     0.074 A 
ATOM     38  C   UNL A   1      37.727  32.147  33.308  1.00  0.00     0.031 C 
ATOM     39  C   UNL A   1      39.617  31.304  34.678  1.00  0.00     0.037 A 
BRANCH  26  40
ATOM     40  C   UNL A   1      44.733  27.798  34.545  1.00  0.00     0.057 A 
ATOM     41  C   UNL A   1      44.655  26.611  35.285  1.00  0.00     0.134 A 
ATOM     42  C   UNL A   1      45.959  28.476  34.541  1.00  0.00     0.134 A 
ATOM     43  F   UNL A   1      43.500  25.930  35.359  1.00  0.00    -0.206 F 
ATOM     44  C   UNL A   1      45.743  26.139  36.025  1.00  0.00     0.040 A 
ATOM     45  C   UNL A   1      47.060  28.001  35.256  1.00  0.00     0.040 A 
ATOM     46  F   UNL A   1      46.101  29.622  33.859  1.00  0.00    -0.206 F 
ATOM     47  C   UNL A   1      46.951  26.835  36.010  1.00  0.00     0.006 A 
ENDBRANCH  26  40
BRANCH  27  48
ATOM     48  C   UNL A   1      36.978  31.394  29.211  1.00  0.00     0.057 A 
ATOM     49  C   UNL A   1      36.999  32.718  28.759  1.00  0.00     0.134 A 
ATOM     50  C   UNL A   1      35.853  30.624  28.888  1.00  0.00     0.134 A 
ATOM     51  F   UNL A   1      38.037  33.515  29.051  1.00  0.00    -0.206 F 
ATOM     52  C   UNL A   1      35.939  33.259  28.028  1.00  0.00     0.040 A 
ATOM     53  C   UNL A   1      34.799  31.143  28.134  1.00  0.00     0.040 A 
ATOM     54  F   UNL A   1      35.768  29.346  29.288  1.00  0.00    -0.206 F 
ATOM     55  C   UNL A   1      34.836  32.469  27.708  1.00  0.00     0.006 A 
ENDBRANCH  27  48
BRANCH  39  56
ATOM     56  C   UNL A   1      39.066  32.101  35.820  1.00  0.00     0.057 A 
ATOM     57  C   UNL A   1      38.224  31.531  36.782  1.00  0.00     0.134 A 
ATOM     58  C   UNL A   1      39.418  33.448  35.975  1.00  0.00     0.134 A 
ATOM     59  F   UNL A   1      37.842  30.250  36.679  1.00  0.00    -0.206 F 
ATOM     60  C   UNL A   1      37.733  32.281  37.850  1.00  0.00     0.040 A 
ATOM     61  C   UNL A   1      38.955  34.200  37.052  1.00  0.00     0.040 A 
ATOM     62  F   UNL A   1      40.228  34.046  35.089  1.00  0.00    -0.206 F 
ATOM     63  C   UNL A   1      38.104  33.618  37.991  1.00  0.00     0.006 A 
ENDBRANCH  39  56
ENDBRANCH  13  14
ENDBRANCH   6   8
ENDBRANCH   5   6
ENDBRANCH   4   5
ENDBRANCH   3   4
ENDBRANCH   2   3
ENDBRANCH   1   2
BRANCH   1  64
ATOM     64  C   UNL A   1      42.369  20.617  26.586  1.00  0.00     0.261 C 
BRANCH  64  65
ATOM     65  O   UNL A   1      41.054  20.853  26.068  1.00  0.00    -0.460 OA
BRANCH  65  66
ATOM     66  C   UNL A   1      40.306  21.662  26.865  1.00  0.00     0.338 C 
ATOM     67  O   UNL A   1      40.677  22.290  27.829  1.00  0.00    -0.246 OA
BRANCH  66  68
ATOM     68  C   UNL A   1      39.009  21.869  26.182  1.00  0.00     0.060 A 
ATOM     69  C   UNL A   1      38.415  23.127  26.320  1.00  0.00     0.018 A 
ATOM     70  C   UNL A   1      38.424  20.891  25.369  1.00  0.00     0.018 A 
ATOM     71  C   UNL A   1      37.220  23.400  25.672  1.00  0.00     0.028 A 
ATOM     72  C   UNL A   1      37.204  21.152  24.745  1.00  0.00     0.028 A 
ATOM     73  C   UNL A   1      36.593  22.397  24.925  1.00  0.00     0.052 A 
BRANCH  73  74
ATOM     74  N   UNL A   1      35.218  22.519  24.718  1.00  0.00    -0.245 N 
ATOM     75  C   UNL A   1      34.756  23.045  23.539  1.00  0.00     0.240 C 
ATOM     76  C   UNL A   1      34.231  22.004  25.522  1.00  0.00     0.292 C 
ATOM     77  O   UNL A   1      35.408  23.487  22.604  1.00  0.00    -0.274 OA
ATOM     78  C   UNL A   1      33.275  23.080  23.586  1.00  0.00     0.176 C 
ATOM     79  C   UNL A   1      32.915  22.174  24.756  1.00  0.00     0.284 C 
ATOM     80  O   UNL A   1      34.375  21.434  26.594  1.00  0.00    -0.267 OA
BRANCH  79  81
ATOM     81  N   UNL A   1      31.745  22.515  25.583  1.00  0.00    -0.321 N 
ATOM     82  C   UNL A   1      31.993  23.199  26.862  1.00  0.00     0.284 C 
ATOM     83  C   UNL A   1      30.703  23.260  24.850  1.00  0.00     0.284 C 
ATOM     84  H   UNL A   1      31.419  21.579  25.823  1.00  0.00     0.348 HD
ATOM     85  C   UNL A   1      32.337  24.699  26.781  1.00  0.00     0.178 C 
ATOM     86  C   UNL A   1      30.915  24.783  24.680  1.00  0.00     0.178 C 
ATOM     87  N   UNL A   1      31.430  25.447  25.895  1.00  0.00    -0.360 N 
BRANCH  87  88
ATOM     88  C   UNL A   1      31.522  26.843  25.849  1.00  0.00     0.037 A 
ATOM     89  C   UNL A   1      31.138  27.592  24.722  1.00  0.00     0.029 A 
ATOM     90  C   UNL A   1      32.019  27.563  26.951  1.00  0.00     0.029 A 
ATOM     91  C   UNL A   1      31.214  28.990  24.709  1.00  0.00     0.041 A 
ATOM     92  C   UNL A   1      32.101  28.959  26.944  1.00  0.00     0.041 A 
ATOM     93  C   UNL A   1      31.692  29.661  25.823  1.00  0.00     0.123 A 
ATOM     94  F   UNL A   1      31.764  30.998  25.814  1.00  0.00    -0.207 F 
ENDBRANCH  87  88
ENDBRANCH  79  81
ENDBRANCH  73  74
ENDBRANCH  66  68
ENDBRANCH  65  66
ENDBRANCH  64  65
ENDBRANCH   1  64
TORSDOF 17
ENDMDL
MODEL 2
REMARK VINA RESULT:     -12.4      4.943     10.363
REMARK SMILES O=C(OCCOCCOC(=O)c1ccc(N2C(=O)C[C@H]([NH+]3CCN(c4ccc(F)cc4)CC3)C2=O)cc1)c1ccc(-c2c3nc(c(-c4c(F)cccc4F)c4ccc([nH]4)c(-c4c(F)cccc4F)c4nc(c(-c5c(F)cccc5F)c5ccc2[nH]5)C=C4)C=C3)cc1
REMARK SMILES IDX 7 1 6 2 5 3 4 4 3 5 2 6 1 7 38 8 39 9 91 10 40 11 90 12
REMARK SMILES IDX 41 13 42 14 43 15 84 16 44 17 89 18 83 19 85 20 45 21 88 22
REMARK SMILES IDX 82 23 81 24 46 26 72 27 55 28 71 29 56 30 59 31 70 32 86 33
REMARK SMILES IDX 57 34 58 35 69 37 87 38 60 39 47 40 48 41 53 42 49 43 50 44
REMARK SMILES IDX 52 45 54 46 51 47 73 48 74 49 79 50 75 51 76 52 78 53 80 54
REMARK SMILES IDX 77 55 61 56 62 57 67 58 63 59 64 60 66 61 68 62 65 63 8 64
REMARK SMILES IDX 9 65 10 66 11 67 12 68 13 69 37 70 14 71 36 72 15 73 16 74
REMARK SMILES IDX 17 75 34 76 18 77 19 78 20 79 35 80 21 81 22 82 33 83 23 85
REMARK SMILES IDX 32 86 24 87 25 88 26 89 31 90 27 91 30 92 28 93 29 94
REMARK H PARENT 85 25 59 36 21 84
REMARK Flexibility Score: inf
ROOT
ATOM      1  C   UNL A   1      32.974  35.814  29.813  1.00  0.00     0.202 C 
ENDROOT
BRANCH   1   2
ATOM      2  O   UNL A   1      32.932  34.827  30.853  1.00  0.00    -0.374 OA
BRANCH   2   3
ATOM      3  C   UNL A   1      34.122  34.696  31.638  1.00  0.00     0.202 C 
BRANCH   3   4
ATOM      4  C   UNL A   1      34.119  33.546  32.646  1.00  0.00     0.261 C 
BRANCH   4   5
ATOM      5  O   UNL A   1      34.993  32.495  32.209  1.00  0.00    -0.460 OA
BRANCH   5   6
ATOM      6  C   UNL A   1      36.139  32.065  32.784  1.00  0.00     0.338 C 
ATOM      7  O   UNL A   1      36.269  32.184  34.000  1.00  0.00    -0.246 OA
BRANCH   6   8
ATOM      8  C   UNL A   1      37.259  31.435  32.022  1.00  0.00     0.060 A 
ATOM      9  C   UNL A   1      38.311  30.711  32.588  1.00  0.00     0.016 A 
ATOM     10  C   UNL A   1      37.195  31.514  30.621  1.00  0.00     0.016 A 
ATOM     11  C   UNL A   1      39.318  30.164  31.810  1.00  0.00     0.010 A 
ATOM     12  C   UNL A   1      38.180  30.924  29.822  1.00  0.00     0.010 A 
ATOM     13  C   UNL A   1      39.261  30.275  30.425  1.00  0.00    -0.014 A 
BRANCH  13  14
ATOM     14  C   UNL A   1      40.430  29.816  29.657  1.00  0.00     0.031 A 
ATOM     15  C   UNL A   1      41.595  30.746  29.523  1.00  0.00     0.074 A 
ATOM     16  C   UNL A   1      40.489  28.540  29.239  1.00  0.00     0.049 A 
ATOM     17  N   UNL A   1      42.733  30.567  28.913  1.00  0.00    -0.248 NA
ATOM     18  C   UNL A   1      41.463  32.057  30.185  1.00  0.00     0.031 C 
ATOM     19  C   UNL A   1      39.443  27.535  29.452  1.00  0.00     0.029 A 
ATOM     20  N   UNL A   1      41.482  27.859  28.592  1.00  0.00    -0.354 N 
ATOM     21  C   UNL A   1      43.438  31.750  29.086  1.00  0.00     0.074 A 
ATOM     22  C   UNL A   1      42.604  32.641  29.858  1.00  0.00     0.031 C 
ATOM     23  C   UNL A   1      39.869  26.355  28.975  1.00  0.00     0.029 A 
ATOM     24  C   UNL A   1      41.183  26.536  28.370  1.00  0.00     0.049 A 
ATOM     25  H   UNL A   1      42.329  28.274  28.312  1.00  0.00     0.167 HD
ATOM     26  C   UNL A   1      44.672  32.060  28.625  1.00  0.00     0.037 A 
ATOM     27  C   UNL A   1      41.896  25.593  27.728  1.00  0.00     0.037 A 
ATOM     28  C   UNL A   1      45.478  31.147  27.862  1.00  0.00     0.049 A 
ATOM     29  C   UNL A   1      43.231  25.987  27.159  1.00  0.00     0.074 A 
ATOM     30  C   UNL A   1      46.713  31.355  27.280  1.00  0.00     0.029 A 
ATOM     31  N   UNL A   1      45.114  29.834  27.583  1.00  0.00    -0.354 N 
ATOM     32  N   UNL A   1      43.865  27.132  27.256  1.00  0.00    -0.248 NA
ATOM     33  C   UNL A   1      43.941  24.968  26.378  1.00  0.00     0.031 C 
ATOM     34  C   UNL A   1      47.078  30.179  26.612  1.00  0.00     0.029 A 
ATOM     35  C   UNL A   1      46.094  29.224  26.822  1.00  0.00     0.049 A 
ATOM     36  H   UNL A   1      44.281  29.403  27.881  1.00  0.00     0.167 HD
ATOM     37  C   UNL A   1      45.060  26.967  26.571  1.00  0.00     0.074 A 
ATOM     38  C   UNL A   1      45.065  25.604  26.074  1.00  0.00     0.031 C 
ATOM     39  C   UNL A   1      46.063  27.857  26.363  1.00  0.00     0.037 A 
BRANCH  26  40
ATOM     40  C   UNL A   1      45.152  33.459  28.869  1.00  0.00     0.057 A 
ATOM     41  C   UNL A   1      45.917  33.808  29.989  1.00  0.00     0.134 A 
ATOM     42  C   UNL A   1      44.781  34.490  27.995  1.00  0.00     0.134 A 
ATOM     43  F   UNL A   1      46.278  32.874  30.884  1.00  0.00    -0.206 F 
ATOM     44  C   UNL A   1      46.266  35.136  30.251  1.00  0.00     0.040 A 
ATOM     45  C   UNL A   1      45.145  35.817  28.233  1.00  0.00     0.040 A 
ATOM     46  F   UNL A   1      44.041  34.228  26.908  1.00  0.00    -0.206 F 
ATOM     47  C   UNL A   1      45.880  36.145  29.370  1.00  0.00     0.006 A 
ENDBRANCH  26  40
BRANCH  27  48
ATOM     48  C   UNL A   1      41.357  24.216  27.571  1.00  0.00     0.057 A 
ATOM     49  C   UNL A   1      41.845  23.150  28.335  1.00  0.00     0.134 A 
ATOM     50  C   UNL A   1      40.342  23.932  26.647  1.00  0.00     0.134 A 
ATOM     51  F   UNL A   1      42.831  23.350  29.222  1.00  0.00    -0.206 F 
ATOM     52  C   UNL A   1      41.355  21.852  28.177  1.00  0.00     0.040 A 
ATOM     53  C   UNL A   1      39.824  22.644  26.499  1.00  0.00     0.040 A 
ATOM     54  F   UNL A   1      39.827  24.907  25.884  1.00  0.00    -0.206 F 
ATOM     55  C   UNL A   1      40.336  21.597  27.260  1.00  0.00     0.006 A 
ENDBRANCH  27  48
BRANCH  39  56
ATOM     56  C   UNL A   1      47.258  27.359  25.611  1.00  0.00     0.057 A 
ATOM     57  C   UNL A   1      47.385  27.530  24.227  1.00  0.00     0.134 A 
ATOM     58  C   UNL A   1      48.310  26.735  26.291  1.00  0.00     0.134 A 
ATOM     59  F   UNL A   1      46.402  28.109  23.519  1.00  0.00    -0.206 F 
ATOM     60  C   UNL A   1      48.510  27.077  23.541  1.00  0.00     0.040 A 
ATOM     61  C   UNL A   1      49.452  26.302  25.621  1.00  0.00     0.040 A 
ATOM     62  F   UNL A   1      48.249  26.551  27.618  1.00  0.00    -0.206 F 
ATOM     63  C   UNL A   1      49.552  26.467  24.240  1.00  0.00     0.006 A 
ENDBRANCH  39  56
ENDBRANCH  13  14
ENDBRANCH   6   8
ENDBRANCH   5   6
ENDBRANCH   4   5
ENDBRANCH   3   4
ENDBRANCH   2   3
ENDBRANCH   1   2
BRANCH   1  64
ATOM     64  C   UNL A   1      33.758  35.274  28.611  1.00  0.00     0.261 C 
BRANCH  64  65
ATOM     65  O   UNL A   1      33.285  33.948  28.338  1.00  0.00    -0.460 OA
BRANCH  65  66
ATOM     66  C   UNL A   1      34.290  33.042  28.210  1.00  0.00     0.338 C 
ATOM     67  O   UNL A   1      35.406  33.111  28.670  1.00  0.00    -0.246 OA
BRANCH  66  68
ATOM     68  C   UNL A   1      33.697  31.812  27.638  1.00  0.00     0.060 A 
ATOM     69  C   UNL A   1      34.511  30.675  27.601  1.00  0.00     0.018 A 
ATOM     70  C   UNL A   1      32.363  31.747  27.218  1.00  0.00     0.018 A 
ATOM     71  C   UNL A   1      34.004  29.480  27.115  1.00  0.00     0.028 A 
ATOM     72  C   UNL A   1      31.862  30.554  26.697  1.00  0.00     0.028 A 
ATOM     73  C   UNL A   1      32.696  29.434  26.620  1.00  0.00     0.052 A 
BRANCH  73  74
ATOM     74  N   UNL A   1      32.391  28.415  25.714  1.00  0.00    -0.245 N 
ATOM     75  C   UNL A   1      31.674  27.327  26.137  1.00  0.00     0.240 C 
ATOM     76  C   UNL A   1      32.593  28.456  24.356  1.00  0.00     0.292 C 
ATOM     77  O   UNL A   1      31.273  27.080  27.266  1.00  0.00    -0.274 OA
ATOM     78  C   UNL A   1      31.507  26.398  24.994  1.00  0.00     0.176 C 
ATOM     79  C   UNL A   1      31.875  27.234  23.776  1.00  0.00     0.284 C 
ATOM     80  O   UNL A   1      33.151  29.338  23.719  1.00  0.00    -0.267 OA
BRANCH  79  81
ATOM     81  N   UNL A   1      32.560  26.578  22.647  1.00  0.00    -0.321 N 
ATOM     82  C   UNL A   1      33.937  26.109  22.868  1.00  0.00     0.284 C 
ATOM     83  C   UNL A   1      31.782  25.479  22.045  1.00  0.00     0.284 C 
ATOM     84  H   UNL A   1      32.631  27.366  22.003  1.00  0.00     0.348 HD
ATOM     85  C   UNL A   1      34.094  24.809  23.681  1.00  0.00     0.178 C 
ATOM     86  C   UNL A   1      31.836  24.107  22.758  1.00  0.00     0.178 C 
ATOM     87  N   UNL A   1      33.186  23.740  23.232  1.00  0.00    -0.360 N 
BRANCH  87  88
ATOM     88  C   UNL A   1      33.328  22.456  23.772  1.00  0.00     0.037 A 
ATOM     89  C   UNL A   1      34.419  22.089  24.579  1.00  0.00     0.029 A 
ATOM     90  C   UNL A   1      32.365  21.463  23.516  1.00  0.00     0.029 A 
ATOM     91  C   UNL A   1      34.526  20.806  25.131  1.00  0.00     0.041 A 
ATOM     92  C   UNL A   1      32.466  20.178  24.060  1.00  0.00     0.041 A 
ATOM     93  C   UNL A   1      33.545  19.863  24.868  1.00  0.00     0.123 A 
ATOM     94  F   UNL A   1      33.644  18.637  25.395  1.00  0.00    -0.207 F 
ENDBRANCH  87  88
ENDBRANCH  79  81
ENDBRANCH  73  74
ENDBRANCH  66  68
ENDBRANCH  65  66
ENDBRANCH  64  65
ENDBRANCH   1  64
TORSDOF 17
ENDMDL
MODEL 3
REMARK VINA RESULT:     -12.1      5.061     10.227
REMARK SMILES O=C(OCCOCCOC(=O)c1ccc(N2C(=O)C[C@H]([NH+]3CCN(c4ccc(F)cc4)CC3)C2=O)cc1)c1ccc(-c2c3nc(c(-c4c(F)cccc4F)c4ccc([nH]4)c(-c4c(F)cccc4F)c4nc(c(-c5c(F)cccc5F)c5ccc2[nH]5)C=C4)C=C3)cc1
REMARK SMILES IDX 7 1 6 2 5 3 4 4 3 5 2 6 1 7 38 8 39 9 91 10 40 11 90 12
REMARK SMILES IDX 41 13 42 14 43 15 84 16 44 17 89 18 83 19 85 20 45 21 88 22
REMARK SMILES IDX 82 23 81 24 46 26 72 27 55 28 71 29 56 30 59 31 70 32 86 33
REMARK SMILES IDX 57 34 58 35 69 37 87 38 60 39 47 40 48 41 53 42 49 43 50 44
REMARK SMILES IDX 52 45 54 46 51 47 73 48 74 49 79 50 75 51 76 52 78 53 80 54
REMARK SMILES IDX 77 55 61 56 62 57 67 58 63 59 64 60 66 61 68 62 65 63 8 64
REMARK SMILES IDX 9 65 10 66 11 67 12 68 13 69 37 70 14 71 36 72 15 73 16 74
REMARK SMILES IDX 17 75 34 76 18 77 19 78 20 79 35 80 21 81 22 82 33 83 23 85
REMARK SMILES IDX 32 86 24 87 25 88 26 89 31 90 27 91 30 92 28 93 29 94
REMARK H PARENT 85 25 59 36 21 84
REMARK Flexibility Score: inf
ROOT
ATOM      1  C   UNL A   1      34.659  34.531  30.142  1.00  0.00     0.202 C 
ENDROOT
BRANCH   1   2
ATOM      2  O   UNL A   1      33.827  34.977  31.223  1.00  0.00    -0.374 OA
BRANCH   2   3
ATOM      3  C   UNL A   1      34.242  34.580  32.534  1.00  0.00     0.202 C 
BRANCH   3   4
ATOM      4  C   UNL A   1      34.001  33.109  32.880  1.00  0.00     0.261 C 
BRANCH   4   5
ATOM      5  O   UNL A   1      35.032  32.288  32.313  1.00  0.00    -0.460 OA
BRANCH   5   6
ATOM      6  C   UNL A   1      36.235  31.968  32.842  1.00  0.00     0.338 C 
ATOM      7  O   UNL A   1      36.355  31.955  34.065  1.00  0.00    -0.246 OA
BRANCH   6   8
ATOM      8  C   UNL A   1      37.430  31.611  32.021  1.00  0.00     0.060 A 
ATOM      9  C   UNL A   1      37.558  31.827  30.647  1.00  0.00     0.016 A 
ATOM     10  C   UNL A   1      38.539  31.092  32.710  1.00  0.00     0.016 A 
ATOM     11  C   UNL A   1      38.700  31.457  29.956  1.00  0.00     0.010 A 
ATOM     12  C   UNL A   1      39.716  30.760  32.031  1.00  0.00     0.010 A 
ATOM     13  C   UNL A   1      39.780  30.915  30.644  1.00  0.00    -0.014 A 
BRANCH  13  14
ATOM     14  C   UNL A   1      40.904  30.397  29.846  1.00  0.00     0.031 A 
ATOM     15  C   UNL A   1      42.111  31.266  29.683  1.00  0.00     0.074 A 
ATOM     16  C   UNL A   1      40.885  29.120  29.426  1.00  0.00     0.049 A 
ATOM     17  N   UNL A   1      43.223  31.028  29.043  1.00  0.00    -0.248 NA
ATOM     18  C   UNL A   1      42.065  32.580  30.348  1.00  0.00     0.031 C 
ATOM     19  C   UNL A   1      39.794  28.171  29.665  1.00  0.00     0.029 A 
ATOM     20  N   UNL A   1      41.825  28.389  28.754  1.00  0.00    -0.354 N 
ATOM     21  C   UNL A   1      43.993  32.173  29.199  1.00  0.00     0.074 A 
ATOM     22  C   UNL A   1      43.226  33.105  29.992  1.00  0.00     0.031 C 
ATOM     23  C   UNL A   1      40.146  26.971  29.178  1.00  0.00     0.029 A 
ATOM     24  C   UNL A   1      41.452  27.085  28.540  1.00  0.00     0.049 A 
ATOM     25  H   UNL A   1      42.685  28.761  28.452  1.00  0.00     0.167 HD
ATOM     26  C   UNL A   1      45.229  32.418  28.707  1.00  0.00     0.037 A 
ATOM     27  C   UNL A   1      42.098  26.106  27.879  1.00  0.00     0.037 A 
ATOM     28  C   UNL A   1      45.967  31.466  27.923  1.00  0.00     0.049 A 
ATOM     29  C   UNL A   1      43.437  26.431  27.276  1.00  0.00     0.074 A 
ATOM     30  C   UNL A   1      47.196  31.611  27.310  1.00  0.00     0.029 A 
ATOM     31  N   UNL A   1      45.528  30.175  27.653  1.00  0.00    -0.354 N 
ATOM     32  N   UNL A   1      44.132  27.542  27.358  1.00  0.00    -0.248 NA
ATOM     33  C   UNL A   1      44.073  25.378  26.477  1.00  0.00     0.031 C 
ATOM     34  C   UNL A   1      47.482  30.419  26.633  1.00  0.00     0.029 A 
ATOM     35  C   UNL A   1      46.455  29.515  26.868  1.00  0.00     0.049 A 
ATOM     36  H   UNL A   1      44.682  29.787  27.972  1.00  0.00     0.167 HD
ATOM     37  C   UNL A   1      45.299  27.316  26.642  1.00  0.00     0.074 A 
ATOM     38  C   UNL A   1      45.220  25.955  26.145  1.00  0.00     0.031 C 
ATOM     39  C   UNL A   1      46.341  28.153  26.409  1.00  0.00     0.037 A 
BRANCH  26  40
ATOM     40  C   UNL A   1      45.787  33.791  28.939  1.00  0.00     0.057 A 
ATOM     41  C   UNL A   1      46.515  34.123  30.089  1.00  0.00     0.134 A 
ATOM     42  C   UNL A   1      45.531  34.816  28.019  1.00  0.00     0.134 A 
ATOM     43  F   UNL A   1      46.765  33.195  31.027  1.00  0.00    -0.206 F 
ATOM     44  C   UNL A   1      46.936  35.433  30.333  1.00  0.00     0.040 A 
ATOM     45  C   UNL A   1      45.969  36.124  28.241  1.00  0.00     0.040 A 
ATOM     46  F   UNL A   1      44.834  34.570  26.901  1.00  0.00    -0.206 F 
ATOM     47  C   UNL A   1      46.664  36.437  29.406  1.00  0.00     0.006 A 
ENDBRANCH  26  40
BRANCH  27  48
ATOM     48  C   UNL A   1      41.484  24.760  27.736  1.00  0.00     0.057 A 
ATOM     49  C   UNL A   1      41.922  23.673  28.500  1.00  0.00     0.134 A 
ATOM     50  C   UNL A   1      40.446  24.526  26.824  1.00  0.00     0.134 A 
ATOM     51  F   UNL A   1      42.927  23.825  29.376  1.00  0.00    -0.206 F 
ATOM     52  C   UNL A   1      41.362  22.402  28.354  1.00  0.00     0.040 A 
ATOM     53  C   UNL A   1      39.858  23.267  26.688  1.00  0.00     0.040 A 
ATOM     54  F   UNL A   1      39.976  25.523  26.061  1.00  0.00    -0.206 F 
ATOM     55  C   UNL A   1      40.321  22.197  27.450  1.00  0.00     0.006 A 
ENDBRANCH  27  48
BRANCH  39  56
ATOM     56  C   UNL A   1      47.489  27.594  25.626  1.00  0.00     0.057 A 
ATOM     57  C   UNL A   1      48.595  27.008  26.251  1.00  0.00     0.134 A 
ATOM     58  C   UNL A   1      47.462  27.611  24.226  1.00  0.00     0.134 A 
ATOM     59  F   UNL A   1      48.683  26.974  27.589  1.00  0.00    -0.206 F 
ATOM     60  C   UNL A   1      49.649  26.476  25.509  1.00  0.00     0.040 A 
ATOM     61  C   UNL A   1      48.496  27.060  23.473  1.00  0.00     0.040 A 
ATOM     62  F   UNL A   1      46.424  28.153  23.571  1.00  0.00    -0.206 F 
ATOM     63  C   UNL A   1      49.597  26.495  24.115  1.00  0.00     0.006 A 
ENDBRANCH  39  56
ENDBRANCH  13  14
ENDBRANCH   6   8
ENDBRANCH   5   6
ENDBRANCH   4   5
ENDBRANCH   3   4
ENDBRANCH   2   3
ENDBRANCH   1   2
BRANCH   1  64
ATOM     64  C   UNL A   1      33.791  33.960  29.015  1.00  0.00     0.261 C 
BRANCH  64  65
ATOM     65  O   UNL A   1      33.985  32.540  28.985  1.00  0.00    -0.460 OA
BRANCH  65  66
ATOM     66  C   UNL A   1      34.741  32.129  27.934  1.00  0.00     0.338 C 
ATOM     67  O   UNL A   1      35.813  32.565  27.584  1.00  0.00    -0.246 OA
BRANCH  66  68
ATOM     68  C   UNL A   1      34.159  30.858  27.448  1.00  0.00     0.060 A 
ATOM     69  C   UNL A   1      34.996  29.738  27.448  1.00  0.00     0.018 A 
ATOM     70  C   UNL A   1      32.815  30.743  27.073  1.00  0.00     0.018 A 
ATOM     71  C   UNL A   1      34.501  28.507  27.044  1.00  0.00     0.028 A 
ATOM     72  C   UNL A   1      32.324  29.513  26.634  1.00  0.00     0.028 A 
ATOM     73  C   UNL A   1      33.180  28.407  26.592  1.00  0.00     0.052 A 
BRANCH  73  74
ATOM     74  N   UNL A   1      32.871  27.335  25.753  1.00  0.00    -0.245 N 
ATOM     75  C   UNL A   1      33.379  27.304  24.480  1.00  0.00     0.240 C 
ATOM     76  C   UNL A   1      32.226  26.181  26.123  1.00  0.00     0.292 C 
ATOM     77  O   UNL A   1      34.068  28.147  23.923  1.00  0.00    -0.274 OA
ATOM     78  C   UNL A   1      32.885  26.080  23.805  1.00  0.00     0.176 C 
ATOM     79  C   UNL A   1      32.349  25.217  24.938  1.00  0.00     0.284 C 
ATOM     80  O   UNL A   1      31.733  25.927  27.214  1.00  0.00    -0.267 OA
BRANCH  79  81
ATOM     81  N   UNL A   1      31.167  24.373  24.688  1.00  0.00    -0.321 N 
ATOM     82  C   UNL A   1      31.041  23.758  23.358  1.00  0.00     0.284 C 
ATOM     83  C   UNL A   1      30.964  23.327  25.708  1.00  0.00     0.284 C 
ATOM     84  H   UNL A   1      30.432  25.078  24.743  1.00  0.00     0.348 HD
ATOM     85  C   UNL A   1      31.937  22.534  23.082  1.00  0.00     0.178 C 
ATOM     86  C   UNL A   1      31.805  22.036  25.568  1.00  0.00     0.178 C 
ATOM     87  N   UNL A   1      31.914  21.550  24.177  1.00  0.00    -0.360 N 
BRANCH  87  88
ATOM     88  C   UNL A   1      32.552  20.318  23.996  1.00  0.00     0.037 A 
ATOM     89  C   UNL A   1      33.640  19.903  24.787  1.00  0.00     0.029 A 
ATOM     90  C   UNL A   1      32.124  19.430  22.992  1.00  0.00     0.029 A 
ATOM     91  C   UNL A   1      34.246  18.654  24.606  1.00  0.00     0.041 A 
ATOM     92  C   UNL A   1      32.725  18.182  22.803  1.00  0.00     0.041 A 
ATOM     93  C   UNL A   1      33.779  17.803  23.617  1.00  0.00     0.123 A 
ATOM     94  F   UNL A   1      34.355  16.607  23.443  1.00  0.00    -0.207 F 
ENDBRANCH  87  88
ENDBRANCH  79  81
ENDBRANCH  73  74
ENDBRANCH  66  68
ENDBRANCH  65  66
ENDBRANCH  64  65
ENDBRANCH   1  64
TORSDOF 17
ENDMDL
