MODEL 1
REMARK VINA RESULT:     -11.0      0.000      0.000
REMARK SMILES CC(C)[C@H](C)n1c(SCC(=O)OCCOCCOC(=O)c2ccc(-c3c4nc(c(-c5c(F)cccc5F)c5ccc([nH]5)c(-c5c(F)cccc5F)c5nc(c(-c6c(F)cccc6F)c6ccc3[nH]6)C=C5)C=C4)cc2)nc2cc(Br)cnc21
REMARK SMILES IDX 14 1 13 2 12 3 10 4 11 5 9 6 8 7 7 8 6 9 82 10 75 11 76 12
REMARK SMILES IDX 81 13 77 14 80 15 78 16 79 17 4 18 5 19 2 20 1 21 3 22 15 23
REMARK SMILES IDX 16 24 17 25 18 26 19 27 20 28 21 29 22 30 74 31 23 32 73 33
REMARK SMILES IDX 24 34 25 35 26 36 67 37 27 38 72 39 66 40 68 41 28 42 71 43
REMARK SMILES IDX 65 44 64 45 29 47 55 48 38 49 54 50 39 51 42 52 53 53 69 54
REMARK SMILES IDX 40 55 41 56 52 58 70 59 43 60 30 61 31 62 36 63 32 64 33 65
REMARK SMILES IDX 35 66 37 67 34 68 56 69 57 70 62 71 58 72 59 73 61 74 63 75
REMARK SMILES IDX 60 76 44 77 45 78 50 79 46 80 47 81 49 82 51 83 48 84
REMARK H PARENT 68 46 42 57
REMARK Flexibility Score: inf
ROOT
ATOM      1  C   UNL A   1      41.874  21.088  26.467  1.00  0.00     0.202 C 
ENDROOT
BRANCH   1   2
ATOM      2  C   UNL A   1      40.408  21.146  26.989  1.00  0.00     0.261 C 
BRANCH   2   3
ATOM      3  O   UNL A   1      39.799  22.479  26.753  1.00  0.00    -0.463 OA
BRANCH   3   4
ATOM      4  C   UNL A   1      38.664  22.465  26.000  1.00  0.00     0.316 C 
ATOM      5  O   UNL A   1      38.404  21.501  25.273  1.00  0.00    -0.251 OA
BRANCH   4   6
ATOM      6  C   UNL A   1      37.672  23.637  26.036  1.00  0.00     0.200 C 
BRANCH   6   7
ATOM      7  S   UNL A   1      35.928  23.751  25.678  1.00  0.00    -0.076 SA
BRANCH   7   8
ATOM      8  C   UNL A   1      34.808  22.467  25.277  1.00  0.00     0.171 A 
ATOM      9  N   UNL A   1      33.519  22.360  24.739  1.00  0.00    -0.301 N 
ATOM     10  C   UNL A   1      33.330  20.997  24.472  1.00  0.00     0.161 A 
ATOM     11  N   UNL A   1      35.285  21.253  25.539  1.00  0.00    -0.221 NA
ATOM     12  C   UNL A   1      34.433  20.348  24.984  1.00  0.00     0.110 A 
ATOM     13  N   UNL A   1      32.321  20.442  23.758  1.00  0.00    -0.235 NA
ATOM     14  C   UNL A   1      34.533  18.963  24.800  1.00  0.00     0.049 A 
ATOM     15  C   UNL A   1      32.491  19.118  23.539  1.00  0.00     0.129 A 
ATOM     16  C   UNL A   1      33.542  18.354  24.029  1.00  0.00     0.038 A 
ATOM     17  Br  UNL A   1      33.652  16.517  23.610  1.00  0.00    -0.049 Br
BRANCH   9  18
ATOM     18  C   UNL A   1      32.550  23.278  24.129  1.00  0.00     0.091 C 
ATOM     19  C   UNL A   1      31.509  23.871  25.062  1.00  0.00     0.032 C 
BRANCH  18  20
ATOM     20  C   UNL A   1      33.074  24.207  23.045  1.00  0.00     0.006 C 
ATOM     21  C   UNL A   1      33.151  23.618  21.650  1.00  0.00     0.009 C 
ATOM     22  C   UNL A   1      32.355  25.512  23.178  1.00  0.00     0.009 C 
ENDBRANCH  18  20
ENDBRANCH   9  18
ENDBRANCH   7   8
ENDBRANCH   6   7
ENDBRANCH   4   6
ENDBRANCH   3   4
ENDBRANCH   2   3
ENDBRANCH   1   2
BRANCH   1  23
ATOM     23  O   UNL A   1      42.653  19.898  26.683  1.00  0.00    -0.374 OA
BRANCH  23  24
ATOM     24  C   UNL A   1      43.016  18.928  25.689  1.00  0.00     0.202 C 
BRANCH  24  25
ATOM     25  C   UNL A   1      44.159  19.105  24.672  1.00  0.00     0.261 C 
BRANCH  25  26
ATOM     26  O   UNL A   1      44.389  20.435  24.260  1.00  0.00    -0.460 OA
BRANCH  26  27
ATOM     27  C   UNL A   1      45.492  20.950  24.858  1.00  0.00     0.338 C 
ATOM     28  O   UNL A   1      46.465  20.349  25.238  1.00  0.00    -0.246 OA
BRANCH  27  29
ATOM     29  C   UNL A   1      45.227  22.366  25.128  1.00  0.00     0.060 A 
ATOM     30  C   UNL A   1      45.885  22.858  26.249  1.00  0.00     0.016 A 
ATOM     31  C   UNL A   1      44.227  23.095  24.457  1.00  0.00     0.016 A 
ATOM     32  C   UNL A   1      45.397  23.998  26.829  1.00  0.00     0.010 A 
ATOM     33  C   UNL A   1      43.755  24.258  25.029  1.00  0.00     0.010 A 
ATOM     34  C   UNL A   1      44.301  24.652  26.246  1.00  0.00    -0.014 A 
BRANCH  34  35
ATOM     35  C   UNL A   1      43.907  25.884  26.891  1.00  0.00     0.031 A 
ATOM     36  C   UNL A   1      44.897  26.948  26.626  1.00  0.00     0.074 A 
ATOM     37  C   UNL A   1      42.810  26.011  27.657  1.00  0.00     0.049 A 
ATOM     38  N   UNL A   1      45.782  27.394  27.452  1.00  0.00    -0.248 NA
ATOM     39  C   UNL A   1      45.101  27.379  25.232  1.00  0.00     0.031 C 
ATOM     40  C   UNL A   1      41.685  25.082  27.769  1.00  0.00     0.029 A 
ATOM     41  N   UNL A   1      42.431  27.056  28.446  1.00  0.00    -0.354 N 
ATOM     42  C   UNL A   1      46.487  28.356  26.741  1.00  0.00     0.074 A 
ATOM     43  C   UNL A   1      46.180  28.154  25.351  1.00  0.00     0.031 C 
ATOM     44  C   UNL A   1      40.653  25.708  28.378  1.00  0.00     0.029 A 
ATOM     45  C   UNL A   1      41.093  27.020  28.821  1.00  0.00     0.049 A 
ATOM     46  H   UNL A   1      43.048  27.771  28.724  1.00  0.00     0.167 HD
ATOM     47  C   UNL A   1      46.956  29.450  27.394  1.00  0.00     0.037 A 
ATOM     48  C   UNL A   1      40.404  28.044  29.383  1.00  0.00     0.037 A 
ATOM     49  C   UNL A   1      47.014  29.220  28.814  1.00  0.00     0.049 A 
ATOM     50  C   UNL A   1      41.393  28.943  30.025  1.00  0.00     0.074 A 
ATOM     51  C   UNL A   1      47.802  28.500  29.683  1.00  0.00     0.029 A 
ATOM     52  N   UNL A   1      45.833  29.485  29.453  1.00  0.00    -0.354 N 
ATOM     53  N   UNL A   1      42.090  28.612  31.077  1.00  0.00    -0.248 NA
ATOM     54  C   UNL A   1      41.880  30.109  29.296  1.00  0.00     0.031 C 
ATOM     55  C   UNL A   1      46.989  28.223  30.822  1.00  0.00     0.029 A 
ATOM     56  C   UNL A   1      45.740  28.814  30.639  1.00  0.00     0.049 A 
ATOM     57  H   UNL A   1      45.137  30.085  29.102  1.00  0.00     0.167 HD
ATOM     58  C   UNL A   1      43.306  29.237  30.890  1.00  0.00     0.074 A 
ATOM     59  C   UNL A   1      43.060  30.275  29.896  1.00  0.00     0.031 C 
ATOM     60  C   UNL A   1      44.463  28.641  31.297  1.00  0.00     0.037 A 
BRANCH  47  61
ATOM     61  C   UNL A   1      46.789  30.848  26.842  1.00  0.00     0.057 A 
ATOM     62  C   UNL A   1      47.881  31.729  26.874  1.00  0.00     0.134 A 
ATOM     63  C   UNL A   1      45.538  31.454  26.590  1.00  0.00     0.134 A 
ATOM     64  F   UNL A   1      49.114  31.284  27.161  1.00  0.00    -0.206 F 
ATOM     65  C   UNL A   1      47.732  33.112  26.700  1.00  0.00     0.040 A 
ATOM     66  C   UNL A   1      45.386  32.821  26.360  1.00  0.00     0.040 A 
ATOM     67  F   UNL A   1      44.383  30.783  26.667  1.00  0.00    -0.206 F 
ATOM     68  C   UNL A   1      46.482  33.660  26.439  1.00  0.00     0.006 A 
ENDBRANCH  47  61
BRANCH  48  69
ATOM     69  C   UNL A   1      39.005  28.471  29.136  1.00  0.00     0.057 A 
ATOM     70  C   UNL A   1      38.077  28.523  30.189  1.00  0.00     0.134 A 
ATOM     71  C   UNL A   1      38.626  29.127  27.952  1.00  0.00     0.134 A 
ATOM     72  F   UNL A   1      38.352  27.947  31.369  1.00  0.00    -0.206 F 
ATOM     73  C   UNL A   1      36.875  29.237  30.092  1.00  0.00     0.040 A 
ATOM     74  C   UNL A   1      37.425  29.835  27.840  1.00  0.00     0.040 A 
ATOM     75  F   UNL A   1      39.447  29.185  26.895  1.00  0.00    -0.206 F 
ATOM     76  C   UNL A   1      36.556  29.912  28.920  1.00  0.00     0.006 A 
ENDBRANCH  48  69
BRANCH  60  77
ATOM     77  C   UNL A   1      44.377  27.623  32.389  1.00  0.00     0.057 A 
ATOM     78  C   UNL A   1      44.218  26.246  32.189  1.00  0.00     0.134 A 
ATOM     79  C   UNL A   1      44.577  28.061  33.704  1.00  0.00     0.134 A 
ATOM     80  F   UNL A   1      44.090  25.733  30.957  1.00  0.00    -0.206 F 
ATOM     81  C   UNL A   1      44.237  25.348  33.260  1.00  0.00     0.040 A 
ATOM     82  C   UNL A   1      44.632  27.173  34.776  1.00  0.00     0.040 A 
ATOM     83  F   UNL A   1      44.768  29.365  33.959  1.00  0.00    -0.206 F 
ATOM     84  C   UNL A   1      44.455  25.810  34.557  1.00  0.00     0.006 A 
ENDBRANCH  60  77
ENDBRANCH  34  35
ENDBRANCH  27  29
ENDBRANCH  26  27
ENDBRANCH  25  26
ENDBRANCH  24  25
ENDBRANCH  23  24
ENDBRANCH   1  23
TORSDOF 18
ENDMDL
MODEL 2
REMARK VINA RESULT:     -11.0      2.009      2.888
REMARK SMILES CC(C)[C@H](C)n1c(SCC(=O)OCCOCCOC(=O)c2ccc(-c3c4nc(c(-c5c(F)cccc5F)c5ccc([nH]5)c(-c5c(F)cccc5F)c5nc(c(-c6c(F)cccc6F)c6ccc3[nH]6)C=C5)C=C4)cc2)nc2cc(Br)cnc21
REMARK SMILES IDX 14 1 13 2 12 3 10 4 11 5 9 6 8 7 7 8 6 9 82 10 75 11 76 12
REMARK SMILES IDX 81 13 77 14 80 15 78 16 79 17 4 18 5 19 2 20 1 21 3 22 15 23
REMARK SMILES IDX 16 24 17 25 18 26 19 27 20 28 21 29 22 30 74 31 23 32 73 33
REMARK SMILES IDX 24 34 25 35 26 36 67 37 27 38 72 39 66 40 68 41 28 42 71 43
REMARK SMILES IDX 65 44 64 45 29 47 55 48 38 49 54 50 39 51 42 52 53 53 69 54
REMARK SMILES IDX 40 55 41 56 52 58 70 59 43 60 30 61 31 62 36 63 32 64 33 65
REMARK SMILES IDX 35 66 37 67 34 68 56 69 57 70 62 71 58 72 59 73 61 74 63 75
REMARK SMILES IDX 60 76 44 77 45 78 50 79 46 80 47 81 49 82 51 83 48 84
REMARK H PARENT 68 46 42 57
REMARK Flexibility Score: inf
ROOT
ATOM      1  C   UNL A   1      40.507  20.146  26.629  1.00  0.00     0.202 C 
ENDROOT
BRANCH   1   2
ATOM      2  C   UNL A   1      39.850  21.472  26.143  1.00  0.00     0.261 C 
BRANCH   2   3
ATOM      3  O   UNL A   1      38.537  21.222  25.495  1.00  0.00    -0.463 OA
BRANCH   3   4
ATOM      4  C   UNL A   1      37.709  22.302  25.444  1.00  0.00     0.316 C 
ATOM      5  O   UNL A   1      38.044  23.375  25.959  1.00  0.00    -0.251 OA
BRANCH   4   6
ATOM      6  C   UNL A   1      36.346  22.226  24.742  1.00  0.00     0.200 C 
BRANCH   6   7
ATOM      7  S   UNL A   1      35.638  23.138  23.382  1.00  0.00    -0.076 SA
BRANCH   7   8
ATOM      8  C   UNL A   1      34.027  23.804  23.233  1.00  0.00     0.171 A 
ATOM      9  N   UNL A   1      32.732  23.464  23.648  1.00  0.00    -0.301 N 
ATOM     10  C   UNL A   1      31.938  24.587  23.376  1.00  0.00     0.161 A 
ATOM     11  N   UNL A   1      33.992  24.946  22.551  1.00  0.00    -0.221 NA
ATOM     12  C   UNL A   1      32.745  25.473  22.695  1.00  0.00     0.110 A 
ATOM     13  N   UNL A   1      30.668  24.802  23.793  1.00  0.00    -0.235 NA
ATOM     14  C   UNL A   1      32.214  26.723  22.348  1.00  0.00     0.049 A 
ATOM     15  C   UNL A   1      30.217  26.045  23.504  1.00  0.00     0.129 A 
ATOM     16  C   UNL A   1      30.926  27.010  22.799  1.00  0.00     0.038 A 
ATOM     17  Br  UNL A   1      30.165  28.711  22.501  1.00  0.00    -0.049 Br
BRANCH   9  18
ATOM     18  C   UNL A   1      32.137  22.449  24.524  1.00  0.00     0.091 C 
ATOM     19  C   UNL A   1      32.259  21.008  24.061  1.00  0.00     0.032 C 
BRANCH  18  20
ATOM     20  C   UNL A   1      32.264  22.677  26.022  1.00  0.00     0.006 C 
ATOM     21  C   UNL A   1      33.317  23.680  26.452  1.00  0.00     0.009 C 
ATOM     22  C   UNL A   1      30.887  22.882  26.569  1.00  0.00     0.009 C 
ENDBRANCH  18  20
ENDBRANCH   9  18
ENDBRANCH   7   8
ENDBRANCH   6   7
ENDBRANCH   4   6
ENDBRANCH   3   4
ENDBRANCH   2   3
ENDBRANCH   1   2
BRANCH   1  23
ATOM     23  O   UNL A   1      41.443  19.467  25.772  1.00  0.00    -0.374 OA
BRANCH  23  24
ATOM     24  C   UNL A   1      42.821  19.197  26.065  1.00  0.00     0.202 C 
BRANCH  24  25
ATOM     25  C   UNL A   1      43.848  18.680  25.038  1.00  0.00     0.261 C 
BRANCH  25  26
ATOM     26  O   UNL A   1      44.144  19.578  23.991  1.00  0.00    -0.460 OA
BRANCH  26  27
ATOM     27  C   UNL A   1      45.407  20.058  24.100  1.00  0.00     0.338 C 
ATOM     28  O   UNL A   1      46.436  19.433  24.028  1.00  0.00    -0.246 OA
BRANCH  27  29
ATOM     29  C   UNL A   1      45.311  21.465  24.500  1.00  0.00     0.060 A 
ATOM     30  C   UNL A   1      45.964  21.757  25.691  1.00  0.00     0.016 A 
ATOM     31  C   UNL A   1      44.451  22.380  23.864  1.00  0.00     0.016 A 
ATOM     32  C   UNL A   1      45.595  22.892  26.362  1.00  0.00     0.010 A 
ATOM     33  C   UNL A   1      44.101  23.537  24.530  1.00  0.00     0.010 A 
ATOM     34  C   UNL A   1      44.625  23.738  25.802  1.00  0.00    -0.014 A 
BRANCH  34  35
ATOM     35  C   UNL A   1      44.357  24.945  26.551  1.00  0.00     0.031 A 
ATOM     36  C   UNL A   1      45.479  25.897  26.421  1.00  0.00     0.074 A 
ATOM     37  C   UNL A   1      43.252  25.137  27.291  1.00  0.00     0.049 A 
ATOM     38  N   UNL A   1      46.376  26.150  27.312  1.00  0.00    -0.248 NA
ATOM     39  C   UNL A   1      45.793  26.425  25.082  1.00  0.00     0.031 C 
ATOM     40  C   UNL A   1      42.018  24.350  27.278  1.00  0.00     0.029 A 
ATOM     41  N   UNL A   1      42.969  26.145  28.165  1.00  0.00    -0.354 N 
ATOM     42  C   UNL A   1      47.223  27.077  26.720  1.00  0.00     0.074 A 
ATOM     43  C   UNL A   1      46.952  27.044  25.309  1.00  0.00     0.031 C 
ATOM     44  C   UNL A   1      41.045  25.042  27.912  1.00  0.00     0.029 A 
ATOM     45  C   UNL A   1      41.622  26.242  28.494  1.00  0.00     0.049 A 
ATOM     46  H   UNL A   1      43.656  26.748  28.530  1.00  0.00     0.167 HD
ATOM     47  C   UNL A   1      47.793  28.040  27.490  1.00  0.00     0.037 A 
ATOM     48  C   UNL A   1      41.040  27.288  29.130  1.00  0.00     0.037 A 
ATOM     49  C   UNL A   1      47.762  27.674  28.883  1.00  0.00     0.049 A 
ATOM     50  C   UNL A   1      42.102  27.993  29.887  1.00  0.00     0.074 A 
ATOM     51  C   UNL A   1      48.419  26.785  29.702  1.00  0.00     0.029 A 
ATOM     52  N   UNL A   1      46.596  28.025  29.507  1.00  0.00    -0.354 N 
ATOM     53  N   UNL A   1      42.708  27.482  30.923  1.00  0.00    -0.248 NA
ATOM     54  C   UNL A   1      42.758  29.152  29.289  1.00  0.00     0.031 C 
ATOM     55  C   UNL A   1      47.531  26.507  30.783  1.00  0.00     0.029 A 
ATOM     56  C   UNL A   1      46.371  27.265  30.619  1.00  0.00     0.049 A 
ATOM     57  H   UNL A   1      45.993  28.737  29.194  1.00  0.00     0.167 HD
ATOM     58  C   UNL A   1      43.999  27.964  30.834  1.00  0.00     0.074 A 
ATOM     59  C   UNL A   1      43.924  29.112  29.938  1.00  0.00     0.031 C 
ATOM     60  C   UNL A   1      45.056  27.193  31.218  1.00  0.00     0.037 A 
BRANCH  47  61
ATOM     61  C   UNL A   1      47.821  29.492  27.070  1.00  0.00     0.057 A 
ATOM     62  C   UNL A   1      49.007  30.225  27.231  1.00  0.00     0.134 A 
ATOM     63  C   UNL A   1      46.665  30.268  26.831  1.00  0.00     0.134 A 
ATOM     64  F   UNL A   1      50.163  29.607  27.520  1.00  0.00    -0.206 F 
ATOM     65  C   UNL A   1      49.033  31.626  27.187  1.00  0.00     0.040 A 
ATOM     66  C   UNL A   1      46.689  31.659  26.730  1.00  0.00     0.040 A 
ATOM     67  F   UNL A   1      45.436  29.740  26.798  1.00  0.00    -0.206 F 
ATOM     68  C   UNL A   1      47.871  32.346  26.932  1.00  0.00     0.006 A 
ENDBRANCH  47  61
BRANCH  48  69
ATOM     69  C   UNL A   1      39.715  27.908  28.883  1.00  0.00     0.057 A 
ATOM     70  C   UNL A   1      38.757  27.980  29.906  1.00  0.00     0.134 A 
ATOM     71  C   UNL A   1      39.469  28.711  27.755  1.00  0.00     0.134 A 
ATOM     72  F   UNL A   1      38.910  27.270  31.035  1.00  0.00    -0.206 F 
ATOM     73  C   UNL A   1      37.656  28.845  29.842  1.00  0.00     0.040 A 
ATOM     74  C   UNL A   1      38.369  29.572  27.675  1.00  0.00     0.040 A 
ATOM     75  F   UNL A   1      40.335  28.762  26.734  1.00  0.00    -0.206 F 
ATOM     76  C   UNL A   1      37.471  29.659  28.731  1.00  0.00     0.006 A 
ENDBRANCH  48  69
BRANCH  60  77
ATOM     77  C   UNL A   1      44.800  26.098  32.203  1.00  0.00     0.057 A 
ATOM     78  C   UNL A   1      44.530  24.765  31.866  1.00  0.00     0.134 A 
ATOM     79  C   UNL A   1      44.946  26.399  33.563  1.00  0.00     0.134 A 
ATOM     80  F   UNL A   1      44.443  24.376  30.586  1.00  0.00    -0.206 F 
ATOM     81  C   UNL A   1      44.391  23.780  32.849  1.00  0.00     0.040 A 
ATOM     82  C   UNL A   1      44.844  25.420  34.549  1.00  0.00     0.040 A 
ATOM     83  F   UNL A   1      45.237  27.651  33.949  1.00  0.00    -0.206 F 
ATOM     84  C   UNL A   1      44.559  24.106  34.194  1.00  0.00     0.006 A 
ENDBRANCH  60  77
ENDBRANCH  34  35
ENDBRANCH  27  29
ENDBRANCH  26  27
ENDBRANCH  25  26
ENDBRANCH  24  25
ENDBRANCH  23  24
ENDBRANCH   1  23
TORSDOF 18
ENDMDL
MODEL 3
REMARK VINA RESULT:     -10.9      5.363     10.252
REMARK SMILES CC(C)[C@H](C)n1c(SCC(=O)OCCOCCOC(=O)c2ccc(-c3c4nc(c(-c5c(F)cccc5F)c5ccc([nH]5)c(-c5c(F)cccc5F)c5nc(c(-c6c(F)cccc6F)c6ccc3[nH]6)C=C5)C=C4)cc2)nc2cc(Br)cnc21
REMARK SMILES IDX 14 1 13 2 12 3 10 4 11 5 9 6 8 7 7 8 6 9 82 10 75 11 76 12
REMARK SMILES IDX 81 13 77 14 80 15 78 16 79 17 4 18 5 19 2 20 1 21 3 22 15 23
REMARK SMILES IDX 16 24 17 25 18 26 19 27 20 28 21 29 22 30 74 31 23 32 73 33
REMARK SMILES IDX 24 34 25 35 26 36 67 37 27 38 72 39 66 40 68 41 28 42 71 43
REMARK SMILES IDX 65 44 64 45 29 47 55 48 38 49 54 50 39 51 42 52 53 53 69 54
REMARK SMILES IDX 40 55 41 56 52 58 70 59 43 60 30 61 31 62 36 63 32 64 33 65
REMARK SMILES IDX 35 66 37 67 34 68 56 69 57 70 62 71 58 72 59 73 61 74 63 75
REMARK SMILES IDX 60 76 44 77 45 78 50 79 46 80 47 81 49 82 51 83 48 84
REMARK H PARENT 68 46 42 57
REMARK Flexibility Score: inf
ROOT
ATOM      1  C   UNL A   1      33.764  34.004  28.210  1.00  0.00     0.202 C 
ENDROOT
BRANCH   1   2
ATOM      2  C   UNL A   1      33.319  32.543  27.908  1.00  0.00     0.261 C 
BRANCH   2   3
ATOM      3  O   UNL A   1      34.486  31.663  27.642  1.00  0.00    -0.463 OA
BRANCH   3   4
ATOM      4  C   UNL A   1      34.171  30.387  27.286  1.00  0.00     0.316 C 
ATOM      5  O   UNL A   1      35.060  29.555  27.080  1.00  0.00    -0.251 OA
BRANCH   4   6
ATOM      6  C   UNL A   1      32.709  29.940  27.140  1.00  0.00     0.200 C 
BRANCH   6   7
ATOM      7  S   UNL A   1      31.941  28.331  27.076  1.00  0.00    -0.076 SA
BRANCH   7   8
ATOM      8  C   UNL A   1      32.277  27.001  25.990  1.00  0.00     0.171 A 
ATOM      9  N   UNL A   1      31.725  26.466  24.819  1.00  0.00    -0.301 N 
ATOM     10  C   UNL A   1      32.656  25.528  24.352  1.00  0.00     0.161 A 
ATOM     11  N   UNL A   1      33.345  26.291  26.345  1.00  0.00    -0.221 NA
ATOM     12  C   UNL A   1      33.634  25.442  25.319  1.00  0.00     0.110 A 
ATOM     13  N   UNL A   1      32.652  24.913  23.145  1.00  0.00    -0.235 NA
ATOM     14  C   UNL A   1      34.734  24.609  25.079  1.00  0.00     0.049 A 
ATOM     15  C   UNL A   1      33.765  24.176  22.921  1.00  0.00     0.129 A 
ATOM     16  C   UNL A   1      34.799  23.992  23.830  1.00  0.00     0.038 A 
ATOM     17  Br  UNL A   1      36.302  22.955  23.353  1.00  0.00    -0.049 Br
BRANCH   9  18
ATOM     18  C   UNL A   1      30.673  26.858  23.874  1.00  0.00     0.091 C 
ATOM     19  C   UNL A   1      29.320  26.195  24.062  1.00  0.00     0.032 C 
BRANCH  18  20
ATOM     20  C   UNL A   1      30.642  28.319  23.450  1.00  0.00     0.006 C 
ATOM     21  C   UNL A   1      31.869  28.821  22.714  1.00  0.00     0.009 C 
ATOM     22  C   UNL A   1      29.322  28.574  22.794  1.00  0.00     0.009 C 
ENDBRANCH  18  20
ENDBRANCH   9  18
ENDBRANCH   7   8
ENDBRANCH   6   7
ENDBRANCH   4   6
ENDBRANCH   3   4
ENDBRANCH   2   3
ENDBRANCH   1   2
BRANCH   1  23
ATOM     23  O   UNL A   1      32.777  34.977  28.595  1.00  0.00    -0.374 OA
BRANCH  23  24
ATOM     24  C   UNL A   1      33.028  36.230  29.247  1.00  0.00     0.202 C 
BRANCH  24  25
ATOM     25  C   UNL A   1      32.618  36.559  30.696  1.00  0.00     0.261 C 
BRANCH  25  26
ATOM     26  O   UNL A   1      32.566  35.450  31.566  1.00  0.00    -0.460 OA
BRANCH  26  27
ATOM     27  C   UNL A   1      33.145  35.734  32.758  1.00  0.00     0.338 C 
ATOM     28  O   UNL A   1      32.889  36.654  33.494  1.00  0.00    -0.246 OA
BRANCH  27  29
ATOM     29  C   UNL A   1      34.277  34.819  32.929  1.00  0.00     0.060 A 
ATOM     30  C   UNL A   1      35.519  35.438  32.848  1.00  0.00     0.016 A 
ATOM     31  C   UNL A   1      34.129  33.420  32.942  1.00  0.00     0.016 A 
ATOM     32  C   UNL A   1      36.607  34.657  32.569  1.00  0.00     0.010 A 
ATOM     33  C   UNL A   1      35.233  32.632  32.687  1.00  0.00     0.010 A 
ATOM     34  C   UNL A   1      36.442  33.270  32.434  1.00  0.00    -0.014 A 
BRANCH  34  35
ATOM     35  C   UNL A   1      37.661  32.525  32.211  1.00  0.00     0.031 A 
ATOM     36  C   UNL A   1      38.480  32.491  33.440  1.00  0.00     0.074 A 
ATOM     37  C   UNL A   1      38.002  31.983  31.029  1.00  0.00     0.049 A 
ATOM     38  N   UNL A   1      39.545  33.181  33.670  1.00  0.00    -0.248 NA
ATOM     39  C   UNL A   1      37.923  31.826  34.630  1.00  0.00     0.031 C 
ATOM     40  C   UNL A   1      37.149  31.782  29.857  1.00  0.00     0.029 A 
ATOM     41  N   UNL A   1      39.184  31.416  30.655  1.00  0.00    -0.354 N 
ATOM     42  C   UNL A   1      39.933  32.829  34.955  1.00  0.00     0.074 A 
ATOM     43  C   UNL A   1      38.806  32.178  35.565  1.00  0.00     0.031 C 
ATOM     44  C   UNL A   1      37.762  30.930  29.005  1.00  0.00     0.029 A 
ATOM     45  C   UNL A   1      39.097  30.645  29.502  1.00  0.00     0.049 A 
ATOM     46  H   UNL A   1      40.022  31.541  31.156  1.00  0.00     0.167 HD
ATOM     47  C   UNL A   1      41.256  32.776  35.257  1.00  0.00     0.037 A 
ATOM     48  C   UNL A   1      40.044  29.781  29.058  1.00  0.00     0.037 A 
ATOM     49  C   UNL A   1      42.035  33.518  34.299  1.00  0.00     0.049 A 
ATOM     50  C   UNL A   1      41.338  30.205  29.643  1.00  0.00     0.074 A 
ATOM     51  C   UNL A   1      42.268  34.842  34.005  1.00  0.00     0.029 A 
ATOM     52  N   UNL A   1      42.373  32.785  33.194  1.00  0.00    -0.354 N 
ATOM     53  N   UNL A   1      41.950  31.309  29.314  1.00  0.00    -0.248 NA
ATOM     54  C   UNL A   1      41.811  29.571  30.870  1.00  0.00     0.031 C 
ATOM     55  C   UNL A   1      42.629  34.887  32.625  1.00  0.00     0.029 A 
ATOM     56  C   UNL A   1      42.647  33.586  32.122  1.00  0.00     0.049 A 
ATOM     57  H   UNL A   1      42.415  31.802  33.173  1.00  0.00     0.167 HD
ATOM     58  C   UNL A   1      42.556  31.724  30.483  1.00  0.00     0.074 A 
ATOM     59  C   UNL A   1      42.595  30.545  31.339  1.00  0.00     0.031 C 
ATOM     60  C   UNL A   1      42.660  33.051  30.778  1.00  0.00     0.037 A 
BRANCH  47  61
ATOM     61  C   UNL A   1      41.861  31.616  36.016  1.00  0.00     0.057 A 
ATOM     62  C   UNL A   1      42.778  31.880  37.045  1.00  0.00     0.134 A 
ATOM     63  C   UNL A   1      41.832  30.277  35.568  1.00  0.00     0.134 A 
ATOM     64  F   UNL A   1      42.941  33.126  37.517  1.00  0.00    -0.206 F 
ATOM     65  C   UNL A   1      43.624  30.890  37.565  1.00  0.00     0.040 A 
ATOM     66  C   UNL A   1      42.629  29.273  36.116  1.00  0.00     0.040 A 
ATOM     67  F   UNL A   1      41.122  29.888  34.502  1.00  0.00    -0.206 F 
ATOM     68  C   UNL A   1      43.547  29.582  37.103  1.00  0.00     0.006 A 
ENDBRANCH  47  61
BRANCH  48  69
ATOM     69  C   UNL A   1      39.868  28.447  28.434  1.00  0.00     0.057 A 
ATOM     70  C   UNL A   1      40.436  28.163  27.182  1.00  0.00     0.134 A 
ATOM     71  C   UNL A   1      39.417  27.337  29.169  1.00  0.00     0.134 A 
ATOM     72  F   UNL A   1      40.917  29.150  26.411  1.00  0.00    -0.206 F 
ATOM     73  C   UNL A   1      40.603  26.852  26.716  1.00  0.00     0.040 A 
ATOM     74  C   UNL A   1      39.570  26.024  28.711  1.00  0.00     0.040 A 
ATOM     75  F   UNL A   1      38.899  27.478  30.396  1.00  0.00    -0.206 F 
ATOM     76  C   UNL A   1      40.187  25.776  27.492  1.00  0.00     0.006 A 
ENDBRANCH  48  69
BRANCH  60  77
ATOM     77  C   UNL A   1      42.624  34.024  29.643  1.00  0.00     0.057 A 
ATOM     78  C   UNL A   1      43.679  34.251  28.750  1.00  0.00     0.134 A 
ATOM     79  C   UNL A   1      41.413  34.678  29.385  1.00  0.00     0.134 A 
ATOM     80  F   UNL A   1      44.851  33.613  28.882  1.00  0.00    -0.206 F 
ATOM     81  C   UNL A   1      43.535  35.112  27.658  1.00  0.00     0.040 A 
ATOM     82  C   UNL A   1      41.246  35.511  28.281  1.00  0.00     0.040 A 
ATOM     83  F   UNL A   1      40.354  34.477  30.184  1.00  0.00    -0.206 F 
ATOM     84  C   UNL A   1      42.312  35.736  27.415  1.00  0.00     0.006 A 
ENDBRANCH  60  77
ENDBRANCH  34  35
ENDBRANCH  27  29
ENDBRANCH  26  27
ENDBRANCH  25  26
ENDBRANCH  24  25
ENDBRANCH  23  24
ENDBRANCH   1  23
TORSDOF 18
ENDMDL
