MODEL 1
REMARK VINA RESULT:      -9.7      0.000      0.000
REMARK SMILES Cc1cc(C)c2c(c1)C=C(C(=O)OCCOCCOC(=O)c1ccc(-c3c4nc(c(-c5c(F)cccc5F)c5ccc([nH]5)c(-c5c(F)cccc5F)c5nc(c(-c6c(F)cccc6F)c6ccc3[nH]6)C=C5)C=C4)cc1)[C@@H](C(F)(F)F)O2
REMARK SMILES IDX 17 1 16 2 15 3 14 4 13 5 11 6 12 7 10 8 1 9 2 10 3 11 8 12
REMARK SMILES IDX 4 13 7 14 5 15 6 16 9 17 81 18 76 19 77 20 78 21 79 22 80 23
REMARK SMILES IDX 18 24 19 25 20 26 21 27 22 28 23 29 75 30 24 31 74 32 25 33
REMARK SMILES IDX 26 34 27 35 68 36 28 37 73 38 67 39 69 40 29 41 72 42 66 43
REMARK SMILES IDX 65 44 30 46 56 47 39 48 55 49 40 50 43 51 54 52 70 53 41 54
REMARK SMILES IDX 42 55 53 57 71 58 44 59 31 60 32 61 37 62 33 63 34 64 36 65
REMARK SMILES IDX 38 66 35 67 57 68 58 69 63 70 59 71 60 72 62 73 64 74 61 75
REMARK SMILES IDX 45 76 46 77 51 78 47 79 48 80 50 81 52 82 49 83
REMARK H PARENT 69 45 43 56
REMARK Flexibility Score: inf
ROOT
ATOM      1  C   UNL A   1      33.663  34.513  28.197  1.00  0.00     0.202 C 
ENDROOT
BRANCH   1   2
ATOM      2  O   UNL A   1      32.514  35.078  28.831  1.00  0.00    -0.374 OA
BRANCH   2   3
ATOM      3  C   UNL A   1      32.730  35.926  29.957  1.00  0.00     0.202 C 
BRANCH   3   4
ATOM      4  C   UNL A   1      34.005  35.666  30.763  1.00  0.00     0.261 C 
BRANCH   4   5
ATOM      5  O   UNL A   1      33.817  34.591  31.699  1.00  0.00    -0.460 OA
BRANCH   5   6
ATOM      6  C   UNL A   1      34.681  33.561  31.554  1.00  0.00     0.338 C 
ATOM      7  O   UNL A   1      34.443  32.468  31.062  1.00  0.00    -0.246 OA
BRANCH   6   8
ATOM      8  C   UNL A   1      36.032  33.977  31.972  1.00  0.00     0.087 C 
ATOM      9  C   UNL A   1      41.823  33.811  29.916  1.00  0.00     0.044 C 
ATOM     10  C   UNL A   1      40.719  34.108  30.887  1.00  0.00    -0.050 A 
ATOM     11  C   UNL A   1      41.006  34.470  32.209  1.00  0.00     0.010 A 
ATOM     12  C   UNL A   1      39.386  33.938  30.507  1.00  0.00     0.015 A 
ATOM     13  C   UNL A   1      39.976  34.698  33.137  1.00  0.00    -0.008 A 
ATOM     14  C   UNL A   1      38.351  34.144  31.424  1.00  0.00     0.018 A 
ATOM     15  C   UNL A   1      40.314  35.066  34.555  1.00  0.00     0.048 C 
ATOM     16  C   UNL A   1      38.642  34.548  32.730  1.00  0.00     0.130 A 
ATOM     17  C   UNL A   1      36.982  33.865  31.036  1.00  0.00     0.027 C 
ATOM     18  O   UNL A   1      37.672  34.811  33.660  1.00  0.00    -0.475 OA
ATOM     19  C   UNL A   1      36.289  34.461  33.370  1.00  0.00     0.316 C 
BRANCH  19  20
ATOM     20  C   UNL A   1      35.814  33.465  34.439  1.00  0.00     0.430 C 
ATOM     21  F   UNL A   1      36.455  32.277  34.322  1.00  0.00    -0.167 F 
ATOM     22  F   UNL A   1      36.064  33.914  35.691  1.00  0.00    -0.167 F 
ATOM     23  F   UNL A   1      34.487  33.221  34.353  1.00  0.00    -0.167 F 
ENDBRANCH  19  20
ENDBRANCH   6   8
ENDBRANCH   5   6
ENDBRANCH   4   5
ENDBRANCH   3   4
ENDBRANCH   2   3
ENDBRANCH   1   2
BRANCH   1  24
ATOM     24  C   UNL A   1      33.591  33.022  27.850  1.00  0.00     0.261 C 
BRANCH  24  25
ATOM     25  O   UNL A   1      34.897  32.457  27.626  1.00  0.00    -0.460 OA
BRANCH  25  26
ATOM     26  C   UNL A   1      34.958  31.111  27.746  1.00  0.00     0.338 C 
ATOM     27  O   UNL A   1      34.259  30.282  27.180  1.00  0.00    -0.246 OA
BRANCH  26  28
ATOM     28  C   UNL A   1      36.130  30.723  28.549  1.00  0.00     0.060 A 
ATOM     29  C   UNL A   1      37.336  31.387  28.291  1.00  0.00     0.016 A 
ATOM     30  C   UNL A   1      36.079  29.665  29.459  1.00  0.00     0.016 A 
ATOM     31  C   UNL A   1      38.513  30.955  28.897  1.00  0.00     0.010 A 
ATOM     32  C   UNL A   1      37.264  29.224  30.057  1.00  0.00     0.010 A 
ATOM     33  C   UNL A   1      38.490  29.840  29.745  1.00  0.00    -0.014 A 
BRANCH  33  34
ATOM     34  C   UNL A   1      39.770  29.215  30.151  1.00  0.00     0.031 A 
ATOM     35  C   UNL A   1      40.469  29.730  31.380  1.00  0.00     0.074 A 
ATOM     36  C   UNL A   1      40.276  28.171  29.473  1.00  0.00     0.049 A 
ATOM     37  N   UNL A   1      41.604  29.353  31.908  1.00  0.00    -0.248 NA
ATOM     38  C   UNL A   1      39.791  30.811  32.115  1.00  0.00     0.031 C 
ATOM     39  C   UNL A   1      39.660  27.542  28.308  1.00  0.00     0.029 A 
ATOM     40  N   UNL A   1      41.428  27.453  29.677  1.00  0.00    -0.354 N 
ATOM     41  C   UNL A   1      41.775  30.145  33.038  1.00  0.00     0.074 A 
ATOM     42  C   UNL A   1      40.644  31.044  33.103  1.00  0.00     0.031 C 
ATOM     43  C   UNL A   1      40.443  26.530  27.895  1.00  0.00     0.029 A 
ATOM     44  C   UNL A   1      41.628  26.462  28.750  1.00  0.00     0.049 A 
ATOM     45  H   UNL A   1      42.051  27.633  30.417  1.00  0.00     0.167 HD
ATOM     46  C   UNL A   1      42.779  30.116  33.944  1.00  0.00     0.037 A 
ATOM     47  C   UNL A   1      42.659  25.609  28.600  1.00  0.00     0.037 A 
ATOM     48  C   UNL A   1      43.908  29.228  33.877  1.00  0.00     0.049 A 
ATOM     49  C   UNL A   1      43.812  25.664  29.565  1.00  0.00     0.074 A 
ATOM     50  C   UNL A   1      44.984  29.133  34.742  1.00  0.00     0.029 A 
ATOM     51  N   UNL A   1      44.107  28.283  32.883  1.00  0.00    -0.354 N 
ATOM     52  N   UNL A   1      43.972  26.423  30.621  1.00  0.00    -0.248 NA
ATOM     53  C   UNL A   1      44.933  24.744  29.313  1.00  0.00     0.031 C 
ATOM     54  C   UNL A   1      45.855  28.156  34.250  1.00  0.00     0.029 A 
ATOM     55  C   UNL A   1      45.300  27.613  33.103  1.00  0.00     0.049 A 
ATOM     56  H   UNL A   1      43.493  28.112  32.133  1.00  0.00     0.167 HD
ATOM     57  C   UNL A   1      45.196  26.064  31.170  1.00  0.00     0.074 A 
ATOM     58  C   UNL A   1      45.732  25.007  30.338  1.00  0.00     0.031 C 
ATOM     59  C   UNL A   1      45.821  26.565  32.264  1.00  0.00     0.037 A 
BRANCH  46  60
ATOM     60  C   UNL A   1      42.709  31.089  35.083  1.00  0.00     0.057 A 
ATOM     61  C   UNL A   1      42.226  30.713  36.343  1.00  0.00     0.134 A 
ATOM     62  C   UNL A   1      43.169  32.404  34.931  1.00  0.00     0.134 A 
ATOM     63  F   UNL A   1      41.756  29.473  36.546  1.00  0.00    -0.206 F 
ATOM     64  C   UNL A   1      42.191  31.613  37.408  1.00  0.00     0.040 A 
ATOM     65  C   UNL A   1      43.161  33.306  35.996  1.00  0.00     0.040 A 
ATOM     66  F   UNL A   1      43.645  32.827  33.751  1.00  0.00    -0.206 F 
ATOM     67  C   UNL A   1      42.668  32.912  37.238  1.00  0.00     0.006 A 
ENDBRANCH  46  60
BRANCH  47  68
ATOM     68  C   UNL A   1      42.653  24.630  27.484  1.00  0.00     0.057 A 
ATOM     69  C   UNL A   1      42.098  23.355  27.641  1.00  0.00     0.134 A 
ATOM     70  C   UNL A   1      43.205  24.945  26.235  1.00  0.00     0.134 A 
ATOM     71  F   UNL A   1      41.579  22.988  28.821  1.00  0.00    -0.206 F 
ATOM     72  C   UNL A   1      42.098  22.425  26.600  1.00  0.00     0.040 A 
ATOM     73  C   UNL A   1      43.192  24.033  25.179  1.00  0.00     0.040 A 
ATOM     74  F   UNL A   1      43.754  26.150  26.023  1.00  0.00    -0.206 F 
ATOM     75  C   UNL A   1      42.640  22.767  25.362  1.00  0.00     0.006 A 
ENDBRANCH  47  68
BRANCH  59  76
ATOM     76  C   UNL A   1      47.146  25.969  32.637  1.00  0.00     0.057 A 
ATOM     77  C   UNL A   1      48.345  26.446  32.093  1.00  0.00     0.134 A 
ATOM     78  C   UNL A   1      47.228  24.949  33.593  1.00  0.00     0.134 A 
ATOM     79  F   UNL A   1      48.333  27.415  31.166  1.00  0.00    -0.206 F 
ATOM     80  C   UNL A   1      49.580  25.918  32.476  1.00  0.00     0.040 A 
ATOM     81  C   UNL A   1      48.457  24.430  34.002  1.00  0.00     0.040 A 
ATOM     82  F   UNL A   1      46.117  24.456  34.160  1.00  0.00    -0.206 F 
ATOM     83  C   UNL A   1      49.637  24.912  33.440  1.00  0.00     0.006 A 
ENDBRANCH  59  76
ENDBRANCH  33  34
ENDBRANCH  26  28
ENDBRANCH  25  26
ENDBRANCH  24  25
ENDBRANCH   1  24
TORSDOF 15
ENDMDL
MODEL 2
REMARK VINA RESULT:      -9.7      5.018     11.198
REMARK SMILES Cc1cc(C)c2c(c1)C=C(C(=O)OCCOCCOC(=O)c1ccc(-c3c4nc(c(-c5c(F)cccc5F)c5ccc([nH]5)c(-c5c(F)cccc5F)c5nc(c(-c6c(F)cccc6F)c6ccc3[nH]6)C=C5)C=C4)cc1)[C@@H](C(F)(F)F)O2
REMARK SMILES IDX 17 1 16 2 15 3 14 4 13 5 11 6 12 7 10 8 1 9 2 10 3 11 8 12
REMARK SMILES IDX 4 13 7 14 5 15 6 16 9 17 81 18 76 19 77 20 78 21 79 22 80 23
REMARK SMILES IDX 18 24 19 25 20 26 21 27 22 28 23 29 75 30 24 31 74 32 25 33
REMARK SMILES IDX 26 34 27 35 68 36 28 37 73 38 67 39 69 40 29 41 72 42 66 43
REMARK SMILES IDX 65 44 30 46 56 47 39 48 55 49 40 50 43 51 54 52 70 53 41 54
REMARK SMILES IDX 42 55 53 57 71 58 44 59 31 60 32 61 37 62 33 63 34 64 36 65
REMARK SMILES IDX 38 66 35 67 57 68 58 69 63 70 59 71 60 72 62 73 64 74 61 75
REMARK SMILES IDX 45 76 46 77 51 78 47 79 48 80 50 81 52 82 49 83
REMARK H PARENT 69 45 43 56
REMARK Flexibility Score: inf
ROOT
ATOM      1  C   UNL A   1      42.816  21.005  26.368  1.00  0.00     0.202 C 
ENDROOT
BRANCH   1   2
ATOM      2  O   UNL A   1      42.014  19.898  25.951  1.00  0.00    -0.374 OA
BRANCH   2   3
ATOM      3  C   UNL A   1      40.627  19.925  26.280  1.00  0.00     0.202 C 
BRANCH   3   4
ATOM      4  C   UNL A   1      40.001  21.312  26.453  1.00  0.00     0.261 C 
BRANCH   4   5
ATOM      5  O   UNL A   1      38.964  21.537  25.485  1.00  0.00    -0.460 OA
BRANCH   5   6
ATOM      6  C   UNL A   1      37.999  22.397  25.884  1.00  0.00     0.338 C 
ATOM      7  O   UNL A   1      38.157  23.537  26.293  1.00  0.00    -0.246 OA
BRANCH   6   8
ATOM      8  C   UNL A   1      36.670  21.807  25.643  1.00  0.00     0.087 C 
ATOM      9  C   UNL A   1      34.180  16.593  23.543  1.00  0.00     0.044 C 
ATOM     10  C   UNL A   1      34.183  17.994  24.078  1.00  0.00    -0.050 A 
ATOM     11  C   UNL A   1      33.021  18.773  24.053  1.00  0.00     0.010 A 
ATOM     12  C   UNL A   1      35.375  18.570  24.527  1.00  0.00     0.015 A 
ATOM     13  C   UNL A   1      33.031  20.104  24.505  1.00  0.00    -0.008 A 
ATOM     14  C   UNL A   1      35.404  19.899  24.963  1.00  0.00     0.018 A 
ATOM     15  C   UNL A   1      31.772  20.923  24.447  1.00  0.00     0.048 C 
ATOM     16  C   UNL A   1      34.231  20.658  24.976  1.00  0.00     0.130 A 
ATOM     17  C   UNL A   1      36.668  20.506  25.329  1.00  0.00     0.027 C 
ATOM     18  O   UNL A   1      34.185  21.947  25.435  1.00  0.00    -0.475 OA
ATOM     19  C   UNL A   1      35.428  22.648  25.725  1.00  0.00     0.316 C 
BRANCH  19  20
ATOM     20  C   UNL A   1      35.495  23.894  24.830  1.00  0.00     0.430 C 
ATOM     21  F   UNL A   1      36.443  23.758  23.871  1.00  0.00    -0.167 F 
ATOM     22  F   UNL A   1      34.325  24.114  24.185  1.00  0.00    -0.167 F 
ATOM     23  F   UNL A   1      35.786  25.011  25.533  1.00  0.00    -0.167 F 
ENDBRANCH  19  20
ENDBRANCH   6   8
ENDBRANCH   5   6
ENDBRANCH   4   5
ENDBRANCH   3   4
ENDBRANCH   2   3
ENDBRANCH   1   2
BRANCH   1  24
ATOM     24  C   UNL A   1      43.652  21.694  25.284  1.00  0.00     0.261 C 
BRANCH  24  25
ATOM     25  O   UNL A   1      43.009  22.880  24.781  1.00  0.00    -0.460 OA
BRANCH  25  26
ATOM     26  C   UNL A   1      43.721  24.020  24.942  1.00  0.00     0.338 C 
ATOM     27  O   UNL A   1      44.762  24.331  24.381  1.00  0.00    -0.246 OA
BRANCH  26  28
ATOM     28  C   UNL A   1      42.979  24.968  25.791  1.00  0.00     0.060 A 
ATOM     29  C   UNL A   1      43.514  26.254  25.941  1.00  0.00     0.016 A 
ATOM     30  C   UNL A   1      41.845  24.579  26.506  1.00  0.00     0.016 A 
ATOM     31  C   UNL A   1      42.952  27.140  26.856  1.00  0.00     0.010 A 
ATOM     32  C   UNL A   1      41.289  25.466  27.436  1.00  0.00     0.010 A 
ATOM     33  C   UNL A   1      41.867  26.732  27.643  1.00  0.00    -0.014 A 
BRANCH  33  34
ATOM     34  C   UNL A   1      41.464  27.561  28.803  1.00  0.00     0.031 A 
ATOM     35  C   UNL A   1      42.263  27.465  30.074  1.00  0.00     0.074 A 
ATOM     36  C   UNL A   1      40.439  28.427  28.711  1.00  0.00     0.049 A 
ATOM     37  N   UNL A   1      42.081  28.076  31.216  1.00  0.00    -0.248 NA
ATOM     38  C   UNL A   1      43.426  26.563  30.050  1.00  0.00     0.031 C 
ATOM     39  C   UNL A   1      39.632  28.657  27.516  1.00  0.00     0.029 A 
ATOM     40  N   UNL A   1      39.910  29.278  29.648  1.00  0.00    -0.354 N 
ATOM     41  C   UNL A   1      43.107  27.638  32.044  1.00  0.00     0.074 A 
ATOM     42  C   UNL A   1      43.890  26.687  31.286  1.00  0.00     0.031 C 
ATOM     43  C   UNL A   1      38.704  29.589  27.792  1.00  0.00     0.029 A 
ATOM     44  C   UNL A   1      38.834  29.997  29.190  1.00  0.00     0.049 A 
ATOM     45  H   UNL A   1      40.266  29.364  30.561  1.00  0.00     0.167 HD
ATOM     46  C   UNL A   1      43.379  28.004  33.318  1.00  0.00     0.037 A 
ATOM     47  C   UNL A   1      38.037  30.871  29.833  1.00  0.00     0.037 A 
ATOM     48  C   UNL A   1      42.597  28.943  34.075  1.00  0.00     0.049 A 
ATOM     49  C   UNL A   1      38.301  31.187  31.281  1.00  0.00     0.074 A 
ATOM     50  C   UNL A   1      42.786  29.370  35.379  1.00  0.00     0.029 A 
ATOM     51  N   UNL A   1      41.475  29.600  33.597  1.00  0.00    -0.354 N 
ATOM     52  N   UNL A   1      39.264  30.759  32.059  1.00  0.00    -0.248 NA
ATOM     53  C   UNL A   1      37.361  32.106  31.941  1.00  0.00     0.031 C 
ATOM     54  C   UNL A   1      41.753  30.255  35.702  1.00  0.00     0.029 A 
ATOM     55  C   UNL A   1      40.948  30.414  34.586  1.00  0.00     0.049 A 
ATOM     56  H   UNL A   1      41.106  29.503  32.689  1.00  0.00     0.167 HD
ATOM     57  C   UNL A   1      39.060  31.368  33.291  1.00  0.00     0.074 A 
ATOM     58  C   UNL A   1      37.889  32.207  33.153  1.00  0.00     0.031 C 
ATOM     59  C   UNL A   1      39.779  31.241  34.434  1.00  0.00     0.037 A 
BRANCH  46  60
ATOM     60  C   UNL A   1      44.566  27.372  33.980  1.00  0.00     0.057 A 
ATOM     61  C   UNL A   1      45.830  27.976  33.955  1.00  0.00     0.134 A 
ATOM     62  C   UNL A   1      44.437  26.169  34.686  1.00  0.00     0.134 A 
ATOM     63  F   UNL A   1      46.022  29.120  33.281  1.00  0.00    -0.206 F 
ATOM     64  C   UNL A   1      46.926  27.400  34.599  1.00  0.00     0.040 A 
ATOM     65  C   UNL A   1      45.520  25.596  35.354  1.00  0.00     0.040 A 
ATOM     66  F   UNL A   1      43.254  25.541  34.750  1.00  0.00    -0.206 F 
ATOM     67  C   UNL A   1      46.770  26.210  35.309  1.00  0.00     0.006 A 
ENDBRANCH  46  60
BRANCH  47  68
ATOM     68  C   UNL A   1      36.905  31.507  29.114  1.00  0.00     0.057 A 
ATOM     69  C   UNL A   1      35.724  30.803  28.858  1.00  0.00     0.134 A 
ATOM     70  C   UNL A   1      36.980  32.831  28.662  1.00  0.00     0.134 A 
ATOM     71  F   UNL A   1      35.604  29.525  29.243  1.00  0.00    -0.206 F 
ATOM     72  C   UNL A   1      34.658  31.390  28.172  1.00  0.00     0.040 A 
ATOM     73  C   UNL A   1      35.914  33.437  27.996  1.00  0.00     0.040 A 
ATOM     74  F   UNL A   1      38.088  33.557  28.875  1.00  0.00    -0.206 F 
ATOM     75  C   UNL A   1      34.750  32.714  27.746  1.00  0.00     0.006 A 
ENDBRANCH  47  68
BRANCH  59  76
ATOM     76  C   UNL A   1      39.330  32.038  35.624  1.00  0.00     0.057 A 
ATOM     77  C   UNL A   1      39.750  33.359  35.824  1.00  0.00     0.134 A 
ATOM     78  C   UNL A   1      38.424  31.499  36.545  1.00  0.00     0.134 A 
ATOM     79  F   UNL A   1      40.624  33.930  34.982  1.00  0.00    -0.206 F 
ATOM     80  C   UNL A   1      39.295  34.111  36.908  1.00  0.00     0.040 A 
ATOM     81  C   UNL A   1      37.944  32.249  37.620  1.00  0.00     0.040 A 
ATOM     82  F   UNL A   1      37.975  30.243  36.404  1.00  0.00    -0.206 F 
ATOM     83  C   UNL A   1      38.382  33.558  37.805  1.00  0.00     0.006 A 
ENDBRANCH  59  76
ENDBRANCH  33  34
ENDBRANCH  26  28
ENDBRANCH  25  26
ENDBRANCH  24  25
ENDBRANCH   1  24
TORSDOF 15
ENDMDL
MODEL 3
REMARK VINA RESULT:      -9.7      4.419      9.569
REMARK SMILES Cc1cc(C)c2c(c1)C=C(C(=O)OCCOCCOC(=O)c1ccc(-c3c4nc(c(-c5c(F)cccc5F)c5ccc([nH]5)c(-c5c(F)cccc5F)c5nc(c(-c6c(F)cccc6F)c6ccc3[nH]6)C=C5)C=C4)cc1)[C@@H](C(F)(F)F)O2
REMARK SMILES IDX 17 1 16 2 15 3 14 4 13 5 11 6 12 7 10 8 1 9 2 10 3 11 8 12
REMARK SMILES IDX 4 13 7 14 5 15 6 16 9 17 81 18 76 19 77 20 78 21 79 22 80 23
REMARK SMILES IDX 18 24 19 25 20 26 21 27 22 28 23 29 75 30 24 31 74 32 25 33
REMARK SMILES IDX 26 34 27 35 68 36 28 37 73 38 67 39 69 40 29 41 72 42 66 43
REMARK SMILES IDX 65 44 30 46 56 47 39 48 55 49 40 50 43 51 54 52 70 53 41 54
REMARK SMILES IDX 42 55 53 57 71 58 44 59 31 60 32 61 37 62 33 63 34 64 36 65
REMARK SMILES IDX 38 66 35 67 57 68 58 69 63 70 59 71 60 72 62 73 64 74 61 75
REMARK SMILES IDX 45 76 46 77 51 78 47 79 48 80 50 81 52 82 49 83
REMARK H PARENT 69 45 43 56
REMARK Flexibility Score: inf
ROOT
ATOM      1  C   UNL A   1      31.691  31.120  26.137  1.00  0.00     0.202 C 
ENDROOT
BRANCH   1   2
ATOM      2  O   UNL A   1      32.290  29.949  26.695  1.00  0.00    -0.374 OA
BRANCH   2   3
ATOM      3  C   UNL A   1      33.619  29.628  26.287  1.00  0.00     0.202 C 
BRANCH   3   4
ATOM      4  C   UNL A   1      33.841  28.204  25.771  1.00  0.00     0.261 C 
BRANCH   4   5
ATOM      5  O   UNL A   1      33.686  28.140  24.344  1.00  0.00    -0.460 OA
BRANCH   5   6
ATOM      6  C   UNL A   1      33.039  27.038  23.898  1.00  0.00     0.338 C 
ATOM      7  O   UNL A   1      33.487  25.904  23.826  1.00  0.00    -0.246 OA
BRANCH   6   8
ATOM      8  C   UNL A   1      31.632  27.368  23.608  1.00  0.00     0.087 C 
ATOM      9  C   UNL A   1      28.296  31.942  21.210  1.00  0.00     0.044 C 
ATOM     10  C   UNL A   1      28.534  30.611  21.862  1.00  0.00    -0.050 A 
ATOM     11  C   UNL A   1      27.475  29.889  22.423  1.00  0.00     0.010 A 
ATOM     12  C   UNL A   1      29.835  30.118  21.995  1.00  0.00     0.015 A 
ATOM     13  C   UNL A   1      27.699  28.667  23.080  1.00  0.00    -0.008 A 
ATOM     14  C   UNL A   1      30.075  28.913  22.663  1.00  0.00     0.018 A 
ATOM     15  C   UNL A   1      26.544  27.923  23.691  1.00  0.00     0.048 C 
ATOM     16  C   UNL A   1      29.009  28.175  23.183  1.00  0.00     0.130 A 
ATOM     17  C   UNL A   1      31.439  28.472  22.877  1.00  0.00     0.027 C 
ATOM     18  O   UNL A   1      29.175  26.967  23.804  1.00  0.00    -0.475 OA
ATOM     19  C   UNL A   1      30.517  26.512  24.139  1.00  0.00     0.316 C 
BRANCH  19  20
ATOM     20  C   UNL A   1      30.591  26.318  25.660  1.00  0.00     0.430 C 
ATOM     21  F   UNL A   1      29.441  25.790  26.144  1.00  0.00    -0.167 F 
ATOM     22  F   UNL A   1      31.583  25.466  26.011  1.00  0.00    -0.167 F 
ATOM     23  F   UNL A   1      30.808  27.482  26.312  1.00  0.00    -0.167 F 
ENDBRANCH  19  20
ENDBRANCH   6   8
ENDBRANCH   5   6
ENDBRANCH   4   5
ENDBRANCH   3   4
ENDBRANCH   2   3
ENDBRANCH   1   2
BRANCH   1  24
ATOM     24  C   UNL A   1      31.534  32.324  27.074  1.00  0.00     0.261 C 
BRANCH  24  25
ATOM     25  O   UNL A   1      32.551  33.318  26.849  1.00  0.00    -0.460 OA
BRANCH  25  26
ATOM     26  C   UNL A   1      33.081  33.849  27.975  1.00  0.00     0.338 C 
ATOM     27  O   UNL A   1      32.574  34.682  28.713  1.00  0.00    -0.246 OA
BRANCH  26  28
ATOM     28  C   UNL A   1      34.332  33.156  28.325  1.00  0.00     0.060 A 
ATOM     29  C   UNL A   1      34.229  31.850  28.819  1.00  0.00     0.016 A 
ATOM     30  C   UNL A   1      35.569  33.802  28.269  1.00  0.00     0.016 A 
ATOM     31  C   UNL A   1      35.356  31.203  29.321  1.00  0.00     0.010 A 
ATOM     32  C   UNL A   1      36.698  33.157  28.786  1.00  0.00     0.010 A 
ATOM     33  C   UNL A   1      36.586  31.873  29.351  1.00  0.00    -0.014 A 
BRANCH  33  34
ATOM     34  C   UNL A   1      37.701  31.300  30.140  1.00  0.00     0.031 A 
ATOM     35  C   UNL A   1      38.621  30.310  29.479  1.00  0.00     0.074 A 
ATOM     36  C   UNL A   1      37.928  31.693  31.406  1.00  0.00     0.049 A 
ATOM     37  N   UNL A   1      39.644  29.665  29.978  1.00  0.00    -0.248 NA
ATOM     38  C   UNL A   1      38.355  30.013  28.062  1.00  0.00     0.031 C 
ATOM     39  C   UNL A   1      37.147  32.691  32.132  1.00  0.00     0.029 A 
ATOM     40  N   UNL A   1      38.891  31.298  32.299  1.00  0.00    -0.354 N 
ATOM     41  C   UNL A   1      40.146  28.892  28.938  1.00  0.00     0.074 A 
ATOM     42  C   UNL A   1      39.298  29.123  27.789  1.00  0.00     0.031 C 
ATOM     43  C   UNL A   1      37.661  32.829  33.367  1.00  0.00     0.029 A 
ATOM     44  C   UNL A   1      38.786  31.908  33.524  1.00  0.00     0.049 A 
ATOM     45  H   UNL A   1      39.589  30.638  32.083  1.00  0.00     0.167 HD
ATOM     46  C   UNL A   1      41.222  28.073  28.939  1.00  0.00     0.037 A 
ATOM     47  C   UNL A   1      39.507  31.730  34.647  1.00  0.00     0.037 A 
ATOM     48  C   UNL A   1      42.060  27.837  30.083  1.00  0.00     0.049 A 
ATOM     49  C   UNL A   1      40.639  30.738  34.651  1.00  0.00     0.074 A 
ATOM     50  C   UNL A   1      43.168  27.013  30.185  1.00  0.00     0.029 A 
ATOM     51  N   UNL A   1      41.881  28.424  31.325  1.00  0.00    -0.354 N 
ATOM     52  N   UNL A   1      41.098  30.002  33.668  1.00  0.00    -0.248 NA
ATOM     53  C   UNL A   1      41.351  30.549  35.924  1.00  0.00     0.031 C 
ATOM     54  C   UNL A   1      43.635  27.071  31.502  1.00  0.00     0.029 A 
ATOM     55  C   UNL A   1      42.845  27.965  32.207  1.00  0.00     0.049 A 
ATOM     56  H   UNL A   1      41.173  29.071  31.548  1.00  0.00     0.167 HD
ATOM     57  C   UNL A   1      42.160  29.279  34.195  1.00  0.00     0.074 A 
ATOM     58  C   UNL A   1      42.288  29.674  35.582  1.00  0.00     0.031 C 
ATOM     59  C   UNL A   1      42.957  28.367  33.585  1.00  0.00     0.037 A 
BRANCH  46  60
ATOM     60  C   UNL A   1      41.545  27.356  27.662  1.00  0.00     0.057 A 
ATOM     61  C   UNL A   1      41.061  26.069  27.399  1.00  0.00     0.134 A 
ATOM     62  C   UNL A   1      42.314  27.975  26.668  1.00  0.00     0.134 A 
ATOM     63  F   UNL A   1      40.333  25.416  28.318  1.00  0.00    -0.206 F 
ATOM     64  C   UNL A   1      41.338  25.417  26.196  1.00  0.00     0.040 A 
ATOM     65  C   UNL A   1      42.580  27.343  25.452  1.00  0.00     0.040 A 
ATOM     66  F   UNL A   1      42.807  29.208  26.858  1.00  0.00    -0.206 F 
ATOM     67  C   UNL A   1      42.093  26.059  25.215  1.00  0.00     0.006 A 
ENDBRANCH  46  60
BRANCH  47  68
ATOM     68  C   UNL A   1      39.176  32.504  35.869  1.00  0.00     0.057 A 
ATOM     69  C   UNL A   1      38.328  31.980  36.850  1.00  0.00     0.134 A 
ATOM     70  C   UNL A   1      39.695  33.788  36.082  1.00  0.00     0.134 A 
ATOM     71  F   UNL A   1      37.780  30.767  36.689  1.00  0.00    -0.206 F 
ATOM     72  C   UNL A   1      38.002  32.705  37.998  1.00  0.00     0.040 A 
ATOM     73  C   UNL A   1      39.396  34.515  37.235  1.00  0.00     0.040 A 
ATOM     74  F   UNL A   1      40.512  34.346  35.176  1.00  0.00    -0.206 F 
ATOM     75  C   UNL A   1      38.544  33.975  38.195  1.00  0.00     0.006 A 
ENDBRANCH  47  68
BRANCH  59  76
ATOM     76  C   UNL A   1      44.049  27.744  34.406  1.00  0.00     0.057 A 
ATOM     77  C   UNL A   1      45.304  28.349  34.538  1.00  0.00     0.134 A 
ATOM     78  C   UNL A   1      43.821  26.560  35.117  1.00  0.00     0.134 A 
ATOM     79  F   UNL A   1      45.588  29.480  33.875  1.00  0.00    -0.206 F 
ATOM     80  C   UNL A   1      46.302  27.789  35.338  1.00  0.00     0.040 A 
ATOM     81  C   UNL A   1      44.802  26.003  35.939  1.00  0.00     0.040 A 
ATOM     82  F   UNL A   1      42.636  25.937  35.041  1.00  0.00    -0.206 F 
ATOM     83  C   UNL A   1      46.048  26.616  36.048  1.00  0.00     0.006 A 
ENDBRANCH  59  76
ENDBRANCH  33  34
ENDBRANCH  26  28
ENDBRANCH  25  26
ENDBRANCH  24  25
ENDBRANCH   1  24
TORSDOF 15
ENDMDL
