MODEL 1
REMARK VINA RESULT:     -10.1      0.000      0.000
REMARK SMILES Cc1nc2cc(C(=O)OCCOCCOC(=O)c3ccc(-c4c5nc(c(-c6c(F)cccc6F)c6ccc([nH]6)c(-c6c(F)cccc6F)c6nc(c(-c7c(F)cccc7F)c7ccc4[nH]7)C=C6)C=C5)cc3)ccc2n1C
REMARK SMILES IDX 13 1 12 2 11 3 10 4 9 5 7 6 8 7 6 8 1 9 2 10 3 11 75 12 4 13
REMARK SMILES IDX 74 14 76 15 5 16 73 17 72 18 14 19 15 20 16 21 17 22 18 23
REMARK SMILES IDX 19 24 71 25 20 26 70 27 21 28 22 29 23 30 64 31 24 32 69 33
REMARK SMILES IDX 63 34 65 35 25 36 68 37 62 38 61 39 26 41 52 42 35 43 51 44
REMARK SMILES IDX 36 45 39 46 50 47 66 48 37 49 38 50 49 52 67 53 40 54 27 55
REMARK SMILES IDX 28 56 33 57 29 58 30 59 32 60 34 61 31 62 53 63 54 64 59 65
REMARK SMILES IDX 55 66 56 67 58 68 60 69 57 70 41 71 42 72 47 73 43 74 44 75
REMARK SMILES IDX 46 76 48 77 45 78
REMARK H PARENT 65 40 39 51
REMARK Flexibility Score: inf
ROOT
ATOM      1  C   UNL A   1      32.546  30.579  26.449  1.00  0.00     0.202 C 
ENDROOT
BRANCH   1   2
ATOM      2  O   UNL A   1      32.109  29.215  26.447  1.00  0.00    -0.374 OA
BRANCH   2   3
ATOM      3  C   UNL A   1      32.946  28.247  27.072  1.00  0.00     0.202 C 
BRANCH   3   4
ATOM      4  C   UNL A   1      33.857  27.428  26.149  1.00  0.00     0.261 C 
BRANCH   4   5
ATOM      5  O   UNL A   1      33.194  26.285  25.586  1.00  0.00    -0.460 OA
BRANCH   5   6
ATOM      6  C   UNL A   1      33.066  26.325  24.236  1.00  0.00     0.338 C 
ATOM      7  O   UNL A   1      33.874  25.928  23.412  1.00  0.00    -0.246 OA
BRANCH   6   8
ATOM      8  C   UNL A   1      31.728  26.817  23.848  1.00  0.00     0.062 A 
ATOM      9  C   UNL A   1      28.168  30.853  21.253  1.00  0.00     0.087 C 
ATOM     10  C   UNL A   1      28.904  29.752  21.924  1.00  0.00     0.106 A 
ATOM     11  N   UNL A   1      30.202  29.554  21.844  1.00  0.00    -0.233 NA
ATOM     12  N   UNL A   1      28.316  28.812  22.744  1.00  0.00    -0.331 N 
ATOM     13  C   UNL A   1      30.465  28.480  22.650  1.00  0.00     0.090 A 
ATOM     14  C   UNL A   1      29.298  27.962  23.201  1.00  0.00     0.068 A 
ATOM     15  C   UNL A   1      26.922  28.799  23.119  1.00  0.00     0.151 C 
ATOM     16  C   UNL A   1      31.700  27.911  22.972  1.00  0.00     0.046 A 
ATOM     17  C   UNL A   1      29.299  26.837  24.043  1.00  0.00     0.029 A 
ATOM     18  C   UNL A   1      30.544  26.268  24.356  1.00  0.00     0.018 A 
ENDBRANCH   6   8
ENDBRANCH   5   6
ENDBRANCH   4   5
ENDBRANCH   3   4
ENDBRANCH   2   3
ENDBRANCH   1   2
BRANCH   1  19
ATOM     19  C   UNL A   1      33.444  31.008  27.617  1.00  0.00     0.261 C 
BRANCH  19  20
ATOM     20  O   UNL A   1      34.640  31.629  27.112  1.00  0.00    -0.460 OA
BRANCH  20  21
ATOM     21  C   UNL A   1      35.283  32.478  27.951  1.00  0.00     0.338 C 
ATOM     22  O   UNL A   1      34.986  33.612  28.253  1.00  0.00    -0.246 OA
BRANCH  21  23
ATOM     23  C   UNL A   1      36.319  31.680  28.621  1.00  0.00     0.060 A 
ATOM     24  C   UNL A   1      36.551  31.833  29.985  1.00  0.00     0.016 A 
ATOM     25  C   UNL A   1      37.103  30.820  27.844  1.00  0.00     0.016 A 
ATOM     26  C   UNL A   1      37.588  31.117  30.576  1.00  0.00     0.010 A 
ATOM     27  C   UNL A   1      38.163  30.139  28.430  1.00  0.00     0.010 A 
ATOM     28  C   UNL A   1      38.406  30.272  29.802  1.00  0.00    -0.014 A 
BRANCH  28  29
ATOM     29  C   UNL A   1      39.440  29.473  30.484  1.00  0.00     0.031 A 
ATOM     30  C   UNL A   1      39.555  28.037  30.085  1.00  0.00     0.074 A 
ATOM     31  C   UNL A   1      40.517  30.061  31.043  1.00  0.00     0.049 A 
ATOM     32  N   UNL A   1      40.263  27.636  29.069  1.00  0.00    -0.248 NA
ATOM     33  C   UNL A   1      38.695  27.001  30.653  1.00  0.00     0.031 C 
ATOM     34  C   UNL A   1      41.143  31.279  30.514  1.00  0.00     0.029 A 
ATOM     35  N   UNL A   1      41.396  29.608  31.995  1.00  0.00    -0.354 N 
ATOM     36  C   UNL A   1      39.921  26.317  28.827  1.00  0.00     0.074 A 
ATOM     37  C   UNL A   1      38.959  25.960  29.848  1.00  0.00     0.031 C 
ATOM     38  C   UNL A   1      42.382  31.383  31.034  1.00  0.00     0.029 A 
ATOM     39  C   UNL A   1      42.578  30.342  32.042  1.00  0.00     0.049 A 
ATOM     40  H   UNL A   1      41.211  28.841  32.584  1.00  0.00     0.167 HD
ATOM     41  C   UNL A   1      40.427  25.591  27.795  1.00  0.00     0.037 A 
ATOM     42  C   UNL A   1      43.795  29.836  32.378  1.00  0.00     0.037 A 
ATOM     43  C   UNL A   1      41.357  26.267  26.943  1.00  0.00     0.049 A 
ATOM     44  C   UNL A   1      44.052  28.881  31.249  1.00  0.00     0.074 A 
ATOM     45  C   UNL A   1      41.324  26.961  25.752  1.00  0.00     0.029 A 
ATOM     46  N   UNL A   1      42.668  26.339  27.348  1.00  0.00    -0.354 N 
ATOM     47  N   UNL A   1      44.489  29.212  30.066  1.00  0.00    -0.248 NA
ATOM     48  C   UNL A   1      43.483  27.534  31.334  1.00  0.00     0.031 C 
ATOM     49  C   UNL A   1      42.490  27.792  25.764  1.00  0.00     0.029 A 
ATOM     50  C   UNL A   1      43.117  27.585  26.990  1.00  0.00     0.049 A 
ATOM     51  H   UNL A   1      43.183  25.636  27.805  1.00  0.00     0.167 HD
ATOM     52  C   UNL A   1      44.017  28.223  29.202  1.00  0.00     0.074 A 
ATOM     53  C   UNL A   1      43.442  27.199  30.051  1.00  0.00     0.031 C 
ATOM     54  C   UNL A   1      43.950  28.391  27.850  1.00  0.00     0.037 A 
BRANCH  41  55
ATOM     55  C   UNL A   1      40.197  24.150  27.594  1.00  0.00     0.057 A 
ATOM     56  C   UNL A   1      39.256  23.657  26.689  1.00  0.00     0.134 A 
ATOM     57  C   UNL A   1      41.108  23.246  28.153  1.00  0.00     0.134 A 
ATOM     58  F   UNL A   1      38.371  24.481  26.110  1.00  0.00    -0.206 F 
ATOM     59  C   UNL A   1      39.249  22.309  26.324  1.00  0.00     0.040 A 
ATOM     60  C   UNL A   1      41.117  21.901  27.793  1.00  0.00     0.040 A 
ATOM     61  F   UNL A   1      42.044  23.680  29.014  1.00  0.00    -0.206 F 
ATOM     62  C   UNL A   1      40.192  21.432  26.864  1.00  0.00     0.006 A 
ENDBRANCH  41  55
BRANCH  42  63
ATOM     63  C   UNL A   1      43.999  29.487  33.815  1.00  0.00     0.057 A 
ATOM     64  C   UNL A   1      43.284  28.515  34.525  1.00  0.00     0.134 A 
ATOM     65  C   UNL A   1      45.022  30.137  34.534  1.00  0.00     0.134 A 
ATOM     66  F   UNL A   1      42.368  27.744  33.924  1.00  0.00    -0.206 F 
ATOM     67  C   UNL A   1      43.483  28.291  35.893  1.00  0.00     0.040 A 
ATOM     68  C   UNL A   1      45.248  29.909  35.895  1.00  0.00     0.040 A 
ATOM     69  F   UNL A   1      45.840  31.008  33.920  1.00  0.00    -0.206 F 
ATOM     70  C   UNL A   1      44.459  28.999  36.585  1.00  0.00     0.006 A 
ENDBRANCH  42  63
BRANCH  54  71
ATOM     71  C   UNL A   1      44.539  29.668  27.351  1.00  0.00     0.057 A 
ATOM     72  C   UNL A   1      45.863  29.741  26.896  1.00  0.00     0.134 A 
ATOM     73  C   UNL A   1      43.768  30.834  27.285  1.00  0.00     0.134 A 
ATOM     74  F   UNL A   1      46.656  28.657  26.900  1.00  0.00    -0.206 F 
ATOM     75  C   UNL A   1      46.408  30.934  26.421  1.00  0.00     0.040 A 
ATOM     76  C   UNL A   1      44.294  32.027  26.785  1.00  0.00     0.040 A 
ATOM     77  F   UNL A   1      42.494  30.835  27.708  1.00  0.00    -0.206 F 
ATOM     78  C   UNL A   1      45.621  32.080  26.358  1.00  0.00     0.006 A 
ENDBRANCH  54  71
ENDBRANCH  28  29
ENDBRANCH  21  23
ENDBRANCH  20  21
ENDBRANCH  19  20
ENDBRANCH   1  19
TORSDOF 14
ENDMDL
MODEL 2
REMARK VINA RESULT:     -10.1      8.335     13.719
REMARK SMILES Cc1nc2cc(C(=O)OCCOCCOC(=O)c3ccc(-c4c5nc(c(-c6c(F)cccc6F)c6ccc([nH]6)c(-c6c(F)cccc6F)c6nc(c(-c7c(F)cccc7F)c7ccc4[nH]7)C=C6)C=C5)cc3)ccc2n1C
REMARK SMILES IDX 13 1 12 2 11 3 10 4 9 5 7 6 8 7 6 8 1 9 2 10 3 11 75 12 4 13
REMARK SMILES IDX 74 14 76 15 5 16 73 17 72 18 14 19 15 20 16 21 17 22 18 23
REMARK SMILES IDX 19 24 71 25 20 26 70 27 21 28 22 29 23 30 64 31 24 32 69 33
REMARK SMILES IDX 63 34 65 35 25 36 68 37 62 38 61 39 26 41 52 42 35 43 51 44
REMARK SMILES IDX 36 45 39 46 50 47 66 48 37 49 38 50 49 52 67 53 40 54 27 55
REMARK SMILES IDX 28 56 33 57 29 58 30 59 32 60 34 61 31 62 53 63 54 64 59 65
REMARK SMILES IDX 55 66 56 67 58 68 60 69 57 70 41 71 42 72 47 73 43 74 44 75
REMARK SMILES IDX 46 76 48 77 45 78
REMARK H PARENT 65 40 39 51
REMARK Flexibility Score: inf
ROOT
ATOM      1  C   UNL A   1      46.059  20.691  36.585  1.00  0.00     0.202 C 
ENDROOT
BRANCH   1   2
ATOM      2  O   UNL A   1      45.854  20.201  37.915  1.00  0.00    -0.374 OA
BRANCH   2   3
ATOM      3  C   UNL A   1      46.518  18.998  38.290  1.00  0.00     0.202 C 
BRANCH   3   4
ATOM      4  C   UNL A   1      46.593  18.693  39.792  1.00  0.00     0.261 C 
BRANCH   4   5
ATOM      5  O   UNL A   1      45.319  18.810  40.446  1.00  0.00    -0.460 OA
BRANCH   5   6
ATOM      6  C   UNL A   1      45.195  18.047  41.560  1.00  0.00     0.338 C 
ATOM      7  O   UNL A   1      45.746  18.225  42.635  1.00  0.00    -0.246 OA
BRANCH   6   8
ATOM      8  C   UNL A   1      44.179  16.992  41.366  1.00  0.00     0.062 A 
ATOM      9  C   UNL A   1      40.867  12.456  43.406  1.00  0.00     0.087 C 
ATOM     10  C   UNL A   1      41.598  13.567  42.746  1.00  0.00     0.106 A 
ATOM     11  N   UNL A   1      42.295  14.490  43.373  1.00  0.00    -0.233 NA
ATOM     12  N   UNL A   1      41.660  13.752  41.380  1.00  0.00    -0.331 N 
ATOM     13  C   UNL A   1      42.843  15.273  42.394  1.00  0.00     0.090 A 
ATOM     14  C   UNL A   1      42.433  14.864  41.128  1.00  0.00     0.068 A 
ATOM     15  C   UNL A   1      41.084  12.864  40.399  1.00  0.00     0.151 C 
ATOM     16  C   UNL A   1      43.728  16.346  42.526  1.00  0.00     0.046 A 
ATOM     17  C   UNL A   1      42.836  15.526  39.957  1.00  0.00     0.029 A 
ATOM     18  C   UNL A   1      43.721  16.608  40.101  1.00  0.00     0.018 A 
ENDBRANCH   6   8
ENDBRANCH   5   6
ENDBRANCH   4   5
ENDBRANCH   3   4
ENDBRANCH   2   3
ENDBRANCH   1   2
BRANCH   1  19
ATOM     19  C   UNL A   1      46.063  22.216  36.410  1.00  0.00     0.261 C 
BRANCH  19  20
ATOM     20  O   UNL A   1      45.102  22.595  35.408  1.00  0.00    -0.460 OA
BRANCH  20  21
ATOM     21  C   UNL A   1      44.543  23.823  35.540  1.00  0.00     0.338 C 
ATOM     22  O   UNL A   1      44.093  24.347  36.534  1.00  0.00    -0.246 OA
BRANCH  21  23
ATOM     23  C   UNL A   1      44.784  24.518  34.267  1.00  0.00     0.060 A 
ATOM     24  C   UNL A   1      45.513  25.704  34.241  1.00  0.00     0.016 A 
ATOM     25  C   UNL A   1      44.209  23.994  33.105  1.00  0.00     0.016 A 
ATOM     26  C   UNL A   1      45.661  26.375  33.031  1.00  0.00     0.010 A 
ATOM     27  C   UNL A   1      44.325  24.690  31.908  1.00  0.00     0.010 A 
ATOM     28  C   UNL A   1      45.062  25.878  31.859  1.00  0.00    -0.014 A 
BRANCH  28  29
ATOM     29  C   UNL A   1      45.313  26.580  30.586  1.00  0.00     0.031 A 
ATOM     30  C   UNL A   1      45.263  25.756  29.340  1.00  0.00     0.074 A 
ATOM     31  C   UNL A   1      45.109  27.908  30.473  1.00  0.00     0.049 A 
ATOM     32  N   UNL A   1      44.158  25.501  28.700  1.00  0.00    -0.248 NA
ATOM     33  C   UNL A   1      46.408  24.974  28.879  1.00  0.00     0.031 C 
ATOM     34  C   UNL A   1      44.069  28.636  31.210  1.00  0.00     0.029 A 
ATOM     35  N   UNL A   1      45.580  28.814  29.556  1.00  0.00    -0.354 N 
ATOM     36  C   UNL A   1      44.437  24.503  27.784  1.00  0.00     0.074 A 
ATOM     37  C   UNL A   1      45.851  24.221  27.918  1.00  0.00     0.031 C 
ATOM     38  C   UNL A   1      43.869  29.824  30.604  1.00  0.00     0.029 A 
ATOM     39  C   UNL A   1      44.864  30.008  29.548  1.00  0.00     0.049 A 
ATOM     40  H   UNL A   1      46.347  28.639  28.964  1.00  0.00     0.167 HD
ATOM     41  C   UNL A   1      43.496  23.945  26.977  1.00  0.00     0.037 A 
ATOM     42  C   UNL A   1      44.665  30.788  28.452  1.00  0.00     0.037 A 
ATOM     43  C   UNL A   1      42.164  24.448  27.117  1.00  0.00     0.049 A 
ATOM     44  C   UNL A   1      43.819  29.895  27.590  1.00  0.00     0.074 A 
ATOM     45  C   UNL A   1      41.019  24.112  27.807  1.00  0.00     0.029 A 
ATOM     46  N   UNL A   1      41.840  25.608  26.455  1.00  0.00    -0.354 N 
ATOM     47  N   UNL A   1      42.535  29.715  27.723  1.00  0.00    -0.248 NA
ATOM     48  C   UNL A   1      44.491  28.905  26.746  1.00  0.00     0.031 C 
ATOM     49  C   UNL A   1      40.257  25.321  27.891  1.00  0.00     0.029 A 
ATOM     50  C   UNL A   1      41.024  26.320  27.296  1.00  0.00     0.049 A 
ATOM     51  H   UNL A   1      42.135  25.874  25.555  1.00  0.00     0.167 HD
ATOM     52  C   UNL A   1      42.279  28.447  27.200  1.00  0.00     0.074 A 
ATOM     53  C   UNL A   1      43.516  28.020  26.578  1.00  0.00     0.031 C 
ATOM     54  C   UNL A   1      41.141  27.747  27.475  1.00  0.00     0.037 A 
BRANCH  41  55
ATOM     55  C   UNL A   1      43.783  22.987  25.894  1.00  0.00     0.057 A 
ATOM     56  C   UNL A   1      44.495  23.338  24.748  1.00  0.00     0.134 A 
ATOM     57  C   UNL A   1      43.539  21.628  26.127  1.00  0.00     0.134 A 
ATOM     58  F   UNL A   1      44.772  24.623  24.484  1.00  0.00    -0.206 F 
ATOM     59  C   UNL A   1      44.982  22.360  23.877  1.00  0.00     0.040 A 
ATOM     60  C   UNL A   1      44.024  20.641  25.272  1.00  0.00     0.040 A 
ATOM     61  F   UNL A   1      42.875  21.242  27.230  1.00  0.00    -0.206 F 
ATOM     62  C   UNL A   1      44.761  21.008  24.148  1.00  0.00     0.006 A 
ENDBRANCH  41  55
BRANCH  42  63
ATOM     63  C   UNL A   1      45.849  31.541  27.945  1.00  0.00     0.057 A 
ATOM     64  C   UNL A   1      47.068  30.973  27.554  1.00  0.00     0.134 A 
ATOM     65  C   UNL A   1      45.752  32.938  27.789  1.00  0.00     0.134 A 
ATOM     66  F   UNL A   1      47.246  29.645  27.541  1.00  0.00    -0.206 F 
ATOM     67  C   UNL A   1      48.162  31.750  27.154  1.00  0.00     0.040 A 
ATOM     68  C   UNL A   1      46.827  33.727  27.370  1.00  0.00     0.040 A 
ATOM     69  F   UNL A   1      44.592  33.571  28.030  1.00  0.00    -0.206 F 
ATOM     70  C   UNL A   1      48.048  33.133  27.075  1.00  0.00     0.006 A 
ENDBRANCH  42  63
BRANCH  54  71
ATOM     71  C   UNL A   1      40.130  28.495  28.279  1.00  0.00     0.057 A 
ATOM     72  C   UNL A   1      39.167  29.314  27.673  1.00  0.00     0.134 A 
ATOM     73  C   UNL A   1      40.088  28.369  29.672  1.00  0.00     0.134 A 
ATOM     74  F   UNL A   1      39.125  29.462  26.339  1.00  0.00    -0.206 F 
ATOM     75  C   UNL A   1      38.217  30.004  28.426  1.00  0.00     0.040 A 
ATOM     76  C   UNL A   1      39.123  29.031  30.433  1.00  0.00     0.040 A 
ATOM     77  F   UNL A   1      40.983  27.602  30.315  1.00  0.00    -0.206 F 
ATOM     78  C   UNL A   1      38.189  29.858  29.811  1.00  0.00     0.006 A 
ENDBRANCH  54  71
ENDBRANCH  28  29
ENDBRANCH  21  23
ENDBRANCH  20  21
ENDBRANCH  19  20
ENDBRANCH   1  19
TORSDOF 14
ENDMDL
MODEL 3
REMARK VINA RESULT:     -10.1      2.691      7.011
REMARK SMILES Cc1nc2cc(C(=O)OCCOCCOC(=O)c3ccc(-c4c5nc(c(-c6c(F)cccc6F)c6ccc([nH]6)c(-c6c(F)cccc6F)c6nc(c(-c7c(F)cccc7F)c7ccc4[nH]7)C=C6)C=C5)cc3)ccc2n1C
REMARK SMILES IDX 13 1 12 2 11 3 10 4 9 5 7 6 8 7 6 8 1 9 2 10 3 11 75 12 4 13
REMARK SMILES IDX 74 14 76 15 5 16 73 17 72 18 14 19 15 20 16 21 17 22 18 23
REMARK SMILES IDX 19 24 71 25 20 26 70 27 21 28 22 29 23 30 64 31 24 32 69 33
REMARK SMILES IDX 63 34 65 35 25 36 68 37 62 38 61 39 26 41 52 42 35 43 51 44
REMARK SMILES IDX 36 45 39 46 50 47 66 48 37 49 38 50 49 52 67 53 40 54 27 55
REMARK SMILES IDX 28 56 33 57 29 58 30 59 32 60 34 61 31 62 53 63 54 64 59 65
REMARK SMILES IDX 55 66 56 67 58 68 60 69 57 70 41 71 42 72 47 73 43 74 44 75
REMARK SMILES IDX 46 76 48 77 45 78
REMARK H PARENT 65 40 39 51
REMARK Flexibility Score: inf
ROOT
ATOM      1  C   UNL A   1      38.004  21.174  25.453  1.00  0.00     0.202 C 
ENDROOT
BRANCH   1   2
ATOM      2  O   UNL A   1      36.937  21.963  25.993  1.00  0.00    -0.374 OA
BRANCH   2   3
ATOM      3  C   UNL A   1      35.608  21.472  25.850  1.00  0.00     0.202 C 
BRANCH   3   4
ATOM      4  C   UNL A   1      34.725  22.170  24.807  1.00  0.00     0.261 C 
BRANCH   4   5
ATOM      5  O   UNL A   1      35.101  23.539  24.589  1.00  0.00    -0.460 OA
BRANCH   5   6
ATOM      6  C   UNL A   1      34.423  24.148  23.584  1.00  0.00     0.338 C 
ATOM      7  O   UNL A   1      34.303  23.752  22.435  1.00  0.00    -0.246 OA
BRANCH   6   8
ATOM      8  C   UNL A   1      33.707  25.342  24.079  1.00  0.00     0.062 A 
ATOM      9  C   UNL A   1      29.780  29.786  23.349  1.00  0.00     0.087 C 
ATOM     10  C   UNL A   1      30.772  28.738  23.700  1.00  0.00     0.106 A 
ATOM     11  N   UNL A   1      30.973  27.631  23.019  1.00  0.00    -0.233 NA
ATOM     12  N   UNL A   1      31.633  28.814  24.775  1.00  0.00    -0.331 N 
ATOM     13  C   UNL A   1      32.003  26.987  23.650  1.00  0.00     0.090 A 
ATOM     14  C   UNL A   1      32.417  27.682  24.783  1.00  0.00     0.068 A 
ATOM     15  C   UNL A   1      31.739  29.941  25.671  1.00  0.00     0.151 C 
ATOM     16  C   UNL A   1      32.650  25.805  23.283  1.00  0.00     0.046 A 
ATOM     17  C   UNL A   1      33.443  27.212  25.620  1.00  0.00     0.029 A 
ATOM     18  C   UNL A   1      34.082  26.018  25.246  1.00  0.00     0.018 A 
ENDBRANCH   6   8
ENDBRANCH   5   6
ENDBRANCH   4   5
ENDBRANCH   3   4
ENDBRANCH   2   3
ENDBRANCH   1   2
BRANCH   1  19
ATOM     19  C   UNL A   1      39.430  21.639  25.774  1.00  0.00     0.261 C 
BRANCH  19  20
ATOM     20  O   UNL A   1      39.559  21.879  27.186  1.00  0.00    -0.460 OA
BRANCH  20  21
ATOM     21  C   UNL A   1      40.822  21.958  27.674  1.00  0.00     0.338 C 
ATOM     22  O   UNL A   1      41.626  21.069  27.838  1.00  0.00    -0.246 OA
BRANCH  21  23
ATOM     23  C   UNL A   1      41.131  23.392  27.771  1.00  0.00     0.060 A 
ATOM     24  C   UNL A   1      42.439  23.841  27.605  1.00  0.00     0.016 A 
ATOM     25  C   UNL A   1      40.097  24.275  28.096  1.00  0.00     0.016 A 
ATOM     26  C   UNL A   1      42.712  25.194  27.775  1.00  0.00     0.010 A 
ATOM     27  C   UNL A   1      40.382  25.619  28.305  1.00  0.00     0.010 A 
ATOM     28  C   UNL A   1      41.688  26.091  28.134  1.00  0.00    -0.014 A 
BRANCH  28  29
ATOM     29  C   UNL A   1      42.008  27.528  28.224  1.00  0.00     0.031 A 
ATOM     30  C   UNL A   1      40.882  28.485  28.003  1.00  0.00     0.074 A 
ATOM     31  C   UNL A   1      43.075  27.960  28.927  1.00  0.00     0.049 A 
ATOM     32  N   UNL A   1      40.068  28.857  28.949  1.00  0.00    -0.248 NA
ATOM     33  C   UNL A   1      40.457  28.890  26.664  1.00  0.00     0.031 C 
ATOM     34  C   UNL A   1      43.573  27.294  30.138  1.00  0.00     0.029 A 
ATOM     35  N   UNL A   1      43.762  29.147  28.879  1.00  0.00    -0.354 N 
ATOM     36  C   UNL A   1      39.006  29.504  28.344  1.00  0.00     0.074 A 
ATOM     37  C   UNL A   1      39.300  29.518  26.926  1.00  0.00     0.031 C 
ATOM     38  C   UNL A   1      44.365  28.157  30.804  1.00  0.00     0.029 A 
ATOM     39  C   UNL A   1      44.559  29.363  30.000  1.00  0.00     0.049 A 
ATOM     40  H   UNL A   1      43.699  29.781  28.128  1.00  0.00     0.167 HD
ATOM     41  C   UNL A   1      37.932  29.978  29.028  1.00  0.00     0.037 A 
ATOM     42  C   UNL A   1      44.842  30.584  30.528  1.00  0.00     0.037 A 
ATOM     43  C   UNL A   1      37.945  29.776  30.445  1.00  0.00     0.049 A 
ATOM     44  C   UNL A   1      43.489  31.036  30.998  1.00  0.00     0.074 A 
ATOM     45  C   UNL A   1      37.452  28.854  31.344  1.00  0.00     0.029 A 
ATOM     46  N   UNL A   1      38.651  30.666  31.217  1.00  0.00    -0.354 N 
ATOM     47  N   UNL A   1      42.914  30.664  32.107  1.00  0.00    -0.248 NA
ATOM     48  C   UNL A   1      42.596  31.677  30.031  1.00  0.00     0.031 C 
ATOM     49  C   UNL A   1      38.274  28.980  32.508  1.00  0.00     0.029 A 
ATOM     50  C   UNL A   1      39.247  29.931  32.210  1.00  0.00     0.049 A 
ATOM     51  H   UNL A   1      38.717  31.639  31.084  1.00  0.00     0.167 HD
ATOM     52  C   UNL A   1      41.543  30.784  31.876  1.00  0.00     0.074 A 
ATOM     53  C   UNL A   1      41.416  31.451  30.596  1.00  0.00     0.031 C 
ATOM     54  C   UNL A   1      40.604  30.161  32.645  1.00  0.00     0.037 A 
BRANCH  41  55
ATOM     55  C   UNL A   1      36.856  30.796  28.438  1.00  0.00     0.057 A 
ATOM     56  C   UNL A   1      35.636  30.255  28.034  1.00  0.00     0.134 A 
ATOM     57  C   UNL A   1      36.971  32.190  28.499  1.00  0.00     0.134 A 
ATOM     58  F   UNL A   1      35.465  28.927  27.974  1.00  0.00    -0.206 F 
ATOM     59  C   UNL A   1      34.549  31.080  27.736  1.00  0.00     0.040 A 
ATOM     60  C   UNL A   1      35.894  33.025  28.211  1.00  0.00     0.040 A 
ATOM     61  F   UNL A   1      38.122  32.754  28.902  1.00  0.00    -0.206 F 
ATOM     62  C   UNL A   1      34.673  32.468  27.841  1.00  0.00     0.006 A 
ENDBRANCH  41  55
BRANCH  42  63
ATOM     63  C   UNL A   1      45.774  31.449  29.746  1.00  0.00     0.057 A 
ATOM     64  C   UNL A   1      45.549  31.919  28.446  1.00  0.00     0.134 A 
ATOM     65  C   UNL A   1      46.966  31.889  30.354  1.00  0.00     0.134 A 
ATOM     66  F   UNL A   1      44.401  31.672  27.803  1.00  0.00    -0.206 F 
ATOM     67  C   UNL A   1      46.502  32.671  27.748  1.00  0.00     0.040 A 
ATOM     68  C   UNL A   1      47.918  32.658  29.678  1.00  0.00     0.040 A 
ATOM     69  F   UNL A   1      47.228  31.588  31.637  1.00  0.00    -0.206 F 
ATOM     70  C   UNL A   1      47.698  33.031  28.359  1.00  0.00     0.006 A 
ENDBRANCH  42  63
BRANCH  54  71
ATOM     71  C   UNL A   1      41.151  29.441  33.832  1.00  0.00     0.057 A 
ATOM     72  C   UNL A   1      41.531  28.093  33.765  1.00  0.00     0.134 A 
ATOM     73  C   UNL A   1      41.340  30.106  35.048  1.00  0.00     0.134 A 
ATOM     74  F   UNL A   1      41.407  27.395  32.624  1.00  0.00    -0.206 F 
ATOM     75  C   UNL A   1      42.051  27.425  34.874  1.00  0.00     0.040 A 
ATOM     76  C   UNL A   1      41.887  29.455  36.156  1.00  0.00     0.040 A 
ATOM     77  F   UNL A   1      40.996  31.397  35.181  1.00  0.00    -0.206 F 
ATOM     78  C   UNL A   1      42.237  28.108  36.072  1.00  0.00     0.006 A 
ENDBRANCH  54  71
ENDBRANCH  28  29
ENDBRANCH  21  23
ENDBRANCH  20  21
ENDBRANCH  19  20
ENDBRANCH   1  19
TORSDOF 14
ENDMDL
