MODEL 1
REMARK VINA RESULT:     -11.4      0.000      0.000
REMARK SMILES CCc1ccc(C[NH+]2CCC3(CC2)[C@@H](C(=O)OCCOCCOC(=O)c2ccc(-c4c5nc(c(-c6c(F)cccc6F)c6ccc([nH]6)c(-c6c(F)cccc6F)c6nc(c(-c7c(F)cccc7F)c7ccc4[nH]7)C=C6)C=C5)cc2)CC(=O)N3C)nc1
REMARK SMILES IDX 19 1 18 2 17 3 15 4 16 5 14 6 8 7 9 8 13 9 10 11 12 12 11 13
REMARK SMILES IDX 83 14 80 15 81 16 84 17 82 18 7 19 6 20 3 21 4 22 86 23 5 24
REMARK SMILES IDX 85 25 2 26 1 27 20 28 21 29 22 30 23 31 24 32 25 33 26 34
REMARK SMILES IDX 27 35 79 36 28 37 78 38 29 39 30 40 31 41 72 42 32 43 77 44
REMARK SMILES IDX 71 45 73 46 33 47 76 48 70 49 69 50 34 52 60 53 43 54 59 55
REMARK SMILES IDX 44 56 47 57 58 58 74 59 45 60 46 61 57 63 75 64 48 65 35 66
REMARK SMILES IDX 36 67 41 68 37 69 38 70 40 71 42 72 39 73 61 74 62 75 67 76
REMARK SMILES IDX 63 77 64 78 66 79 68 80 65 81 49 82 50 83 55 84 51 85 52 86
REMARK SMILES IDX 54 87 56 88 53 89
REMARK H PARENT 8 10 73 51 47 62
REMARK Flexibility Score: inf
ROOT
ATOM      1  C   UNL A   1      34.376  21.511  26.902  1.00  0.00     0.202 C 
ENDROOT
BRANCH   1   2
ATOM      2  C   UNL A   1      33.600  22.841  27.007  1.00  0.00     0.261 C 
BRANCH   2   3
ATOM      3  O   UNL A   1      32.324  22.844  26.316  1.00  0.00    -0.463 OA
BRANCH   3   4
ATOM      4  C   UNL A   1      32.307  22.820  24.949  1.00  0.00     0.311 C 
ATOM      5  O   UNL A   1      31.631  22.056  24.277  1.00  0.00    -0.252 OA
BRANCH   4   6
ATOM      6  C   UNL A   1      33.286  23.849  24.385  1.00  0.00     0.134 C 
ATOM      7  N   UNL A   1      32.168  27.999  25.122  1.00  0.00    -0.330 N 
ATOM      8  C   UNL A   1      33.337  27.763  24.291  1.00  0.00     0.265 C 
ATOM      9  C   UNL A   1      31.064  27.100  24.806  1.00  0.00     0.265 C 
ATOM     10  H   UNL A   1      31.831  28.923  24.846  1.00  0.00     0.348 HD
ATOM     11  C   UNL A   1      33.821  26.310  24.251  1.00  0.00     0.091 C 
ATOM     12  C   UNL A   1      31.415  25.613  24.680  1.00  0.00     0.091 C 
ATOM     13  C   UNL A   1      32.722  25.251  23.961  1.00  0.00     0.067 C 
ATOM     14  N   UNL A   1      32.567  25.083  22.507  1.00  0.00    -0.339 N 
ATOM     15  C   UNL A   1      33.934  23.271  23.124  1.00  0.00     0.118 C 
ATOM     16  C   UNL A   1      33.274  24.007  21.994  1.00  0.00     0.223 C 
ATOM     17  C   UNL A   1      31.743  25.908  21.650  1.00  0.00     0.147 C 
ATOM     18  O   UNL A   1      33.386  23.708  20.815  1.00  0.00    -0.275 OA
BRANCH   7  19
ATOM     19  C   UNL A   1      32.419  28.267  26.556  1.00  0.00     0.319 C 
BRANCH  19  20
ATOM     20  C   UNL A   1      33.135  29.556  26.913  1.00  0.00     0.095 A 
ATOM     21  C   UNL A   1      34.156  31.904  27.991  1.00  0.00    -0.030 A 
ATOM     22  C   UNL A   1      34.963  30.774  27.917  1.00  0.00     0.007 A 
ATOM     23  C   UNL A   1      32.919  31.797  27.386  1.00  0.00     0.115 A 
ATOM     24  C   UNL A   1      34.453  29.587  27.364  1.00  0.00     0.030 A 
ATOM     25  N   UNL A   1      32.397  30.676  26.860  1.00  0.00    -0.255 NA
BRANCH  21  26
ATOM     26  C   UNL A   1      34.421  33.147  28.794  1.00  0.00     0.034 C 
ATOM     27  C   UNL A   1      34.849  34.392  28.045  1.00  0.00     0.009 C 
ENDBRANCH  21  26
ENDBRANCH  19  20
ENDBRANCH   7  19
ENDBRANCH   4   6
ENDBRANCH   3   4
ENDBRANCH   2   3
ENDBRANCH   1   2
BRANCH   1  28
ATOM     28  O   UNL A   1      35.652  21.595  26.268  1.00  0.00    -0.374 OA
BRANCH  28  29
ATOM     29  C   UNL A   1      35.809  20.769  25.119  1.00  0.00     0.202 C 
BRANCH  29  30
ATOM     30  C   UNL A   1      37.227  20.247  24.873  1.00  0.00     0.261 C 
BRANCH  30  31
ATOM     31  O   UNL A   1      38.215  21.285  25.033  1.00  0.00    -0.460 OA
BRANCH  31  32
ATOM     32  C   UNL A   1      39.242  20.987  25.853  1.00  0.00     0.338 C 
ATOM     33  O   UNL A   1      39.834  19.916  25.916  1.00  0.00    -0.246 OA
BRANCH  32  34
ATOM     34  C   UNL A   1      39.695  22.166  26.624  1.00  0.00     0.060 A 
ATOM     35  C   UNL A   1      39.067  23.382  26.335  1.00  0.00     0.016 A 
ATOM     36  C   UNL A   1      40.754  22.134  27.537  1.00  0.00     0.016 A 
ATOM     37  C   UNL A   1      39.546  24.570  26.881  1.00  0.00     0.010 A 
ATOM     38  C   UNL A   1      41.213  23.329  28.117  1.00  0.00     0.010 A 
ATOM     39  C   UNL A   1      40.653  24.563  27.742  1.00  0.00    -0.014 A 
BRANCH  39  40
ATOM     40  C   UNL A   1      41.300  25.863  28.084  1.00  0.00     0.031 A 
ATOM     41  C   UNL A   1      42.683  26.162  27.560  1.00  0.00     0.074 A 
ATOM     42  C   UNL A   1      40.626  26.818  28.754  1.00  0.00     0.049 A 
ATOM     43  N   UNL A   1      43.389  27.262  27.656  1.00  0.00    -0.248 NA
ATOM     44  C   UNL A   1      43.361  25.080  26.831  1.00  0.00     0.031 C 
ATOM     45  C   UNL A   1      39.273  26.680  29.286  1.00  0.00     0.029 A 
ATOM     46  N   UNL A   1      40.983  28.105  29.080  1.00  0.00    -0.354 N 
ATOM     47  C   UNL A   1      44.588  27.002  27.002  1.00  0.00     0.074 A 
ATOM     48  C   UNL A   1      44.536  25.626  26.559  1.00  0.00     0.031 C 
ATOM     49  C   UNL A   1      38.904  27.840  29.854  1.00  0.00     0.029 A 
ATOM     50  C   UNL A   1      40.005  28.796  29.754  1.00  0.00     0.049 A 
ATOM     51  H   UNL A   1      41.859  28.495  28.853  1.00  0.00     0.167 HD
ATOM     52  C   UNL A   1      45.632  27.834  26.770  1.00  0.00     0.037 A 
ATOM     53  C   UNL A   1      39.997  30.055  30.239  1.00  0.00     0.037 A 
ATOM     54  C   UNL A   1      45.687  29.208  27.197  1.00  0.00     0.049 A 
ATOM     55  C   UNL A   1      41.197  30.941  30.028  1.00  0.00     0.074 A 
ATOM     56  C   UNL A   1      46.694  30.135  26.989  1.00  0.00     0.029 A 
ATOM     57  N   UNL A   1      44.699  29.849  27.927  1.00  0.00    -0.354 N 
ATOM     58  N   UNL A   1      42.307  30.691  29.377  1.00  0.00    -0.248 NA
ATOM     59  C   UNL A   1      41.139  32.289  30.613  1.00  0.00     0.031 C 
ATOM     60  C   UNL A   1      46.342  31.318  27.645  1.00  0.00     0.029 A 
ATOM     61  C   UNL A   1      45.087  31.150  28.207  1.00  0.00     0.049 A 
ATOM     62  H   UNL A   1      43.848  29.441  28.207  1.00  0.00     0.167 HD
ATOM     63  C   UNL A   1      43.064  31.855  29.450  1.00  0.00     0.074 A 
ATOM     64  C   UNL A   1      42.279  32.817  30.194  1.00  0.00     0.031 C 
ATOM     65  C   UNL A   1      44.298  32.104  28.945  1.00  0.00     0.037 A 
BRANCH  52  66
ATOM     66  C   UNL A   1      46.817  27.272  26.035  1.00  0.00     0.057 A 
ATOM     67  C   UNL A   1      46.971  27.416  24.649  1.00  0.00     0.134 A 
ATOM     68  C   UNL A   1      47.832  26.602  26.728  1.00  0.00     0.134 A 
ATOM     69  F   UNL A   1      46.030  28.037  23.921  1.00  0.00    -0.206 F 
ATOM     70  C   UNL A   1      48.075  26.887  23.978  1.00  0.00     0.040 A 
ATOM     71  C   UNL A   1      48.956  26.097  26.072  1.00  0.00     0.040 A 
ATOM     72  F   UNL A   1      47.755  26.434  28.057  1.00  0.00    -0.206 F 
ATOM     73  C   UNL A   1      49.076  26.231  24.691  1.00  0.00     0.006 A 
ENDBRANCH  52  66
BRANCH  53  74
ATOM     74  C   UNL A   1      38.812  30.558  30.982  1.00  0.00     0.057 A 
ATOM     75  C   UNL A   1      37.822  31.321  30.351  1.00  0.00     0.134 A 
ATOM     76  C   UNL A   1      38.654  30.309  32.351  1.00  0.00     0.134 A 
ATOM     77  F   UNL A   1      37.926  31.617  29.047  1.00  0.00    -0.206 F 
ATOM     78  C   UNL A   1      36.731  31.835  31.056  1.00  0.00     0.040 A 
ATOM     79  C   UNL A   1      37.554  30.791  33.063  1.00  0.00     0.040 A 
ATOM     80  F   UNL A   1      39.565  29.584  33.017  1.00  0.00    -0.206 F 
ATOM     81  C   UNL A   1      36.593  31.564  32.416  1.00  0.00     0.006 A 
ENDBRANCH  53  74
BRANCH  65  82
ATOM     82  C   UNL A   1      44.866  33.482  29.144  1.00  0.00     0.057 A 
ATOM     83  C   UNL A   1      45.691  33.796  30.231  1.00  0.00     0.134 A 
ATOM     84  C   UNL A   1      44.617  34.497  28.210  1.00  0.00     0.134 A 
ATOM     85  F   UNL A   1      45.962  32.875  31.168  1.00  0.00    -0.206 F 
ATOM     86  C   UNL A   1      46.227  35.075  30.396  1.00  0.00     0.040 A 
ATOM     87  C   UNL A   1      45.171  35.770  28.348  1.00  0.00     0.040 A 
ATOM     88  F   UNL A   1      43.845  34.263  27.138  1.00  0.00    -0.206 F 
ATOM     89  C   UNL A   1      45.973  36.064  29.448  1.00  0.00     0.006 A 
ENDBRANCH  65  82
ENDBRANCH  39  40
ENDBRANCH  32  34
ENDBRANCH  31  32
ENDBRANCH  30  31
ENDBRANCH  29  30
ENDBRANCH  28  29
ENDBRANCH   1  28
TORSDOF 17
ENDMDL
MODEL 2
REMARK VINA RESULT:     -11.2      0.989      6.076
REMARK SMILES CCc1ccc(C[NH+]2CCC3(CC2)[C@@H](C(=O)OCCOCCOC(=O)c2ccc(-c4c5nc(c(-c6c(F)cccc6F)c6ccc([nH]6)c(-c6c(F)cccc6F)c6nc(c(-c7c(F)cccc7F)c7ccc4[nH]7)C=C6)C=C5)cc2)CC(=O)N3C)nc1
REMARK SMILES IDX 19 1 18 2 17 3 15 4 16 5 14 6 8 7 9 8 13 9 10 11 12 12 11 13
REMARK SMILES IDX 83 14 80 15 81 16 84 17 82 18 7 19 6 20 3 21 4 22 86 23 5 24
REMARK SMILES IDX 85 25 2 26 1 27 20 28 21 29 22 30 23 31 24 32 25 33 26 34
REMARK SMILES IDX 27 35 79 36 28 37 78 38 29 39 30 40 31 41 72 42 32 43 77 44
REMARK SMILES IDX 71 45 73 46 33 47 76 48 70 49 69 50 34 52 60 53 43 54 59 55
REMARK SMILES IDX 44 56 47 57 58 58 74 59 45 60 46 61 57 63 75 64 48 65 35 66
REMARK SMILES IDX 36 67 41 68 37 69 38 70 40 71 42 72 39 73 61 74 62 75 67 76
REMARK SMILES IDX 63 77 64 78 66 79 68 80 65 81 49 82 50 83 55 84 51 85 52 86
REMARK SMILES IDX 54 87 56 88 53 89
REMARK H PARENT 8 10 73 51 47 62
REMARK Flexibility Score: inf
ROOT
ATOM      1  C   UNL A   1      35.116  20.208  24.955  1.00  0.00     0.202 C 
ENDROOT
BRANCH   1   2
ATOM      2  C   UNL A   1      33.802  20.643  25.638  1.00  0.00     0.261 C 
BRANCH   2   3
ATOM      3  O   UNL A   1      33.411  22.013  25.361  1.00  0.00    -0.463 OA
BRANCH   3   4
ATOM      4  C   UNL A   1      33.969  23.026  26.093  1.00  0.00     0.311 C 
ATOM      5  O   UNL A   1      34.217  22.963  27.287  1.00  0.00    -0.252 OA
BRANCH   4   6
ATOM      6  C   UNL A   1      34.192  24.257  25.216  1.00  0.00     0.134 C 
ATOM      7  N   UNL A   1      31.413  27.535  25.960  1.00  0.00    -0.330 N 
ATOM      8  C   UNL A   1      32.347  27.691  24.856  1.00  0.00     0.265 C 
ATOM      9  C   UNL A   1      30.835  26.198  26.019  1.00  0.00     0.265 C 
ATOM     10  H   UNL A   1      30.627  28.143  25.728  1.00  0.00     0.348 HD
ATOM     11  C   UNL A   1      33.445  26.626  24.780  1.00  0.00     0.091 C 
ATOM     12  C   UNL A   1      31.817  25.027  25.899  1.00  0.00     0.091 C 
ATOM     13  C   UNL A   1      32.952  25.156  24.873  1.00  0.00     0.067 C 
ATOM     14  N   UNL A   1      32.592  24.668  23.532  1.00  0.00    -0.339 N 
ATOM     15  C   UNL A   1      34.754  23.803  23.865  1.00  0.00     0.118 C 
ATOM     16  C   UNL A   1      33.599  23.943  22.916  1.00  0.00     0.223 C 
ATOM     17  C   UNL A   1      31.313  24.865  22.883  1.00  0.00     0.147 C 
ATOM     18  O   UNL A   1      33.587  23.510  21.773  1.00  0.00    -0.275 OA
BRANCH   7  19
ATOM     19  C   UNL A   1      31.804  28.149  27.249  1.00  0.00     0.319 C 
BRANCH  19  20
ATOM     20  C   UNL A   1      32.861  29.237  27.215  1.00  0.00     0.095 A 
ATOM     21  C   UNL A   1      34.618  31.349  27.619  1.00  0.00    -0.030 A 
ATOM     22  C   UNL A   1      35.103  30.046  27.601  1.00  0.00     0.007 A 
ATOM     23  C   UNL A   1      33.284  31.497  27.297  1.00  0.00     0.115 A 
ATOM     24  C   UNL A   1      34.218  28.975  27.387  1.00  0.00     0.030 A 
ATOM     25  N   UNL A   1      32.409  30.496  27.099  1.00  0.00    -0.255 NA
BRANCH  21  26
ATOM     26  C   UNL A   1      35.344  32.572  28.111  1.00  0.00     0.034 C 
ATOM     27  C   UNL A   1      34.613  33.486  29.071  1.00  0.00     0.009 C 
ENDBRANCH  21  26
ENDBRANCH  19  20
ENDBRANCH   7  19
ENDBRANCH   4   6
ENDBRANCH   3   4
ENDBRANCH   2   3
ENDBRANCH   1   2
BRANCH   1  28
ATOM     28  O   UNL A   1      36.312  20.713  25.550  1.00  0.00    -0.374 OA
BRANCH  28  29
ATOM     29  C   UNL A   1      37.479  20.603  24.743  1.00  0.00     0.202 C 
BRANCH  29  30
ATOM     30  C   UNL A   1      38.410  19.436  25.087  1.00  0.00     0.261 C 
BRANCH  30  31
ATOM     31  O   UNL A   1      39.062  19.630  26.358  1.00  0.00    -0.460 OA
BRANCH  31  32
ATOM     32  C   UNL A   1      40.378  19.916  26.298  1.00  0.00     0.338 C 
ATOM     33  O   UNL A   1      41.250  19.220  25.791  1.00  0.00    -0.246 OA
BRANCH  32  34
ATOM     34  C   UNL A   1      40.674  21.271  26.814  1.00  0.00     0.060 A 
ATOM     35  C   UNL A   1      40.050  22.339  26.162  1.00  0.00     0.016 A 
ATOM     36  C   UNL A   1      41.592  21.525  27.838  1.00  0.00     0.016 A 
ATOM     37  C   UNL A   1      40.404  23.652  26.463  1.00  0.00     0.010 A 
ATOM     38  C   UNL A   1      41.921  22.851  28.168  1.00  0.00     0.010 A 
ATOM     39  C   UNL A   1      41.377  23.923  27.437  1.00  0.00    -0.014 A 
BRANCH  39  40
ATOM     40  C   UNL A   1      41.922  25.308  27.537  1.00  0.00     0.031 A 
ATOM     41  C   UNL A   1      41.157  26.349  28.316  1.00  0.00     0.074 A 
ATOM     42  C   UNL A   1      43.137  25.612  27.043  1.00  0.00     0.049 A 
ATOM     43  N   UNL A   1      41.493  27.581  28.609  1.00  0.00    -0.248 NA
ATOM     44  C   UNL A   1      39.840  25.950  28.836  1.00  0.00     0.031 C 
ATOM     45  C   UNL A   1      44.000  24.696  26.301  1.00  0.00     0.029 A 
ATOM     46  N   UNL A   1      43.867  26.775  27.112  1.00  0.00    -0.354 N 
ATOM     47  C   UNL A   1      40.432  28.100  29.344  1.00  0.00     0.074 A 
ATOM     48  C   UNL A   1      39.421  27.068  29.408  1.00  0.00     0.031 C 
ATOM     49  C   UNL A   1      45.150  25.322  26.000  1.00  0.00     0.029 A 
ATOM     50  C   UNL A   1      45.095  26.694  26.502  1.00  0.00     0.049 A 
ATOM     51  H   UNL A   1      43.540  27.591  27.557  1.00  0.00     0.167 HD
ATOM     52  C   UNL A   1      40.314  29.316  29.931  1.00  0.00     0.037 A 
ATOM     53  C   UNL A   1      46.066  27.620  26.359  1.00  0.00     0.037 A 
ATOM     54  C   UNL A   1      41.321  30.344  29.882  1.00  0.00     0.049 A 
ATOM     55  C   UNL A   1      45.884  28.988  26.963  1.00  0.00     0.074 A 
ATOM     56  C   UNL A   1      41.299  31.599  30.466  1.00  0.00     0.029 A 
ATOM     57  N   UNL A   1      42.525  30.240  29.204  1.00  0.00    -0.354 N 
ATOM     58  N   UNL A   1      44.890  29.450  27.683  1.00  0.00    -0.248 NA
ATOM     59  C   UNL A   1      46.963  29.962  26.740  1.00  0.00     0.031 C 
ATOM     60  C   UNL A   1      42.463  32.277  30.089  1.00  0.00     0.029 A 
ATOM     61  C   UNL A   1      43.240  31.421  29.326  1.00  0.00     0.049 A 
ATOM     62  H   UNL A   1      42.828  29.445  28.707  1.00  0.00     0.167 HD
ATOM     63  C   UNL A   1      45.237  30.753  28.022  1.00  0.00     0.074 A 
ATOM     64  C   UNL A   1      46.539  31.003  27.442  1.00  0.00     0.031 C 
ATOM     65  C   UNL A   1      44.539  31.660  28.749  1.00  0.00     0.037 A 
BRANCH  52  66
ATOM     66  C   UNL A   1      39.035  29.610  30.663  1.00  0.00     0.057 A 
ATOM     67  C   UNL A   1      37.973  30.300  30.060  1.00  0.00     0.134 A 
ATOM     68  C   UNL A   1      38.851  29.174  31.981  1.00  0.00     0.134 A 
ATOM     69  F   UNL A   1      38.086  30.758  28.803  1.00  0.00    -0.206 F 
ATOM     70  C   UNL A   1      36.791  30.570  30.752  1.00  0.00     0.040 A 
ATOM     71  C   UNL A   1      37.661  29.410  32.671  1.00  0.00     0.040 A 
ATOM     72  F   UNL A   1      39.822  28.501  32.617  1.00  0.00    -0.206 F 
ATOM     73  C   UNL A   1      36.629  30.117  32.059  1.00  0.00     0.006 A 
ENDBRANCH  52  66
BRANCH  53  74
ATOM     74  C   UNL A   1      47.303  27.290  25.603  1.00  0.00     0.057 A 
ATOM     75  C   UNL A   1      47.423  27.570  24.236  1.00  0.00     0.134 A 
ATOM     76  C   UNL A   1      48.388  26.660  26.226  1.00  0.00     0.134 A 
ATOM     77  F   UNL A   1      46.410  28.148  23.574  1.00  0.00    -0.206 F 
ATOM     78  C   UNL A   1      48.565  27.220  23.513  1.00  0.00     0.040 A 
ATOM     79  C   UNL A   1      49.548  26.330  25.523  1.00  0.00     0.040 A 
ATOM     80  F   UNL A   1      48.340  26.364  27.534  1.00  0.00    -0.206 F 
ATOM     81  C   UNL A   1      49.635  26.603  24.159  1.00  0.00     0.006 A 
ENDBRANCH  53  74
BRANCH  65  82
ATOM     82  C   UNL A   1      45.181  32.998  28.994  1.00  0.00     0.057 A 
ATOM     83  C   UNL A   1      44.955  34.096  28.155  1.00  0.00     0.134 A 
ATOM     84  C   UNL A   1      46.003  33.200  30.111  1.00  0.00     0.134 A 
ATOM     85  F   UNL A   1      44.186  33.971  27.062  1.00  0.00    -0.206 F 
ATOM     86  C   UNL A   1      45.544  35.338  28.402  1.00  0.00     0.040 A 
ATOM     87  C   UNL A   1      46.572  34.444  30.386  1.00  0.00     0.040 A 
ATOM     88  F   UNL A   1      46.252  32.195  30.964  1.00  0.00    -0.206 F 
ATOM     89  C   UNL A   1      46.349  35.516  29.526  1.00  0.00     0.006 A 
ENDBRANCH  65  82
ENDBRANCH  39  40
ENDBRANCH  32  34
ENDBRANCH  31  32
ENDBRANCH  30  31
ENDBRANCH  29  30
ENDBRANCH  28  29
ENDBRANCH   1  28
TORSDOF 17
ENDMDL
MODEL 3
REMARK VINA RESULT:     -11.1      3.647      6.507
REMARK SMILES CCc1ccc(C[NH+]2CCC3(CC2)[C@@H](C(=O)OCCOCCOC(=O)c2ccc(-c4c5nc(c(-c6c(F)cccc6F)c6ccc([nH]6)c(-c6c(F)cccc6F)c6nc(c(-c7c(F)cccc7F)c7ccc4[nH]7)C=C6)C=C5)cc2)CC(=O)N3C)nc1
REMARK SMILES IDX 19 1 18 2 17 3 15 4 16 5 14 6 8 7 9 8 13 9 10 11 12 12 11 13
REMARK SMILES IDX 83 14 80 15 81 16 84 17 82 18 7 19 6 20 3 21 4 22 86 23 5 24
REMARK SMILES IDX 85 25 2 26 1 27 20 28 21 29 22 30 23 31 24 32 25 33 26 34
REMARK SMILES IDX 27 35 79 36 28 37 78 38 29 39 30 40 31 41 72 42 32 43 77 44
REMARK SMILES IDX 71 45 73 46 33 47 76 48 70 49 69 50 34 52 60 53 43 54 59 55
REMARK SMILES IDX 44 56 47 57 58 58 74 59 45 60 46 61 57 63 75 64 48 65 35 66
REMARK SMILES IDX 36 67 41 68 37 69 38 70 40 71 42 72 39 73 61 74 62 75 67 76
REMARK SMILES IDX 63 77 64 78 66 79 68 80 65 81 49 82 50 83 55 84 51 85 52 86
REMARK SMILES IDX 54 87 56 88 53 89
REMARK H PARENT 8 10 73 51 47 62
REMARK Flexibility Score: inf
ROOT
ATOM      1  C   UNL A   1      40.945  21.571  25.919  1.00  0.00     0.202 C 
ENDROOT
BRANCH   1   2
ATOM      2  C   UNL A   1      39.912  22.196  26.880  1.00  0.00     0.261 C 
BRANCH   2   3
ATOM      3  O   UNL A   1      38.541  22.125  26.411  1.00  0.00    -0.463 OA
BRANCH   3   4
ATOM      4  C   UNL A   1      37.947  23.253  25.915  1.00  0.00     0.311 C 
ATOM      5  O   UNL A   1      38.084  24.372  26.385  1.00  0.00    -0.252 OA
BRANCH   4   6
ATOM      6  C   UNL A   1      37.056  22.907  24.723  1.00  0.00     0.134 C 
ATOM      7  N   UNL A   1      33.344  25.188  24.521  1.00  0.00    -0.330 N 
ATOM      8  C   UNL A   1      33.532  24.133  23.537  1.00  0.00     0.265 C 
ATOM      9  C   UNL A   1      33.760  24.786  25.859  1.00  0.00     0.265 C 
ATOM     10  H   UNL A   1      32.332  25.303  24.592  1.00  0.00     0.348 HD
ATOM     11  C   UNL A   1      34.935  23.521  23.504  1.00  0.00     0.091 C 
ATOM     12  C   UNL A   1      35.129  24.105  25.969  1.00  0.00     0.091 C 
ATOM     13  C   UNL A   1      35.505  23.088  24.883  1.00  0.00     0.067 C 
ATOM     14  N   UNL A   1      35.074  21.714  25.188  1.00  0.00    -0.339 N 
ATOM     15  C   UNL A   1      37.261  21.432  24.368  1.00  0.00     0.118 C 
ATOM     16  C   UNL A   1      36.019  20.752  24.867  1.00  0.00     0.223 C 
ATOM     17  C   UNL A   1      33.813  21.346  25.797  1.00  0.00     0.147 C 
ATOM     18  O   UNL A   1      35.873  19.541  24.936  1.00  0.00    -0.275 OA
BRANCH   7  19
ATOM     19  C   UNL A   1      33.701  26.560  24.096  1.00  0.00     0.319 C 
BRANCH  19  20
ATOM     20  C   UNL A   1      32.566  27.514  23.779  1.00  0.00     0.095 A 
ATOM     21  C   UNL A   1      30.183  28.858  23.297  1.00  0.00    -0.030 A 
ATOM     22  C   UNL A   1      30.944  29.186  24.414  1.00  0.00     0.007 A 
ATOM     23  C   UNL A   1      30.757  27.953  22.426  1.00  0.00     0.115 A 
ATOM     24  C   UNL A   1      32.155  28.515  24.656  1.00  0.00     0.030 A 
ATOM     25  N   UNL A   1      31.905  27.285  22.633  1.00  0.00    -0.255 NA
BRANCH  21  26
ATOM     26  C   UNL A   1      28.755  29.250  23.035  1.00  0.00     0.034 C 
ATOM     27  C   UNL A   1      28.445  29.949  21.729  1.00  0.00     0.009 C 
ENDBRANCH  21  26
ENDBRANCH  19  20
ENDBRANCH   7  19
ENDBRANCH   4   6
ENDBRANCH   3   4
ENDBRANCH   2   3
ENDBRANCH   1   2
BRANCH   1  28
ATOM     28  O   UNL A   1      42.171  21.155  26.524  1.00  0.00    -0.374 OA
BRANCH  28  29
ATOM     29  C   UNL A   1      43.285  21.089  25.641  1.00  0.00     0.202 C 
BRANCH  29  30
ATOM     30  C   UNL A   1      44.245  22.282  25.702  1.00  0.00     0.261 C 
BRANCH  30  31
ATOM     31  O   UNL A   1      43.823  23.353  24.834  1.00  0.00    -0.460 OA
BRANCH  31  32
ATOM     32  C   UNL A   1      44.367  24.558  25.093  1.00  0.00     0.338 C 
ATOM     33  O   UNL A   1      45.408  25.001  24.621  1.00  0.00    -0.246 OA
BRANCH  32  34
ATOM     34  C   UNL A   1      43.490  25.391  25.946  1.00  0.00     0.060 A 
ATOM     35  C   UNL A   1      43.983  26.647  26.311  1.00  0.00     0.016 A 
ATOM     36  C   UNL A   1      42.266  24.951  26.459  1.00  0.00     0.016 A 
ATOM     37  C   UNL A   1      43.308  27.423  27.251  1.00  0.00     0.010 A 
ATOM     38  C   UNL A   1      41.566  25.751  27.378  1.00  0.00     0.010 A 
ATOM     39  C   UNL A   1      42.116  26.965  27.830  1.00  0.00    -0.014 A 
BRANCH  39  40
ATOM     40  C   UNL A   1      41.574  27.687  29.017  1.00  0.00     0.031 A 
ATOM     41  C   UNL A   1      42.308  27.604  30.332  1.00  0.00     0.074 A 
ATOM     42  C   UNL A   1      40.508  28.504  28.905  1.00  0.00     0.049 A 
ATOM     43  N   UNL A   1      42.067  28.226  31.460  1.00  0.00    -0.248 NA
ATOM     44  C   UNL A   1      43.468  26.701  30.385  1.00  0.00     0.031 C 
ATOM     45  C   UNL A   1      39.727  28.708  27.688  1.00  0.00     0.029 A 
ATOM     46  N   UNL A   1      39.914  29.332  29.827  1.00  0.00    -0.354 N 
ATOM     47  C   UNL A   1      43.043  27.790  32.351  1.00  0.00     0.074 A 
ATOM     48  C   UNL A   1      43.845  26.813  31.649  1.00  0.00     0.031 C 
ATOM     49  C   UNL A   1      38.768  29.618  27.930  1.00  0.00     0.029 A 
ATOM     50  C   UNL A   1      38.848  30.040  29.328  1.00  0.00     0.049 A 
ATOM     51  H   UNL A   1      40.223  29.410  30.759  1.00  0.00     0.167 HD
ATOM     52  C   UNL A   1      43.266  28.179  33.629  1.00  0.00     0.037 A 
ATOM     53  C   UNL A   1      38.026  30.926  29.926  1.00  0.00     0.037 A 
ATOM     54  C   UNL A   1      42.479  29.159  34.331  1.00  0.00     0.049 A 
ATOM     55  C   UNL A   1      38.253  31.293  31.370  1.00  0.00     0.074 A 
ATOM     56  C   UNL A   1      42.644  29.634  35.621  1.00  0.00     0.029 A 
ATOM     57  N   UNL A   1      41.373  29.809  33.805  1.00  0.00    -0.354 N 
ATOM     58  N   UNL A   1      39.199  30.898  32.186  1.00  0.00    -0.248 NA
ATOM     59  C   UNL A   1      37.299  32.237  31.974  1.00  0.00     0.031 C 
ATOM     60  C   UNL A   1      41.601  30.524  35.896  1.00  0.00     0.029 A 
ATOM     61  C   UNL A   1      40.825  30.655  34.756  1.00  0.00     0.049 A 
ATOM     62  H   UNL A   1      41.027  29.686  32.891  1.00  0.00     0.167 HD
ATOM     63  C   UNL A   1      38.973  31.564  33.386  1.00  0.00     0.074 A 
ATOM     64  C   UNL A   1      37.809  32.401  33.185  1.00  0.00     0.031 C 
ATOM     65  C   UNL A   1      39.668  31.489  34.548  1.00  0.00     0.037 A 
BRANCH  52  66
ATOM     66  C   UNL A   1      44.401  27.523  34.365  1.00  0.00     0.057 A 
ATOM     67  C   UNL A   1      45.691  28.072  34.388  1.00  0.00     0.134 A 
ATOM     68  C   UNL A   1      44.194  26.339  35.084  1.00  0.00     0.134 A 
ATOM     69  F   UNL A   1      45.962  29.199  33.710  1.00  0.00    -0.206 F 
ATOM     70  C   UNL A   1      46.737  27.452  35.073  1.00  0.00     0.040 A 
ATOM     71  C   UNL A   1      45.225  25.727  35.799  1.00  0.00     0.040 A 
ATOM     72  F   UNL A   1      42.983  25.762  35.113  1.00  0.00    -0.206 F 
ATOM     73  C   UNL A   1      46.504  26.279  35.788  1.00  0.00     0.006 A 
ENDBRANCH  52  66
BRANCH  53  74
ATOM     74  C   UNL A   1      36.900  31.529  29.165  1.00  0.00     0.057 A 
ATOM     75  C   UNL A   1      36.952  32.852  28.707  1.00  0.00     0.134 A 
ATOM     76  C   UNL A   1      35.732  30.804  28.900  1.00  0.00     0.134 A 
ATOM     77  F   UNL A   1      38.032  33.609  28.951  1.00  0.00    -0.206 F 
ATOM     78  C   UNL A   1      35.878  33.437  28.032  1.00  0.00     0.040 A 
ATOM     79  C   UNL A   1      34.662  31.366  28.200  1.00  0.00     0.040 A 
ATOM     80  F   UNL A   1      35.617  29.532  29.309  1.00  0.00    -0.206 F 
ATOM     81  C   UNL A   1      34.731  32.690  27.772  1.00  0.00     0.006 A 
ENDBRANCH  53  74
BRANCH  65  82
ATOM     82  C   UNL A   1      39.216  32.361  35.686  1.00  0.00     0.057 A 
ATOM     83  C   UNL A   1      38.314  31.907  36.657  1.00  0.00     0.134 A 
ATOM     84  C   UNL A   1      39.725  33.658  35.836  1.00  0.00     0.134 A 
ATOM     85  F   UNL A   1      37.781  30.680  36.570  1.00  0.00    -0.206 F 
ATOM     86  C   UNL A   1      37.914  32.721  37.720  1.00  0.00     0.040 A 
ATOM     87  C   UNL A   1      39.357  34.470  36.910  1.00  0.00     0.040 A 
ATOM     88  F   UNL A   1      40.602  34.153  34.949  1.00  0.00    -0.206 F 
ATOM     89  C   UNL A   1      38.443  34.004  37.851  1.00  0.00     0.006 A 
ENDBRANCH  65  82
ENDBRANCH  39  40
ENDBRANCH  32  34
ENDBRANCH  31  32
ENDBRANCH  30  31
ENDBRANCH  29  30
ENDBRANCH  28  29
ENDBRANCH   1  28
TORSDOF 17
ENDMDL
