MODEL 1
REMARK VINA RESULT:     -10.2      0.000      0.000
REMARK SMILES CC[C@@H](C)OC(=O)C[C@@H]1C(=O)NCCN1C(=O)[C@@H]1CCCC[C@@H]1C(=O)OCCOCCOC(=O)c1ccc(-c2c3nc(c(-c4c(F)cccc4F)c4ccc([nH]4)c(-c4c(F)cccc4F)c4nc(c(-c5c(F)cccc5F)c5ccc2[nH]5)C=C4)C=C3)cc1
REMARK SMILES IDX 27 1 26 2 24 3 25 4 23 5 18 6 19 7 20 8 22 9 21 10 16 11
REMARK SMILES IDX 17 12 15 13 9 14 10 15 11 16 12 17 14 18 13 19 8 21 6 22
REMARK SMILES IDX 7 23 5 24 3 25 4 26 2 27 1 28 28 29 29 30 30 31 31 32 32 33
REMARK SMILES IDX 33 34 34 35 35 36 36 37 88 38 37 39 87 40 38 41 39 42 40 43
REMARK SMILES IDX 81 44 41 45 86 46 80 47 82 48 42 49 85 50 79 51 78 52 43 54
REMARK SMILES IDX 69 55 52 56 68 57 53 58 56 59 67 60 83 61 54 62 55 63 66 65
REMARK SMILES IDX 84 66 57 67 44 68 45 69 50 70 46 71 47 72 49 73 51 74 48 75
REMARK SMILES IDX 70 76 71 77 76 78 72 79 73 80 75 81 77 82 74 83 58 84 59 85
REMARK SMILES IDX 64 86 60 87 61 88 63 89 65 90 62 91
REMARK H PARENT 12 20 82 53 56 64
REMARK Flexibility Score: inf
ROOT
ATOM      1  C   UNL A   1      33.382  26.748  26.406  1.00  0.00     0.261 C 
ENDROOT
BRANCH   1   2
ATOM      2  O   UNL A   1      34.403  26.157  25.593  1.00  0.00    -0.463 OA
BRANCH   2   3
ATOM      3  C   UNL A   1      34.404  24.808  25.659  1.00  0.00     0.309 C 
ATOM      4  O   UNL A   1      33.728  24.175  26.462  1.00  0.00    -0.252 OA
BRANCH   3   5
ATOM      5  C   UNL A   1      35.255  24.125  24.605  1.00  0.00     0.111 C 
ATOM      6  C   UNL A   1      34.486  23.016  23.885  1.00  0.00     0.093 C 
ATOM      7  C   UNL A   1      34.834  21.577  24.266  1.00  0.00     0.014 C 
ATOM      8  C   UNL A   1      36.026  21.269  25.170  1.00  0.00     0.001 C 
ATOM      9  C   UNL A   1      36.672  23.687  24.978  1.00  0.00     0.016 C 
ATOM     10  C   UNL A   1      36.698  22.446  25.844  1.00  0.00     0.001 C 
BRANCH   6  11
ATOM     11  C   UNL A   1      33.002  23.408  23.631  1.00  0.00     0.227 C 
ATOM     12  O   UNL A   1      32.151  22.632  24.101  1.00  0.00    -0.275 OA
BRANCH  11  13
ATOM     13  N   UNL A   1      32.583  24.487  22.860  1.00  0.00    -0.328 N 
ATOM     14  C   UNL A   1      32.048  25.790  23.329  1.00  0.00     0.185 C 
ATOM     15  C   UNL A   1      32.718  26.971  22.580  1.00  0.00     0.243 C 
ATOM     16  O   UNL A   1      32.913  28.067  23.103  1.00  0.00    -0.273 OA
ATOM     17  N   UNL A   1      32.895  26.813  21.227  1.00  0.00    -0.353 N 
ATOM     18  C   UNL A   1      32.917  24.368  21.425  1.00  0.00     0.141 C 
ATOM     19  C   UNL A   1      32.555  25.575  20.565  1.00  0.00     0.137 C 
ATOM     20  H   UNL A   1      33.261  27.558  20.698  1.00  0.00     0.163 HD
BRANCH  14  21
ATOM     21  C   UNL A   1      30.531  25.965  23.109  1.00  0.00     0.158 C 
BRANCH  21  22
ATOM     22  C   UNL A   1      29.822  26.925  24.027  1.00  0.00     0.308 C 
ATOM     23  O   UNL A   1      30.169  27.102  25.187  1.00  0.00    -0.252 OA
BRANCH  22  24
ATOM     24  O   UNL A   1      28.801  27.544  23.390  1.00  0.00    -0.463 OA
BRANCH  24  25
ATOM     25  C   UNL A   1      28.892  28.797  22.642  1.00  0.00     0.173 C 
ATOM     26  C   UNL A   1      30.048  29.729  22.996  1.00  0.00     0.053 C 
BRANCH  25  27
ATOM     27  C   UNL A   1      27.516  29.464  22.834  1.00  0.00     0.041 C 
ATOM     28  C   UNL A   1      27.464  30.816  23.518  1.00  0.00     0.008 C 
ENDBRANCH  25  27
ENDBRANCH  24  25
ENDBRANCH  22  24
ENDBRANCH  21  22
ENDBRANCH  14  21
ENDBRANCH  11  13
ENDBRANCH   6  11
ENDBRANCH   3   5
ENDBRANCH   2   3
ENDBRANCH   1   2
BRANCH   1  29
ATOM     29  C   UNL A   1      33.535  28.265  26.625  1.00  0.00     0.202 C 
BRANCH  29  30
ATOM     30  O   UNL A   1      32.454  29.030  27.135  1.00  0.00    -0.374 OA
BRANCH  30  31
ATOM     31  C   UNL A   1      31.896  30.111  26.396  1.00  0.00     0.202 C 
BRANCH  31  32
ATOM     32  C   UNL A   1      31.864  31.537  26.967  1.00  0.00     0.261 C 
BRANCH  32  33
ATOM     33  O   UNL A   1      33.162  32.129  27.136  1.00  0.00    -0.460 OA
BRANCH  33  34
ATOM     34  C   UNL A   1      33.170  33.289  27.826  1.00  0.00     0.338 C 
ATOM     35  O   UNL A   1      32.272  34.112  27.900  1.00  0.00    -0.246 OA
BRANCH  34  36
ATOM     36  C   UNL A   1      34.377  33.402  28.659  1.00  0.00     0.060 A 
ATOM     37  C   UNL A   1      35.563  33.782  28.017  1.00  0.00     0.016 A 
ATOM     38  C   UNL A   1      34.396  32.896  29.960  1.00  0.00     0.016 A 
ATOM     39  C   UNL A   1      36.787  33.556  28.632  1.00  0.00     0.010 A 
ATOM     40  C   UNL A   1      35.631  32.650  30.571  1.00  0.00     0.010 A 
ATOM     41  C   UNL A   1      36.825  32.906  29.871  1.00  0.00    -0.014 A 
BRANCH  41  42
ATOM     42  C   UNL A   1      38.090  32.230  30.248  1.00  0.00     0.031 A 
ATOM     43  C   UNL A   1      38.906  32.828  31.368  1.00  0.00     0.074 A 
ATOM     44  C   UNL A   1      38.445  31.057  29.700  1.00  0.00     0.049 A 
ATOM     45  N   UNL A   1      40.013  32.394  31.914  1.00  0.00    -0.248 NA
ATOM     46  C   UNL A   1      38.395  34.077  31.959  1.00  0.00     0.031 C 
ATOM     47  C   UNL A   1      37.699  30.348  28.663  1.00  0.00     0.029 A 
ATOM     48  N   UNL A   1      39.521  30.249  29.960  1.00  0.00    -0.354 N 
ATOM     49  C   UNL A   1      40.328  33.316  32.906  1.00  0.00     0.074 A 
ATOM     50  C   UNL A   1      39.318  34.348  32.868  1.00  0.00     0.031 C 
ATOM     51  C   UNL A   1      38.346  29.205  28.371  1.00  0.00     0.029 A 
ATOM     52  C   UNL A   1      39.556  29.117  29.186  1.00  0.00     0.049 A 
ATOM     53  H   UNL A   1      40.205  30.462  30.636  1.00  0.00     0.167 HD
ATOM     54  C   UNL A   1      41.361  33.300  33.782  1.00  0.00     0.037 A 
ATOM     55  C   UNL A   1      40.469  28.128  29.141  1.00  0.00     0.037 A 
ATOM     56  C   UNL A   1      42.363  32.270  33.826  1.00  0.00     0.049 A 
ATOM     57  C   UNL A   1      41.646  28.165  30.079  1.00  0.00     0.074 A 
ATOM     58  C   UNL A   1      43.460  32.168  34.663  1.00  0.00     0.029 A 
ATOM     59  N   UNL A   1      42.386  31.161  32.995  1.00  0.00    -0.354 N 
ATOM     60  N   UNL A   1      41.938  29.043  31.009  1.00  0.00    -0.248 NA
ATOM     61  C   UNL A   1      42.617  27.068  29.966  1.00  0.00     0.031 C 
ATOM     62  C   UNL A   1      44.168  31.012  34.314  1.00  0.00     0.029 A 
ATOM     63  C   UNL A   1      43.485  30.375  33.290  1.00  0.00     0.049 A 
ATOM     64  H   UNL A   1      41.719  30.963  32.298  1.00  0.00     0.167 HD
ATOM     65  C   UNL A   1      43.102  28.586  31.613  1.00  0.00     0.074 A 
ATOM     66  C   UNL A   1      43.460  27.351  30.949  1.00  0.00     0.031 C 
ATOM     67  C   UNL A   1      43.812  29.137  32.629  1.00  0.00     0.037 A 
BRANCH  54  68
ATOM     68  C   UNL A   1      41.466  34.446  34.742  1.00  0.00     0.057 A 
ATOM     69  C   UNL A   1      40.872  34.406  36.011  1.00  0.00     0.134 A 
ATOM     70  C   UNL A   1      42.182  35.599  34.400  1.00  0.00     0.134 A 
ATOM     71  F   UNL A   1      40.156  33.338  36.393  1.00  0.00    -0.206 F 
ATOM     72  C   UNL A   1      40.970  35.481  36.896  1.00  0.00     0.040 A 
ATOM     73  C   UNL A   1      42.307  36.671  35.285  1.00  0.00     0.040 A 
ATOM     74  F   UNL A   1      42.776  35.702  33.200  1.00  0.00    -0.206 F 
ATOM     75  C   UNL A   1      41.694  36.616  36.535  1.00  0.00     0.006 A 
ENDBRANCH  54  68
BRANCH  55  76
ATOM     76  C   UNL A   1      40.311  27.016  28.171  1.00  0.00     0.057 A 
ATOM     77  C   UNL A   1      40.895  27.070  26.900  1.00  0.00     0.134 A 
ATOM     78  C   UNL A   1      39.548  25.885  28.483  1.00  0.00     0.134 A 
ATOM     79  F   UNL A   1      41.618  28.138  26.534  1.00  0.00    -0.206 F 
ATOM     80  C   UNL A   1      40.713  26.047  25.969  1.00  0.00     0.040 A 
ATOM     81  C   UNL A   1      39.376  24.843  27.572  1.00  0.00     0.040 A 
ATOM     82  F   UNL A   1      38.961  25.775  29.685  1.00  0.00    -0.206 F 
ATOM     83  C   UNL A   1      39.953  24.927  26.306  1.00  0.00     0.006 A 
ENDBRANCH  55  76
BRANCH  67  84
ATOM     84  C   UNL A   1      45.012  28.383  33.117  1.00  0.00     0.057 A 
ATOM     85  C   UNL A   1      46.301  28.653  32.642  1.00  0.00     0.134 A 
ATOM     86  C   UNL A   1      44.879  27.403  34.109  1.00  0.00     0.134 A 
ATOM     87  F   UNL A   1      46.493  29.574  31.685  1.00  0.00    -0.206 F 
ATOM     88  C   UNL A   1      47.413  27.957  33.118  1.00  0.00     0.040 A 
ATOM     89  C   UNL A   1      45.985  26.717  34.610  1.00  0.00     0.040 A 
ATOM     90  F   UNL A   1      43.673  27.104  34.615  1.00  0.00    -0.206 F 
ATOM     91  C   UNL A   1      47.257  26.990  34.109  1.00  0.00     0.006 A 
ENDBRANCH  67  84
ENDBRANCH  41  42
ENDBRANCH  34  36
ENDBRANCH  33  34
ENDBRANCH  32  33
ENDBRANCH  31  32
ENDBRANCH  30  31
ENDBRANCH  29  30
ENDBRANCH   1  29
TORSDOF 21
ENDMDL
MODEL 2
REMARK VINA RESULT:     -10.2      4.064      7.574
REMARK SMILES CC[C@@H](C)OC(=O)C[C@@H]1C(=O)NCCN1C(=O)[C@@H]1CCCC[C@@H]1C(=O)OCCOCCOC(=O)c1ccc(-c2c3nc(c(-c4c(F)cccc4F)c4ccc([nH]4)c(-c4c(F)cccc4F)c4nc(c(-c5c(F)cccc5F)c5ccc2[nH]5)C=C4)C=C3)cc1
REMARK SMILES IDX 27 1 26 2 24 3 25 4 23 5 18 6 19 7 20 8 22 9 21 10 16 11
REMARK SMILES IDX 17 12 15 13 9 14 10 15 11 16 12 17 14 18 13 19 8 21 6 22
REMARK SMILES IDX 7 23 5 24 3 25 4 26 2 27 1 28 28 29 29 30 30 31 31 32 32 33
REMARK SMILES IDX 33 34 34 35 35 36 36 37 88 38 37 39 87 40 38 41 39 42 40 43
REMARK SMILES IDX 81 44 41 45 86 46 80 47 82 48 42 49 85 50 79 51 78 52 43 54
REMARK SMILES IDX 69 55 52 56 68 57 53 58 56 59 67 60 83 61 54 62 55 63 66 65
REMARK SMILES IDX 84 66 57 67 44 68 45 69 50 70 46 71 47 72 49 73 51 74 48 75
REMARK SMILES IDX 70 76 71 77 76 78 72 79 73 80 75 81 77 82 74 83 58 84 59 85
REMARK SMILES IDX 64 86 60 87 61 88 63 89 65 90 62 91
REMARK H PARENT 12 20 82 53 56 64
REMARK Flexibility Score: inf
ROOT
ATOM      1  C   UNL A   1      35.816  22.611  24.027  1.00  0.00     0.261 C 
ENDROOT
BRANCH   1   2
ATOM      2  O   UNL A   1      34.646  23.356  24.382  1.00  0.00    -0.463 OA
BRANCH   2   3
ATOM      3  C   UNL A   1      33.946  23.771  23.305  1.00  0.00     0.309 C 
ATOM      4  O   UNL A   1      34.436  24.445  22.405  1.00  0.00    -0.252 OA
BRANCH   3   5
ATOM      5  C   UNL A   1      32.514  23.271  23.251  1.00  0.00     0.111 C 
ATOM      6  C   UNL A   1      31.738  23.634  24.518  1.00  0.00     0.093 C 
ATOM      7  C   UNL A   1      31.481  22.505  25.516  1.00  0.00     0.014 C 
ATOM      8  C   UNL A   1      31.810  21.056  25.165  1.00  0.00     0.001 C 
ATOM      9  C   UNL A   1      32.257  21.827  22.818  1.00  0.00     0.016 C 
ATOM     10  C   UNL A   1      32.598  20.819  23.894  1.00  0.00     0.001 C 
BRANCH   6  11
ATOM     11  C   UNL A   1      32.105  25.053  25.039  1.00  0.00     0.227 C 
ATOM     12  O   UNL A   1      32.458  25.116  26.229  1.00  0.00    -0.275 OA
BRANCH  11  13
ATOM     13  N   UNL A   1      31.981  26.229  24.307  1.00  0.00    -0.328 N 
ATOM     14  C   UNL A   1      33.039  27.221  23.988  1.00  0.00     0.185 C 
ATOM     15  C   UNL A   1      32.999  27.619  22.489  1.00  0.00     0.243 C 
ATOM     16  O   UNL A   1      34.006  27.922  21.853  1.00  0.00    -0.273 OA
ATOM     17  N   UNL A   1      31.753  27.829  21.948  1.00  0.00    -0.353 N 
ATOM     18  C   UNL A   1      30.688  26.368  23.605  1.00  0.00     0.141 C 
ATOM     19  C   UNL A   1      30.552  27.601  22.717  1.00  0.00     0.137 C 
ATOM     20  H   UNL A   1      31.678  28.141  21.018  1.00  0.00     0.163 HD
BRANCH  14  21
ATOM     21  C   UNL A   1      32.919  28.543  24.773  1.00  0.00     0.158 C 
BRANCH  21  22
ATOM     22  C   UNL A   1      32.567  28.433  26.233  1.00  0.00     0.308 C 
ATOM     23  O   UNL A   1      31.413  28.319  26.624  1.00  0.00    -0.252 OA
BRANCH  22  24
ATOM     24  O   UNL A   1      33.678  28.461  27.006  1.00  0.00    -0.463 OA
BRANCH  24  25
ATOM     25  C   UNL A   1      34.695  29.512  27.005  1.00  0.00     0.173 C 
ATOM     26  C   UNL A   1      35.971  29.237  27.795  1.00  0.00     0.053 C 
BRANCH  25  27
ATOM     27  C   UNL A   1      33.953  30.769  27.501  1.00  0.00     0.041 C 
ATOM     28  C   UNL A   1      34.778  31.974  27.908  1.00  0.00     0.008 C 
ENDBRANCH  25  27
ENDBRANCH  24  25
ENDBRANCH  22  24
ENDBRANCH  21  22
ENDBRANCH  14  21
ENDBRANCH  11  13
ENDBRANCH   6  11
ENDBRANCH   3   5
ENDBRANCH   2   3
ENDBRANCH   1   2
BRANCH   1  29
ATOM     29  C   UNL A   1      36.851  22.464  25.157  1.00  0.00     0.202 C 
BRANCH  29  30
ATOM     30  O   UNL A   1      37.169  21.182  25.678  1.00  0.00    -0.374 OA
BRANCH  30  31
ATOM     31  C   UNL A   1      37.767  20.177  24.865  1.00  0.00     0.202 C 
BRANCH  31  32
ATOM     32  C   UNL A   1      39.010  19.406  25.333  1.00  0.00     0.261 C 
BRANCH  32  33
ATOM     33  O   UNL A   1      39.568  19.888  26.566  1.00  0.00    -0.460 OA
BRANCH  33  34
ATOM     34  C   UNL A   1      40.754  20.522  26.441  1.00  0.00     0.338 C 
ATOM     35  O   UNL A   1      41.708  20.180  25.762  1.00  0.00    -0.246 OA
BRANCH  34  36
ATOM     36  C   UNL A   1      40.729  21.829  27.117  1.00  0.00     0.060 A 
ATOM     37  C   UNL A   1      40.080  22.878  26.455  1.00  0.00     0.016 A 
ATOM     38  C   UNL A   1      41.541  22.074  28.227  1.00  0.00     0.016 A 
ATOM     39  C   UNL A   1      40.325  24.193  26.831  1.00  0.00     0.010 A 
ATOM     40  C   UNL A   1      41.803  23.399  28.593  1.00  0.00     0.010 A 
ATOM     41  C   UNL A   1      41.258  24.456  27.842  1.00  0.00    -0.014 A 
BRANCH  41  42
ATOM     42  C   UNL A   1      41.872  25.805  27.867  1.00  0.00     0.031 A 
ATOM     43  C   UNL A   1      41.145  26.900  28.609  1.00  0.00     0.074 A 
ATOM     44  C   UNL A   1      43.093  26.027  27.354  1.00  0.00     0.049 A 
ATOM     45  N   UNL A   1      41.503  28.141  28.820  1.00  0.00    -0.248 NA
ATOM     46  C   UNL A   1      39.846  26.541  29.204  1.00  0.00     0.031 C 
ATOM     47  C   UNL A   1      43.920  25.030  26.679  1.00  0.00     0.029 A 
ATOM     48  N   UNL A   1      43.853  27.167  27.341  1.00  0.00    -0.354 N 
ATOM     49  C   UNL A   1      40.475  28.706  29.566  1.00  0.00     0.074 A 
ATOM     50  C   UNL A   1      39.466  27.688  29.746  1.00  0.00     0.031 C 
ATOM     51  C   UNL A   1      45.079  25.606  26.313  1.00  0.00     0.029 A 
ATOM     52  C   UNL A   1      45.062  27.012  26.711  1.00  0.00     0.049 A 
ATOM     53  H   UNL A   1      43.560  28.016  27.744  1.00  0.00     0.167 HD
ATOM     54  C   UNL A   1      40.382  29.960  30.070  1.00  0.00     0.037 A 
ATOM     55  C   UNL A   1      46.038  27.911  26.480  1.00  0.00     0.037 A 
ATOM     56  C   UNL A   1      41.387  30.973  29.899  1.00  0.00     0.049 A 
ATOM     57  C   UNL A   1      45.884  29.318  26.992  1.00  0.00     0.074 A 
ATOM     58  C   UNL A   1      41.384  32.279  30.355  1.00  0.00     0.029 A 
ATOM     59  N   UNL A   1      42.580  30.788  29.217  1.00  0.00    -0.354 N 
ATOM     60  N   UNL A   1      44.907  29.843  27.691  1.00  0.00    -0.248 NA
ATOM     61  C   UNL A   1      46.974  30.255  26.689  1.00  0.00     0.031 C 
ATOM     62  C   UNL A   1      42.561  32.896  29.917  1.00  0.00     0.029 A 
ATOM     63  C   UNL A   1      43.315  31.959  29.228  1.00  0.00     0.049 A 
ATOM     64  H   UNL A   1      42.861  29.947  28.788  1.00  0.00     0.167 HD
ATOM     65  C   UNL A   1      45.280  31.158  27.942  1.00  0.00     0.074 A 
ATOM     66  C   UNL A   1      46.575  31.349  27.324  1.00  0.00     0.031 C 
ATOM     67  C   UNL A   1      44.612  32.122  28.623  1.00  0.00     0.037 A 
BRANCH  54  68
ATOM     68  C   UNL A   1      39.137  30.305  30.830  1.00  0.00     0.057 A 
ATOM     69  C   UNL A   1      38.965  29.942  32.173  1.00  0.00     0.134 A 
ATOM     70  C   UNL A   1      38.102  31.021  30.217  1.00  0.00     0.134 A 
ATOM     71  F   UNL A   1      39.910  29.239  32.814  1.00  0.00    -0.206 F 
ATOM     72  C   UNL A   1      37.799  30.262  32.871  1.00  0.00     0.040 A 
ATOM     73  C   UNL A   1      36.942  31.367  30.911  1.00  0.00     0.040 A 
ATOM     74  F   UNL A   1      38.204  31.399  28.933  1.00  0.00    -0.206 F 
ATOM     75  C   UNL A   1      36.785  30.983  32.241  1.00  0.00     0.006 A 
ENDBRANCH  54  68
BRANCH  55  76
ATOM     76  C   UNL A   1      47.250  27.511  25.724  1.00  0.00     0.057 A 
ATOM     77  C   UNL A   1      48.399  27.053  26.378  1.00  0.00     0.134 A 
ATOM     78  C   UNL A   1      47.296  27.602  24.328  1.00  0.00     0.134 A 
ATOM     79  F   UNL A   1      48.425  26.965  27.716  1.00  0.00    -0.206 F 
ATOM     80  C   UNL A   1      49.556  26.718  25.674  1.00  0.00     0.040 A 
ATOM     81  C   UNL A   1      48.437  27.248  23.607  1.00  0.00     0.040 A 
ATOM     82  F   UNL A   1      46.226  28.035  23.642  1.00  0.00    -0.206 F 
ATOM     83  C   UNL A   1      49.576  26.811  24.283  1.00  0.00     0.006 A 
ENDBRANCH  55  76
BRANCH  67  84
ATOM     84  C   UNL A   1      45.293  33.448  28.782  1.00  0.00     0.057 A 
ATOM     85  C   UNL A   1      46.164  33.712  29.846  1.00  0.00     0.134 A 
ATOM     86  C   UNL A   1      45.105  34.460  27.831  1.00  0.00     0.134 A 
ATOM     87  F   UNL A   1      46.378  32.787  30.794  1.00  0.00    -0.206 F 
ATOM     88  C   UNL A   1      46.805  34.945  29.972  1.00  0.00     0.040 A 
ATOM     89  C   UNL A   1      45.759  35.687  27.934  1.00  0.00     0.040 A 
ATOM     90  F   UNL A   1      44.292  34.267  26.782  1.00  0.00    -0.206 F 
ATOM     91  C   UNL A   1      46.608  35.934  29.011  1.00  0.00     0.006 A 
ENDBRANCH  67  84
ENDBRANCH  41  42
ENDBRANCH  34  36
ENDBRANCH  33  34
ENDBRANCH  32  33
ENDBRANCH  31  32
ENDBRANCH  30  31
ENDBRANCH  29  30
ENDBRANCH   1  29
TORSDOF 21
ENDMDL
MODEL 3
REMARK VINA RESULT:     -10.2      1.663      2.311
REMARK SMILES CC[C@@H](C)OC(=O)C[C@@H]1C(=O)NCCN1C(=O)[C@@H]1CCCC[C@@H]1C(=O)OCCOCCOC(=O)c1ccc(-c2c3nc(c(-c4c(F)cccc4F)c4ccc([nH]4)c(-c4c(F)cccc4F)c4nc(c(-c5c(F)cccc5F)c5ccc2[nH]5)C=C4)C=C3)cc1
REMARK SMILES IDX 27 1 26 2 24 3 25 4 23 5 18 6 19 7 20 8 22 9 21 10 16 11
REMARK SMILES IDX 17 12 15 13 9 14 10 15 11 16 12 17 14 18 13 19 8 21 6 22
REMARK SMILES IDX 7 23 5 24 3 25 4 26 2 27 1 28 28 29 29 30 30 31 31 32 32 33
REMARK SMILES IDX 33 34 34 35 35 36 36 37 88 38 37 39 87 40 38 41 39 42 40 43
REMARK SMILES IDX 81 44 41 45 86 46 80 47 82 48 42 49 85 50 79 51 78 52 43 54
REMARK SMILES IDX 69 55 52 56 68 57 53 58 56 59 67 60 83 61 54 62 55 63 66 65
REMARK SMILES IDX 84 66 57 67 44 68 45 69 50 70 46 71 47 72 49 73 51 74 48 75
REMARK SMILES IDX 70 76 71 77 76 78 72 79 73 80 75 81 77 82 74 83 58 84 59 85
REMARK SMILES IDX 64 86 60 87 61 88 63 89 65 90 62 91
REMARK H PARENT 12 20 82 53 56 64
REMARK Flexibility Score: inf
ROOT
ATOM      1  C   UNL A   1      31.832  27.318  26.846  1.00  0.00     0.261 C 
ENDROOT
BRANCH   1   2
ATOM      2  O   UNL A   1      32.870  26.408  26.464  1.00  0.00    -0.463 OA
BRANCH   2   3
ATOM      3  C   UNL A   1      32.455  25.123  26.446  1.00  0.00     0.309 C 
ATOM      4  O   UNL A   1      31.447  24.735  27.026  1.00  0.00    -0.252 OA
BRANCH   3   5
ATOM      5  C   UNL A   1      33.294  24.200  25.582  1.00  0.00     0.111 C 
ATOM      6  C   UNL A   1      32.479  23.597  24.437  1.00  0.00     0.093 C 
ATOM      7  C   UNL A   1      32.065  22.133  24.582  1.00  0.00     0.014 C 
ATOM      8  C   UNL A   1      32.611  21.271  25.718  1.00  0.00     0.001 C 
ATOM      9  C   UNL A   1      34.176  23.155  26.267  1.00  0.00     0.016 C 
ATOM     10  C   UNL A   1      33.388  21.981  26.806  1.00  0.00     0.001 C 
BRANCH   6  11
ATOM     11  C   UNL A   1      31.480  24.624  23.830  1.00  0.00     0.227 C 
ATOM     12  O   UNL A   1      30.275  24.366  23.997  1.00  0.00    -0.275 OA
BRANCH  11  13
ATOM     13  N   UNL A   1      31.836  25.726  23.062  1.00  0.00    -0.328 N 
ATOM     14  C   UNL A   1      31.542  27.157  23.327  1.00  0.00     0.185 C 
ATOM     15  C   UNL A   1      32.805  28.034  23.128  1.00  0.00     0.243 C 
ATOM     16  O   UNL A   1      33.019  29.053  23.782  1.00  0.00    -0.273 OA
ATOM     17  N   UNL A   1      33.583  27.743  22.033  1.00  0.00    -0.353 N 
ATOM     18  C   UNL A   1      32.794  25.421  21.979  1.00  0.00     0.141 C 
ATOM     19  C   UNL A   1      33.280  26.623  21.173  1.00  0.00     0.137 C 
ATOM     20  H   UNL A   1      34.362  28.309  21.831  1.00  0.00     0.163 HD
BRANCH  14  21
ATOM     21  C   UNL A   1      30.466  27.761  22.401  1.00  0.00     0.158 C 
BRANCH  21  22
ATOM     22  C   UNL A   1      29.080  27.897  22.975  1.00  0.00     0.308 C 
ATOM     23  O   UNL A   1      28.648  27.141  23.833  1.00  0.00    -0.252 OA
BRANCH  22  24
ATOM     24  O   UNL A   1      28.427  28.949  22.428  1.00  0.00    -0.463 OA
BRANCH  24  25
ATOM     25  C   UNL A   1      28.716  30.360  22.678  1.00  0.00     0.173 C 
ATOM     26  C   UNL A   1      27.695  31.136  23.506  1.00  0.00     0.053 C 
BRANCH  25  27
ATOM     27  C   UNL A   1      28.924  30.968  21.277  1.00  0.00     0.041 C 
ATOM     28  C   UNL A   1      28.061  32.147  20.872  1.00  0.00     0.008 C 
ENDBRANCH  25  27
ENDBRANCH  24  25
ENDBRANCH  22  24
ENDBRANCH  21  22
ENDBRANCH  14  21
ENDBRANCH  11  13
ENDBRANCH   6  11
ENDBRANCH   3   5
ENDBRANCH   2   3
ENDBRANCH   1   2
BRANCH   1  29
ATOM     29  C   UNL A   1      32.329  28.697  27.317  1.00  0.00     0.202 C 
BRANCH  29  30
ATOM     30  O   UNL A   1      31.482  29.833  27.237  1.00  0.00    -0.374 OA
BRANCH  30  31
ATOM     31  C   UNL A   1      31.776  30.918  26.363  1.00  0.00     0.202 C 
BRANCH  31  32
ATOM     32  C   UNL A   1      31.916  32.354  26.893  1.00  0.00     0.261 C 
BRANCH  32  33
ATOM     33  O   UNL A   1      33.196  32.639  27.480  1.00  0.00    -0.460 OA
BRANCH  33  34
ATOM     34  C   UNL A   1      33.274  33.826  28.118  1.00  0.00     0.338 C 
ATOM     35  O   UNL A   1      32.517  34.776  28.007  1.00  0.00    -0.246 OA
BRANCH  34  36
ATOM     36  C   UNL A   1      34.332  33.810  29.140  1.00  0.00     0.060 A 
ATOM     37  C   UNL A   1      35.612  34.214  28.740  1.00  0.00     0.016 A 
ATOM     38  C   UNL A   1      34.131  33.170  30.365  1.00  0.00     0.016 A 
ATOM     39  C   UNL A   1      36.717  33.882  29.514  1.00  0.00     0.010 A 
ATOM     40  C   UNL A   1      35.246  32.819  31.135  1.00  0.00     0.010 A 
ATOM     41  C   UNL A   1      36.542  33.106  30.665  1.00  0.00    -0.014 A 
BRANCH  41  42
ATOM     42  C   UNL A   1      37.717  32.351  31.163  1.00  0.00     0.031 A 
ATOM     43  C   UNL A   1      38.190  32.624  32.570  1.00  0.00     0.074 A 
ATOM     44  C   UNL A   1      38.274  31.367  30.439  1.00  0.00     0.049 A 
ATOM     45  N   UNL A   1      39.154  32.057  33.249  1.00  0.00    -0.248 NA
ATOM     46  C   UNL A   1      37.467  33.669  33.315  1.00  0.00     0.031 C 
ATOM     47  C   UNL A   1      37.856  30.964  29.098  1.00  0.00     0.029 A 
ATOM     48  N   UNL A   1      39.305  30.518  30.745  1.00  0.00    -0.354 N 
ATOM     49  C   UNL A   1      39.153  32.678  34.493  1.00  0.00     0.074 A 
ATOM     50  C   UNL A   1      38.117  33.684  34.468  1.00  0.00     0.031 C 
ATOM     51  C   UNL A   1      38.629  29.941  28.694  1.00  0.00     0.029 A 
ATOM     52  C   UNL A   1      39.605  29.635  29.739  1.00  0.00     0.049 A 
ATOM     53  H   UNL A   1      39.785  30.539  31.605  1.00  0.00     0.167 HD
ATOM     54  C   UNL A   1      39.938  32.426  35.568  1.00  0.00     0.037 A 
ATOM     55  C   UNL A   1      40.564  28.693  29.673  1.00  0.00     0.037 A 
ATOM     56  C   UNL A   1      40.964  31.420  35.597  1.00  0.00     0.049 A 
ATOM     57  C   UNL A   1      41.469  28.474  30.856  1.00  0.00     0.074 A 
ATOM     58  C   UNL A   1      41.825  31.094  36.630  1.00  0.00     0.029 A 
ATOM     59  N   UNL A   1      41.265  30.575  34.540  1.00  0.00    -0.354 N 
ATOM     60  N   UNL A   1      41.463  29.069  32.025  1.00  0.00    -0.248 NA
ATOM     61  C   UNL A   1      42.508  27.445  30.713  1.00  0.00     0.031 C 
ATOM     62  C   UNL A   1      42.673  30.073  36.184  1.00  0.00     0.029 A 
ATOM     63  C   UNL A   1      42.308  29.736  34.891  1.00  0.00     0.049 A 
ATOM     64  H   UNL A   1      40.805  30.572  33.669  1.00  0.00     0.167 HD
ATOM     65  C   UNL A   1      42.470  28.464  32.766  1.00  0.00     0.074 A 
ATOM     66  C   UNL A   1      43.063  27.453  31.918  1.00  0.00     0.031 C 
ATOM     67  C   UNL A   1      42.870  28.721  34.037  1.00  0.00     0.037 A 
BRANCH  54  68
ATOM     68  C   UNL A   1      39.726  33.271  36.787  1.00  0.00     0.057 A 
ATOM     69  C   UNL A   1      40.434  34.463  36.994  1.00  0.00     0.134 A 
ATOM     70  C   UNL A   1      38.793  32.896  37.761  1.00  0.00     0.134 A 
ATOM     71  F   UNL A   1      41.356  34.869  36.108  1.00  0.00    -0.206 F 
ATOM     72  C   UNL A   1      40.235  35.240  38.136  1.00  0.00     0.040 A 
ATOM     73  C   UNL A   1      38.569  33.677  38.896  1.00  0.00     0.040 A 
ATOM     74  F   UNL A   1      38.082  31.766  37.624  1.00  0.00    -0.206 F 
ATOM     75  C   UNL A   1      39.295  34.850  39.089  1.00  0.00     0.006 A 
ENDBRANCH  54  68
BRANCH  55  76
ATOM     76  C   UNL A   1      40.725  27.883  28.439  1.00  0.00     0.057 A 
ATOM     77  C   UNL A   1      41.543  28.311  27.388  1.00  0.00     0.134 A 
ATOM     78  C   UNL A   1      40.041  26.673  28.273  1.00  0.00     0.134 A 
ATOM     79  F   UNL A   1      42.206  29.473  27.479  1.00  0.00    -0.206 F 
ATOM     80  C   UNL A   1      41.663  27.575  26.209  1.00  0.00     0.040 A 
ATOM     81  C   UNL A   1      40.168  25.914  27.110  1.00  0.00     0.040 A 
ATOM     82  F   UNL A   1      39.239  26.209  29.245  1.00  0.00    -0.206 F 
ATOM     83  C   UNL A   1      40.976  26.369  26.069  1.00  0.00     0.006 A 
ENDBRANCH  55  76
BRANCH  67  84
ATOM     84  C   UNL A   1      43.960  27.861  34.601  1.00  0.00     0.057 A 
ATOM     85  C   UNL A   1      43.693  26.627  35.205  1.00  0.00     0.134 A 
ATOM     86  C   UNL A   1      45.300  28.257  34.500  1.00  0.00     0.134 A 
ATOM     87  F   UNL A   1      42.430  26.196  35.341  1.00  0.00    -0.206 F 
ATOM     88  C   UNL A   1      44.719  25.828  35.711  1.00  0.00     0.040 A 
ATOM     89  C   UNL A   1      46.335  27.456  34.980  1.00  0.00     0.040 A 
ATOM     90  F   UNL A   1      45.624  29.424  33.922  1.00  0.00    -0.206 F 
ATOM     91  C   UNL A   1      46.045  26.239  35.594  1.00  0.00     0.006 A 
ENDBRANCH  67  84
ENDBRANCH  41  42
ENDBRANCH  34  36
ENDBRANCH  33  34
ENDBRANCH  32  33
ENDBRANCH  31  32
ENDBRANCH  30  31
ENDBRANCH  29  30
ENDBRANCH   1  29
TORSDOF 21
ENDMDL
