MODEL 1
REMARK VINA RESULT:     -11.0      0.000      0.000
REMARK SMILES C[C@H]1SC[C@H](C(=O)OCCOCCOC(=O)c2ccc(-c3c4nc(c(-c5c(F)cccc5F)c5ccc([nH]5)c(-c5c(F)cccc5F)c5nc(c(-c6c(F)cccc6F)c6ccc3[nH]6)C=C5)C=C4)cc2)N1C(=O)[C@@H]1CSc2ccccc21
REMARK SMILES IDX 11 1 10 2 9 3 8 4 6 5 7 6 5 7 1 8 2 9 3 10 71 11 4 12 72 13
REMARK SMILES IDX 73 14 74 15 75 16 82 17 76 18 77 19 81 20 78 21 80 22 79 23
REMARK SMILES IDX 12 24 13 25 14 26 15 27 16 28 17 29 18 30 70 31 19 32 69 33
REMARK SMILES IDX 20 34 21 35 22 36 63 37 23 38 68 39 62 40 64 41 24 42 67 43
REMARK SMILES IDX 61 44 60 45 25 47 51 48 34 49 50 50 35 51 38 52 49 53 65 54
REMARK SMILES IDX 36 55 37 56 48 58 66 59 39 60 26 61 27 62 32 63 28 64 29 65
REMARK SMILES IDX 31 66 33 67 30 68 52 69 53 70 58 71 54 72 55 73 57 74 59 75
REMARK SMILES IDX 56 76 40 77 41 78 46 79 42 80 43 81 45 82 47 83 44 84
REMARK H PARENT 64 46 38 57
REMARK Flexibility Score: inf
ROOT
ATOM      1  O   UNL A   1      32.282  30.238  26.101  1.00  0.00    -0.374 OA
ENDROOT
BRANCH   1   2
ATOM      2  C   UNL A   1      32.424  29.496  27.314  1.00  0.00     0.202 C 
BRANCH   2   3
ATOM      3  C   UNL A   1      31.942  28.040  27.300  1.00  0.00     0.261 C 
BRANCH   3   4
ATOM      4  O   UNL A   1      30.972  27.804  26.261  1.00  0.00    -0.462 OA
BRANCH   4   5
ATOM      5  C   UNL A   1      30.948  26.532  25.778  1.00  0.00     0.329 C 
ATOM      6  O   UNL A   1      30.384  25.587  26.319  1.00  0.00    -0.250 OA
BRANCH   5   7
ATOM      7  C   UNL A   1      31.552  26.418  24.373  1.00  0.00     0.206 C 
ATOM      8  C   UNL A   1      32.709  25.004  21.871  1.00  0.00     0.043 C 
ATOM      9  C   UNL A   1      33.314  26.090  22.768  1.00  0.00     0.141 C 
ATOM     10  S   UNL A   1      32.608  27.682  22.249  1.00  0.00    -0.135 SA
ATOM     11  N   UNL A   1      32.925  25.940  24.169  1.00  0.00    -0.316 N 
ATOM     12  C   UNL A   1      31.502  27.790  23.679  1.00  0.00     0.109 C 
BRANCH  11  13
ATOM     13  C   UNL A   1      33.577  25.210  25.144  1.00  0.00     0.232 C 
ATOM     14  O   UNL A   1      34.318  25.771  25.959  1.00  0.00    -0.274 OA
BRANCH  13  15
ATOM     15  C   UNL A   1      33.483  23.682  25.198  1.00  0.00     0.120 C 
ATOM     16  C   UNL A   1      33.000  23.174  26.567  1.00  0.00     0.093 C 
ATOM     17  C   UNL A   1      34.753  22.978  24.817  1.00  0.00    -0.021 A 
ATOM     18  S   UNL A   1      34.162  21.898  27.160  1.00  0.00    -0.125 SA
ATOM     19  C   UNL A   1      35.240  22.087  25.773  1.00  0.00     0.011 A 
ATOM     20  C   UNL A   1      35.447  23.187  23.627  1.00  0.00     0.006 A 
ATOM     21  C   UNL A   1      36.476  21.482  25.611  1.00  0.00     0.015 A 
ATOM     22  C   UNL A   1      36.681  22.565  23.448  1.00  0.00     0.000 A 
ATOM     23  C   UNL A   1      37.205  21.737  24.447  1.00  0.00     0.001 A 
ENDBRANCH  13  15
ENDBRANCH  11  13
ENDBRANCH   5   7
ENDBRANCH   4   5
ENDBRANCH   3   4
ENDBRANCH   2   3
ENDBRANCH   1   2
BRANCH   1  24
ATOM     24  C   UNL A   1      31.357  31.321  26.103  1.00  0.00     0.202 C 
BRANCH  24  25
ATOM     25  C   UNL A   1      31.529  32.375  27.201  1.00  0.00     0.261 C 
BRANCH  25  26
ATOM     26  O   UNL A   1      32.624  33.265  26.922  1.00  0.00    -0.460 OA
BRANCH  26  27
ATOM     27  C   UNL A   1      33.228  33.762  28.026  1.00  0.00     0.338 C 
ATOM     28  O   UNL A   1      32.768  34.576  28.819  1.00  0.00    -0.246 OA
BRANCH  27  29
ATOM     29  C   UNL A   1      34.496  33.060  28.281  1.00  0.00     0.060 A 
ATOM     30  C   UNL A   1      34.415  31.706  28.632  1.00  0.00     0.016 A 
ATOM     31  C   UNL A   1      35.728  33.719  28.268  1.00  0.00     0.016 A 
ATOM     32  C   UNL A   1      35.557  31.023  29.040  1.00  0.00     0.010 A 
ATOM     33  C   UNL A   1      36.873  33.033  28.688  1.00  0.00     0.010 A 
ATOM     34  C   UNL A   1      36.782  31.696  29.118  1.00  0.00    -0.014 A 
BRANCH  34  35
ATOM     35  C   UNL A   1      37.918  31.043  29.811  1.00  0.00     0.031 A 
ATOM     36  C   UNL A   1      38.157  31.356  31.264  1.00  0.00     0.074 A 
ATOM     37  C   UNL A   1      38.691  30.143  29.177  1.00  0.00     0.049 A 
ATOM     38  N   UNL A   1      39.085  30.905  32.069  1.00  0.00    -0.248 NA
ATOM     39  C   UNL A   1      37.223  32.304  31.894  1.00  0.00     0.031 C 
ATOM     40  C   UNL A   1      38.528  29.720  27.788  1.00  0.00     0.029 A 
ATOM     41  N   UNL A   1      39.768  29.424  29.627  1.00  0.00    -0.354 N 
ATOM     42  C   UNL A   1      38.853  31.519  33.293  1.00  0.00     0.074 A 
ATOM     43  C   UNL A   1      37.713  32.393  33.122  1.00  0.00     0.031 C 
ATOM     44  C   UNL A   1      39.478  28.814  27.496  1.00  0.00     0.029 A 
ATOM     45  C   UNL A   1      40.329  28.617  28.668  1.00  0.00     0.049 A 
ATOM     46  H   UNL A   1      40.107  29.479  30.550  1.00  0.00     0.167 HD
ATOM     47  C   UNL A   1      39.525  31.363  34.458  1.00  0.00     0.037 A 
ATOM     48  C   UNL A   1      41.416  27.823  28.729  1.00  0.00     0.037 A 
ATOM     49  C   UNL A   1      40.649  30.483  34.633  1.00  0.00     0.049 A 
ATOM     50  C   UNL A   1      42.188  27.722  30.018  1.00  0.00     0.074 A 
ATOM     51  C   UNL A   1      41.375  30.230  35.785  1.00  0.00     0.029 A 
ATOM     52  N   UNL A   1      41.215  29.718  33.627  1.00  0.00    -0.354 N 
ATOM     53  N   UNL A   1      41.940  28.283  31.177  1.00  0.00    -0.248 NA
ATOM     54  C   UNL A   1      43.391  26.876  30.006  1.00  0.00     0.031 C 
ATOM     55  C   UNL A   1      42.410  29.348  35.463  1.00  0.00     0.029 A 
ATOM     56  C   UNL A   1      42.300  29.014  34.123  1.00  0.00     0.049 A 
ATOM     57  H   UNL A   1      40.894  29.678  32.697  1.00  0.00     0.167 HD
ATOM     58  C   UNL A   1      42.936  27.833  32.038  1.00  0.00     0.074 A 
ATOM     59  C   UNL A   1      43.784  26.947  31.269  1.00  0.00     0.031 C 
ATOM     60  C   UNL A   1      43.128  28.126  33.348  1.00  0.00     0.037 A 
BRANCH  47  61
ATOM     61  C   UNL A   1      39.077  32.183  35.632  1.00  0.00     0.057 A 
ATOM     62  C   UNL A   1      38.251  31.657  36.633  1.00  0.00     0.134 A 
ATOM     63  C   UNL A   1      39.515  33.505  35.781  1.00  0.00     0.134 A 
ATOM     64  F   UNL A   1      37.787  30.402  36.541  1.00  0.00    -0.206 F 
ATOM     65  C   UNL A   1      37.862  32.423  37.734  1.00  0.00     0.040 A 
ATOM     66  C   UNL A   1      39.151  34.273  36.889  1.00  0.00     0.040 A 
ATOM     67  F   UNL A   1      40.311  34.067  34.859  1.00  0.00    -0.206 F 
ATOM     68  C   UNL A   1      38.319  33.733  37.867  1.00  0.00     0.006 A 
ENDBRANCH  47  61
BRANCH  48  69
ATOM     69  C   UNL A   1      41.854  27.064  27.531  1.00  0.00     0.057 A 
ATOM     70  C   UNL A   1      42.657  27.657  26.550  1.00  0.00     0.134 A 
ATOM     71  C   UNL A   1      41.450  25.740  27.322  1.00  0.00     0.134 A 
ATOM     72  F   UNL A   1      43.055  28.930  26.683  1.00  0.00    -0.206 F 
ATOM     73  C   UNL A   1      43.028  26.966  25.395  1.00  0.00     0.040 A 
ATOM     74  C   UNL A   1      41.834  25.030  26.183  1.00  0.00     0.040 A 
ATOM     75  F   UNL A   1      40.677  25.116  28.224  1.00  0.00    -0.206 F 
ATOM     76  C   UNL A   1      42.619  25.647  25.211  1.00  0.00     0.006 A 
ENDBRANCH  48  69
BRANCH  60  77
ATOM     77  C   UNL A   1      44.273  27.453  34.043  1.00  0.00     0.057 A 
ATOM     78  C   UNL A   1      45.536  28.052  34.138  1.00  0.00     0.134 A 
ATOM     79  C   UNL A   1      44.099  26.208  34.662  1.00  0.00     0.134 A 
ATOM     80  F   UNL A   1      45.772  29.238  33.557  1.00  0.00    -0.206 F 
ATOM     81  C   UNL A   1      46.591  27.426  34.806  1.00  0.00     0.040 A 
ATOM     82  C   UNL A   1      45.138  25.584  35.353  1.00  0.00     0.040 A 
ATOM     83  F   UNL A   1      42.912  25.585  34.615  1.00  0.00    -0.206 F 
ATOM     84  C   UNL A   1      46.390  26.192  35.423  1.00  0.00     0.006 A 
ENDBRANCH  60  77
ENDBRANCH  34  35
ENDBRANCH  27  29
ENDBRANCH  26  27
ENDBRANCH  25  26
ENDBRANCH  24  25
ENDBRANCH   1  24
TORSDOF 16
ENDMDL
MODEL 2
REMARK VINA RESULT:     -10.7      1.588      3.408
REMARK SMILES C[C@H]1SC[C@H](C(=O)OCCOCCOC(=O)c2ccc(-c3c4nc(c(-c5c(F)cccc5F)c5ccc([nH]5)c(-c5c(F)cccc5F)c5nc(c(-c6c(F)cccc6F)c6ccc3[nH]6)C=C5)C=C4)cc2)N1C(=O)[C@@H]1CSc2ccccc21
REMARK SMILES IDX 11 1 10 2 9 3 8 4 6 5 7 6 5 7 1 8 2 9 3 10 71 11 4 12 72 13
REMARK SMILES IDX 73 14 74 15 75 16 82 17 76 18 77 19 81 20 78 21 80 22 79 23
REMARK SMILES IDX 12 24 13 25 14 26 15 27 16 28 17 29 18 30 70 31 19 32 69 33
REMARK SMILES IDX 20 34 21 35 22 36 63 37 23 38 68 39 62 40 64 41 24 42 67 43
REMARK SMILES IDX 61 44 60 45 25 47 51 48 34 49 50 50 35 51 38 52 49 53 65 54
REMARK SMILES IDX 36 55 37 56 48 58 66 59 39 60 26 61 27 62 32 63 28 64 29 65
REMARK SMILES IDX 31 66 33 67 30 68 52 69 53 70 58 71 54 72 55 73 57 74 59 75
REMARK SMILES IDX 56 76 40 77 41 78 46 79 42 80 43 81 45 82 47 83 44 84
REMARK H PARENT 64 46 38 57
REMARK Flexibility Score: inf
ROOT
ATOM      1  O   UNL A   1      32.153  30.822  26.185  1.00  0.00    -0.374 OA
ENDROOT
BRANCH   1   2
ATOM      2  C   UNL A   1      33.242  30.239  26.903  1.00  0.00     0.202 C 
BRANCH   2   3
ATOM      3  C   UNL A   1      34.022  29.122  26.198  1.00  0.00     0.261 C 
BRANCH   3   4
ATOM      4  O   UNL A   1      33.148  28.214  25.501  1.00  0.00    -0.462 OA
BRANCH   4   5
ATOM      5  C   UNL A   1      33.482  27.982  24.201  1.00  0.00     0.329 C 
ATOM      6  O   UNL A   1      33.872  28.838  23.414  1.00  0.00    -0.250 OA
BRANCH   5   7
ATOM      7  C   UNL A   1      33.497  26.490  23.848  1.00  0.00     0.206 C 
ATOM      8  C   UNL A   1      33.327  23.987  22.030  1.00  0.00     0.043 C 
ATOM      9  C   UNL A   1      32.522  24.366  23.278  1.00  0.00     0.141 C 
ATOM     10  S   UNL A   1      33.534  23.951  24.729  1.00  0.00    -0.135 SA
ATOM     11  N   UNL A   1      32.286  25.805  23.377  1.00  0.00    -0.316 N 
ATOM     12  C   UNL A   1      33.963  25.678  25.068  1.00  0.00     0.109 C 
BRANCH  11  13
ATOM     13  C   UNL A   1      31.223  26.517  22.856  1.00  0.00     0.232 C 
ATOM     14  O   UNL A   1      31.127  26.702  21.638  1.00  0.00    -0.274 OA
BRANCH  13  15
ATOM     15  C   UNL A   1      30.181  27.179  23.763  1.00  0.00     0.120 C 
ATOM     16  C   UNL A   1      29.115  26.184  24.250  1.00  0.00     0.093 C 
ATOM     17  C   UNL A   1      29.514  28.377  23.154  1.00  0.00    -0.021 A 
ATOM     18  S   UNL A   1      27.463  26.883  23.908  1.00  0.00    -0.125 SA
ATOM     19  C   UNL A   1      28.121  28.314  23.108  1.00  0.00     0.011 A 
ATOM     20  C   UNL A   1      30.188  29.479  22.632  1.00  0.00     0.006 A 
ATOM     21  C   UNL A   1      27.390  29.285  22.442  1.00  0.00     0.015 A 
ATOM     22  C   UNL A   1      29.459  30.470  21.979  1.00  0.00     0.000 A 
ATOM     23  C   UNL A   1      28.068  30.361  21.863  1.00  0.00     0.001 A 
ENDBRANCH  13  15
ENDBRANCH  11  13
ENDBRANCH   5   7
ENDBRANCH   4   5
ENDBRANCH   3   4
ENDBRANCH   2   3
ENDBRANCH   1   2
BRANCH   1  24
ATOM     24  C   UNL A   1      31.455  31.894  26.814  1.00  0.00     0.202 C 
BRANCH  24  25
ATOM     25  C   UNL A   1      32.162  33.252  26.848  1.00  0.00     0.261 C 
BRANCH  25  26
ATOM     26  O   UNL A   1      32.199  33.803  28.176  1.00  0.00    -0.460 OA
BRANCH  26  27
ATOM     27  C   UNL A   1      33.309  34.530  28.442  1.00  0.00     0.338 C 
ATOM     28  O   UNL A   1      33.377  35.740  28.622  1.00  0.00    -0.246 OA
BRANCH  27  29
ATOM     29  C   UNL A   1      34.463  33.644  28.670  1.00  0.00     0.060 A 
ATOM     30  C   UNL A   1      34.238  32.486  29.425  1.00  0.00     0.016 A 
ATOM     31  C   UNL A   1      35.750  33.973  28.239  1.00  0.00     0.016 A 
ATOM     32  C   UNL A   1      35.309  31.688  29.812  1.00  0.00     0.010 A 
ATOM     33  C   UNL A   1      36.827  33.174  28.637  1.00  0.00     0.010 A 
ATOM     34  C   UNL A   1      36.614  32.054  29.463  1.00  0.00    -0.014 A 
BRANCH  34  35
ATOM     35  C   UNL A   1      37.754  31.360  30.110  1.00  0.00     0.031 A 
ATOM     36  C   UNL A   1      38.053  31.651  31.556  1.00  0.00     0.074 A 
ATOM     37  C   UNL A   1      38.476  30.445  29.440  1.00  0.00     0.049 A 
ATOM     38  N   UNL A   1      38.995  31.164  32.323  1.00  0.00    -0.248 NA
ATOM     39  C   UNL A   1      37.171  32.619  32.228  1.00  0.00     0.031 C 
ATOM     40  C   UNL A   1      38.252  30.042  28.053  1.00  0.00     0.029 A 
ATOM     41  N   UNL A   1      39.546  29.689  29.844  1.00  0.00    -0.354 N 
ATOM     42  C   UNL A   1      38.824  31.772  33.561  1.00  0.00     0.074 A 
ATOM     43  C   UNL A   1      37.707  32.681  33.438  1.00  0.00     0.031 C 
ATOM     44  C   UNL A   1      39.163  29.111  27.719  1.00  0.00     0.029 A 
ATOM     45  C   UNL A   1      40.048  28.876  28.858  1.00  0.00     0.049 A 
ATOM     46  H   UNL A   1      39.919  29.724  30.755  1.00  0.00     0.167 HD
ATOM     47  C   UNL A   1      39.532  31.583  34.699  1.00  0.00     0.037 A 
ATOM     48  C   UNL A   1      41.112  28.050  28.873  1.00  0.00     0.037 A 
ATOM     49  C   UNL A   1      40.635  30.668  34.826  1.00  0.00     0.049 A 
ATOM     50  C   UNL A   1      41.925  27.911  30.133  1.00  0.00     0.074 A 
ATOM     51  C   UNL A   1      41.393  30.381  35.949  1.00  0.00     0.029 A 
ATOM     52  N   UNL A   1      41.141  29.896  33.793  1.00  0.00    -0.354 N 
ATOM     53  N   UNL A   1      41.736  28.467  31.305  1.00  0.00    -0.248 NA
ATOM     54  C   UNL A   1      43.101  27.030  30.070  1.00  0.00     0.031 C 
ATOM     55  C   UNL A   1      42.389  29.471  35.582  1.00  0.00     0.029 A 
ATOM     56  C   UNL A   1      42.221  29.155  34.243  1.00  0.00     0.049 A 
ATOM     57  H   UNL A   1      40.786  29.877  32.874  1.00  0.00     0.167 HD
ATOM     58  C   UNL A   1      42.747  27.979  32.126  1.00  0.00     0.074 A 
ATOM     59  C   UNL A   1      43.541  27.076  31.319  1.00  0.00     0.031 C 
ATOM     60  C   UNL A   1      42.994  28.251  33.431  1.00  0.00     0.037 A 
BRANCH  47  61
ATOM     61  C   UNL A   1      39.151  32.403  35.897  1.00  0.00     0.057 A 
ATOM     62  C   UNL A   1      38.305  31.909  36.896  1.00  0.00     0.134 A 
ATOM     63  C   UNL A   1      39.674  33.691  36.068  1.00  0.00     0.134 A 
ATOM     64  F   UNL A   1      37.760  30.688  36.783  1.00  0.00    -0.206 F 
ATOM     65  C   UNL A   1      37.977  32.673  38.018  1.00  0.00     0.040 A 
ATOM     66  C   UNL A   1      39.373  34.456  37.197  1.00  0.00     0.040 A 
ATOM     67  F   UNL A   1      40.493  34.222  35.148  1.00  0.00    -0.206 F 
ATOM     68  C   UNL A   1      38.519  33.948  38.173  1.00  0.00     0.006 A 
ENDBRANCH  47  61
BRANCH  48  69
ATOM     69  C   UNL A   1      41.484  27.290  27.653  1.00  0.00     0.057 A 
ATOM     70  C   UNL A   1      42.279  27.865  26.655  1.00  0.00     0.134 A 
ATOM     71  C   UNL A   1      41.025  25.985  27.440  1.00  0.00     0.134 A 
ATOM     72  F   UNL A   1      42.729  29.121  26.790  1.00  0.00    -0.206 F 
ATOM     73  C   UNL A   1      42.589  27.177  25.481  1.00  0.00     0.040 A 
ATOM     74  C   UNL A   1      41.346  25.277  26.281  1.00  0.00     0.040 A 
ATOM     75  F   UNL A   1      40.257  25.378  28.358  1.00  0.00    -0.206 F 
ATOM     76  C   UNL A   1      42.124  25.877  25.293  1.00  0.00     0.006 A 
ENDBRANCH  48  69
BRANCH  60  77
ATOM     77  C   UNL A   1      44.142  27.537  34.078  1.00  0.00     0.057 A 
ATOM     78  C   UNL A   1      45.426  28.096  34.133  1.00  0.00     0.134 A 
ATOM     79  C   UNL A   1      43.952  26.292  34.692  1.00  0.00     0.134 A 
ATOM     80  F   UNL A   1      45.677  29.279  33.554  1.00  0.00    -0.206 F 
ATOM     81  C   UNL A   1      46.483  27.432  34.757  1.00  0.00     0.040 A 
ATOM     82  C   UNL A   1      44.995  25.630  35.340  1.00  0.00     0.040 A 
ATOM     83  F   UNL A   1      42.745  25.706  34.683  1.00  0.00    -0.206 F 
ATOM     84  C   UNL A   1      46.267  26.198  35.370  1.00  0.00     0.006 A 
ENDBRANCH  60  77
ENDBRANCH  34  35
ENDBRANCH  27  29
ENDBRANCH  26  27
ENDBRANCH  25  26
ENDBRANCH  24  25
ENDBRANCH   1  24
TORSDOF 16
ENDMDL
MODEL 3
REMARK VINA RESULT:     -10.7      3.866      7.489
REMARK SMILES C[C@H]1SC[C@H](C(=O)OCCOCCOC(=O)c2ccc(-c3c4nc(c(-c5c(F)cccc5F)c5ccc([nH]5)c(-c5c(F)cccc5F)c5nc(c(-c6c(F)cccc6F)c6ccc3[nH]6)C=C5)C=C4)cc2)N1C(=O)[C@@H]1CSc2ccccc21
REMARK SMILES IDX 11 1 10 2 9 3 8 4 6 5 7 6 5 7 1 8 2 9 3 10 71 11 4 12 72 13
REMARK SMILES IDX 73 14 74 15 75 16 82 17 76 18 77 19 81 20 78 21 80 22 79 23
REMARK SMILES IDX 12 24 13 25 14 26 15 27 16 28 17 29 18 30 70 31 19 32 69 33
REMARK SMILES IDX 20 34 21 35 22 36 63 37 23 38 68 39 62 40 64 41 24 42 67 43
REMARK SMILES IDX 61 44 60 45 25 47 51 48 34 49 50 50 35 51 38 52 49 53 65 54
REMARK SMILES IDX 36 55 37 56 48 58 66 59 39 60 26 61 27 62 32 63 28 64 29 65
REMARK SMILES IDX 31 66 33 67 30 68 52 69 53 70 58 71 54 72 55 73 57 74 59 75
REMARK SMILES IDX 56 76 40 77 41 78 46 79 42 80 43 81 45 82 47 83 44 84
REMARK H PARENT 64 46 38 57
REMARK Flexibility Score: inf
ROOT
ATOM      1  O   UNL A   1      35.584  21.657  26.174  1.00  0.00    -0.374 OA
ENDROOT
BRANCH   1   2
ATOM      2  C   UNL A   1      34.537  21.612  27.146  1.00  0.00     0.202 C 
BRANCH   2   3
ATOM      3  C   UNL A   1      33.930  22.953  27.577  1.00  0.00     0.261 C 
BRANCH   3   4
ATOM      4  O   UNL A   1      32.499  22.874  27.722  1.00  0.00    -0.462 OA
BRANCH   4   5
ATOM      5  C   UNL A   1      31.788  23.401  26.688  1.00  0.00     0.329 C 
ATOM      6  O   UNL A   1      30.813  24.135  26.810  1.00  0.00    -0.250 OA
BRANCH   5   7
ATOM      7  C   UNL A   1      32.435  23.134  25.324  1.00  0.00     0.206 C 
ATOM      8  C   UNL A   1      34.612  23.271  23.124  1.00  0.00     0.043 C 
ATOM      9  C   UNL A   1      33.136  23.682  23.089  1.00  0.00     0.141 C 
ATOM     10  S   UNL A   1      32.154  22.175  22.829  1.00  0.00    -0.135 SA
ATOM     11  N   UNL A   1      32.675  24.222  24.367  1.00  0.00    -0.316 N 
ATOM     12  C   UNL A   1      31.598  22.102  24.551  1.00  0.00     0.109 C 
BRANCH  11  13
ATOM     13  C   UNL A   1      32.710  25.539  24.781  1.00  0.00     0.232 C 
ATOM     14  O   UNL A   1      33.690  25.980  25.390  1.00  0.00    -0.274 OA
BRANCH  13  15
ATOM     15  C   UNL A   1      31.510  26.471  24.587  1.00  0.00     0.120 C 
ATOM     16  C   UNL A   1      31.339  26.907  23.122  1.00  0.00     0.093 C 
ATOM     17  C   UNL A   1      31.527  27.682  25.475  1.00  0.00    -0.021 A 
ATOM     18  S   UNL A   1      31.202  28.726  23.065  1.00  0.00    -0.125 SA
ATOM     19  C   UNL A   1      31.445  28.902  24.806  1.00  0.00     0.011 A 
ATOM     20  C   UNL A   1      31.646  27.643  26.863  1.00  0.00     0.006 A 
ATOM     21  C   UNL A   1      31.596  30.097  25.492  1.00  0.00     0.015 A 
ATOM     22  C   UNL A   1      31.778  28.842  27.562  1.00  0.00     0.000 A 
ATOM     23  C   UNL A   1      31.778  30.062  26.876  1.00  0.00     0.001 A 
ENDBRANCH  13  15
ENDBRANCH  11  13
ENDBRANCH   5   7
ENDBRANCH   4   5
ENDBRANCH   3   4
ENDBRANCH   2   3
ENDBRANCH   1   2
BRANCH   1  24
ATOM     24  C   UNL A   1      35.676  20.565  25.264  1.00  0.00     0.202 C 
BRANCH  24  25
ATOM     25  C   UNL A   1      37.079  20.019  24.979  1.00  0.00     0.261 C 
BRANCH  25  26
ATOM     26  O   UNL A   1      38.076  21.055  25.031  1.00  0.00    -0.460 OA
BRANCH  26  27
ATOM     27  C   UNL A   1      39.107  20.787  25.866  1.00  0.00     0.338 C 
ATOM     28  O   UNL A   1      39.689  19.718  26.005  1.00  0.00    -0.246 OA
BRANCH  27  29
ATOM     29  C   UNL A   1      39.589  22.024  26.503  1.00  0.00     0.060 A 
ATOM     30  C   UNL A   1      39.025  23.228  26.063  1.00  0.00     0.016 A 
ATOM     31  C   UNL A   1      40.628  22.024  27.438  1.00  0.00     0.016 A 
ATOM     32  C   UNL A   1      39.543  24.442  26.504  1.00  0.00     0.010 A 
ATOM     33  C   UNL A   1      41.153  23.245  27.873  1.00  0.00     0.010 A 
ATOM     34  C   UNL A   1      40.641  24.457  27.373  1.00  0.00    -0.014 A 
BRANCH  34  35
ATOM     35  C   UNL A   1      41.352  25.737  27.611  1.00  0.00     0.031 A 
ATOM     36  C   UNL A   1      40.649  26.824  28.378  1.00  0.00     0.074 A 
ATOM     37  C   UNL A   1      42.621  25.909  27.201  1.00  0.00     0.049 A 
ATOM     38  N   UNL A   1      41.074  28.019  28.703  1.00  0.00    -0.248 NA
ATOM     39  C   UNL A   1      39.285  26.524  28.842  1.00  0.00     0.031 C 
ATOM     40  C   UNL A   1      43.424  24.913  26.494  1.00  0.00     0.029 A 
ATOM     41  N   UNL A   1      43.456  26.990  27.327  1.00  0.00    -0.354 N 
ATOM     42  C   UNL A   1      40.030  28.613  29.399  1.00  0.00     0.074 A 
ATOM     43  C   UNL A   1      38.942  27.661  29.430  1.00  0.00     0.031 C 
ATOM     44  C   UNL A   1      44.638  25.433  26.243  1.00  0.00     0.029 A 
ATOM     45  C   UNL A   1      44.686  26.804  26.747  1.00  0.00     0.049 A 
ATOM     46  H   UNL A   1      43.198  27.820  27.789  1.00  0.00     0.167 HD
ATOM     47  C   UNL A   1      39.984  29.841  29.969  1.00  0.00     0.037 A 
ATOM     48  C   UNL A   1      45.725  27.652  26.625  1.00  0.00     0.037 A 
ATOM     49  C   UNL A   1      41.071  30.783  29.951  1.00  0.00     0.049 A 
ATOM     50  C   UNL A   1      45.622  29.038  27.207  1.00  0.00     0.074 A 
ATOM     51  C   UNL A   1      41.133  32.039  30.531  1.00  0.00     0.029 A 
ATOM     52  N   UNL A   1      42.285  30.575  29.316  1.00  0.00    -0.354 N 
ATOM     53  N   UNL A   1      44.642  29.578  27.890  1.00  0.00    -0.248 NA
ATOM     54  C   UNL A   1      46.772  29.932  26.999  1.00  0.00     0.031 C 
ATOM     55  C   UNL A   1      42.367  32.609  30.204  1.00  0.00     0.029 A 
ATOM     56  C   UNL A   1      43.092  31.690  29.463  1.00  0.00     0.049 A 
ATOM     57  H   UNL A   1      42.537  29.755  28.832  1.00  0.00     0.167 HD
ATOM     58  C   UNL A   1      45.069  30.860  28.220  1.00  0.00     0.074 A 
ATOM     59  C   UNL A   1      46.400  31.012  27.670  1.00  0.00     0.031 C 
ATOM     60  C   UNL A   1      44.419  31.823  28.919  1.00  0.00     0.037 A 
BRANCH  47  61
ATOM     61  C   UNL A   1      38.705  30.248  30.639  1.00  0.00     0.057 A 
ATOM     62  C   UNL A   1      37.718  30.984  29.972  1.00  0.00     0.134 A 
ATOM     63  C   UNL A   1      38.443  29.859  31.959  1.00  0.00     0.134 A 
ATOM     64  F   UNL A   1      37.916  31.397  28.711  1.00  0.00    -0.206 F 
ATOM     65  C   UNL A   1      36.522  31.334  30.600  1.00  0.00     0.040 A 
ATOM     66  C   UNL A   1      37.240  30.184  32.590  1.00  0.00     0.040 A 
ATOM     67  F   UNL A   1      39.346  29.151  32.653  1.00  0.00    -0.206 F 
ATOM     68  C   UNL A   1      36.277  30.927  31.910  1.00  0.00     0.006 A 
ENDBRANCH  47  61
BRANCH  48  69
ATOM     69  C   UNL A   1      46.957  27.228  25.914  1.00  0.00     0.057 A 
ATOM     70  C   UNL A   1      48.015  26.618  26.597  1.00  0.00     0.134 A 
ATOM     71  C   UNL A   1      47.120  27.455  24.542  1.00  0.00     0.134 A 
ATOM     72  F   UNL A   1      47.929  26.397  27.917  1.00  0.00    -0.206 F 
ATOM     73  C   UNL A   1      49.199  26.265  25.946  1.00  0.00     0.040 A 
ATOM     74  C   UNL A   1      48.288  27.085  23.874  1.00  0.00     0.040 A 
ATOM     75  F   UNL A   1      46.143  28.038  23.831  1.00  0.00    -0.206 F 
ATOM     76  C   UNL A   1      49.336  26.496  24.578  1.00  0.00     0.006 A 
ENDBRANCH  48  69
BRANCH  60  77
ATOM     77  C   UNL A   1      45.149  33.109  29.163  1.00  0.00     0.057 A 
ATOM     78  C   UNL A   1      45.992  33.283  30.268  1.00  0.00     0.134 A 
ATOM     79  C   UNL A   1      45.041  34.173  28.259  1.00  0.00     0.134 A 
ATOM     80  F   UNL A   1      46.130  32.307  31.179  1.00  0.00    -0.206 F 
ATOM     81  C   UNL A   1      46.685  34.477  30.476  1.00  0.00     0.040 A 
ATOM     82  C   UNL A   1      45.747  35.363  28.442  1.00  0.00     0.040 A 
ATOM     83  F   UNL A   1      44.257  34.069  27.175  1.00  0.00    -0.206 F 
ATOM     84  C   UNL A   1      46.568  35.518  29.556  1.00  0.00     0.006 A 
ENDBRANCH  60  77
ENDBRANCH  34  35
ENDBRANCH  27  29
ENDBRANCH  26  27
ENDBRANCH  25  26
ENDBRANCH  24  25
ENDBRANCH   1  24
TORSDOF 16
ENDMDL
