MODEL 1
REMARK VINA RESULT:     -11.4      0.000      0.000
REMARK SMILES C[C@@H]1C[C@@H](C)CN(C(=O)CCn2cc(C(=O)OCCOCCOC(=O)c3ccc(-c4c5nc(c(-c6c(F)cccc6F)c6ccc([nH]6)c(-c6c(F)cccc6F)c6nc(c(-c7c(F)cccc7F)c7ccc4[nH]7)C=C6)C=C5)cc3)cn2)C1
REMARK SMILES IDX 19 1 18 2 17 3 15 4 16 5 14 6 12 7 13 8 81 9 80 10 11 11
REMARK SMILES IDX 10 12 8 13 1 14 2 15 3 16 82 17 4 18 7 19 6 20 5 21 9 22
REMARK SMILES IDX 20 23 21 24 22 25 23 26 24 27 25 28 26 29 27 30 79 31 28 32
REMARK SMILES IDX 78 33 29 34 30 35 31 36 72 37 32 38 77 39 71 40 73 41 33 42
REMARK SMILES IDX 76 43 70 44 69 45 34 47 60 48 43 49 59 50 44 51 47 52 58 53
REMARK SMILES IDX 74 54 45 55 46 56 57 58 75 59 48 60 35 61 36 62 41 63 37 64
REMARK SMILES IDX 38 65 40 66 42 67 39 68 61 69 62 70 67 71 63 72 64 73 66 74
REMARK SMILES IDX 68 75 65 76 49 77 50 78 55 79 51 80 52 81 54 82 56 83 53 84
REMARK H PARENT 73 46 47 57
REMARK Flexibility Score: inf
ROOT
ATOM      1  C   UNL A   1      40.486  21.049  27.082  1.00  0.00     0.202 C 
ENDROOT
BRANCH   1   2
ATOM      2  C   UNL A   1      39.879  21.550  25.774  1.00  0.00     0.261 C 
BRANCH   2   3
ATOM      3  O   UNL A   1      38.453  21.342  25.742  1.00  0.00    -0.460 OA
BRANCH   3   4
ATOM      4  C   UNL A   1      37.746  22.475  25.509  1.00  0.00     0.341 C 
ATOM      5  O   UNL A   1      37.946  23.545  26.070  1.00  0.00    -0.246 OA
BRANCH   4   6
ATOM      6  C   UNL A   1      36.725  22.366  24.490  1.00  0.00     0.098 A 
ATOM      7  N   UNL A   1      34.673  22.714  23.874  1.00  0.00    -0.271 N 
ATOM      8  C   UNL A   1      35.426  21.972  24.746  1.00  0.00     0.124 A 
ATOM      9  N   UNL A   1      35.388  23.139  22.814  1.00  0.00    -0.181 NA
ATOM     10  C   UNL A   1      36.655  22.953  23.207  1.00  0.00     0.150 A 
BRANCH   7  11
ATOM     11  C   UNL A   1      33.365  23.290  24.173  1.00  0.00     0.154 C 
BRANCH  11  12
ATOM     12  C   UNL A   1      33.127  24.633  23.471  1.00  0.00     0.124 C 
BRANCH  12  13
ATOM     13  C   UNL A   1      33.446  25.848  24.321  1.00  0.00     0.224 C 
ATOM     14  C   UNL A   1      32.032  28.188  26.696  1.00  0.00     0.009 C 
ATOM     15  C   UNL A   1      32.395  29.001  25.451  1.00  0.00     0.006 C 
ATOM     16  C   UNL A   1      31.163  29.293  24.586  1.00  0.00     0.010 C 
ATOM     17  C   UNL A   1      33.463  28.287  24.614  1.00  0.00     0.122 C 
ATOM     18  C   UNL A   1      30.638  28.032  23.889  1.00  0.00     0.006 C 
ATOM     19  N   UNL A   1      32.921  27.086  23.980  1.00  0.00    -0.342 N 
ATOM     20  C   UNL A   1      31.772  27.338  23.111  1.00  0.00     0.122 C 
ATOM     21  C   UNL A   1      29.457  28.408  22.997  1.00  0.00     0.009 C 
ATOM     22  O   UNL A   1      34.226  25.708  25.267  1.00  0.00    -0.275 OA
ENDBRANCH  12  13
ENDBRANCH  11  12
ENDBRANCH   7  11
ENDBRANCH   4   6
ENDBRANCH   3   4
ENDBRANCH   2   3
ENDBRANCH   1   2
BRANCH   1  23
ATOM     23  O   UNL A   1      41.755  20.394  27.022  1.00  0.00    -0.374 OA
BRANCH  23  24
ATOM     24  C   UNL A   1      41.918  19.207  26.253  1.00  0.00     0.202 C 
BRANCH  24  25
ATOM     25  C   UNL A   1      43.314  18.895  25.722  1.00  0.00     0.261 C 
BRANCH  25  26
ATOM     26  O   UNL A   1      43.526  19.481  24.447  1.00  0.00    -0.460 OA
BRANCH  26  27
ATOM     27  C   UNL A   1      44.825  19.672  24.139  1.00  0.00     0.338 C 
ATOM     28  O   UNL A   1      45.653  18.819  23.871  1.00  0.00    -0.246 OA
BRANCH  27  29
ATOM     29  C   UNL A   1      45.156  21.090  24.313  1.00  0.00     0.060 A 
ATOM     30  C   UNL A   1      46.003  21.366  25.385  1.00  0.00     0.016 A 
ATOM     31  C   UNL A   1      44.413  22.091  23.669  1.00  0.00     0.016 A 
ATOM     32  C   UNL A   1      45.881  22.586  25.996  1.00  0.00     0.010 A 
ATOM     33  C   UNL A   1      44.300  23.320  24.277  1.00  0.00     0.010 A 
ATOM     34  C   UNL A   1      44.953  23.505  25.489  1.00  0.00    -0.014 A 
BRANCH  34  35
ATOM     35  C   UNL A   1      44.737  24.691  26.285  1.00  0.00     0.031 A 
ATOM     36  C   UNL A   1      45.908  25.581  26.295  1.00  0.00     0.074 A 
ATOM     37  C   UNL A   1      43.590  24.926  26.944  1.00  0.00     0.049 A 
ATOM     38  N   UNL A   1      46.717  25.807  27.273  1.00  0.00    -0.248 NA
ATOM     39  C   UNL A   1      46.341  26.132  25.003  1.00  0.00     0.031 C 
ATOM     40  C   UNL A   1      42.302  24.246  26.773  1.00  0.00     0.029 A 
ATOM     41  N   UNL A   1      43.312  25.903  27.850  1.00  0.00    -0.354 N 
ATOM     42  C   UNL A   1      47.644  26.711  26.773  1.00  0.00     0.074 A 
ATOM     43  C   UNL A   1      47.486  26.721  25.344  1.00  0.00     0.031 C 
ATOM     44  C   UNL A   1      41.337  24.976  27.374  1.00  0.00     0.029 A 
ATOM     45  C   UNL A   1      41.958  26.083  28.083  1.00  0.00     0.049 A 
ATOM     46  H   UNL A   1      44.009  26.434  28.299  1.00  0.00     0.167 HD
ATOM     47  C   UNL A   1      48.246  27.601  27.602  1.00  0.00     0.037 A 
ATOM     48  C   UNL A   1      41.394  27.115  28.751  1.00  0.00     0.037 A 
ATOM     49  C   UNL A   1      48.131  27.196  28.979  1.00  0.00     0.049 A 
ATOM     50  C   UNL A   1      42.433  27.733  29.608  1.00  0.00     0.074 A 
ATOM     51  C   UNL A   1      48.678  26.219  29.780  1.00  0.00     0.029 A 
ATOM     52  N   UNL A   1      47.021  27.679  29.621  1.00  0.00    -0.354 N 
ATOM     53  N   UNL A   1      42.958  27.149  30.649  1.00  0.00    -0.248 NA
ATOM     54  C   UNL A   1      43.162  28.899  29.120  1.00  0.00     0.031 C 
ATOM     55  C   UNL A   1      47.728  25.982  30.817  1.00  0.00     0.029 A 
ATOM     56  C   UNL A   1      46.637  26.830  30.624  1.00  0.00     0.049 A 
ATOM     57  H   UNL A   1      46.563  28.519  29.394  1.00  0.00     0.167 HD
ATOM     58  C   UNL A   1      44.267  27.596  30.674  1.00  0.00     0.074 A 
ATOM     59  C   UNL A   1      44.279  28.789  29.842  1.00  0.00     0.031 C 
ATOM     60  C   UNL A   1      45.273  26.782  31.108  1.00  0.00     0.037 A 
BRANCH  47  61
ATOM     61  C   UNL A   1      48.473  29.048  27.231  1.00  0.00     0.057 A 
ATOM     62  C   UNL A   1      49.768  29.581  27.356  1.00  0.00     0.134 A 
ATOM     63  C   UNL A   1      47.444  30.003  27.081  1.00  0.00     0.134 A 
ATOM     64  F   UNL A   1      50.829  28.779  27.523  1.00  0.00    -0.206 F 
ATOM     65  C   UNL A   1      50.008  30.961  27.403  1.00  0.00     0.040 A 
ATOM     66  C   UNL A   1      47.680  31.379  27.074  1.00  0.00     0.040 A 
ATOM     67  F   UNL A   1      46.148  29.671  27.042  1.00  0.00    -0.206 F 
ATOM     68  C   UNL A   1      48.961  31.864  27.269  1.00  0.00     0.006 A 
ENDBRANCH  47  61
BRANCH  48  69
ATOM     69  C   UNL A   1      40.090  27.756  28.489  1.00  0.00     0.057 A 
ATOM     70  C   UNL A   1      39.078  27.778  29.456  1.00  0.00     0.134 A 
ATOM     71  C   UNL A   1      39.899  28.591  27.372  1.00  0.00     0.134 A 
ATOM     72  F   UNL A   1      39.192  27.048  30.575  1.00  0.00    -0.206 F 
ATOM     73  C   UNL A   1      37.949  28.597  29.331  1.00  0.00     0.040 A 
ATOM     74  C   UNL A   1      38.774  29.408  27.231  1.00  0.00     0.040 A 
ATOM     75  F   UNL A   1      40.842  28.708  26.426  1.00  0.00    -0.206 F 
ATOM     76  C   UNL A   1      37.799  29.423  28.219  1.00  0.00     0.006 A 
ENDBRANCH  48  69
BRANCH  60  77
ATOM     77  C   UNL A   1      44.890  25.635  31.992  1.00  0.00     0.057 A 
ATOM     78  C   UNL A   1      44.520  24.366  31.528  1.00  0.00     0.134 A 
ATOM     79  C   UNL A   1      44.991  25.803  33.379  1.00  0.00     0.134 A 
ATOM     80  F   UNL A   1      44.476  24.094  30.216  1.00  0.00    -0.206 F 
ATOM     81  C   UNL A   1      44.221  23.324  32.409  1.00  0.00     0.040 A 
ATOM     82  C   UNL A   1      44.730  24.761  34.268  1.00  0.00     0.040 A 
ATOM     83  F   UNL A   1      45.386  26.980  33.889  1.00  0.00    -0.206 F 
ATOM     84  C   UNL A   1      44.331  23.518  33.784  1.00  0.00     0.006 A 
ENDBRANCH  60  77
ENDBRANCH  34  35
ENDBRANCH  27  29
ENDBRANCH  26  27
ENDBRANCH  25  26
ENDBRANCH  24  25
ENDBRANCH  23  24
ENDBRANCH   1  23
TORSDOF 17
ENDMDL
MODEL 2
REMARK VINA RESULT:     -11.3      5.553     11.008
REMARK SMILES C[C@@H]1C[C@@H](C)CN(C(=O)CCn2cc(C(=O)OCCOCCOC(=O)c3ccc(-c4c5nc(c(-c6c(F)cccc6F)c6ccc([nH]6)c(-c6c(F)cccc6F)c6nc(c(-c7c(F)cccc7F)c7ccc4[nH]7)C=C6)C=C5)cc3)cn2)C1
REMARK SMILES IDX 19 1 18 2 17 3 15 4 16 5 14 6 12 7 13 8 81 9 80 10 11 11
REMARK SMILES IDX 10 12 8 13 1 14 2 15 3 16 82 17 4 18 7 19 6 20 5 21 9 22
REMARK SMILES IDX 20 23 21 24 22 25 23 26 24 27 25 28 26 29 27 30 79 31 28 32
REMARK SMILES IDX 78 33 29 34 30 35 31 36 72 37 32 38 77 39 71 40 73 41 33 42
REMARK SMILES IDX 76 43 70 44 69 45 34 47 60 48 43 49 59 50 44 51 47 52 58 53
REMARK SMILES IDX 74 54 45 55 46 56 57 58 75 59 48 60 35 61 36 62 41 63 37 64
REMARK SMILES IDX 38 65 40 66 42 67 39 68 61 69 62 70 67 71 63 72 64 73 66 74
REMARK SMILES IDX 68 75 65 76 49 77 50 78 55 79 51 80 52 81 54 82 56 83 53 84
REMARK H PARENT 73 46 47 57
REMARK Flexibility Score: inf
ROOT
ATOM      1  C   UNL A   1      33.716  33.118  28.023  1.00  0.00     0.202 C 
ENDROOT
BRANCH   1   2
ATOM      2  C   UNL A   1      34.005  31.619  28.008  1.00  0.00     0.261 C 
BRANCH   2   3
ATOM      3  O   UNL A   1      32.986  30.894  27.291  1.00  0.00    -0.460 OA
BRANCH   3   4
ATOM      4  C   UNL A   1      33.440  29.758  26.707  1.00  0.00     0.341 C 
ATOM      5  O   UNL A   1      34.271  29.008  27.203  1.00  0.00    -0.246 OA
BRANCH   4   6
ATOM      6  C   UNL A   1      32.837  29.437  25.432  1.00  0.00     0.098 A 
ATOM      7  N   UNL A   1      32.486  27.983  23.858  1.00  0.00    -0.271 N 
ATOM      8  C   UNL A   1      33.481  28.728  24.436  1.00  0.00     0.124 A 
ATOM      9  N   UNL A   1      31.265  28.514  24.064  1.00  0.00    -0.181 NA
ATOM     10  C   UNL A   1      31.475  29.388  25.057  1.00  0.00     0.150 A 
BRANCH   7  11
ATOM     11  C   UNL A   1      32.634  26.614  23.374  1.00  0.00     0.154 C 
BRANCH  11  12
ATOM     12  C   UNL A   1      33.897  25.925  23.905  1.00  0.00     0.124 C 
BRANCH  12  13
ATOM     13  C   UNL A   1      34.014  24.460  23.531  1.00  0.00     0.224 C 
ATOM     14  C   UNL A   1      32.094  21.528  22.619  1.00  0.00     0.009 C 
ATOM     15  C   UNL A   1      32.763  21.208  23.958  1.00  0.00     0.006 C 
ATOM     16  C   UNL A   1      31.784  21.358  25.130  1.00  0.00     0.010 C 
ATOM     17  C   UNL A   1      33.993  22.093  24.190  1.00  0.00     0.122 C 
ATOM     18  C   UNL A   1      31.428  22.825  25.398  1.00  0.00     0.006 C 
ATOM     19  N   UNL A   1      33.606  23.483  24.427  1.00  0.00    -0.342 N 
ATOM     20  C   UNL A   1      32.709  23.664  25.568  1.00  0.00     0.122 C 
ATOM     21  C   UNL A   1      30.508  22.903  26.613  1.00  0.00     0.009 C 
ATOM     22  O   UNL A   1      34.537  24.176  22.449  1.00  0.00    -0.275 OA
ENDBRANCH  12  13
ENDBRANCH  11  12
ENDBRANCH   7  11
ENDBRANCH   4   6
ENDBRANCH   3   4
ENDBRANCH   2   3
ENDBRANCH   1   2
BRANCH   1  23
ATOM     23  O   UNL A   1      34.282  33.896  29.080  1.00  0.00    -0.374 OA
BRANCH  23  24
ATOM     24  C   UNL A   1      34.131  35.312  29.094  1.00  0.00     0.202 C 
BRANCH  24  25
ATOM     25  C   UNL A   1      32.910  35.886  29.806  1.00  0.00     0.261 C 
BRANCH  25  26
ATOM     26  O   UNL A   1      32.563  35.111  30.944  1.00  0.00    -0.460 OA
BRANCH  26  27
ATOM     27  C   UNL A   1      32.891  35.686  32.120  1.00  0.00     0.338 C 
ATOM     28  O   UNL A   1      32.473  36.738  32.570  1.00  0.00    -0.246 OA
BRANCH  27  29
ATOM     29  C   UNL A   1      33.967  34.912  32.747  1.00  0.00     0.060 A 
ATOM     30  C   UNL A   1      35.172  35.597  32.895  1.00  0.00     0.016 A 
ATOM     31  C   UNL A   1      33.881  33.516  32.866  1.00  0.00     0.016 A 
ATOM     32  C   UNL A   1      36.330  34.865  32.869  1.00  0.00     0.010 A 
ATOM     33  C   UNL A   1      35.044  32.781  32.852  1.00  0.00     0.010 A 
ATOM     34  C   UNL A   1      36.244  33.472  32.743  1.00  0.00    -0.014 A 
BRANCH  34  35
ATOM     35  C   UNL A   1      37.493  32.778  32.531  1.00  0.00     0.031 A 
ATOM     36  C   UNL A   1      38.374  32.836  33.709  1.00  0.00     0.074 A 
ATOM     37  C   UNL A   1      37.799  32.166  31.375  1.00  0.00     0.049 A 
ATOM     38  N   UNL A   1      39.467  33.506  33.842  1.00  0.00    -0.248 NA
ATOM     39  C   UNL A   1      37.873  32.230  34.951  1.00  0.00     0.031 C 
ATOM     40  C   UNL A   1      36.893  31.829  30.273  1.00  0.00     0.029 A 
ATOM     41  N   UNL A   1      38.986  31.625  30.984  1.00  0.00    -0.354 N 
ATOM     42  C   UNL A   1      39.908  33.226  35.128  1.00  0.00     0.074 A 
ATOM     43  C   UNL A   1      38.809  32.609  35.819  1.00  0.00     0.031 C 
ATOM     44  C   UNL A   1      37.508  30.949  29.452  1.00  0.00     0.029 A 
ATOM     45  C   UNL A   1      38.883  30.777  29.894  1.00  0.00     0.049 A 
ATOM     46  H   UNL A   1      39.839  31.820  31.435  1.00  0.00     0.167 HD
ATOM     47  C   UNL A   1      41.235  33.242  35.414  1.00  0.00     0.037 A 
ATOM     48  C   UNL A   1      39.845  29.940  29.440  1.00  0.00     0.037 A 
ATOM     49  C   UNL A   1      41.978  33.962  34.413  1.00  0.00     0.049 A 
ATOM     50  C   UNL A   1      41.152  30.422  29.947  1.00  0.00     0.074 A 
ATOM     51  C   UNL A   1      42.135  35.279  34.043  1.00  0.00     0.029 A 
ATOM     52  N   UNL A   1      42.432  33.188  33.377  1.00  0.00    -0.354 N 
ATOM     53  N   UNL A   1      41.718  31.529  29.558  1.00  0.00    -0.248 NA
ATOM     54  C   UNL A   1      41.704  29.839  31.166  1.00  0.00     0.031 C 
ATOM     55  C   UNL A   1      42.491  35.260  32.661  1.00  0.00     0.029 A 
ATOM     56  C   UNL A   1      42.552  33.933  32.235  1.00  0.00     0.049 A 
ATOM     57  H   UNL A   1      42.644  32.230  33.445  1.00  0.00     0.167 HD
ATOM     58  C   UNL A   1      42.381  31.994  30.681  1.00  0.00     0.074 A 
ATOM     59  C   UNL A   1      42.491  30.842  31.563  1.00  0.00     0.031 C 
ATOM     60  C   UNL A   1      42.494  33.333  30.918  1.00  0.00     0.037 A 
BRANCH  47  61
ATOM     61  C   UNL A   1      41.902  32.202  36.283  1.00  0.00     0.057 A 
ATOM     62  C   UNL A   1      42.730  32.632  37.335  1.00  0.00     0.134 A 
ATOM     63  C   UNL A   1      42.033  30.839  35.937  1.00  0.00     0.134 A 
ATOM     64  F   UNL A   1      42.713  33.908  37.745  1.00  0.00    -0.206 F 
ATOM     65  C   UNL A   1      43.667  31.787  37.943  1.00  0.00     0.040 A 
ATOM     66  C   UNL A   1      42.927  29.977  36.573  1.00  0.00     0.040 A 
ATOM     67  F   UNL A   1      41.388  30.290  34.900  1.00  0.00    -0.206 F 
ATOM     68  C   UNL A   1      43.773  30.457  37.557  1.00  0.00     0.006 A 
ENDBRANCH  47  61
BRANCH  48  69
ATOM     69  C   UNL A   1      39.669  28.611  28.823  1.00  0.00     0.057 A 
ATOM     70  C   UNL A   1      40.180  28.321  27.552  1.00  0.00     0.134 A 
ATOM     71  C   UNL A   1      39.218  27.511  29.577  1.00  0.00     0.134 A 
ATOM     72  F   UNL A   1      40.672  29.299  26.779  1.00  0.00    -0.206 F 
ATOM     73  C   UNL A   1      40.257  27.011  27.064  1.00  0.00     0.040 A 
ATOM     74  C   UNL A   1      39.281  26.200  29.099  1.00  0.00     0.040 A 
ATOM     75  F   UNL A   1      38.784  27.665  30.836  1.00  0.00    -0.206 F 
ATOM     76  C   UNL A   1      39.815  25.943  27.842  1.00  0.00     0.006 A 
ENDBRANCH  48  69
BRANCH  60  77
ATOM     77  C   UNL A   1      42.346  34.250  29.743  1.00  0.00     0.057 A 
ATOM     78  C   UNL A   1      41.142  34.856  29.359  1.00  0.00     0.134 A 
ATOM     79  C   UNL A   1      43.497  34.604  29.028  1.00  0.00     0.134 A 
ATOM     80  F   UNL A   1      40.009  34.637  30.038  1.00  0.00    -0.206 F 
ATOM     81  C   UNL A   1      41.083  35.741  28.280  1.00  0.00     0.040 A 
ATOM     82  C   UNL A   1      43.456  35.513  27.972  1.00  0.00     0.040 A 
ATOM     83  F   UNL A   1      44.690  34.096  29.374  1.00  0.00    -0.206 F 
ATOM     84  C   UNL A   1      42.243  36.078  27.586  1.00  0.00     0.006 A 
ENDBRANCH  60  77
ENDBRANCH  34  35
ENDBRANCH  27  29
ENDBRANCH  26  27
ENDBRANCH  25  26
ENDBRANCH  24  25
ENDBRANCH  23  24
ENDBRANCH   1  23
TORSDOF 17
ENDMDL
MODEL 3
REMARK VINA RESULT:     -10.7      1.221      2.070
REMARK SMILES C[C@@H]1C[C@@H](C)CN(C(=O)CCn2cc(C(=O)OCCOCCOC(=O)c3ccc(-c4c5nc(c(-c6c(F)cccc6F)c6ccc([nH]6)c(-c6c(F)cccc6F)c6nc(c(-c7c(F)cccc7F)c7ccc4[nH]7)C=C6)C=C5)cc3)cn2)C1
REMARK SMILES IDX 19 1 18 2 17 3 15 4 16 5 14 6 12 7 13 8 81 9 80 10 11 11
REMARK SMILES IDX 10 12 8 13 1 14 2 15 3 16 82 17 4 18 7 19 6 20 5 21 9 22
REMARK SMILES IDX 20 23 21 24 22 25 23 26 24 27 25 28 26 29 27 30 79 31 28 32
REMARK SMILES IDX 78 33 29 34 30 35 31 36 72 37 32 38 77 39 71 40 73 41 33 42
REMARK SMILES IDX 76 43 70 44 69 45 34 47 60 48 43 49 59 50 44 51 47 52 58 53
REMARK SMILES IDX 74 54 45 55 46 56 57 58 75 59 48 60 35 61 36 62 41 63 37 64
REMARK SMILES IDX 38 65 40 66 42 67 39 68 61 69 62 70 67 71 63 72 64 73 66 74
REMARK SMILES IDX 68 75 65 76 49 77 50 78 55 79 51 80 52 81 54 82 56 83 53 84
REMARK H PARENT 73 46 47 57
REMARK Flexibility Score: inf
ROOT
ATOM      1  C   UNL A   1      40.316  21.279  26.579  1.00  0.00     0.202 C 
ENDROOT
BRANCH   1   2
ATOM      2  C   UNL A   1      38.995  21.392  25.824  1.00  0.00     0.261 C 
BRANCH   2   3
ATOM      3  O   UNL A   1      38.381  22.680  26.027  1.00  0.00    -0.460 OA
BRANCH   3   4
ATOM      4  C   UNL A   1      37.195  22.822  25.386  1.00  0.00     0.341 C 
ATOM      5  O   UNL A   1      36.940  23.718  24.590  1.00  0.00    -0.246 OA
BRANCH   4   6
ATOM      6  C   UNL A   1      36.216  21.795  25.667  1.00  0.00     0.098 A 
ATOM      7  N   UNL A   1      34.158  21.266  26.116  1.00  0.00    -0.271 N 
ATOM      8  C   UNL A   1      35.248  21.907  26.646  1.00  0.00     0.124 A 
ATOM      9  N   UNL A   1      34.501  20.382  25.159  1.00  0.00    -0.181 NA
ATOM     10  C   UNL A   1      35.760  20.729  24.860  1.00  0.00     0.150 A 
BRANCH   7  11
ATOM     11  C   UNL A   1      32.772  21.692  26.278  1.00  0.00     0.154 C 
BRANCH  11  12
ATOM     12  C   UNL A   1      32.643  23.099  26.874  1.00  0.00     0.124 C 
BRANCH  12  13
ATOM     13  C   UNL A   1      31.415  23.862  26.418  1.00  0.00     0.224 C 
ATOM     14  C   UNL A   1      29.953  25.602  23.598  1.00  0.00     0.009 C 
ATOM     15  C   UNL A   1      30.159  26.651  24.694  1.00  0.00     0.006 C 
ATOM     16  C   UNL A   1      31.411  27.499  24.438  1.00  0.00     0.010 C 
ATOM     17  C   UNL A   1      30.247  25.997  26.078  1.00  0.00     0.122 C 
ATOM     18  C   UNL A   1      32.702  26.697  24.644  1.00  0.00     0.006 C 
ATOM     19  N   UNL A   1      31.486  25.233  26.224  1.00  0.00    -0.342 N 
ATOM     20  C   UNL A   1      32.700  26.026  26.031  1.00  0.00     0.122 C 
ATOM     21  C   UNL A   1      33.902  27.618  24.438  1.00  0.00     0.009 C 
ATOM     22  O   UNL A   1      30.356  23.239  26.293  1.00  0.00    -0.275 OA
ENDBRANCH  12  13
ENDBRANCH  11  12
ENDBRANCH   7  11
ENDBRANCH   4   6
ENDBRANCH   3   4
ENDBRANCH   2   3
ENDBRANCH   1   2
BRANCH   1  23
ATOM     23  O   UNL A   1      40.736  19.979  27.000  1.00  0.00    -0.374 OA
BRANCH  23  24
ATOM     24  C   UNL A   1      42.119  19.692  27.182  1.00  0.00     0.202 C 
BRANCH  24  25
ATOM     25  C   UNL A   1      42.824  18.890  26.092  1.00  0.00     0.261 C 
BRANCH  25  26
ATOM     26  O   UNL A   1      43.028  19.671  24.925  1.00  0.00    -0.460 OA
BRANCH  26  27
ATOM     27  C   UNL A   1      44.322  19.785  24.559  1.00  0.00     0.338 C 
ATOM     28  O   UNL A   1      45.092  18.883  24.280  1.00  0.00    -0.246 OA
BRANCH  27  29
ATOM     29  C   UNL A   1      44.732  21.187  24.683  1.00  0.00     0.060 A 
ATOM     30  C   UNL A   1      45.668  21.437  25.685  1.00  0.00     0.016 A 
ATOM     31  C   UNL A   1      43.993  22.215  24.076  1.00  0.00     0.016 A 
ATOM     32  C   UNL A   1      45.650  22.671  26.280  1.00  0.00     0.010 A 
ATOM     33  C   UNL A   1      43.985  23.457  24.667  1.00  0.00     0.010 A 
ATOM     34  C   UNL A   1      44.733  23.627  25.825  1.00  0.00    -0.014 A 
BRANCH  34  35
ATOM     35  C   UNL A   1      44.633  24.834  26.613  1.00  0.00     0.031 A 
ATOM     36  C   UNL A   1      45.865  25.638  26.565  1.00  0.00     0.074 A 
ATOM     37  C   UNL A   1      43.533  25.159  27.311  1.00  0.00     0.049 A 
ATOM     38  N   UNL A   1      46.725  25.816  27.509  1.00  0.00    -0.248 NA
ATOM     39  C   UNL A   1      46.285  26.143  25.250  1.00  0.00     0.031 C 
ATOM     40  C   UNL A   1      42.194  24.571  27.199  1.00  0.00     0.029 A 
ATOM     41  N   UNL A   1      43.361  26.163  28.214  1.00  0.00    -0.354 N 
ATOM     42  C   UNL A   1      47.695  26.645  26.962  1.00  0.00     0.074 A 
ATOM     43  C   UNL A   1      47.482  26.651  25.540  1.00  0.00     0.031 C 
ATOM     44  C   UNL A   1      41.307  25.375  27.827  1.00  0.00     0.029 A 
ATOM     45  C   UNL A   1      42.034  26.442  28.496  1.00  0.00     0.049 A 
ATOM     46  H   UNL A   1      44.111  26.647  28.629  1.00  0.00     0.167 HD
ATOM     47  C   UNL A   1      48.391  27.499  27.755  1.00  0.00     0.037 A 
ATOM     48  C   UNL A   1      41.571  27.520  29.171  1.00  0.00     0.037 A 
ATOM     49  C   UNL A   1      48.300  27.118  29.140  1.00  0.00     0.049 A 
ATOM     50  C   UNL A   1      42.684  28.071  29.980  1.00  0.00     0.074 A 
ATOM     51  C   UNL A   1      48.808  26.113  29.933  1.00  0.00     0.029 A 
ATOM     52  N   UNL A   1      47.254  27.686  29.818  1.00  0.00    -0.354 N 
ATOM     53  N   UNL A   1      43.206  27.461  31.007  1.00  0.00    -0.248 NA
ATOM     54  C   UNL A   1      43.475  29.176  29.448  1.00  0.00     0.031 C 
ATOM     55  C   UNL A   1      47.884  25.956  31.009  1.00  0.00     0.029 A 
ATOM     56  C   UNL A   1      46.849  26.878  30.846  1.00  0.00     0.049 A 
ATOM     57  H   UNL A   1      46.849  28.555  29.597  1.00  0.00     0.167 HD
ATOM     58  C   UNL A   1      44.544  27.813  30.976  1.00  0.00     0.074 A 
ATOM     59  C   UNL A   1      44.609  28.993  30.128  1.00  0.00     0.031 C 
ATOM     60  C   UNL A   1      45.505  26.933  31.382  1.00  0.00     0.037 A 
BRANCH  47  61
ATOM     61  C   UNL A   1      48.705  28.922  27.356  1.00  0.00     0.057 A 
ATOM     62  C   UNL A   1      50.038  29.364  27.430  1.00  0.00     0.134 A 
ATOM     63  C   UNL A   1      47.742  29.944  27.226  1.00  0.00     0.134 A 
ATOM     64  F   UNL A   1      51.045  28.490  27.573  1.00  0.00    -0.206 F 
ATOM     65  C   UNL A   1      50.376  30.723  27.449  1.00  0.00     0.040 A 
ATOM     66  C   UNL A   1      48.073  31.300  27.191  1.00  0.00     0.040 A 
ATOM     67  F   UNL A   1      46.425  29.705  27.234  1.00  0.00    -0.206 F 
ATOM     68  C   UNL A   1      49.391  31.696  27.337  1.00  0.00     0.006 A 
ENDBRANCH  47  61
BRANCH  48  69
ATOM     69  C   UNL A   1      40.307  28.250  28.950  1.00  0.00     0.057 A 
ATOM     70  C   UNL A   1      40.041  28.900  27.739  1.00  0.00     0.134 A 
ATOM     71  C   UNL A   1      39.218  28.108  29.831  1.00  0.00     0.134 A 
ATOM     72  F   UNL A   1      41.005  29.044  26.819  1.00  0.00    -0.206 F 
ATOM     73  C   UNL A   1      38.761  29.366  27.412  1.00  0.00     0.040 A 
ATOM     74  C   UNL A   1      37.939  28.574  29.520  1.00  0.00     0.040 A 
ATOM     75  F   UNL A   1      39.343  27.431  30.982  1.00  0.00    -0.206 F 
ATOM     76  C   UNL A   1      37.702  29.195  28.301  1.00  0.00     0.006 A 
ENDBRANCH  48  69
BRANCH  60  77
ATOM     77  C   UNL A   1      45.076  25.827  32.296  1.00  0.00     0.057 A 
ATOM     78  C   UNL A   1      44.927  25.959  33.683  1.00  0.00     0.134 A 
ATOM     79  C   UNL A   1      44.711  24.600  31.728  1.00  0.00     0.134 A 
ATOM     80  F   UNL A   1      45.176  27.123  34.299  1.00  0.00    -0.206 F 
ATOM     81  C   UNL A   1      44.475  24.899  34.473  1.00  0.00     0.040 A 
ATOM     82  C   UNL A   1      44.225  23.547  32.501  1.00  0.00     0.040 A 
ATOM     83  F   UNL A   1      44.785  24.422  30.400  1.00  0.00    -0.206 F 
ATOM     84  C   UNL A   1      44.117  23.690  33.882  1.00  0.00     0.006 A 
ENDBRANCH  60  77
ENDBRANCH  34  35
ENDBRANCH  27  29
ENDBRANCH  26  27
ENDBRANCH  25  26
ENDBRANCH  24  25
ENDBRANCH  23  24
ENDBRANCH   1  23
TORSDOF 17
ENDMDL
