MODEL 1
REMARK VINA RESULT:     -13.6      0.000      0.000
REMARK SMILES Cc1ccccc1C(=O)Nc1cc(C(=O)OCCOCCOC(=O)c2ccc(-c3c4nc(c(-c5c(F)cccc5F)c5ccc([nH]5)c(-c5c(F)cccc5F)c5nc(c(-c6c(F)cccc6F)c6ccc3[nH]6)C=C5)C=C4)cc2)ccc1N1CC[NH+](CC(=O)Nc2ccc(F)cc2)CC1
REMARK SMILES IDX 18 1 17 2 16 3 14 4 15 5 13 6 11 7 12 8 81 9 80 10 79 11
REMARK SMILES IDX 10 12 8 13 9 14 7 16 1 17 2 18 3 19 4 20 6 21 5 22 82 23
REMARK SMILES IDX 83 24 98 25 84 26 97 27 85 28 86 30 87 31 88 32 89 33 90 35
REMARK SMILES IDX 91 36 96 37 92 38 95 39 93 40 94 41 19 42 20 43 21 44 22 45
REMARK SMILES IDX 23 46 24 47 25 48 26 49 78 50 27 51 77 52 28 53 29 54 30 55
REMARK SMILES IDX 71 56 31 57 76 58 70 59 72 60 32 61 75 62 69 63 68 64 33 66
REMARK SMILES IDX 59 67 42 68 58 69 43 70 46 71 57 72 73 73 44 74 45 75 56 77
REMARK SMILES IDX 74 78 47 79 34 80 35 81 40 82 36 83 37 84 39 85 41 86 38 87
REMARK SMILES IDX 60 88 61 89 66 90 62 91 63 92 65 93 67 94 64 95 48 96 49 97
REMARK SMILES IDX 54 98 50 99 51 100 53 101 55 102 52 103
REMARK H PARENT 10 15 85 29 89 34 72 65 46 76
REMARK Flexibility Score: inf
ROOT
ATOM      1  C   UNL A   1      33.331  33.953  28.443  1.00  0.00     0.202 C 
ENDROOT
BRANCH   1   2
ATOM      2  C   UNL A   1      32.527  33.121  27.484  1.00  0.00     0.261 C 
BRANCH   2   3
ATOM      3  O   UNL A   1      32.866  31.724  27.314  1.00  0.00    -0.460 OA
BRANCH   3   4
ATOM      4  C   UNL A   1      32.117  30.942  26.507  1.00  0.00     0.338 C 
ATOM      5  O   UNL A   1      31.053  31.289  25.986  1.00  0.00    -0.246 OA
BRANCH   4   6
ATOM      6  C   UNL A   1      32.546  29.530  26.598  1.00  0.00     0.062 A 
ATOM      7  C   UNL A   1      31.980  27.274  26.054  1.00  0.00     0.065 A 
ATOM      8  C   UNL A   1      31.591  28.555  26.360  1.00  0.00     0.044 A 
ATOM      9  C   UNL A   1      33.338  26.851  26.110  1.00  0.00     0.061 A 
ATOM     10  C   UNL A   1      34.276  27.829  26.493  1.00  0.00     0.029 A 
ATOM     11  C   UNL A   1      33.892  29.168  26.692  1.00  0.00     0.018 A 
BRANCH   7  12
ATOM     12  N   UNL A   1      30.973  26.447  25.564  1.00  0.00    -0.320 N 
ATOM     13  C   UNL A   1      30.116  26.663  24.493  1.00  0.00     0.255 C 
ATOM     14  O   UNL A   1      29.381  25.702  24.223  1.00  0.00    -0.269 OA
ATOM     15  H   UNL A   1      30.852  25.595  26.042  1.00  0.00     0.170 HD
BRANCH  13  16
ATOM     16  C   UNL A   1      30.046  27.880  23.575  1.00  0.00     0.043 A 
ATOM     17  C   UNL A   1      32.507  28.317  22.733  1.00  0.00     0.045 C 
ATOM     18  C   UNL A   1      31.038  28.591  22.852  1.00  0.00    -0.038 A 
ATOM     19  C   UNL A   1      30.655  29.689  22.038  1.00  0.00     0.004 A 
ATOM     20  C   UNL A   1      29.327  29.998  21.792  1.00  0.00     0.000 A 
ATOM     21  C   UNL A   1      28.702  28.244  23.309  1.00  0.00     0.014 A 
ATOM     22  C   UNL A   1      28.344  29.256  22.415  1.00  0.00     0.001 A 
ENDBRANCH  13  16
ENDBRANCH   7  12
BRANCH   9  23
ATOM     23  N   UNL A   1      33.724  25.595  25.627  1.00  0.00    -0.359 N 
ATOM     24  C   UNL A   1      33.653  25.227  24.185  1.00  0.00     0.178 C 
ATOM     25  C   UNL A   1      33.324  24.454  26.458  1.00  0.00     0.178 C 
ATOM     26  C   UNL A   1      34.247  23.793  23.913  1.00  0.00     0.284 C 
ATOM     27  C   UNL A   1      34.304  23.312  26.233  1.00  0.00     0.284 C 
ATOM     28  N   UNL A   1      34.059  22.727  24.927  1.00  0.00    -0.324 N 
ATOM     29  H   UNL A   1      34.740  22.015  24.666  1.00  0.00     0.348 HD
BRANCH  28  30
ATOM     30  C   UNL A   1      32.849  21.863  24.901  1.00  0.00     0.364 C 
BRANCH  30  31
ATOM     31  C   UNL A   1      32.465  21.102  23.626  1.00  0.00     0.279 C 
ATOM     32  O   UNL A   1      31.955  21.736  22.687  1.00  0.00    -0.268 OA
ATOM     33  N   UNL A   1      32.710  19.776  23.365  1.00  0.00    -0.321 N 
ATOM     34  H   UNL A   1      32.729  19.627  22.392  1.00  0.00     0.170 HD
BRANCH  33  35
ATOM     35  C   UNL A   1      32.946  18.553  24.043  1.00  0.00     0.041 A 
ATOM     36  C   UNL A   1      33.728  17.604  23.355  1.00  0.00     0.029 A 
ATOM     37  C   UNL A   1      32.384  18.137  25.246  1.00  0.00     0.029 A 
ATOM     38  C   UNL A   1      33.925  16.302  23.846  1.00  0.00     0.041 A 
ATOM     39  C   UNL A   1      32.525  16.818  25.719  1.00  0.00     0.041 A 
ATOM     40  C   UNL A   1      33.304  15.913  25.020  1.00  0.00     0.123 A 
ATOM     41  F   UNL A   1      33.460  14.665  25.480  1.00  0.00    -0.207 F 
ENDBRANCH  33  35
ENDBRANCH  30  31
ENDBRANCH  28  30
ENDBRANCH   9  23
ENDBRANCH   4   6
ENDBRANCH   3   4
ENDBRANCH   2   3
ENDBRANCH   1   2
BRANCH   1  42
ATOM     42  O   UNL A   1      32.580  35.123  28.710  1.00  0.00    -0.374 OA
BRANCH  42  43
ATOM     43  C   UNL A   1      33.333  36.223  29.188  1.00  0.00     0.202 C 
BRANCH  43  44
ATOM     44  C   UNL A   1      32.961  36.605  30.626  1.00  0.00     0.261 C 
BRANCH  44  45
ATOM     45  O   UNL A   1      33.083  35.443  31.475  1.00  0.00    -0.460 OA
BRANCH  45  46
ATOM     46  C   UNL A   1      34.232  35.351  32.208  1.00  0.00     0.338 C 
ATOM     47  O   UNL A   1      34.779  36.274  32.779  1.00  0.00    -0.246 OA
BRANCH  46  48
ATOM     48  C   UNL A   1      34.891  34.033  31.950  1.00  0.00     0.060 A 
ATOM     49  C   UNL A   1      34.775  32.994  32.895  1.00  0.00     0.016 A 
ATOM     50  C   UNL A   1      35.892  33.982  30.986  1.00  0.00     0.016 A 
ATOM     51  C   UNL A   1      35.770  32.007  32.986  1.00  0.00     0.010 A 
ATOM     52  C   UNL A   1      36.930  33.095  31.168  1.00  0.00     0.010 A 
ATOM     53  C   UNL A   1      36.902  32.128  32.189  1.00  0.00    -0.014 A 
BRANCH  53  54
ATOM     54  C   UNL A   1      38.176  31.417  32.339  1.00  0.00     0.031 A 
ATOM     55  C   UNL A   1      38.313  30.153  31.576  1.00  0.00     0.074 A 
ATOM     56  C   UNL A   1      39.291  32.045  32.796  1.00  0.00     0.049 A 
ATOM     57  N   UNL A   1      39.428  29.558  31.381  1.00  0.00    -0.248 NA
ATOM     58  C   UNL A   1      37.203  29.470  30.917  1.00  0.00     0.031 C 
ATOM     59  C   UNL A   1      40.689  31.731  32.502  1.00  0.00     0.029 A 
ATOM     60  N   UNL A   1      39.425  33.108  33.704  1.00  0.00    -0.354 N 
ATOM     61  C   UNL A   1      39.275  28.635  30.382  1.00  0.00     0.074 A 
ATOM     62  C   UNL A   1      37.854  28.578  30.159  1.00  0.00     0.031 C 
ATOM     63  C   UNL A   1      41.477  32.240  33.460  1.00  0.00     0.029 A 
ATOM     64  C   UNL A   1      40.601  32.856  34.432  1.00  0.00     0.049 A 
ATOM     65  H   UNL A   1      38.818  33.876  33.811  1.00  0.00     0.167 HD
ATOM     66  C   UNL A   1      40.421  28.125  29.851  1.00  0.00     0.037 A 
ATOM     67  C   UNL A   1      40.568  32.623  35.765  1.00  0.00     0.037 A 
ATOM     68  C   UNL A   1      41.552  28.420  30.758  1.00  0.00     0.049 A 
ATOM     69  C   UNL A   1      41.120  31.243  35.968  1.00  0.00     0.074 A 
ATOM     70  C   UNL A   1      42.660  29.247  30.710  1.00  0.00     0.029 A 
ATOM     71  N   UNL A   1      41.421  28.038  32.101  1.00  0.00    -0.354 N 
ATOM     72  N   UNL A   1      40.934  30.263  35.111  1.00  0.00    -0.248 NA
ATOM     73  C   UNL A   1      42.191  30.980  36.923  1.00  0.00     0.031 C 
ATOM     74  C   UNL A   1      43.121  29.435  32.056  1.00  0.00     0.029 A 
ATOM     75  C   UNL A   1      42.301  28.716  32.921  1.00  0.00     0.049 A 
ATOM     76  H   UNL A   1      40.777  27.364  32.422  1.00  0.00     0.167 HD
ATOM     77  C   UNL A   1      41.960  29.367  35.259  1.00  0.00     0.074 A 
ATOM     78  C   UNL A   1      42.688  29.831  36.436  1.00  0.00     0.031 C 
ATOM     79  C   UNL A   1      42.362  28.424  34.353  1.00  0.00     0.037 A 
BRANCH  66  80
ATOM     80  C   UNL A   1      40.550  27.444  28.501  1.00  0.00     0.057 A 
ATOM     81  C   UNL A   1      41.179  28.103  27.426  1.00  0.00     0.134 A 
ATOM     82  C   UNL A   1      40.013  26.185  28.155  1.00  0.00     0.134 A 
ATOM     83  F   UNL A   1      41.704  29.328  27.564  1.00  0.00    -0.206 F 
ATOM     84  C   UNL A   1      41.284  27.549  26.137  1.00  0.00     0.040 A 
ATOM     85  C   UNL A   1      40.140  25.607  26.882  1.00  0.00     0.040 A 
ATOM     86  F   UNL A   1      39.293  25.450  29.006  1.00  0.00    -0.206 F 
ATOM     87  C   UNL A   1      40.775  26.289  25.863  1.00  0.00     0.006 A 
ENDBRANCH  66  80
BRANCH  67  88
ATOM     88  C   UNL A   1      39.522  33.458  36.427  1.00  0.00     0.057 A 
ATOM     89  C   UNL A   1      38.380  32.738  36.851  1.00  0.00     0.134 A 
ATOM     90  C   UNL A   1      39.835  34.604  37.169  1.00  0.00     0.134 A 
ATOM     91  F   UNL A   1      37.996  31.640  36.180  1.00  0.00    -0.206 F 
ATOM     92  C   UNL A   1      37.722  33.010  38.058  1.00  0.00     0.040 A 
ATOM     93  C   UNL A   1      39.160  34.902  38.369  1.00  0.00     0.040 A 
ATOM     94  F   UNL A   1      40.901  35.352  36.851  1.00  0.00    -0.206 F 
ATOM     95  C   UNL A   1      38.149  34.069  38.849  1.00  0.00     0.006 A 
ENDBRANCH  67  88
BRANCH  79  96
ATOM     96  C   UNL A   1      42.918  27.094  34.810  1.00  0.00     0.057 A 
ATOM     97  C   UNL A   1      42.118  25.970  35.079  1.00  0.00     0.134 A 
ATOM     98  C   UNL A   1      44.308  26.845  34.801  1.00  0.00     0.134 A 
ATOM     99  F   UNL A   1      40.780  26.014  35.014  1.00  0.00    -0.206 F 
ATOM    100  C   UNL A   1      42.656  24.717  35.379  1.00  0.00     0.040 A 
ATOM    101  C   UNL A   1      44.852  25.582  35.035  1.00  0.00     0.040 A 
ATOM    102  F   UNL A   1      45.207  27.799  34.523  1.00  0.00    -0.206 F 
ATOM    103  C   UNL A   1      44.026  24.515  35.343  1.00  0.00     0.006 A 
ENDBRANCH  79  96
ENDBRANCH  53  54
ENDBRANCH  46  48
ENDBRANCH  45  46
ENDBRANCH  44  45
ENDBRANCH  43  44
ENDBRANCH  42  43
ENDBRANCH   1  42
TORSDOF 20
ENDMDL
MODEL 2
REMARK VINA RESULT:     -12.9      4.062     10.968
REMARK SMILES Cc1ccccc1C(=O)Nc1cc(C(=O)OCCOCCOC(=O)c2ccc(-c3c4nc(c(-c5c(F)cccc5F)c5ccc([nH]5)c(-c5c(F)cccc5F)c5nc(c(-c6c(F)cccc6F)c6ccc3[nH]6)C=C5)C=C4)cc2)ccc1N1CC[NH+](CC(=O)Nc2ccc(F)cc2)CC1
REMARK SMILES IDX 18 1 17 2 16 3 14 4 15 5 13 6 11 7 12 8 81 9 80 10 79 11
REMARK SMILES IDX 10 12 8 13 9 14 7 16 1 17 2 18 3 19 4 20 6 21 5 22 82 23
REMARK SMILES IDX 83 24 98 25 84 26 97 27 85 28 86 30 87 31 88 32 89 33 90 35
REMARK SMILES IDX 91 36 96 37 92 38 95 39 93 40 94 41 19 42 20 43 21 44 22 45
REMARK SMILES IDX 23 46 24 47 25 48 26 49 78 50 27 51 77 52 28 53 29 54 30 55
REMARK SMILES IDX 71 56 31 57 76 58 70 59 72 60 32 61 75 62 69 63 68 64 33 66
REMARK SMILES IDX 59 67 42 68 58 69 43 70 46 71 57 72 73 73 44 74 45 75 56 77
REMARK SMILES IDX 74 78 47 79 34 80 35 81 40 82 36 83 37 84 39 85 41 86 38 87
REMARK SMILES IDX 60 88 61 89 66 90 62 91 63 92 65 93 67 94 64 95 48 96 49 97
REMARK SMILES IDX 54 98 50 99 51 100 53 101 55 102 52 103
REMARK H PARENT 10 15 85 29 89 34 72 65 46 76
REMARK Flexibility Score: inf
ROOT
ATOM      1  C   UNL A   1      34.468  22.543  23.122  1.00  0.00     0.202 C 
ENDROOT
BRANCH   1   2
ATOM      2  C   UNL A   1      33.443  23.513  22.607  1.00  0.00     0.261 C 
BRANCH   2   3
ATOM      3  O   UNL A   1      33.785  24.368  21.489  1.00  0.00    -0.460 OA
BRANCH   3   4
ATOM      4  C   UNL A   1      32.870  25.228  20.993  1.00  0.00     0.338 C 
ATOM      5  O   UNL A   1      32.462  25.222  19.828  1.00  0.00    -0.246 OA
BRANCH   4   6
ATOM      6  C   UNL A   1      32.675  26.372  21.909  1.00  0.00     0.062 A 
ATOM      7  C   UNL A   1      31.569  27.130  23.885  1.00  0.00     0.065 A 
ATOM      8  C   UNL A   1      31.596  26.319  22.777  1.00  0.00     0.044 A 
ATOM      9  C   UNL A   1      32.539  28.144  24.119  1.00  0.00     0.061 A 
ATOM     10  C   UNL A   1      33.549  28.271  23.146  1.00  0.00     0.029 A 
ATOM     11  C   UNL A   1      33.644  27.365  22.072  1.00  0.00     0.018 A 
BRANCH   7  12
ATOM     12  N   UNL A   1      30.597  26.812  24.831  1.00  0.00    -0.320 N 
ATOM     13  C   UNL A   1      30.628  25.828  25.810  1.00  0.00     0.255 C 
ATOM     14  O   UNL A   1      29.656  25.840  26.579  1.00  0.00    -0.269 OA
ATOM     15  H   UNL A   1      29.778  27.357  24.800  1.00  0.00     0.170 HD
BRANCH  13  16
ATOM     16  C   UNL A   1      31.739  24.823  26.099  1.00  0.00     0.043 A 
ATOM     17  C   UNL A   1      30.594  22.447  26.149  1.00  0.00     0.045 C 
ATOM     18  C   UNL A   1      31.734  23.413  26.263  1.00  0.00    -0.038 A 
ATOM     19  C   UNL A   1      32.958  22.734  26.497  1.00  0.00     0.004 A 
ATOM     20  C   UNL A   1      34.185  23.373  26.411  1.00  0.00     0.000 A 
ATOM     21  C   UNL A   1      33.015  25.438  26.040  1.00  0.00     0.014 A 
ATOM     22  C   UNL A   1      34.213  24.729  26.160  1.00  0.00     0.001 A 
ENDBRANCH  13  16
ENDBRANCH   7  12
BRANCH   9  23
ATOM     23  N   UNL A   1      32.586  28.834  25.336  1.00  0.00    -0.359 N 
ATOM     24  C   UNL A   1      31.839  30.101  25.576  1.00  0.00     0.178 C 
ATOM     25  C   UNL A   1      33.908  28.902  25.968  1.00  0.00     0.178 C 
ATOM     26  C   UNL A   1      31.991  30.601  27.063  1.00  0.00     0.284 C 
ATOM     27  C   UNL A   1      33.729  29.044  27.472  1.00  0.00     0.284 C 
ATOM     28  N   UNL A   1      33.277  30.391  27.771  1.00  0.00    -0.324 N 
ATOM     29  H   UNL A   1      33.045  30.534  28.753  1.00  0.00     0.348 HD
BRANCH  28  30
ATOM     30  C   UNL A   1      34.366  31.399  27.675  1.00  0.00     0.364 C 
BRANCH  30  31
ATOM     31  C   UNL A   1      35.354  31.588  28.834  1.00  0.00     0.279 C 
ATOM     32  O   UNL A   1      36.191  30.697  29.050  1.00  0.00    -0.268 OA
ATOM     33  N   UNL A   1      35.477  32.704  29.624  1.00  0.00    -0.321 N 
ATOM     34  H   UNL A   1      36.382  32.740  30.010  1.00  0.00     0.170 HD
BRANCH  33  35
ATOM     35  C   UNL A   1      34.723  33.821  30.065  1.00  0.00     0.041 A 
ATOM     36  C   UNL A   1      34.745  34.077  31.451  1.00  0.00     0.029 A 
ATOM     37  C   UNL A   1      33.861  34.607  29.305  1.00  0.00     0.029 A 
ATOM     38  C   UNL A   1      33.937  35.063  32.041  1.00  0.00     0.041 A 
ATOM     39  C   UNL A   1      33.004  35.557  29.892  1.00  0.00     0.041 A 
ATOM     40  C   UNL A   1      33.056  35.785  31.256  1.00  0.00     0.123 A 
ATOM     41  F   UNL A   1      32.259  36.705  31.814  1.00  0.00    -0.207 F 
ENDBRANCH  33  35
ENDBRANCH  30  31
ENDBRANCH  28  30
ENDBRANCH   9  23
ENDBRANCH   4   6
ENDBRANCH   3   4
ENDBRANCH   2   3
ENDBRANCH   1   2
BRANCH   1  42
ATOM     42  O   UNL A   1      35.739  23.044  22.750  1.00  0.00    -0.374 OA
BRANCH  42  43
ATOM     43  C   UNL A   1      36.652  23.216  23.818  1.00  0.00     0.202 C 
BRANCH  43  44
ATOM     44  C   UNL A   1      37.175  21.879  24.361  1.00  0.00     0.261 C 
BRANCH  44  45
ATOM     45  O   UNL A   1      37.558  22.043  25.744  1.00  0.00    -0.460 OA
BRANCH  45  46
ATOM     46  C   UNL A   1      38.899  22.066  26.000  1.00  0.00     0.338 C 
ATOM     47  O   UNL A   1      39.680  21.172  25.740  1.00  0.00    -0.246 OA
BRANCH  46  48
ATOM     48  C   UNL A   1      39.218  23.198  26.923  1.00  0.00     0.060 A 
ATOM     49  C   UNL A   1      38.604  24.453  26.732  1.00  0.00     0.016 A 
ATOM     50  C   UNL A   1      40.366  23.103  27.702  1.00  0.00     0.016 A 
ATOM     51  C   UNL A   1      39.243  25.625  27.167  1.00  0.00     0.010 A 
ATOM     52  C   UNL A   1      41.051  24.259  28.002  1.00  0.00     0.010 A 
ATOM     53  C   UNL A   1      40.520  25.527  27.705  1.00  0.00    -0.014 A 
BRANCH  53  54
ATOM     54  C   UNL A   1      41.480  26.615  27.922  1.00  0.00     0.031 A 
ATOM     55  C   UNL A   1      40.904  27.930  28.289  1.00  0.00     0.074 A 
ATOM     56  C   UNL A   1      42.791  26.365  28.175  1.00  0.00     0.049 A 
ATOM     57  N   UNL A   1      41.591  28.898  28.769  1.00  0.00    -0.248 NA
ATOM     58  C   UNL A   1      39.484  28.258  28.197  1.00  0.00     0.031 C 
ATOM     59  C   UNL A   1      43.735  27.183  28.938  1.00  0.00     0.029 A 
ATOM     60  N   UNL A   1      43.615  25.313  27.744  1.00  0.00    -0.354 N 
ATOM     61  C   UNL A   1      40.742  29.825  29.310  1.00  0.00     0.074 A 
ATOM     62  C   UNL A   1      39.433  29.408  28.881  1.00  0.00     0.031 C 
ATOM     63  C   UNL A   1      44.990  26.867  28.589  1.00  0.00     0.029 A 
ATOM     64  C   UNL A   1      44.891  25.868  27.548  1.00  0.00     0.049 A 
ATOM     65  H   UNL A   1      43.351  24.374  27.605  1.00  0.00     0.167 HD
ATOM     66  C   UNL A   1      41.310  30.766  30.115  1.00  0.00     0.037 A 
ATOM     67  C   UNL A   1      45.461  25.907  26.321  1.00  0.00     0.037 A 
ATOM     68  C   UNL A   1      42.773  30.774  29.896  1.00  0.00     0.049 A 
ATOM     69  C   UNL A   1      45.678  27.357  26.001  1.00  0.00     0.074 A 
ATOM     70  C   UNL A   1      43.880  30.401  30.638  1.00  0.00     0.029 A 
ATOM     71  N   UNL A   1      43.229  30.918  28.578  1.00  0.00    -0.354 N 
ATOM     72  N   UNL A   1      44.857  28.308  26.390  1.00  0.00    -0.248 NA
ATOM     73  C   UNL A   1      46.976  27.858  25.561  1.00  0.00     0.031 C 
ATOM     74  C   UNL A   1      44.973  30.221  29.726  1.00  0.00     0.029 A 
ATOM     75  C   UNL A   1      44.536  30.494  28.433  1.00  0.00     0.049 A 
ATOM     76  H   UNL A   1      42.682  31.278  27.841  1.00  0.00     0.167 HD
ATOM     77  C   UNL A   1      45.564  29.481  26.452  1.00  0.00     0.074 A 
ATOM     78  C   UNL A   1      46.865  29.158  25.876  1.00  0.00     0.031 C 
ATOM     79  C   UNL A   1      45.218  30.609  27.145  1.00  0.00     0.037 A 
BRANCH  66  80
ATOM     80  C   UNL A   1      40.584  31.610  31.145  1.00  0.00     0.057 A 
ATOM     81  C   UNL A   1      40.442  33.000  30.958  1.00  0.00     0.134 A 
ATOM     82  C   UNL A   1      40.072  31.152  32.378  1.00  0.00     0.134 A 
ATOM     83  F   UNL A   1      40.913  33.612  29.863  1.00  0.00    -0.206 F 
ATOM     84  C   UNL A   1      39.827  33.847  31.898  1.00  0.00     0.040 A 
ATOM     85  C   UNL A   1      39.427  31.981  33.310  1.00  0.00     0.040 A 
ATOM     86  F   UNL A   1      40.199  29.888  32.786  1.00  0.00    -0.206 F 
ATOM     87  C   UNL A   1      39.303  33.336  33.075  1.00  0.00     0.006 A 
ENDBRANCH  66  80
BRANCH  67  88
ATOM     88  C   UNL A   1      45.122  24.685  25.534  1.00  0.00     0.057 A 
ATOM     89  C   UNL A   1      45.858  23.532  25.897  1.00  0.00     0.134 A 
ATOM     90  C   UNL A   1      43.840  24.456  25.018  1.00  0.00     0.134 A 
ATOM     91  F   UNL A   1      47.106  23.661  26.379  1.00  0.00    -0.206 F 
ATOM     92  C   UNL A   1      45.283  22.255  25.951  1.00  0.00     0.040 A 
ATOM     93  C   UNL A   1      43.264  23.170  25.041  1.00  0.00     0.040 A 
ATOM     94  F   UNL A   1      43.060  25.481  24.650  1.00  0.00    -0.206 F 
ATOM     95  C   UNL A   1      43.959  22.082  25.568  1.00  0.00     0.006 A 
ENDBRANCH  67  88
BRANCH  79  96
ATOM     96  C   UNL A   1      45.576  31.982  26.621  1.00  0.00     0.057 A 
ATOM     97  C   UNL A   1      44.690  32.786  25.882  1.00  0.00     0.134 A 
ATOM     98  C   UNL A   1      46.769  32.625  27.020  1.00  0.00     0.134 A 
ATOM     99  F   UNL A   1      43.470  32.362  25.525  1.00  0.00    -0.206 F 
ATOM    100  C   UNL A   1      44.992  34.098  25.514  1.00  0.00     0.040 A 
ATOM    101  C   UNL A   1      47.050  33.956  26.713  1.00  0.00     0.040 A 
ATOM    102  F   UNL A   1      47.701  32.012  27.763  1.00  0.00    -0.206 F 
ATOM    103  C   UNL A   1      46.168  34.693  25.942  1.00  0.00     0.006 A 
ENDBRANCH  79  96
ENDBRANCH  53  54
ENDBRANCH  46  48
ENDBRANCH  45  46
ENDBRANCH  44  45
ENDBRANCH  43  44
ENDBRANCH  42  43
ENDBRANCH   1  42
TORSDOF 20
ENDMDL
MODEL 3
REMARK VINA RESULT:     -12.7      4.903      8.684
REMARK SMILES Cc1ccccc1C(=O)Nc1cc(C(=O)OCCOCCOC(=O)c2ccc(-c3c4nc(c(-c5c(F)cccc5F)c5ccc([nH]5)c(-c5c(F)cccc5F)c5nc(c(-c6c(F)cccc6F)c6ccc3[nH]6)C=C5)C=C4)cc2)ccc1N1CC[NH+](CC(=O)Nc2ccc(F)cc2)CC1
REMARK SMILES IDX 18 1 17 2 16 3 14 4 15 5 13 6 11 7 12 8 81 9 80 10 79 11
REMARK SMILES IDX 10 12 8 13 9 14 7 16 1 17 2 18 3 19 4 20 6 21 5 22 82 23
REMARK SMILES IDX 83 24 98 25 84 26 97 27 85 28 86 30 87 31 88 32 89 33 90 35
REMARK SMILES IDX 91 36 96 37 92 38 95 39 93 40 94 41 19 42 20 43 21 44 22 45
REMARK SMILES IDX 23 46 24 47 25 48 26 49 78 50 27 51 77 52 28 53 29 54 30 55
REMARK SMILES IDX 71 56 31 57 76 58 70 59 72 60 32 61 75 62 69 63 68 64 33 66
REMARK SMILES IDX 59 67 42 68 58 69 43 70 46 71 57 72 73 73 44 74 45 75 56 77
REMARK SMILES IDX 74 78 47 79 34 80 35 81 40 82 36 83 37 84 39 85 41 86 38 87
REMARK SMILES IDX 60 88 61 89 66 90 62 91 63 92 65 93 67 94 64 95 48 96 49 97
REMARK SMILES IDX 54 98 50 99 51 100 53 101 55 102 52 103
REMARK H PARENT 10 15 85 29 89 34 72 65 46 76
REMARK Flexibility Score: inf
ROOT
ATOM      1  C   UNL A   1      34.334  32.756  28.676  1.00  0.00     0.202 C 
ENDROOT
BRANCH   1   2
ATOM      2  C   UNL A   1      34.279  31.770  27.544  1.00  0.00     0.261 C 
BRANCH   2   3
ATOM      3  O   UNL A   1      33.335  30.674  27.614  1.00  0.00    -0.460 OA
BRANCH   3   4
ATOM      4  C   UNL A   1      32.273  30.645  26.780  1.00  0.00     0.338 C 
ATOM      5  O   UNL A   1      31.602  31.633  26.465  1.00  0.00    -0.246 OA
BRANCH   4   6
ATOM      6  C   UNL A   1      31.813  29.258  26.564  1.00  0.00     0.062 A 
ATOM      7  C   UNL A   1      31.595  27.494  24.967  1.00  0.00     0.065 A 
ATOM      8  C   UNL A   1      31.644  28.836  25.254  1.00  0.00     0.044 A 
ATOM      9  C   UNL A   1      31.564  26.494  25.979  1.00  0.00     0.061 A 
ATOM     10  C   UNL A   1      31.595  26.956  27.308  1.00  0.00     0.029 A 
ATOM     11  C   UNL A   1      31.762  28.323  27.600  1.00  0.00     0.018 A 
BRANCH   7  12
ATOM     12  N   UNL A   1      31.704  27.170  23.617  1.00  0.00    -0.320 N 
ATOM     13  C   UNL A   1      30.886  27.554  22.563  1.00  0.00     0.255 C 
ATOM     14  O   UNL A   1      31.286  27.193  21.447  1.00  0.00    -0.269 OA
ATOM     15  H   UNL A   1      32.463  26.590  23.379  1.00  0.00     0.170 HD
BRANCH  13  16
ATOM     16  C   UNL A   1      29.637  28.429  22.613  1.00  0.00     0.043 A 
ATOM     17  C   UNL A   1      27.780  27.001  23.824  1.00  0.00     0.045 C 
ATOM     18  C   UNL A   1      28.330  28.202  23.117  1.00  0.00    -0.038 A 
ATOM     19  C   UNL A   1      27.365  29.241  23.048  1.00  0.00     0.004 A 
ATOM     20  C   UNL A   1      27.695  30.528  22.653  1.00  0.00     0.000 A 
ATOM     21  C   UNL A   1      29.922  29.754  22.199  1.00  0.00     0.014 A 
ATOM     22  C   UNL A   1      28.986  30.791  22.247  1.00  0.00     0.001 A 
ENDBRANCH  13  16
ENDBRANCH   7  12
BRANCH   9  23
ATOM     23  N   UNL A   1      31.690  25.137  25.658  1.00  0.00    -0.359 N 
ATOM     24  C   UNL A   1      31.065  24.053  26.467  1.00  0.00     0.178 C 
ATOM     25  C   UNL A   1      33.023  24.721  25.205  1.00  0.00     0.178 C 
ATOM     26  C   UNL A   1      31.283  22.633  25.817  1.00  0.00     0.284 C 
ATOM     27  C   UNL A   1      32.880  23.506  24.300  1.00  0.00     0.284 C 
ATOM     28  N   UNL A   1      32.555  22.347  25.112  1.00  0.00    -0.324 N 
ATOM     29  H   UNL A   1      32.351  21.511  24.565  1.00  0.00     0.348 HD
BRANCH  28  30
ATOM     30  C   UNL A   1      33.729  21.817  25.854  1.00  0.00     0.364 C 
BRANCH  30  31
ATOM     31  C   UNL A   1      34.948  21.275  25.096  1.00  0.00     0.279 C 
ATOM     32  O   UNL A   1      35.818  22.079  24.722  1.00  0.00    -0.268 OA
ATOM     33  N   UNL A   1      35.236  19.954  24.857  1.00  0.00    -0.321 N 
ATOM     34  H   UNL A   1      36.205  19.846  24.713  1.00  0.00     0.170 HD
BRANCH  33  35
ATOM     35  C   UNL A   1      34.592  18.696  24.749  1.00  0.00     0.041 A 
ATOM     36  C   UNL A   1      33.185  18.711  24.822  1.00  0.00     0.029 A 
ATOM     37  C   UNL A   1      35.197  17.443  24.716  1.00  0.00     0.029 A 
ATOM     38  C   UNL A   1      32.427  17.529  24.868  1.00  0.00     0.041 A 
ATOM     39  C   UNL A   1      34.452  16.252  24.820  1.00  0.00     0.041 A 
ATOM     40  C   UNL A   1      33.071  16.304  24.885  1.00  0.00     0.123 A 
ATOM     41  F   UNL A   1      32.359  15.172  24.961  1.00  0.00    -0.207 F 
ENDBRANCH  33  35
ENDBRANCH  30  31
ENDBRANCH  28  30
ENDBRANCH   9  23
ENDBRANCH   4   6
ENDBRANCH   3   4
ENDBRANCH   2   3
ENDBRANCH   1   2
BRANCH   1  42
ATOM     42  O   UNL A   1      34.748  32.044  29.828  1.00  0.00    -0.374 OA
BRANCH  42  43
ATOM     43  C   UNL A   1      36.139  31.799  29.915  1.00  0.00     0.202 C 
BRANCH  43  44
ATOM     44  C   UNL A   1      36.470  30.300  29.917  1.00  0.00     0.261 C 
BRANCH  44  45
ATOM     45  O   UNL A   1      37.872  30.121  30.213  1.00  0.00    -0.460 OA
BRANCH  45  46
ATOM     46  C   UNL A   1      38.464  29.013  29.678  1.00  0.00     0.338 C 
ATOM     47  O   UNL A   1      38.243  27.866  30.013  1.00  0.00    -0.246 OA
BRANCH  46  48
ATOM     48  C   UNL A   1      39.644  29.419  28.854  1.00  0.00     0.060 A 
ATOM     49  C   UNL A   1      39.779  28.935  27.537  1.00  0.00     0.016 A 
ATOM     50  C   UNL A   1      40.748  29.951  29.511  1.00  0.00     0.016 A 
ATOM     51  C   UNL A   1      41.052  28.816  26.956  1.00  0.00     0.010 A 
ATOM     52  C   UNL A   1      41.999  29.705  28.991  1.00  0.00     0.010 A 
ATOM     53  C   UNL A   1      42.168  29.102  27.732  1.00  0.00    -0.014 A 
BRANCH  53  54
ATOM     54  C   UNL A   1      43.564  28.750  27.448  1.00  0.00     0.031 A 
ATOM     55  C   UNL A   1      44.475  29.882  27.154  1.00  0.00     0.074 A 
ATOM     56  C   UNL A   1      44.084  27.553  27.821  1.00  0.00     0.049 A 
ATOM     57  N   UNL A   1      45.750  29.785  27.150  1.00  0.00    -0.248 NA
ATOM     58  C   UNL A   1      44.027  31.246  26.884  1.00  0.00     0.031 C 
ATOM     59  C   UNL A   1      45.476  27.234  28.145  1.00  0.00     0.029 A 
ATOM     60  N   UNL A   1      43.472  26.295  27.944  1.00  0.00    -0.354 N 
ATOM     61  C   UNL A   1      46.295  31.039  27.182  1.00  0.00     0.074 A 
ATOM     62  C   UNL A   1      45.180  31.922  26.961  1.00  0.00     0.031 C 
ATOM     63  C   UNL A   1      45.680  25.916  28.012  1.00  0.00     0.029 A 
ATOM     64  C   UNL A   1      44.433  25.350  27.546  1.00  0.00     0.049 A 
ATOM     65  H   UNL A   1      42.553  26.111  28.246  1.00  0.00     0.167 HD
ATOM     66  C   UNL A   1      47.623  31.114  27.477  1.00  0.00     0.037 A 
ATOM     67  C   UNL A   1      44.247  24.573  26.453  1.00  0.00     0.037 A 
ATOM     68  C   UNL A   1      48.233  29.775  27.316  1.00  0.00     0.049 A 
ATOM     69  C   UNL A   1      45.365  24.897  25.507  1.00  0.00     0.074 A 
ATOM     70  C   UNL A   1      48.753  28.822  28.174  1.00  0.00     0.029 A 
ATOM     71  N   UNL A   1      48.039  29.119  26.092  1.00  0.00    -0.354 N 
ATOM     72  N   UNL A   1      45.882  26.101  25.394  1.00  0.00    -0.248 NA
ATOM     73  C   UNL A   1      46.197  23.852  24.919  1.00  0.00     0.031 C 
ATOM     74  C   UNL A   1      48.766  27.569  27.475  1.00  0.00     0.029 A 
ATOM     75  C   UNL A   1      48.263  27.760  26.191  1.00  0.00     0.049 A 
ATOM     76  H   UNL A   1      47.773  29.574  25.259  1.00  0.00     0.167 HD
ATOM     77  C   UNL A   1      47.164  25.971  24.927  1.00  0.00     0.074 A 
ATOM     78  C   UNL A   1      47.295  24.555  24.596  1.00  0.00     0.031 C 
ATOM     79  C   UNL A   1      48.165  26.900  25.012  1.00  0.00     0.037 A 
BRANCH  66  80
ATOM     80  C   UNL A   1      48.355  32.342  27.984  1.00  0.00     0.057 A 
ATOM     81  C   UNL A   1      48.069  32.869  29.260  1.00  0.00     0.134 A 
ATOM     82  C   UNL A   1      49.287  33.110  27.253  1.00  0.00     0.134 A 
ATOM     83  F   UNL A   1      47.173  32.292  30.072  1.00  0.00    -0.206 F 
ATOM     84  C   UNL A   1      48.673  34.033  29.767  1.00  0.00     0.040 A 
ATOM     85  C   UNL A   1      49.921  34.256  27.760  1.00  0.00     0.040 A 
ATOM     86  F   UNL A   1      49.613  32.835  25.989  1.00  0.00    -0.206 F 
ATOM     87  C   UNL A   1      49.614  34.725  29.022  1.00  0.00     0.006 A 
ENDBRANCH  66  80
BRANCH  67  88
ATOM     88  C   UNL A   1      42.812  24.187  26.311  1.00  0.00     0.057 A 
ATOM     89  C   UNL A   1      42.380  23.189  27.217  1.00  0.00     0.134 A 
ATOM     90  C   UNL A   1      41.831  25.089  25.881  1.00  0.00     0.134 A 
ATOM     91  F   UNL A   1      43.253  22.269  27.660  1.00  0.00    -0.206 F 
ATOM     92  C   UNL A   1      41.118  23.216  27.825  1.00  0.00     0.040 A 
ATOM     93  C   UNL A   1      40.549  25.106  26.466  1.00  0.00     0.040 A 
ATOM     94  F   UNL A   1      42.139  26.075  25.027  1.00  0.00    -0.206 F 
ATOM     95  C   UNL A   1      40.214  24.213  27.484  1.00  0.00     0.006 A 
ENDBRANCH  67  88
BRANCH  79  96
ATOM     96  C   UNL A   1      49.208  27.020  23.924  1.00  0.00     0.057 A 
ATOM     97  C   UNL A   1      48.950  27.580  22.660  1.00  0.00     0.134 A 
ATOM     98  C   UNL A   1      50.570  26.755  24.189  1.00  0.00     0.134 A 
ATOM     99  F   UNL A   1      47.728  27.992  22.298  1.00  0.00    -0.206 F 
ATOM    100  C   UNL A   1      49.953  27.797  21.714  1.00  0.00     0.040 A 
ATOM    101  C   UNL A   1      51.587  27.030  23.274  1.00  0.00     0.040 A 
ATOM    102  F   UNL A   1      50.990  26.259  25.361  1.00  0.00    -0.206 F 
ATOM    103  C   UNL A   1      51.278  27.536  22.024  1.00  0.00     0.006 A 
ENDBRANCH  79  96
ENDBRANCH  53  54
ENDBRANCH  46  48
ENDBRANCH  45  46
ENDBRANCH  44  45
ENDBRANCH  43  44
ENDBRANCH  42  43
ENDBRANCH   1  42
TORSDOF 20
ENDMDL
