MODEL 1
REMARK VINA RESULT:     -17.7      0.000      0.000
REMARK SMILES O=C(OCCOCCOC(=O)c1ccccc1C(=O)Nc1ccc(N2C(=O)[C@H]3[C@@H]4CC[C@@H](C4)[C@@H]3C2=O)cc1)c1ccc(-c2c3nc(c(-c4c(F)cccc4F)c4ccc([nH]4)c(-c4c(F)cccc4F)c4nc(c(-c5c(F)cccc5F)c5ccc2[nH]5)C=C4)C=C3)cc1
REMARK SMILES IDX 7 1 6 2 5 3 4 4 3 5 2 6 1 7 39 8 40 9 92 10 41 11 91 12
REMARK SMILES IDX 42 13 43 14 44 15 85 16 45 17 90 18 84 19 86 20 46 21 89 22
REMARK SMILES IDX 83 23 82 24 47 26 73 27 56 28 72 29 57 30 60 31 71 32 87 33
REMARK SMILES IDX 58 34 59 35 70 37 88 38 61 39 48 40 49 41 54 42 50 43 51 44
REMARK SMILES IDX 53 45 55 46 52 47 74 48 75 49 80 50 76 51 77 52 79 53 81 54
REMARK SMILES IDX 78 55 62 56 63 57 68 58 64 59 65 60 67 61 69 62 66 63 8 64
REMARK SMILES IDX 9 65 10 66 11 67 12 68 13 69 17 70 14 71 16 72 15 73 18 74
REMARK SMILES IDX 19 75 20 76 21 78 22 79 38 80 23 81 37 82 24 83 25 84 26 85
REMARK SMILES IDX 35 86 27 87 28 88 34 89 36 90 29 91 32 92 30 93 33 94 31 95
REMARK H PARENT 86 25 60 36 20 77
REMARK Flexibility Score: inf
ROOT
ATOM      1  C   UNL A   1      33.587  16.661  24.590  1.00  0.00     0.202 C 
ENDROOT
BRANCH   1   2
ATOM      2  O   UNL A   1      35.291  17.153  24.563  1.00  0.00    -0.374 OA
BRANCH   2   3
ATOM      3  C   UNL A   1      36.024  18.693  24.965  1.00  0.00     0.202 C 
BRANCH   3   4
ATOM      4  C   UNL A   1      37.679  19.458  24.589  1.00  0.00     0.261 C 
BRANCH   4   5
ATOM      5  O   UNL A   1      39.251  19.380  25.356  1.00  0.00    -0.460 OA
BRANCH   5   6
ATOM      6  C   UNL A   1      40.410  19.957  26.004  1.00  0.00     0.338 C 
ATOM      7  O   UNL A   1      41.467  19.318  25.964  1.00  0.00    -0.246 OA
BRANCH   6   8
ATOM      8  C   UNL A   1      40.523  21.285  26.899  1.00  0.00     0.060 A 
ATOM      9  C   UNL A   1      39.665  22.370  26.803  1.00  0.00     0.016 A 
ATOM     10  C   UNL A   1      41.466  21.495  27.911  1.00  0.00     0.016 A 
ATOM     11  C   UNL A   1      40.046  23.679  27.144  1.00  0.00     0.010 A 
ATOM     12  C   UNL A   1      41.707  22.822  28.458  1.00  0.00     0.010 A 
ATOM     13  C   UNL A   1      41.164  23.993  27.892  1.00  0.00    -0.014 A 
BRANCH  13  14
ATOM     14  C   UNL A   1      41.762  25.439  27.858  1.00  0.00     0.031 A 
ATOM     15  C   UNL A   1      41.060  26.614  28.582  1.00  0.00     0.074 A 
ATOM     16  C   UNL A   1      43.028  25.734  27.417  1.00  0.00     0.049 A 
ATOM     17  N   UNL A   1      41.514  27.827  28.850  1.00  0.00    -0.248 NA
ATOM     18  C   UNL A   1      39.704  26.407  29.112  1.00  0.00     0.031 C 
ATOM     19  C   UNL A   1      43.964  24.823  26.748  1.00  0.00     0.029 A 
ATOM     20  N   UNL A   1      43.796  26.898  27.516  1.00  0.00    -0.354 N 
ATOM     21  C   UNL A   1      40.542  28.460  29.627  1.00  0.00     0.074 A 
ATOM     22  C   UNL A   1      39.439  27.544  29.732  1.00  0.00     0.031 C 
ATOM     23  C   UNL A   1      45.180  25.376  26.661  1.00  0.00     0.029 A 
ATOM     24  C   UNL A   1      45.085  26.781  27.019  1.00  0.00     0.049 A 
ATOM     25  H   UNL A   1      43.449  27.732  27.906  1.00  0.00     0.167 HD
ATOM     26  C   UNL A   1      40.529  29.674  30.230  1.00  0.00     0.037 A 
ATOM     27  C   UNL A   1      46.066  27.677  26.753  1.00  0.00     0.037 A 
ATOM     28  C   UNL A   1      41.490  30.715  30.014  1.00  0.00     0.049 A 
ATOM     29  C   UNL A   1      45.826  29.134  27.037  1.00  0.00     0.074 A 
ATOM     30  C   UNL A   1      41.434  32.036  30.427  1.00  0.00     0.029 A 
ATOM     31  N   UNL A   1      42.632  30.579  29.251  1.00  0.00    -0.354 N 
ATOM     32  N   UNL A   1      44.896  29.684  27.773  1.00  0.00    -0.248 NA
ATOM     33  C   UNL A   1      46.732  30.104  26.396  1.00  0.00     0.031 C 
ATOM     34  C   UNL A   1      42.473  32.729  29.799  1.00  0.00     0.029 A 
ATOM     35  C   UNL A   1      43.218  31.821  29.069  1.00  0.00     0.049 A 
ATOM     36  H   UNL A   1      42.977  29.731  28.892  1.00  0.00     0.167 HD
ATOM     37  C   UNL A   1      45.096  31.054  27.677  1.00  0.00     0.074 A 
ATOM     38  C   UNL A   1      46.255  31.259  26.840  1.00  0.00     0.031 C 
ATOM     39  C   UNL A   1      44.361  32.049  28.228  1.00  0.00     0.037 A 
BRANCH  26  40
ATOM     40  C   UNL A   1      39.348  29.995  31.100  1.00  0.00     0.057 A 
ATOM     41  C   UNL A   1      39.308  29.641  32.455  1.00  0.00     0.134 A 
ATOM     42  C   UNL A   1      38.242  30.671  30.572  1.00  0.00     0.134 A 
ATOM     43  F   UNL A   1      40.339  29.000  33.023  1.00  0.00    -0.206 F 
ATOM     44  C   UNL A   1      38.194  29.930  33.249  1.00  0.00     0.040 A 
ATOM     45  C   UNL A   1      37.130  30.976  31.358  1.00  0.00     0.040 A 
ATOM     46  F   UNL A   1      38.225  31.036  29.282  1.00  0.00    -0.206 F 
ATOM     47  C   UNL A   1      37.102  30.600  32.699  1.00  0.00     0.006 A 
ENDBRANCH  26  40
BRANCH  27  48
ATOM     48  C   UNL A   1      47.289  27.273  25.976  1.00  0.00     0.057 A 
ATOM     49  C   UNL A   1      47.352  27.315  24.577  1.00  0.00     0.134 A 
ATOM     50  C   UNL A   1      48.410  26.739  26.635  1.00  0.00     0.134 A 
ATOM     51  F   UNL A   1      46.301  27.746  23.863  1.00  0.00    -0.206 F 
ATOM     52  C   UNL A   1      48.475  26.857  23.874  1.00  0.00     0.040 A 
ATOM     53  C   UNL A   1      49.554  26.326  25.952  1.00  0.00     0.040 A 
ATOM     54  F   UNL A   1      48.416  26.611  27.971  1.00  0.00    -0.206 F 
ATOM     55  C   UNL A   1      49.586  26.375  24.563  1.00  0.00     0.006 A 
ENDBRANCH  27  48
BRANCH  39  56
ATOM     56  C   UNL A   1      44.763  33.462  27.945  1.00  0.00     0.057 A 
ATOM     57  C   UNL A   1      44.305  34.141  26.808  1.00  0.00     0.134 A 
ATOM     58  C   UNL A   1      45.558  34.177  28.849  1.00  0.00     0.134 A 
ATOM     59  F   UNL A   1      43.549  33.510  25.898  1.00  0.00    -0.206 F 
ATOM     60  C   UNL A   1      44.634  35.476  26.575  1.00  0.00     0.040 A 
ATOM     61  C   UNL A   1      45.871  35.520  28.641  1.00  0.00     0.040 A 
ATOM     62  F   UNL A   1      46.022  33.588  29.962  1.00  0.00    -0.206 F 
ATOM     63  C   UNL A   1      45.410  36.174  27.500  1.00  0.00     0.006 A 
ENDBRANCH  39  56
ENDBRANCH  13  14
ENDBRANCH   6   8
ENDBRANCH   5   6
ENDBRANCH   4   5
ENDBRANCH   3   4
ENDBRANCH   2   3
ENDBRANCH   1   2
BRANCH   1  64
ATOM     64  C   UNL A   1      32.191  17.909  24.310  1.00  0.00     0.261 C 
BRANCH  64  65
ATOM     65  O   UNL A   1      32.760  19.720  23.570  1.00  0.00    -0.460 OA
BRANCH  65  66
ATOM     66  C   UNL A   1      32.357  21.056  23.161  1.00  0.00     0.339 C 
ATOM     67  O   UNL A   1      31.704  21.327  22.135  1.00  0.00    -0.246 OA
BRANCH  66  68
ATOM     68  C   UNL A   1      32.903  22.292  23.745  1.00  0.00     0.072 A 
ATOM     69  C   UNL A   1      33.426  23.050  22.644  1.00  0.00     0.016 A 
ATOM     70  C   UNL A   1      33.725  22.108  24.874  1.00  0.00     0.054 A 
ATOM     71  C   UNL A   1      34.793  23.328  22.546  1.00  0.00     0.001 A 
ATOM     72  C   UNL A   1      35.077  22.523  24.793  1.00  0.00     0.015 A 
ATOM     73  C   UNL A   1      35.622  23.051  23.619  1.00  0.00     0.001 A 
BRANCH  70  74
ATOM     74  C   UNL A   1      33.272  21.685  26.240  1.00  0.00     0.256 C 
ATOM     75  O   UNL A   1      33.595  20.550  26.603  1.00  0.00    -0.269 OA
ATOM     76  N   UNL A   1      32.617  22.476  27.164  1.00  0.00    -0.322 N 
ATOM     77  H   UNL A   1      32.491  22.083  28.059  1.00  0.00     0.170 HD
BRANCH  76  78
ATOM     78  C   UNL A   1      32.112  23.764  26.979  1.00  0.00     0.041 A 
ATOM     79  C   UNL A   1      33.358  24.911  26.544  1.00  0.00     0.028 A 
ATOM     80  C   UNL A   1      30.457  23.934  26.416  1.00  0.00     0.028 A 
ATOM     81  C   UNL A   1      33.045  26.247  25.432  1.00  0.00     0.029 A 
ATOM     82  C   UNL A   1      30.086  25.284  25.264  1.00  0.00     0.029 A 
ATOM     83  C   UNL A   1      31.402  26.607  24.773  1.00  0.00     0.052 A 
BRANCH  83  84
ATOM     84  N   UNL A   1      31.055  28.241  24.020  1.00  0.00    -0.250 N 
ATOM     85  C   UNL A   1      30.984  29.571  24.682  1.00  0.00     0.237 C 
ATOM     86  C   UNL A   1      30.369  28.594  22.758  1.00  0.00     0.237 C 
ATOM     87  O   UNL A   1      31.758  30.159  25.421  1.00  0.00    -0.274 OA
ATOM     88  C   UNL A   1      29.768  30.273  24.072  1.00  0.00     0.095 C 
ATOM     89  C   UNL A   1      30.241  30.061  22.679  1.00  0.00     0.095 C 
ATOM     90  O   UNL A   1      29.806  28.038  21.823  1.00  0.00    -0.274 OA
ATOM     91  C   UNL A   1      28.968  31.576  23.913  1.00  0.00     0.002 C 
ATOM     92  C   UNL A   1      29.224  30.803  21.818  1.00  0.00     0.002 C 
ATOM     93  C   UNL A   1      27.522  31.131  23.503  1.00  0.00     0.005 C 
ATOM     94  C   UNL A   1      29.354  32.144  22.543  1.00  0.00     0.009 C 
ATOM     95  C   UNL A   1      27.759  30.439  22.136  1.00  0.00     0.005 C 
ENDBRANCH  83  84
ENDBRANCH  76  78
ENDBRANCH  70  74
ENDBRANCH  66  68
ENDBRANCH  65  66
ENDBRANCH  64  65
ENDBRANCH   1  64
TORSDOF 17
ENDMDL
MODEL 2
REMARK VINA RESULT:     -17.1      1.459      5.309
REMARK SMILES O=C(OCCOCCOC(=O)c1ccccc1C(=O)Nc1ccc(N2C(=O)[C@H]3[C@@H]4CC[C@@H](C4)[C@@H]3C2=O)cc1)c1ccc(-c2c3nc(c(-c4c(F)cccc4F)c4ccc([nH]4)c(-c4c(F)cccc4F)c4nc(c(-c5c(F)cccc5F)c5ccc2[nH]5)C=C4)C=C3)cc1
REMARK SMILES IDX 7 1 6 2 5 3 4 4 3 5 2 6 1 7 39 8 40 9 92 10 41 11 91 12
REMARK SMILES IDX 42 13 43 14 44 15 85 16 45 17 90 18 84 19 86 20 46 21 89 22
REMARK SMILES IDX 83 23 82 24 47 26 73 27 56 28 72 29 57 30 60 31 71 32 87 33
REMARK SMILES IDX 58 34 59 35 70 37 88 38 61 39 48 40 49 41 54 42 50 43 51 44
REMARK SMILES IDX 53 45 55 46 52 47 74 48 75 49 80 50 76 51 77 52 79 53 81 54
REMARK SMILES IDX 78 55 62 56 63 57 68 58 64 59 65 60 67 61 69 62 66 63 8 64
REMARK SMILES IDX 9 65 10 66 11 67 12 68 13 69 17 70 14 71 16 72 15 73 18 74
REMARK SMILES IDX 19 75 20 76 21 78 22 79 38 80 23 81 37 82 24 83 25 84 26 85
REMARK SMILES IDX 35 86 27 87 28 88 34 89 36 90 29 91 32 92 30 93 33 94 31 95
REMARK H PARENT 86 25 60 36 20 77
REMARK Flexibility Score: inf
ROOT
ATOM      1  C   UNL A   1      36.063  24.253  25.734  1.00  0.00     0.202 C 
ENDROOT
BRANCH   1   2
ATOM      2  O   UNL A   1      36.790  23.537  24.283  1.00  0.00    -0.374 OA
BRANCH   2   3
ATOM      3  C   UNL A   1      36.929  21.857  23.807  1.00  0.00     0.202 C 
BRANCH   3   4
ATOM      4  C   UNL A   1      37.672  20.355  24.620  1.00  0.00     0.261 C 
BRANCH   4   5
ATOM      5  O   UNL A   1      39.188  20.048  25.441  1.00  0.00    -0.460 OA
BRANCH   5   6
ATOM      6  C   UNL A   1      40.327  20.429  26.250  1.00  0.00     0.338 C 
ATOM      7  O   UNL A   1      41.251  19.616  26.357  1.00  0.00    -0.246 OA
BRANCH   6   8
ATOM      8  C   UNL A   1      40.542  21.735  27.159  1.00  0.00     0.060 A 
ATOM      9  C   UNL A   1      39.677  22.817  27.192  1.00  0.00     0.016 A 
ATOM     10  C   UNL A   1      41.597  21.924  28.057  1.00  0.00     0.016 A 
ATOM     11  C   UNL A   1      40.092  24.119  27.518  1.00  0.00     0.010 A 
ATOM     12  C   UNL A   1      41.899  23.238  28.605  1.00  0.00     0.010 A 
ATOM     13  C   UNL A   1      41.290  24.420  28.138  1.00  0.00    -0.014 A 
BRANCH  13  14
ATOM     14  C   UNL A   1      41.877  25.869  28.070  1.00  0.00     0.031 A 
ATOM     15  C   UNL A   1      41.173  27.054  28.776  1.00  0.00     0.074 A 
ATOM     16  C   UNL A   1      43.138  26.165  27.613  1.00  0.00     0.049 A 
ATOM     17  N   UNL A   1      41.620  28.275  29.016  1.00  0.00    -0.248 NA
ATOM     18  C   UNL A   1      39.823  26.847  29.320  1.00  0.00     0.031 C 
ATOM     19  C   UNL A   1      44.076  25.247  26.955  1.00  0.00     0.029 A 
ATOM     20  N   UNL A   1      43.898  27.335  27.683  1.00  0.00    -0.354 N 
ATOM     21  C   UNL A   1      40.649  28.916  29.788  1.00  0.00     0.074 A 
ATOM     22  C   UNL A   1      39.554  27.994  29.920  1.00  0.00     0.031 C 
ATOM     23  C   UNL A   1      45.287  25.807  26.848  1.00  0.00     0.029 A 
ATOM     24  C   UNL A   1      45.184  27.218  27.179  1.00  0.00     0.049 A 
ATOM     25  H   UNL A   1      43.548  28.175  28.059  1.00  0.00     0.167 HD
ATOM     26  C   UNL A   1      40.632  30.142  30.367  1.00  0.00     0.037 A 
ATOM     27  C   UNL A   1      46.157  28.116  26.887  1.00  0.00     0.037 A 
ATOM     28  C   UNL A   1      41.583  31.186  30.122  1.00  0.00     0.049 A 
ATOM     29  C   UNL A   1      45.908  29.576  27.143  1.00  0.00     0.074 A 
ATOM     30  C   UNL A   1      41.521  32.514  30.509  1.00  0.00     0.029 A 
ATOM     31  N   UNL A   1      42.721  31.042  29.353  1.00  0.00    -0.354 N 
ATOM     32  N   UNL A   1      44.979  30.134  27.876  1.00  0.00    -0.248 NA
ATOM     33  C   UNL A   1      46.802  30.540  26.477  1.00  0.00     0.031 C 
ATOM     34  C   UNL A   1      42.550  33.202  29.859  1.00  0.00     0.029 A 
ATOM     35  C   UNL A   1      43.296  32.284  29.142  1.00  0.00     0.049 A 
ATOM     36  H   UNL A   1      43.069  30.190  29.008  1.00  0.00     0.167 HD
ATOM     37  C   UNL A   1      45.169  31.504  27.751  1.00  0.00     0.074 A 
ATOM     38  C   UNL A   1      46.320  31.700  26.901  1.00  0.00     0.031 C 
ATOM     39  C   UNL A   1      44.431  32.504  28.287  1.00  0.00     0.037 A 
BRANCH  26  40
ATOM     40  C   UNL A   1      39.455  30.472  31.239  1.00  0.00     0.057 A 
ATOM     41  C   UNL A   1      39.460  30.218  32.617  1.00  0.00     0.134 A 
ATOM     42  C   UNL A   1      38.307  31.055  30.689  1.00  0.00     0.134 A 
ATOM     43  F   UNL A   1      40.532  29.669  33.205  1.00  0.00    -0.206 F 
ATOM     44  C   UNL A   1      38.350  30.514  33.414  1.00  0.00     0.040 A 
ATOM     45  C   UNL A   1      37.199  31.365  31.478  1.00  0.00     0.040 A 
ATOM     46  F   UNL A   1      38.246  31.321  29.377  1.00  0.00    -0.206 F 
ATOM     47  C   UNL A   1      37.217  31.090  32.844  1.00  0.00     0.006 A 
ENDBRANCH  26  40
BRANCH  27  48
ATOM     48  C   UNL A   1      47.376  27.705  26.109  1.00  0.00     0.057 A 
ATOM     49  C   UNL A   1      48.614  27.445  26.712  1.00  0.00     0.134 A 
ATOM     50  C   UNL A   1      47.344  27.653  24.704  1.00  0.00     0.134 A 
ATOM     51  F   UNL A   1      48.753  27.539  28.042  1.00  0.00    -0.206 F 
ATOM     52  C   UNL A   1      49.755  27.142  25.956  1.00  0.00     0.040 A 
ATOM     53  C   UNL A   1      48.459  27.304  23.941  1.00  0.00     0.040 A 
ATOM     54  F   UNL A   1      46.214  27.940  24.039  1.00  0.00    -0.206 F 
ATOM     55  C   UNL A   1      49.675  27.056  24.568  1.00  0.00     0.006 A 
ENDBRANCH  27  48
BRANCH  39  56
ATOM     56  C   UNL A   1      44.820  33.914  27.973  1.00  0.00     0.057 A 
ATOM     57  C   UNL A   1      44.314  34.581  26.850  1.00  0.00     0.134 A 
ATOM     58  C   UNL A   1      45.654  34.637  28.835  1.00  0.00     0.134 A 
ATOM     59  F   UNL A   1      43.519  33.942  25.980  1.00  0.00    -0.206 F 
ATOM     60  C   UNL A   1      44.632  35.915  26.590  1.00  0.00     0.040 A 
ATOM     61  C   UNL A   1      45.957  35.979  28.600  1.00  0.00     0.040 A 
ATOM     62  F   UNL A   1      46.165  34.059  29.932  1.00  0.00    -0.206 F 
ATOM     63  C   UNL A   1      45.448  36.621  27.473  1.00  0.00     0.006 A 
ENDBRANCH  39  56
ENDBRANCH  13  14
ENDBRANCH   6   8
ENDBRANCH   5   6
ENDBRANCH   4   5
ENDBRANCH   3   4
ENDBRANCH   2   3
ENDBRANCH   1   2
BRANCH   1  64
ATOM     64  C   UNL A   1      34.361  25.082  25.684  1.00  0.00     0.261 C 
BRANCH  64  65
ATOM     65  O   UNL A   1      34.114  26.504  24.246  1.00  0.00    -0.460 OA
BRANCH  65  66
ATOM     66  C   UNL A   1      33.602  27.821  23.904  1.00  0.00     0.339 C 
ATOM     67  O   UNL A   1      33.718  28.371  22.791  1.00  0.00    -0.246 OA
BRANCH  66  68
ATOM     68  C   UNL A   1      33.128  28.801  24.896  1.00  0.00     0.072 A 
ATOM     69  C   UNL A   1      34.079  28.763  25.970  1.00  0.00     0.016 A 
ATOM     70  C   UNL A   1      31.759  28.712  25.218  1.00  0.00     0.054 A 
ATOM     71  C   UNL A   1      33.704  28.340  27.250  1.00  0.00     0.001 A 
ATOM     72  C   UNL A   1      31.404  28.413  26.556  1.00  0.00     0.015 A 
ATOM     73  C   UNL A   1      32.364  28.152  27.538  1.00  0.00     0.001 A 
BRANCH  70  74
ATOM     74  C   UNL A   1      30.614  29.089  24.326  1.00  0.00     0.256 C 
ATOM     75  O   UNL A   1      30.334  30.291  24.262  1.00  0.00    -0.269 OA
ATOM     76  N   UNL A   1      29.909  28.237  23.499  1.00  0.00    -0.322 N 
ATOM     77  H   UNL A   1      29.259  28.661  22.891  1.00  0.00     0.170 HD
BRANCH  76  78
ATOM     78  C   UNL A   1      30.006  26.847  23.424  1.00  0.00     0.041 A 
ATOM     79  C   UNL A   1      31.015  26.321  22.096  1.00  0.00     0.028 A 
ATOM     80  C   UNL A   1      29.877  25.923  24.912  1.00  0.00     0.028 A 
ATOM     81  C   UNL A   1      32.040  24.887  22.217  1.00  0.00     0.029 A 
ATOM     82  C   UNL A   1      30.915  24.448  25.091  1.00  0.00     0.029 A 
ATOM     83  C   UNL A   1      32.021  23.790  23.652  1.00  0.00     0.052 A 
BRANCH  83  84
ATOM     84  N   UNL A   1      32.734  22.107  23.528  1.00  0.00    -0.250 N 
ATOM     85  C   UNL A   1      32.289  20.972  22.676  1.00  0.00     0.237 C 
ATOM     86  C   UNL A   1      33.576  21.345  24.476  1.00  0.00     0.237 C 
ATOM     87  O   UNL A   1      32.068  20.886  21.479  1.00  0.00    -0.274 OA
ATOM     88  C   UNL A   1      32.360  19.731  23.569  1.00  0.00     0.095 C 
ATOM     89  C   UNL A   1      33.775  19.983  23.948  1.00  0.00     0.095 C 
ATOM     90  O   UNL A   1      34.071  21.477  25.588  1.00  0.00    -0.274 OA
ATOM     91  C   UNL A   1      32.301  18.197  23.665  1.00  0.00     0.002 C 
ATOM     92  C   UNL A   1      34.162  18.769  24.787  1.00  0.00     0.002 C 
ATOM     93  C   UNL A   1      31.944  17.886  25.160  1.00  0.00     0.005 C 
ATOM     94  C   UNL A   1      33.756  17.724  23.748  1.00  0.00     0.009 C 
ATOM     95  C   UNL A   1      33.167  18.457  25.923  1.00  0.00     0.005 C 
ENDBRANCH  83  84
ENDBRANCH  76  78
ENDBRANCH  70  74
ENDBRANCH  66  68
ENDBRANCH  65  66
ENDBRANCH  64  65
ENDBRANCH   1  64
TORSDOF 17
ENDMDL
MODEL 3
REMARK VINA RESULT:     -16.5      3.955      9.863
REMARK SMILES O=C(OCCOCCOC(=O)c1ccccc1C(=O)Nc1ccc(N2C(=O)[C@H]3[C@@H]4CC[C@@H](C4)[C@@H]3C2=O)cc1)c1ccc(-c2c3nc(c(-c4c(F)cccc4F)c4ccc([nH]4)c(-c4c(F)cccc4F)c4nc(c(-c5c(F)cccc5F)c5ccc2[nH]5)C=C4)C=C3)cc1
REMARK SMILES IDX 7 1 6 2 5 3 4 4 3 5 2 6 1 7 39 8 40 9 92 10 41 11 91 12
REMARK SMILES IDX 42 13 43 14 44 15 85 16 45 17 90 18 84 19 86 20 46 21 89 22
REMARK SMILES IDX 83 23 82 24 47 26 73 27 56 28 72 29 57 30 60 31 71 32 87 33
REMARK SMILES IDX 58 34 59 35 70 37 88 38 61 39 48 40 49 41 54 42 50 43 51 44
REMARK SMILES IDX 53 45 55 46 52 47 74 48 75 49 80 50 76 51 77 52 79 53 81 54
REMARK SMILES IDX 78 55 62 56 63 57 68 58 64 59 65 60 67 61 69 62 66 63 8 64
REMARK SMILES IDX 9 65 10 66 11 67 12 68 13 69 17 70 14 71 16 72 15 73 18 74
REMARK SMILES IDX 19 75 20 76 21 78 22 79 38 80 23 81 37 82 24 83 25 84 26 85
REMARK SMILES IDX 35 86 27 87 28 88 34 89 36 90 29 91 32 92 30 93 33 94 31 95
REMARK H PARENT 86 25 60 36 20 77
REMARK Flexibility Score: inf
ROOT
ATOM      1  C   UNL A   1      30.196  27.781  23.721  1.00  0.00     0.202 C 
ENDROOT
BRANCH   1   2
ATOM      2  O   UNL A   1      31.034  28.507  25.105  1.00  0.00    -0.374 OA
BRANCH   2   3
ATOM      3  C   UNL A   1      31.500  30.171  25.391  1.00  0.00     0.202 C 
BRANCH   3   4
ATOM      4  C   UNL A   1      32.146  31.079  26.883  1.00  0.00     0.261 C 
BRANCH   4   5
ATOM      5  O   UNL A   1      32.567  32.750  27.193  1.00  0.00    -0.460 OA
BRANCH   5   6
ATOM      6  C   UNL A   1      32.925  33.862  28.050  1.00  0.00     0.338 C 
ATOM      7  O   UNL A   1      32.199  34.862  28.024  1.00  0.00    -0.246 OA
BRANCH   6   8
ATOM      8  C   UNL A   1      34.222  34.062  28.974  1.00  0.00     0.060 A 
ATOM      9  C   UNL A   1      35.495  34.324  28.491  1.00  0.00     0.016 A 
ATOM     10  C   UNL A   1      34.224  34.042  30.372  1.00  0.00     0.016 A 
ATOM     11  C   UNL A   1      36.664  33.967  29.184  1.00  0.00     0.010 A 
ATOM     12  C   UNL A   1      35.462  33.917  31.126  1.00  0.00     0.010 A 
ATOM     13  C   UNL A   1      36.700  33.622  30.521  1.00  0.00    -0.014 A 
BRANCH  13  14
ATOM     14  C   UNL A   1      37.916  32.827  31.103  1.00  0.00     0.031 A 
ATOM     15  C   UNL A   1      38.469  33.130  32.518  1.00  0.00     0.074 A 
ATOM     16  C   UNL A   1      38.420  31.679  30.544  1.00  0.00     0.049 A 
ATOM     17  N   UNL A   1      39.321  32.436  33.253  1.00  0.00    -0.248 NA
ATOM     18  C   UNL A   1      37.988  34.328  33.221  1.00  0.00     0.031 C 
ATOM     19  C   UNL A   1      38.055  31.096  29.247  1.00  0.00     0.029 A 
ATOM     20  N   UNL A   1      39.329  30.734  31.027  1.00  0.00    -0.354 N 
ATOM     21  C   UNL A   1      39.395  33.071  34.494  1.00  0.00     0.074 A 
ATOM     22  C   UNL A   1      38.571  34.246  34.404  1.00  0.00     0.031 C 
ATOM     23  C   UNL A   1      38.570  29.866  29.121  1.00  0.00     0.029 A 
ATOM     24  C   UNL A   1      39.524  29.644  30.194  1.00  0.00     0.049 A 
ATOM     25  H   UNL A   1      39.793  30.835  31.889  1.00  0.00     0.167 HD
ATOM     26  C   UNL A   1      40.054  32.739  35.631  1.00  0.00     0.037 A 
ATOM     27  C   UNL A   1      40.422  28.628  30.181  1.00  0.00     0.037 A 
ATOM     28  C   UNL A   1      41.043  31.708  35.744  1.00  0.00     0.049 A 
ATOM     29  C   UNL A   1      41.460  28.554  31.267  1.00  0.00     0.074 A 
ATOM     30  C   UNL A   1      41.897  31.447  36.802  1.00  0.00     0.029 A 
ATOM     31  N   UNL A   1      41.372  30.826  34.733  1.00  0.00    -0.354 N 
ATOM     32  N   UNL A   1      41.489  29.173  32.418  1.00  0.00    -0.248 NA
ATOM     33  C   UNL A   1      42.630  27.691  31.023  1.00  0.00     0.031 C 
ATOM     34  C   UNL A   1      42.833  30.499  36.378  1.00  0.00     0.029 A 
ATOM     35  C   UNL A   1      42.503  30.112  35.092  1.00  0.00     0.049 A 
ATOM     36  H   UNL A   1      40.879  30.721  33.889  1.00  0.00     0.167 HD
ATOM     37  C   UNL A   1      42.675  28.785  33.028  1.00  0.00     0.074 A 
ATOM     38  C   UNL A   1      43.327  27.852  32.139  1.00  0.00     0.031 C 
ATOM     39  C   UNL A   1      43.177  29.192  34.218  1.00  0.00     0.037 A 
BRANCH  26  40
ATOM     40  C   UNL A   1      39.816  33.602  36.838  1.00  0.00     0.057 A 
ATOM     41  C   UNL A   1      40.545  34.777  37.063  1.00  0.00     0.134 A 
ATOM     42  C   UNL A   1      38.843  33.250  37.779  1.00  0.00     0.134 A 
ATOM     43  F   UNL A   1      41.486  35.173  36.194  1.00  0.00    -0.206 F 
ATOM     44  C   UNL A   1      40.326  35.562  38.199  1.00  0.00     0.040 A 
ATOM     45  C   UNL A   1      38.607  34.032  38.910  1.00  0.00     0.040 A 
ATOM     46  F   UNL A   1      38.114  32.137  37.615  1.00  0.00    -0.206 F 
ATOM     47  C   UNL A   1      39.353  35.189  39.125  1.00  0.00     0.006 A 
ENDBRANCH  26  40
BRANCH  27  48
ATOM     48  C   UNL A   1      40.539  27.717  28.991  1.00  0.00     0.057 A 
ATOM     49  C   UNL A   1      41.281  28.045  27.849  1.00  0.00     0.134 A 
ATOM     50  C   UNL A   1      39.816  26.512  28.940  1.00  0.00     0.134 A 
ATOM     51  F   UNL A   1      41.947  29.207  27.783  1.00  0.00    -0.206 F 
ATOM     52  C   UNL A   1      41.308  27.213  26.721  1.00  0.00     0.040 A 
ATOM     53  C   UNL A   1      39.873  25.650  27.844  1.00  0.00     0.040 A 
ATOM     54  F   UNL A   1      39.036  26.143  29.968  1.00  0.00    -0.206 F 
ATOM     55  C   UNL A   1      40.615  26.004  26.723  1.00  0.00     0.006 A 
ENDBRANCH  27  48
BRANCH  39  56
ATOM     56  C   UNL A   1      44.505  28.651  34.644  1.00  0.00     0.057 A 
ATOM     57  C   UNL A   1      44.609  27.470  35.390  1.00  0.00     0.134 A 
ATOM     58  C   UNL A   1      45.694  29.275  34.251  1.00  0.00     0.134 A 
ATOM     59  F   UNL A   1      43.507  26.829  35.808  1.00  0.00    -0.206 F 
ATOM     60  C   UNL A   1      45.850  26.935  35.738  1.00  0.00     0.040 A 
ATOM     61  C   UNL A   1      46.941  28.736  34.569  1.00  0.00     0.040 A 
ATOM     62  F   UNL A   1      45.664  30.405  33.528  1.00  0.00    -0.206 F 
ATOM     63  C   UNL A   1      47.021  27.563  35.318  1.00  0.00     0.006 A 
ENDBRANCH  39  56
ENDBRANCH  13  14
ENDBRANCH   6   8
ENDBRANCH   5   6
ENDBRANCH   4   5
ENDBRANCH   3   4
ENDBRANCH   2   3
ENDBRANCH   1   2
BRANCH   1  64
ATOM     64  C   UNL A   1      29.813  25.928  23.656  1.00  0.00     0.261 C 
BRANCH  64  65
ATOM     65  O   UNL A   1      30.355  24.855  25.302  1.00  0.00    -0.460 OA
BRANCH  65  66
ATOM     66  C   UNL A   1      31.436  24.283  26.087  1.00  0.00     0.339 C 
ATOM     67  O   UNL A   1      31.307  23.747  27.204  1.00  0.00    -0.246 OA
BRANCH  66  68
ATOM     68  C   UNL A   1      32.863  24.508  25.804  1.00  0.00     0.072 A 
ATOM     69  C   UNL A   1      33.172  25.802  26.342  1.00  0.00     0.016 A 
ATOM     70  C   UNL A   1      33.263  24.227  24.482  1.00  0.00     0.054 A 
ATOM     71  C   UNL A   1      33.564  26.855  25.509  1.00  0.00     0.001 A 
ATOM     72  C   UNL A   1      33.784  25.287  23.700  1.00  0.00     0.015 A 
ATOM     73  C   UNL A   1      33.858  26.597  24.181  1.00  0.00     0.001 A 
BRANCH  70  74
ATOM     74  C   UNL A   1      33.374  22.866  23.861  1.00  0.00     0.256 C 
ATOM     75  O   UNL A   1      32.528  22.575  23.010  1.00  0.00    -0.269 OA
ATOM     76  N   UNL A   1      34.385  21.950  24.077  1.00  0.00    -0.322 N 
ATOM     77  H   UNL A   1      34.374  21.148  23.505  1.00  0.00     0.170 HD
BRANCH  76  78
ATOM     78  C   UNL A   1      35.420  22.027  25.010  1.00  0.00     0.041 A 
ATOM     79  C   UNL A   1      36.418  20.591  25.018  1.00  0.00     0.028 A 
ATOM     80  C   UNL A   1      36.072  23.611  25.400  1.00  0.00     0.028 A 
ATOM     81  C   UNL A   1      38.157  20.668  25.317  1.00  0.00     0.029 A 
ATOM     82  C   UNL A   1      37.854  23.746  25.706  1.00  0.00     0.029 A 
ATOM     83  C   UNL A   1      39.005  22.198  25.768  1.00  0.00     0.052 A 
BRANCH  83  84
ATOM     84  N   UNL A   1      40.680  22.132  26.508  1.00  0.00    -0.250 N 
ATOM     85  C   UNL A   1      41.067  21.758  27.895  1.00  0.00     0.237 C 
ATOM     86  C   UNL A   1      41.936  22.805  26.110  1.00  0.00     0.237 C 
ATOM     87  O   UNL A   1      40.807  20.782  28.580  1.00  0.00    -0.274 OA
ATOM     88  C   UNL A   1      42.131  22.774  28.316  1.00  0.00     0.095 C 
ATOM     89  C   UNL A   1      42.972  22.516  27.119  1.00  0.00     0.095 C 
ATOM     90  O   UNL A   1      42.338  23.589  25.259  1.00  0.00    -0.274 OA
ATOM     91  C   UNL A   1      43.202  23.180  29.343  1.00  0.00     0.002 C 
ATOM     92  C   UNL A   1      44.225  23.354  27.349  1.00  0.00     0.002 C 
ATOM     93  C   UNL A   1      43.394  24.725  29.157  1.00  0.00     0.005 C 
ATOM     94  C   UNL A   1      44.548  22.778  28.728  1.00  0.00     0.009 C 
ATOM     95  C   UNL A   1      43.930  24.825  27.706  1.00  0.00     0.005 C 
ENDBRANCH  83  84
ENDBRANCH  76  78
ENDBRANCH  70  74
ENDBRANCH  66  68
ENDBRANCH  65  66
ENDBRANCH  64  65
ENDBRANCH   1  64
TORSDOF 17
ENDMDL
