MODEL 1
REMARK VINA RESULT:     -10.3      0.000      0.000
REMARK SMILES CC(C)[C@H](NC(=O)CCNC(=O)c1ccoc1)C(=O)OCCOCCOC(=O)c1ccc(-c2c3nc(c(-c4c(F)cccc4F)c4ccc([nH]4)c(-c4c(F)cccc4F)c4nc(c(-c5c(F)cccc5F)c5ccc2[nH]5)C=C4)C=C3)cc1
REMARK SMILES IDX 21 1 20 2 18 3 19 4 4 5 2 6 1 7 3 8 5 9 6 10 7 12 8 13 9 14
REMARK SMILES IDX 10 15 11 16 12 18 13 19 14 20 17 21 15 22 16 23 22 24 23 25
REMARK SMILES IDX 24 26 25 27 26 28 27 29 28 30 29 31 30 32 82 33 31 34 81 35
REMARK SMILES IDX 32 36 33 37 34 38 75 39 35 40 80 41 74 42 76 43 36 44 79 45
REMARK SMILES IDX 73 46 72 47 37 49 63 50 46 51 62 52 47 53 50 54 61 55 77 56
REMARK SMILES IDX 48 57 49 58 60 60 78 61 51 62 38 63 39 64 44 65 40 66 41 67
REMARK SMILES IDX 43 68 45 69 42 70 64 71 65 72 70 73 66 74 67 75 69 76 71 77
REMARK SMILES IDX 68 78 52 79 53 80 58 81 54 82 55 83 57 84 59 85 56 86
REMARK H PARENT 5 11 10 17 76 48 50 59
REMARK Flexibility Score: inf
ROOT
ATOM      1  C   UNL A   1      33.690  27.029  24.732  1.00  0.00     0.261 C 
ENDROOT
BRANCH   1   2
ATOM      2  O   UNL A   1      34.273  26.069  25.632  1.00  0.00    -0.462 OA
BRANCH   2   3
ATOM      3  C   UNL A   1      34.278  24.790  25.148  1.00  0.00     0.328 C 
ATOM      4  O   UNL A   1      35.108  24.352  24.358  1.00  0.00    -0.250 OA
BRANCH   3   5
ATOM      5  C   UNL A   1      33.010  24.011  25.539  1.00  0.00     0.194 C 
BRANCH   5   6
ATOM      6  C   UNL A   1      33.467  22.650  26.119  1.00  0.00     0.017 C 
ATOM      7  C   UNL A   1      33.101  22.470  27.596  1.00  0.00     0.010 C 
ATOM      8  C   UNL A   1      32.967  21.472  25.281  1.00  0.00     0.010 C 
ENDBRANCH   5   6
BRANCH   5   9
ATOM      9  N   UNL A   1      32.046  23.844  24.439  1.00  0.00    -0.342 N 
ATOM     10  C   UNL A   1      30.867  24.491  24.205  1.00  0.00     0.222 C 
ATOM     11  H   UNL A   1      32.289  23.163  23.771  1.00  0.00     0.164 HD
ATOM     12  O   UNL A   1      30.262  24.253  23.160  1.00  0.00    -0.275 OA
BRANCH  10  13
ATOM     13  C   UNL A   1      30.298  25.465  25.223  1.00  0.00     0.121 C 
BRANCH  13  14
ATOM     14  C   UNL A   1      29.570  26.630  24.538  1.00  0.00     0.126 C 
BRANCH  14  15
ATOM     15  N   UNL A   1      30.315  27.210  23.430  1.00  0.00    -0.351 N 
ATOM     16  C   UNL A   1      30.061  28.309  22.652  1.00  0.00     0.254 C 
ATOM     17  H   UNL A   1      31.144  26.731  23.200  1.00  0.00     0.163 HD
ATOM     18  O   UNL A   1      30.729  28.487  21.636  1.00  0.00    -0.269 OA
BRANCH  16  19
ATOM     19  C   UNL A   1      29.000  29.214  23.025  1.00  0.00     0.077 A 
ATOM     20  C   UNL A   1      29.071  30.590  23.382  1.00  0.00     0.056 A 
ATOM     21  C   UNL A   1      27.654  28.920  22.962  1.00  0.00     0.208 A 
ATOM     22  C   UNL A   1      27.773  31.023  23.521  1.00  0.00     0.195 A 
ATOM     23  O   UNL A   1      26.906  30.006  23.287  1.00  0.00    -0.472 OA
ENDBRANCH  16  19
ENDBRANCH  14  15
ENDBRANCH  13  14
ENDBRANCH  10  13
ENDBRANCH   5   9
ENDBRANCH   3   5
ENDBRANCH   2   3
ENDBRANCH   1   2
BRANCH   1  24
ATOM     24  C   UNL A   1      33.798  28.494  25.161  1.00  0.00     0.202 C 
BRANCH  24  25
ATOM     25  O   UNL A   1      32.759  29.384  24.782  1.00  0.00    -0.374 OA
BRANCH  25  26
ATOM     26  C   UNL A   1      31.723  29.663  25.717  1.00  0.00     0.202 C 
BRANCH  26  27
ATOM     27  C   UNL A   1      31.789  30.983  26.493  1.00  0.00     0.261 C 
BRANCH  27  28
ATOM     28  O   UNL A   1      32.724  30.966  27.590  1.00  0.00    -0.460 OA
BRANCH  28  29
ATOM     29  C   UNL A   1      33.535  32.051  27.633  1.00  0.00     0.338 C 
ATOM     30  O   UNL A   1      33.196  33.224  27.696  1.00  0.00    -0.246 OA
BRANCH  29  31
ATOM     31  C   UNL A   1      34.956  31.674  27.727  1.00  0.00     0.060 A 
ATOM     32  C   UNL A   1      35.251  30.304  27.768  1.00  0.00     0.016 A 
ATOM     33  C   UNL A   1      35.937  32.623  28.016  1.00  0.00     0.016 A 
ATOM     34  C   UNL A   1      36.503  29.877  28.200  1.00  0.00     0.010 A 
ATOM     35  C   UNL A   1      37.194  32.191  28.458  1.00  0.00     0.010 A 
ATOM     36  C   UNL A   1      37.455  30.818  28.617  1.00  0.00    -0.014 A 
BRANCH  36  37
ATOM     37  C   UNL A   1      38.602  30.342  29.429  1.00  0.00     0.031 A 
ATOM     38  C   UNL A   1      38.731  30.823  30.853  1.00  0.00     0.074 A 
ATOM     39  C   UNL A   1      39.460  29.424  28.951  1.00  0.00     0.049 A 
ATOM     40  N   UNL A   1      39.595  30.476  31.773  1.00  0.00    -0.248 NA
ATOM     41  C   UNL A   1      37.750  31.826  31.299  1.00  0.00     0.031 C 
ATOM     42  C   UNL A   1      39.428  28.855  27.607  1.00  0.00     0.029 A 
ATOM     43  N   UNL A   1      40.523  28.803  29.558  1.00  0.00    -0.354 N 
ATOM     44  C   UNL A   1      39.261  31.214  32.902  1.00  0.00     0.074 A 
ATOM     45  C   UNL A   1      38.136  32.050  32.546  1.00  0.00     0.031 C 
ATOM     46  C   UNL A   1      40.427  27.962  27.489  1.00  0.00     0.029 A 
ATOM     47  C   UNL A   1      41.169  27.905  28.747  1.00  0.00     0.049 A 
ATOM     48  H   UNL A   1      40.793  28.983  30.488  1.00  0.00     0.167 HD
ATOM     49  C   UNL A   1      39.829  31.190  34.131  1.00  0.00     0.037 A 
ATOM     50  C   UNL A   1      42.239  27.125  28.995  1.00  0.00     0.037 A 
ATOM     51  C   UNL A   1      40.943  30.358  34.498  1.00  0.00     0.049 A 
ATOM     52  C   UNL A   1      42.867  27.132  30.362  1.00  0.00     0.074 A 
ATOM     53  C   UNL A   1      41.587  30.265  35.720  1.00  0.00     0.029 A 
ATOM     54  N   UNL A   1      41.577  29.472  33.641  1.00  0.00    -0.354 N 
ATOM     55  N   UNL A   1      42.526  27.815  31.427  1.00  0.00    -0.248 NA
ATOM     56  C   UNL A   1      44.023  26.244  30.564  1.00  0.00     0.031 C 
ATOM     57  C   UNL A   1      42.629  29.339  35.596  1.00  0.00     0.029 A 
ATOM     58  C   UNL A   1      42.612  28.834  34.305  1.00  0.00     0.049 A 
ATOM     59  H   UNL A   1      41.329  29.320  32.701  1.00  0.00     0.167 HD
ATOM     60  C   UNL A   1      43.403  27.421  32.430  1.00  0.00     0.074 A 
ATOM     61  C   UNL A   1      44.287  26.432  31.850  1.00  0.00     0.031 C 
ATOM     62  C   UNL A   1      43.471  27.841  33.717  1.00  0.00     0.037 A 
BRANCH  49  63
ATOM     63  C   UNL A   1      39.258  32.107  35.170  1.00  0.00     0.057 A 
ATOM     64  C   UNL A   1      39.617  33.460  35.233  1.00  0.00     0.134 A 
ATOM     65  C   UNL A   1      38.320  31.640  36.097  1.00  0.00     0.134 A 
ATOM     66  F   UNL A   1      40.523  33.962  34.381  1.00  0.00    -0.206 F 
ATOM     67  C   UNL A   1      39.073  34.313  36.194  1.00  0.00     0.040 A 
ATOM     68  C   UNL A   1      37.755  32.488  37.051  1.00  0.00     0.040 A 
ATOM     69  F   UNL A   1      37.933  30.356  36.088  1.00  0.00    -0.206 F 
ATOM     70  C   UNL A   1      38.134  33.828  37.103  1.00  0.00     0.006 A 
ENDBRANCH  49  63
BRANCH  50  71
ATOM     71  C   UNL A   1      42.782  26.254  27.924  1.00  0.00     0.057 A 
ATOM     72  C   UNL A   1      42.312  24.949  27.740  1.00  0.00     0.134 A 
ATOM     73  C   UNL A   1      43.804  26.701  27.079  1.00  0.00     0.134 A 
ATOM     74  F   UNL A   1      41.350  24.459  28.535  1.00  0.00    -0.206 F 
ATOM     75  C   UNL A   1      42.849  24.112  26.761  1.00  0.00     0.040 A 
ATOM     76  C   UNL A   1      44.337  25.881  26.084  1.00  0.00     0.040 A 
ATOM     77  F   UNL A   1      44.297  27.941  27.210  1.00  0.00    -0.206 F 
ATOM     78  C   UNL A   1      43.864  24.580  25.927  1.00  0.00     0.006 A 
ENDBRANCH  50  71
BRANCH  62  79
ATOM     79  C   UNL A   1      44.509  27.205  34.592  1.00  0.00     0.057 A 
ATOM     80  C   UNL A   1      44.252  26.028  35.305  1.00  0.00     0.134 A 
ATOM     81  C   UNL A   1      45.789  27.763  34.698  1.00  0.00     0.134 A 
ATOM     82  F   UNL A   1      43.042  25.451  35.252  1.00  0.00    -0.206 F 
ATOM     83  C   UNL A   1      45.226  25.439  36.113  1.00  0.00     0.040 A 
ATOM     84  C   UNL A   1      46.778  27.173  35.487  1.00  0.00     0.040 A 
ATOM     85  F   UNL A   1      46.100  28.886  34.032  1.00  0.00    -0.206 F 
ATOM     86  C   UNL A   1      46.495  26.011  36.202  1.00  0.00     0.006 A 
ENDBRANCH  62  79
ENDBRANCH  36  37
ENDBRANCH  29  31
ENDBRANCH  28  29
ENDBRANCH  27  28
ENDBRANCH  26  27
ENDBRANCH  25  26
ENDBRANCH  24  25
ENDBRANCH   1  24
TORSDOF 20
ENDMDL
MODEL 2
REMARK VINA RESULT:     -10.2      2.735      4.866
REMARK SMILES CC(C)[C@H](NC(=O)CCNC(=O)c1ccoc1)C(=O)OCCOCCOC(=O)c1ccc(-c2c3nc(c(-c4c(F)cccc4F)c4ccc([nH]4)c(-c4c(F)cccc4F)c4nc(c(-c5c(F)cccc5F)c5ccc2[nH]5)C=C4)C=C3)cc1
REMARK SMILES IDX 21 1 20 2 18 3 19 4 4 5 2 6 1 7 3 8 5 9 6 10 7 12 8 13 9 14
REMARK SMILES IDX 10 15 11 16 12 18 13 19 14 20 17 21 15 22 16 23 22 24 23 25
REMARK SMILES IDX 24 26 25 27 26 28 27 29 28 30 29 31 30 32 82 33 31 34 81 35
REMARK SMILES IDX 32 36 33 37 34 38 75 39 35 40 80 41 74 42 76 43 36 44 79 45
REMARK SMILES IDX 73 46 72 47 37 49 63 50 46 51 62 52 47 53 50 54 61 55 77 56
REMARK SMILES IDX 48 57 49 58 60 60 78 61 51 62 38 63 39 64 44 65 40 66 41 67
REMARK SMILES IDX 43 68 45 69 42 70 64 71 65 72 70 73 66 74 67 75 69 76 71 77
REMARK SMILES IDX 68 78 52 79 53 80 58 81 54 82 55 83 57 84 59 85 56 86
REMARK H PARENT 5 11 10 17 76 48 50 59
REMARK Flexibility Score: inf
ROOT
ATOM      1  C   UNL A   1      34.719  31.707  27.753  1.00  0.00     0.261 C 
ENDROOT
BRANCH   1   2
ATOM      2  O   UNL A   1      33.598  30.953  27.255  1.00  0.00    -0.462 OA
BRANCH   2   3
ATOM      3  C   UNL A   1      33.920  29.689  26.843  1.00  0.00     0.328 C 
ATOM      4  O   UNL A   1      34.899  29.063  27.234  1.00  0.00    -0.250 OA
BRANCH   3   5
ATOM      5  C   UNL A   1      33.037  29.211  25.678  1.00  0.00     0.194 C 
BRANCH   5   6
ATOM      6  C   UNL A   1      32.221  27.997  26.187  1.00  0.00     0.017 C 
ATOM      7  C   UNL A   1      32.988  26.673  26.097  1.00  0.00     0.010 C 
ATOM      8  C   UNL A   1      31.676  28.223  27.597  1.00  0.00     0.010 C 
ENDBRANCH   5   6
BRANCH   5   9
ATOM      9  N   UNL A   1      33.784  28.895  24.450  1.00  0.00    -0.342 N 
ATOM     10  C   UNL A   1      33.348  28.809  23.159  1.00  0.00     0.222 C 
ATOM     11  H   UNL A   1      34.744  28.719  24.578  1.00  0.00     0.164 HD
ATOM     12  O   UNL A   1      34.177  28.621  22.268  1.00  0.00    -0.275 OA
BRANCH  10  13
ATOM     13  C   UNL A   1      31.869  28.918  22.828  1.00  0.00     0.121 C 
BRANCH  13  14
ATOM     14  C   UNL A   1      31.248  27.537  22.576  1.00  0.00     0.126 C 
BRANCH  14  15
ATOM     15  N   UNL A   1      31.811  26.848  21.423  1.00  0.00    -0.351 N 
ATOM     16  C   UNL A   1      32.544  25.693  21.334  1.00  0.00     0.254 C 
ATOM     17  H   UNL A   1      31.635  27.287  20.559  1.00  0.00     0.163 HD
ATOM     18  O   UNL A   1      33.089  25.415  20.270  1.00  0.00    -0.269 OA
BRANCH  16  19
ATOM     19  C   UNL A   1      32.681  24.848  22.496  1.00  0.00     0.077 A 
ATOM     20  C   UNL A   1      31.698  24.068  23.167  1.00  0.00     0.056 A 
ATOM     21  C   UNL A   1      33.879  24.529  23.102  1.00  0.00     0.208 A 
ATOM     22  C   UNL A   1      32.363  23.348  24.131  1.00  0.00     0.195 A 
ATOM     23  O   UNL A   1      33.688  23.639  24.110  1.00  0.00    -0.472 OA
ENDBRANCH  16  19
ENDBRANCH  14  15
ENDBRANCH  13  14
ENDBRANCH  10  13
ENDBRANCH   5   9
ENDBRANCH   3   5
ENDBRANCH   2   3
ENDBRANCH   1   2
BRANCH   1  24
ATOM     24  C   UNL A   1      34.605  32.192  29.200  1.00  0.00     0.202 C 
BRANCH  24  25
ATOM     25  O   UNL A   1      35.184  33.444  29.536  1.00  0.00    -0.374 OA
BRANCH  25  26
ATOM     26  C   UNL A   1      34.621  34.628  28.982  1.00  0.00     0.202 C 
BRANCH  26  27
ATOM     27  C   UNL A   1      33.285  35.124  29.547  1.00  0.00     0.261 C 
BRANCH  27  28
ATOM     28  O   UNL A   1      33.423  35.973  30.704  1.00  0.00    -0.460 OA
BRANCH  28  29
ATOM     29  C   UNL A   1      32.938  35.424  31.844  1.00  0.00     0.338 C 
ATOM     30  O   UNL A   1      31.764  35.252  32.140  1.00  0.00    -0.246 OA
BRANCH  29  31
ATOM     31  C   UNL A   1      34.014  34.908  32.708  1.00  0.00     0.060 A 
ATOM     32  C   UNL A   1      35.211  35.635  32.739  1.00  0.00     0.016 A 
ATOM     33  C   UNL A   1      33.940  33.631  33.266  1.00  0.00     0.016 A 
ATOM     34  C   UNL A   1      36.369  35.044  33.236  1.00  0.00     0.010 A 
ATOM     35  C   UNL A   1      35.108  33.035  33.760  1.00  0.00     0.010 A 
ATOM     36  C   UNL A   1      36.338  33.716  33.682  1.00  0.00    -0.014 A 
BRANCH  36  37
ATOM     37  C   UNL A   1      37.626  32.995  33.828  1.00  0.00     0.031 A 
ATOM     38  C   UNL A   1      38.454  33.233  35.066  1.00  0.00     0.074 A 
ATOM     39  C   UNL A   1      38.013  32.072  32.930  1.00  0.00     0.049 A 
ATOM     40  N   UNL A   1      39.564  32.654  35.448  1.00  0.00    -0.248 NA
ATOM     41  C   UNL A   1      37.960  34.258  36.000  1.00  0.00     0.031 C 
ATOM     42  C   UNL A   1      37.291  31.725  31.709  1.00  0.00     0.029 A 
ATOM     43  N   UNL A   1      39.112  31.250  32.921  1.00  0.00    -0.354 N 
ATOM     44  C   UNL A   1      39.897  33.241  36.663  1.00  0.00     0.074 A 
ATOM     45  C   UNL A   1      38.892  34.242  36.942  1.00  0.00     0.031 C 
ATOM     46  C   UNL A   1      37.966  30.756  31.066  1.00  0.00     0.029 A 
ATOM     47  C   UNL A   1      39.168  30.422  31.829  1.00  0.00     0.049 A 
ATOM     48  H   UNL A   1      39.793  31.253  33.631  1.00  0.00     0.167 HD
ATOM     49  C   UNL A   1      40.939  32.964  37.483  1.00  0.00     0.037 A 
ATOM     50  C   UNL A   1      40.086  29.498  31.485  1.00  0.00     0.037 A 
ATOM     51  C   UNL A   1      41.940  31.966  37.220  1.00  0.00     0.049 A 
ATOM     52  C   UNL A   1      41.247  29.224  32.402  1.00  0.00     0.074 A 
ATOM     53  C   UNL A   1      43.034  31.614  37.992  1.00  0.00     0.029 A 
ATOM     54  N   UNL A   1      41.967  31.159  36.094  1.00  0.00    -0.354 N 
ATOM     55  N   UNL A   1      41.536  29.768  33.559  1.00  0.00    -0.248 NA
ATOM     56  C   UNL A   1      42.204  28.193  31.969  1.00  0.00     0.031 C 
ATOM     57  C   UNL A   1      43.738  30.608  37.321  1.00  0.00     0.029 A 
ATOM     58  C   UNL A   1      43.064  30.314  36.147  1.00  0.00     0.049 A 
ATOM     59  H   UNL A   1      41.305  31.182  35.366  1.00  0.00     0.167 HD
ATOM     60  C   UNL A   1      42.687  29.129  34.004  1.00  0.00     0.074 A 
ATOM     61  C   UNL A   1      43.039  28.149  32.998  1.00  0.00     0.031 C 
ATOM     62  C   UNL A   1      43.389  29.334  35.144  1.00  0.00     0.037 A 
BRANCH  49  63
ATOM     63  C   UNL A   1      41.054  33.768  38.743  1.00  0.00     0.057 A 
ATOM     64  C   UNL A   1      41.874  34.900  38.820  1.00  0.00     0.134 A 
ATOM     65  C   UNL A   1      40.316  33.422  39.881  1.00  0.00     0.134 A 
ATOM     66  F   UNL A   1      42.618  35.273  37.767  1.00  0.00    -0.206 F 
ATOM     67  C   UNL A   1      41.968  35.653  39.991  1.00  0.00     0.040 A 
ATOM     68  C   UNL A   1      40.388  34.177  41.052  1.00  0.00     0.040 A 
ATOM     69  F   UNL A   1      39.511  32.349  39.871  1.00  0.00    -0.206 F 
ATOM     70  C   UNL A   1      41.219  35.295  41.110  1.00  0.00     0.006 A 
ENDBRANCH  49  63
BRANCH  50  71
ATOM     71  C   UNL A   1      39.941  28.749  30.214  1.00  0.00     0.057 A 
ATOM     72  C   UNL A   1      39.221  27.550  30.155  1.00  0.00     0.134 A 
ATOM     73  C   UNL A   1      40.542  29.202  29.035  1.00  0.00     0.134 A 
ATOM     74  F   UNL A   1      38.643  27.055  31.259  1.00  0.00    -0.206 F 
ATOM     75  C   UNL A   1      39.117  26.820  28.971  1.00  0.00     0.040 A 
ATOM     76  C   UNL A   1      40.430  28.492  27.839  1.00  0.00     0.040 A 
ATOM     77  F   UNL A   1      41.247  30.343  29.030  1.00  0.00    -0.206 F 
ATOM     78  C   UNL A   1      39.721  27.293  27.807  1.00  0.00     0.006 A 
ENDBRANCH  50  71
BRANCH  62  79
ATOM     79  C   UNL A   1      44.583  28.459  35.381  1.00  0.00     0.057 A 
ATOM     80  C   UNL A   1      44.481  27.241  36.063  1.00  0.00     0.134 A 
ATOM     81  C   UNL A   1      45.844  28.828  34.896  1.00  0.00     0.134 A 
ATOM     82  F   UNL A   1      43.302  26.837  36.561  1.00  0.00    -0.206 F 
ATOM     83  C   UNL A   1      45.597  26.429  36.275  1.00  0.00     0.040 A 
ATOM     84  C   UNL A   1      46.963  28.017  35.084  1.00  0.00     0.040 A 
ATOM     85  F   UNL A   1      46.006  29.980  34.227  1.00  0.00    -0.206 F 
ATOM     86  C   UNL A   1      46.842  26.816  35.780  1.00  0.00     0.006 A 
ENDBRANCH  62  79
ENDBRANCH  36  37
ENDBRANCH  29  31
ENDBRANCH  28  29
ENDBRANCH  27  28
ENDBRANCH  26  27
ENDBRANCH  25  26
ENDBRANCH  24  25
ENDBRANCH   1  24
TORSDOF 20
ENDMDL
MODEL 3
REMARK VINA RESULT:     -10.2      3.524      6.942
REMARK SMILES CC(C)[C@H](NC(=O)CCNC(=O)c1ccoc1)C(=O)OCCOCCOC(=O)c1ccc(-c2c3nc(c(-c4c(F)cccc4F)c4ccc([nH]4)c(-c4c(F)cccc4F)c4nc(c(-c5c(F)cccc5F)c5ccc2[nH]5)C=C4)C=C3)cc1
REMARK SMILES IDX 21 1 20 2 18 3 19 4 4 5 2 6 1 7 3 8 5 9 6 10 7 12 8 13 9 14
REMARK SMILES IDX 10 15 11 16 12 18 13 19 14 20 17 21 15 22 16 23 22 24 23 25
REMARK SMILES IDX 24 26 25 27 26 28 27 29 28 30 29 31 30 32 82 33 31 34 81 35
REMARK SMILES IDX 32 36 33 37 34 38 75 39 35 40 80 41 74 42 76 43 36 44 79 45
REMARK SMILES IDX 73 46 72 47 37 49 63 50 46 51 62 52 47 53 50 54 61 55 77 56
REMARK SMILES IDX 48 57 49 58 60 60 78 61 51 62 38 63 39 64 44 65 40 66 41 67
REMARK SMILES IDX 43 68 45 69 42 70 64 71 65 72 70 73 66 74 67 75 69 76 71 77
REMARK SMILES IDX 68 78 52 79 53 80 58 81 54 82 55 83 57 84 59 85 56 86
REMARK H PARENT 5 11 10 17 76 48 50 59
REMARK Flexibility Score: inf
ROOT
ATOM      1  C   UNL A   1      34.571  23.547  26.184  1.00  0.00     0.261 C 
ENDROOT
BRANCH   1   2
ATOM      2  O   UNL A   1      34.048  24.817  25.753  1.00  0.00    -0.462 OA
BRANCH   2   3
ATOM      3  C   UNL A   1      32.687  24.915  25.848  1.00  0.00     0.328 C 
ATOM      4  O   UNL A   1      32.008  24.336  26.688  1.00  0.00    -0.250 OA
BRANCH   3   5
ATOM      5  C   UNL A   1      32.070  25.669  24.656  1.00  0.00     0.194 C 
BRANCH   5   6
ATOM      6  C   UNL A   1      31.989  24.672  23.474  1.00  0.00     0.017 C 
ATOM      7  C   UNL A   1      30.652  23.928  23.401  1.00  0.00     0.010 C 
ATOM      8  C   UNL A   1      32.322  25.338  22.138  1.00  0.00     0.010 C 
ENDBRANCH   5   6
BRANCH   5   9
ATOM      9  N   UNL A   1      32.788  26.900  24.289  1.00  0.00    -0.342 N 
ATOM     10  C   UNL A   1      32.325  28.179  24.170  1.00  0.00     0.222 C 
ATOM     11  H   UNL A   1      33.747  26.784  24.100  1.00  0.00     0.164 HD
ATOM     12  O   UNL A   1      33.133  29.079  23.940  1.00  0.00    -0.275 OA
BRANCH  10  13
ATOM     13  C   UNL A   1      30.842  28.485  24.294  1.00  0.00     0.121 C 
BRANCH  13  14
ATOM     14  C   UNL A   1      30.127  28.352  22.942  1.00  0.00     0.126 C 
BRANCH  14  15
ATOM     15  N   UNL A   1      28.687  28.174  23.061  1.00  0.00    -0.351 N 
ATOM     16  C   UNL A   1      27.658  29.075  22.973  1.00  0.00     0.254 C 
ATOM     17  H   UNL A   1      28.403  27.247  23.235  1.00  0.00     0.163 HD
ATOM     18  O   UNL A   1      26.531  28.728  23.315  1.00  0.00    -0.269 OA
BRANCH  16  19
ATOM     19  C   UNL A   1      27.926  30.416  22.510  1.00  0.00     0.077 A 
ATOM     20  C   UNL A   1      28.230  31.587  23.261  1.00  0.00     0.056 A 
ATOM     21  C   UNL A   1      28.077  30.779  21.188  1.00  0.00     0.208 A 
ATOM     22  C   UNL A   1      28.528  32.569  22.346  1.00  0.00     0.195 A 
ATOM     23  O   UNL A   1      28.417  32.089  21.081  1.00  0.00    -0.472 OA
ENDBRANCH  16  19
ENDBRANCH  14  15
ENDBRANCH  13  14
ENDBRANCH  10  13
ENDBRANCH   5   9
ENDBRANCH   3   5
ENDBRANCH   2   3
ENDBRANCH   1   2
BRANCH   1  24
ATOM     24  C   UNL A   1      36.029  23.268  25.812  1.00  0.00     0.202 C 
BRANCH  24  25
ATOM     25  O   UNL A   1      36.288  22.388  24.728  1.00  0.00    -0.374 OA
BRANCH  25  26
ATOM     26  C   UNL A   1      36.397  20.993  24.991  1.00  0.00     0.202 C 
BRANCH  26  27
ATOM     27  C   UNL A   1      37.798  20.369  25.004  1.00  0.00     0.261 C 
BRANCH  27  28
ATOM     28  O   UNL A   1      38.739  21.071  25.840  1.00  0.00    -0.460 OA
BRANCH  28  29
ATOM     29  C   UNL A   1      39.913  20.416  26.009  1.00  0.00     0.338 C 
ATOM     30  O   UNL A   1      40.168  19.263  25.692  1.00  0.00    -0.246 OA
BRANCH  29  31
ATOM     31  C   UNL A   1      40.967  21.301  26.533  1.00  0.00     0.060 A 
ATOM     32  C   UNL A   1      40.954  21.563  27.910  1.00  0.00     0.016 A 
ATOM     33  C   UNL A   1      41.780  22.042  25.674  1.00  0.00     0.016 A 
ATOM     34  C   UNL A   1      41.677  22.638  28.418  1.00  0.00     0.010 A 
ATOM     35  C   UNL A   1      42.502  23.128  26.186  1.00  0.00     0.010 A 
ATOM     36  C   UNL A   1      42.396  23.469  27.548  1.00  0.00    -0.014 A 
BRANCH  36  37
ATOM     37  C   UNL A   1      42.818  24.803  28.041  1.00  0.00     0.031 A 
ATOM     38  C   UNL A   1      41.765  25.858  28.268  1.00  0.00     0.074 A 
ATOM     39  C   UNL A   1      44.097  25.048  28.376  1.00  0.00     0.049 A 
ATOM     40  N   UNL A   1      41.887  27.059  28.774  1.00  0.00    -0.248 NA
ATOM     41  C   UNL A   1      40.390  25.509  27.877  1.00  0.00     0.031 C 
ATOM     42  C   UNL A   1      45.204  24.107  28.235  1.00  0.00     0.029 A 
ATOM     43  N   UNL A   1      44.672  26.171  28.917  1.00  0.00    -0.354 N 
ATOM     44  C   UNL A   1      40.609  27.605  28.764  1.00  0.00     0.074 A 
ATOM     45  C   UNL A   1      39.730  26.619  28.175  1.00  0.00     0.031 C 
ATOM     46  C   UNL A   1      46.330  24.690  28.682  1.00  0.00     0.029 A 
ATOM     47  C   UNL A   1      46.021  26.046  29.133  1.00  0.00     0.049 A 
ATOM     48  H   UNL A   1      44.164  26.986  29.132  1.00  0.00     0.167 HD
ATOM     49  C   UNL A   1      40.198  28.813  29.217  1.00  0.00     0.037 A 
ATOM     50  C   UNL A   1      46.905  26.928  29.638  1.00  0.00     0.037 A 
ATOM     51  C   UNL A   1      41.061  29.798  29.811  1.00  0.00     0.049 A 
ATOM     52  C   UNL A   1      46.427  28.273  30.115  1.00  0.00     0.074 A 
ATOM     53  C   UNL A   1      40.735  31.052  30.300  1.00  0.00     0.029 A 
ATOM     54  N   UNL A   1      42.424  29.636  29.998  1.00  0.00    -0.354 N 
ATOM     55  N   UNL A   1      45.213  28.766  30.122  1.00  0.00    -0.248 NA
ATOM     56  C   UNL A   1      47.446  29.180  30.667  1.00  0.00     0.031 C 
ATOM     57  C   UNL A   1      41.908  31.660  30.761  1.00  0.00     0.029 A 
ATOM     58  C   UNL A   1      42.956  30.772  30.587  1.00  0.00     0.049 A 
ATOM     59  H   UNL A   1      42.938  28.835  29.749  1.00  0.00     0.167 HD
ATOM     60  C   UNL A   1      45.316  30.024  30.703  1.00  0.00     0.074 A 
ATOM     61  C   UNL A   1      46.710  30.216  31.045  1.00  0.00     0.031 C 
ATOM     62  C   UNL A   1      44.343  30.939  30.935  1.00  0.00     0.037 A 
BRANCH  49  63
ATOM     63  C   UNL A   1      38.743  29.142  29.073  1.00  0.00     0.057 A 
ATOM     64  C   UNL A   1      37.863  29.072  30.161  1.00  0.00     0.134 A 
ATOM     65  C   UNL A   1      38.222  29.557  27.842  1.00  0.00     0.134 A 
ATOM     66  F   UNL A   1      38.299  28.665  31.362  1.00  0.00    -0.206 F 
ATOM     67  C   UNL A   1      36.511  29.391  30.025  1.00  0.00     0.040 A 
ATOM     68  C   UNL A   1      36.875  29.896  27.699  1.00  0.00     0.040 A 
ATOM     69  F   UNL A   1      39.013  29.647  26.763  1.00  0.00    -0.206 F 
ATOM     70  C   UNL A   1      36.015  29.810  28.792  1.00  0.00     0.006 A 
ENDBRANCH  49  63
BRANCH  50  71
ATOM     71  C   UNL A   1      48.339  26.564  29.735  1.00  0.00     0.057 A 
ATOM     72  C   UNL A   1      49.243  26.893  28.718  1.00  0.00     0.134 A 
ATOM     73  C   UNL A   1      48.832  25.855  30.836  1.00  0.00     0.134 A 
ATOM     74  F   UNL A   1      48.822  27.550  27.628  1.00  0.00    -0.206 F 
ATOM     75  C   UNL A   1      50.584  26.516  28.785  1.00  0.00     0.040 A 
ATOM     76  C   UNL A   1      50.175  25.489  30.926  1.00  0.00     0.040 A 
ATOM     77  F   UNL A   1      48.013  25.510  31.841  1.00  0.00    -0.206 F 
ATOM     78  C   UNL A   1      51.055  25.814  29.894  1.00  0.00     0.006 A 
ENDBRANCH  50  71
BRANCH  62  79
ATOM     79  C   UNL A   1      44.746  32.210  31.620  1.00  0.00     0.057 A 
ATOM     80  C   UNL A   1      44.751  32.325  33.015  1.00  0.00     0.134 A 
ATOM     81  C   UNL A   1      45.159  33.321  30.874  1.00  0.00     0.134 A 
ATOM     82  F   UNL A   1      44.356  31.300  33.784  1.00  0.00    -0.206 F 
ATOM     83  C   UNL A   1      45.133  33.512  33.645  1.00  0.00     0.040 A 
ATOM     84  C   UNL A   1      45.562  34.505  31.492  1.00  0.00     0.040 A 
ATOM     85  F   UNL A   1      45.184  33.270  29.533  1.00  0.00    -0.206 F 
ATOM     86  C   UNL A   1      45.544  34.604  32.882  1.00  0.00     0.006 A 
ENDBRANCH  62  79
ENDBRANCH  36  37
ENDBRANCH  29  31
ENDBRANCH  28  29
ENDBRANCH  27  28
ENDBRANCH  26  27
ENDBRANCH  25  26
ENDBRANCH  24  25
ENDBRANCH   1  24
TORSDOF 20
ENDMDL
