MODEL 1
REMARK VINA RESULT:      -9.8      0.000      0.000
REMARK SMILES O=C(OCCOCCOC(=O)c1ccc2c(=O)[nH][nH]c(=O)c2c1)c1ccc(-c2c3nc(c(-c4c(F)cccc4F)c4ccc([nH]4)c(-c4c(F)cccc4F)c4nc(c(-c5c(F)cccc5F)c5ccc2[nH]5)C=C4)C=C3)cc1
REMARK SMILES IDX 5 1 4 2 3 3 2 4 1 5 24 6 25 7 77 8 26 9 76 10 27 11 28 12
REMARK SMILES IDX 29 13 70 14 30 15 75 16 69 17 71 18 31 19 74 20 68 21 67 22
REMARK SMILES IDX 32 24 58 25 41 26 57 27 42 28 45 29 56 30 72 31 43 32 44 33
REMARK SMILES IDX 55 35 73 36 46 37 33 38 34 39 39 40 35 41 36 42 38 43 40 44
REMARK SMILES IDX 37 45 59 46 60 47 65 48 61 49 62 50 64 51 66 52 63 53 47 54
REMARK SMILES IDX 48 55 53 56 49 57 50 58 52 59 54 60 51 61 6 62 7 63 8 64
REMARK SMILES IDX 9 65 10 66 11 67 12 68 13 69 23 70 14 71 22 72 15 73 20 74
REMARK SMILES IDX 16 75 19 76 21 77 17 78 18 79
REMARK H PARENT 71 23 45 34 19 80 18 81
REMARK Flexibility Score: inf
ROOT
ATOM      1  C   UNL A   1      32.827  35.813  31.441  1.00  0.00     0.202 C 
ENDROOT
BRANCH   1   2
ATOM      2  C   UNL A   1      33.142  36.385  30.061  1.00  0.00     0.261 C 
BRANCH   2   3
ATOM      3  O   UNL A   1      32.638  35.573  28.995  1.00  0.00    -0.460 OA
BRANCH   3   4
ATOM      4  C   UNL A   1      33.123  34.417  28.493  1.00  0.00     0.338 C 
ATOM      5  O   UNL A   1      32.461  33.866  27.610  1.00  0.00    -0.246 OA
BRANCH   4   6
ATOM      6  C   UNL A   1      34.378  33.723  28.948  1.00  0.00     0.060 A 
ATOM      7  C   UNL A   1      35.564  34.121  28.300  1.00  0.00     0.016 A 
ATOM      8  C   UNL A   1      34.485  32.732  29.929  1.00  0.00     0.016 A 
ATOM      9  C   UNL A   1      36.794  33.533  28.602  1.00  0.00     0.010 A 
ATOM     10  C   UNL A   1      35.704  32.123  30.224  1.00  0.00     0.010 A 
ATOM     11  C   UNL A   1      36.862  32.526  29.566  1.00  0.00    -0.014 A 
BRANCH  11  12
ATOM     12  C   UNL A   1      38.159  31.989  30.004  1.00  0.00     0.031 A 
ATOM     13  C   UNL A   1      39.017  32.735  30.970  1.00  0.00     0.074 A 
ATOM     14  C   UNL A   1      38.559  30.834  29.447  1.00  0.00     0.049 A 
ATOM     15  N   UNL A   1      40.127  32.353  31.545  1.00  0.00    -0.248 NA
ATOM     16  C   UNL A   1      38.585  34.094  31.329  1.00  0.00     0.031 C 
ATOM     17  C   UNL A   1      37.817  30.098  28.419  1.00  0.00     0.029 A 
ATOM     18  N   UNL A   1      39.681  30.085  29.653  1.00  0.00    -0.354 N 
ATOM     19  C   UNL A   1      40.503  33.401  32.373  1.00  0.00     0.074 A 
ATOM     20  C   UNL A   1      39.543  34.466  32.170  1.00  0.00     0.031 C 
ATOM     21  C   UNL A   1      38.505  28.997  28.086  1.00  0.00     0.029 A 
ATOM     22  C   UNL A   1      39.724  28.949  28.883  1.00  0.00     0.049 A 
ATOM     23  H   UNL A   1      40.390  30.333  30.289  1.00  0.00     0.167 HD
ATOM     24  C   UNL A   1      41.545  33.447  33.238  1.00  0.00     0.037 A 
ATOM     25  C   UNL A   1      40.641  27.969  28.852  1.00  0.00     0.037 A 
ATOM     26  C   UNL A   1      42.521  32.391  33.362  1.00  0.00     0.049 A 
ATOM     27  C   UNL A   1      41.780  28.038  29.825  1.00  0.00     0.074 A 
ATOM     28  C   UNL A   1      43.614  32.308  34.206  1.00  0.00     0.029 A 
ATOM     29  N   UNL A   1      42.525  31.233  32.592  1.00  0.00    -0.354 N 
ATOM     30  N   UNL A   1      42.069  28.979  30.693  1.00  0.00    -0.248 NA
ATOM     31  C   UNL A   1      42.695  26.894  29.843  1.00  0.00     0.031 C 
ATOM     32  C   UNL A   1      44.298  31.119  33.919  1.00  0.00     0.029 A 
ATOM     33  C   UNL A   1      43.606  30.437  32.931  1.00  0.00     0.049 A 
ATOM     34  H   UNL A   1      41.856  31.011  31.904  1.00  0.00     0.167 HD
ATOM     35  C   UNL A   1      43.190  28.535  31.375  1.00  0.00     0.074 A 
ATOM     36  C   UNL A   1      43.504  27.223  30.840  1.00  0.00     0.031 C 
ATOM     37  C   UNL A   1      43.903  29.148  32.354  1.00  0.00     0.037 A 
BRANCH  24  38
ATOM     38  C   UNL A   1      41.663  34.663  34.112  1.00  0.00     0.057 A 
ATOM     39  C   UNL A   1      42.307  35.825  33.668  1.00  0.00     0.134 A 
ATOM     40  C   UNL A   1      41.156  34.673  35.421  1.00  0.00     0.134 A 
ATOM     41  F   UNL A   1      42.823  35.889  32.432  1.00  0.00    -0.206 F 
ATOM     42  C   UNL A   1      42.438  36.949  34.490  1.00  0.00     0.040 A 
ATOM     43  C   UNL A   1      41.260  35.798  36.242  1.00  0.00     0.040 A 
ATOM     44  F   UNL A   1      40.521  33.597  35.911  1.00  0.00    -0.206 F 
ATOM     45  C   UNL A   1      41.908  36.939  35.778  1.00  0.00     0.006 A 
ENDBRANCH  24  38
BRANCH  25  46
ATOM     46  C   UNL A   1      40.466  26.825  27.927  1.00  0.00     0.057 A 
ATOM     47  C   UNL A   1      41.093  26.800  26.675  1.00  0.00     0.134 A 
ATOM     48  C   UNL A   1      39.646  25.742  28.261  1.00  0.00     0.134 A 
ATOM     49  F   UNL A   1      41.874  27.820  26.287  1.00  0.00    -0.206 F 
ATOM     50  C   UNL A   1      40.913  25.737  25.790  1.00  0.00     0.040 A 
ATOM     51  C   UNL A   1      39.476  24.660  27.395  1.00  0.00     0.040 A 
ATOM     52  F   UNL A   1      39.020  25.709  29.446  1.00  0.00    -0.206 F 
ATOM     53  C   UNL A   1      40.109  24.658  26.153  1.00  0.00     0.006 A 
ENDBRANCH  25  46
BRANCH  37  54
ATOM     54  C   UNL A   1      45.077  28.383  32.887  1.00  0.00     0.057 A 
ATOM     55  C   UNL A   1      44.918  27.474  33.939  1.00  0.00     0.134 A 
ATOM     56  C   UNL A   1      46.356  28.514  32.328  1.00  0.00     0.134 A 
ATOM     57  F   UNL A   1      43.722  27.307  34.522  1.00  0.00    -0.206 F 
ATOM     58  C   UNL A   1      45.986  26.706  34.404  1.00  0.00     0.040 A 
ATOM     59  C   UNL A   1      47.424  27.728  32.764  1.00  0.00     0.040 A 
ATOM     60  F   UNL A   1      46.569  29.355  31.305  1.00  0.00    -0.206 F 
ATOM     61  C   UNL A   1      47.240  26.821  33.805  1.00  0.00     0.006 A 
ENDBRANCH  37  54
ENDBRANCH  11  12
ENDBRANCH   4   6
ENDBRANCH   3   4
ENDBRANCH   2   3
ENDBRANCH   1   2
BRANCH   1  62
ATOM     62  O   UNL A   1      33.903  35.858  32.375  1.00  0.00    -0.374 OA
BRANCH  62  63
ATOM     63  C   UNL A   1      34.240  34.594  32.956  1.00  0.00     0.202 C 
BRANCH  63  64
ATOM     64  C   UNL A   1      35.242  34.721  34.113  1.00  0.00     0.261 C 
BRANCH  64  65
ATOM     65  O   UNL A   1      35.550  33.434  34.678  1.00  0.00    -0.460 OA
BRANCH  65  66
ATOM     66  C   UNL A   1      36.814  33.279  35.146  1.00  0.00     0.338 C 
ATOM     67  O   UNL A   1      37.334  33.828  36.100  1.00  0.00    -0.246 OA
BRANCH  66  68
ATOM     68  C   UNL A   1      37.407  32.122  34.445  1.00  0.00     0.060 A 
ATOM     69  C   UNL A   1      36.717  31.434  33.445  1.00  0.00     0.016 A 
ATOM     70  C   UNL A   1      38.654  31.667  34.887  1.00  0.00     0.030 A 
ATOM     71  C   UNL A   1      37.288  30.286  32.883  1.00  0.00     0.015 A 
ATOM     72  C   UNL A   1      39.168  30.465  34.398  1.00  0.00     0.055 A 
ATOM     73  C   UNL A   1      38.509  29.794  33.371  1.00  0.00     0.054 A 
ATOM     74  C   UNL A   1      40.351  29.869  35.046  1.00  0.00     0.270 A 
ATOM     75  C   UNL A   1      39.107  28.574  32.796  1.00  0.00     0.270 A 
ATOM     76  N   UNL A   1      40.829  28.704  34.501  1.00  0.00    -0.263 N 
ATOM     77  O   UNL A   1      40.838  30.366  36.055  1.00  0.00    -0.267 OA
ATOM     78  O   UNL A   1      38.603  28.014  31.830  1.00  0.00    -0.267 OA
ATOM     79  N   UNL A   1      40.261  28.112  33.384  1.00  0.00    -0.263 N 
ATOM     80  H   UNL A   1      41.607  28.272  34.921  1.00  0.00     0.191 HD
ATOM     81  H   UNL A   1      40.703  27.324  32.993  1.00  0.00     0.191 HD
ENDBRANCH  66  68
ENDBRANCH  65  66
ENDBRANCH  64  65
ENDBRANCH  63  64
ENDBRANCH  62  63
ENDBRANCH   1  62
TORSDOF 14
ENDMDL
MODEL 2
REMARK VINA RESULT:      -9.6      4.835     10.912
REMARK SMILES O=C(OCCOCCOC(=O)c1ccc2c(=O)[nH][nH]c(=O)c2c1)c1ccc(-c2c3nc(c(-c4c(F)cccc4F)c4ccc([nH]4)c(-c4c(F)cccc4F)c4nc(c(-c5c(F)cccc5F)c5ccc2[nH]5)C=C4)C=C3)cc1
REMARK SMILES IDX 5 1 4 2 3 3 2 4 1 5 24 6 25 7 77 8 26 9 76 10 27 11 28 12
REMARK SMILES IDX 29 13 70 14 30 15 75 16 69 17 71 18 31 19 74 20 68 21 67 22
REMARK SMILES IDX 32 24 58 25 41 26 57 27 42 28 45 29 56 30 72 31 43 32 44 33
REMARK SMILES IDX 55 35 73 36 46 37 33 38 34 39 39 40 35 41 36 42 38 43 40 44
REMARK SMILES IDX 37 45 59 46 60 47 65 48 61 49 62 50 64 51 66 52 63 53 47 54
REMARK SMILES IDX 48 55 53 56 49 57 50 58 52 59 54 60 51 61 6 62 7 63 8 64
REMARK SMILES IDX 9 65 10 66 11 67 12 68 13 69 23 70 14 71 22 72 15 73 20 74
REMARK SMILES IDX 16 75 19 76 21 77 17 78 18 79
REMARK H PARENT 71 23 45 34 19 80 18 81
REMARK Flexibility Score: inf
ROOT
ATOM      1  C   UNL A   1      43.897  19.384  24.905  1.00  0.00     0.202 C 
ENDROOT
BRANCH   1   2
ATOM      2  C   UNL A   1      43.436  18.389  25.966  1.00  0.00     0.261 C 
BRANCH   2   3
ATOM      3  O   UNL A   1      42.023  18.436  26.196  1.00  0.00    -0.460 OA
BRANCH   3   4
ATOM      4  C   UNL A   1      41.176  19.486  26.130  1.00  0.00     0.338 C 
ATOM      5  O   UNL A   1      40.068  19.283  25.629  1.00  0.00    -0.246 OA
BRANCH   4   6
ATOM      6  C   UNL A   1      41.485  20.889  26.576  1.00  0.00     0.060 A 
ATOM      7  C   UNL A   1      41.566  21.082  27.970  1.00  0.00     0.016 A 
ATOM      8  C   UNL A   1      41.689  22.007  25.761  1.00  0.00     0.016 A 
ATOM      9  C   UNL A   1      41.812  22.341  28.520  1.00  0.00     0.010 A 
ATOM     10  C   UNL A   1      41.915  23.274  26.300  1.00  0.00     0.010 A 
ATOM     11  C   UNL A   1      41.983  23.443  27.680  1.00  0.00    -0.014 A 
BRANCH  11  12
ATOM     12  C   UNL A   1      42.382  24.749  28.222  1.00  0.00     0.031 A 
ATOM     13  C   UNL A   1      43.796  25.025  28.611  1.00  0.00     0.074 A 
ATOM     14  C   UNL A   1      41.406  25.654  28.409  1.00  0.00     0.049 A 
ATOM     15  N   UNL A   1      44.335  26.153  28.995  1.00  0.00    -0.248 NA
ATOM     16  C   UNL A   1      44.726  23.887  28.583  1.00  0.00     0.031 C 
ATOM     17  C   UNL A   1      39.983  25.419  28.146  1.00  0.00     0.029 A 
ATOM     18  N   UNL A   1      41.455  26.937  28.871  1.00  0.00    -0.354 N 
ATOM     19  C   UNL A   1      45.678  25.875  29.206  1.00  0.00     0.074 A 
ATOM     20  C   UNL A   1      45.857  24.456  28.980  1.00  0.00     0.031 C 
ATOM     21  C   UNL A   1      39.293  26.528  28.448  1.00  0.00     0.029 A 
ATOM     22  C   UNL A   1      40.226  27.546  28.912  1.00  0.00     0.049 A 
ATOM     23  H   UNL A   1      42.289  27.383  29.147  1.00  0.00     0.167 HD
ATOM     24  C   UNL A   1      46.666  26.742  29.535  1.00  0.00     0.037 A 
ATOM     25  C   UNL A   1      39.902  28.801  29.265  1.00  0.00     0.037 A 
ATOM     26  C   UNL A   1      46.435  28.138  29.818  1.00  0.00     0.049 A 
ATOM     27  C   UNL A   1      41.014  29.743  29.616  1.00  0.00     0.074 A 
ATOM     28  C   UNL A   1      47.348  29.123  30.151  1.00  0.00     0.029 A 
ATOM     29  N   UNL A   1      45.181  28.740  29.823  1.00  0.00    -0.354 N 
ATOM     30  N   UNL A   1      42.303  29.507  29.701  1.00  0.00    -0.248 NA
ATOM     31  C   UNL A   1      40.634  31.133  29.881  1.00  0.00     0.031 C 
ATOM     32  C   UNL A   1      46.643  30.310  30.392  1.00  0.00     0.029 A 
ATOM     33  C   UNL A   1      45.295  30.078  30.163  1.00  0.00     0.049 A 
ATOM     34  H   UNL A   1      44.335  28.282  29.615  1.00  0.00     0.167 HD
ATOM     35  C   UNL A   1      42.892  30.721  30.011  1.00  0.00     0.074 A 
ATOM     36  C   UNL A   1      41.819  31.698  30.064  1.00  0.00     0.031 C 
ATOM     37  C   UNL A   1      44.199  31.013  30.235  1.00  0.00     0.037 A 
BRANCH  24  38
ATOM     38  C   UNL A   1      48.068  26.204  29.587  1.00  0.00     0.057 A 
ATOM     39  C   UNL A   1      48.598  25.653  30.760  1.00  0.00     0.134 A 
ATOM     40  C   UNL A   1      48.911  26.257  28.466  1.00  0.00     0.134 A 
ATOM     41  F   UNL A   1      47.854  25.574  31.873  1.00  0.00    -0.206 F 
ATOM     42  C   UNL A   1      49.910  25.173  30.816  1.00  0.00     0.040 A 
ATOM     43  C   UNL A   1      50.216  25.759  28.503  1.00  0.00     0.040 A 
ATOM     44  F   UNL A   1      48.469  26.765  27.306  1.00  0.00    -0.206 F 
ATOM     45  C   UNL A   1      50.721  25.220  29.684  1.00  0.00     0.006 A 
ENDBRANCH  24  38
BRANCH  25  46
ATOM     46  C   UNL A   1      38.487  29.236  29.224  1.00  0.00     0.057 A 
ATOM     47  C   UNL A   1      37.897  29.683  28.035  1.00  0.00     0.134 A 
ATOM     48  C   UNL A   1      37.698  29.245  30.379  1.00  0.00     0.134 A 
ATOM     49  F   UNL A   1      38.608  29.721  26.898  1.00  0.00    -0.206 F 
ATOM     50  C   UNL A   1      36.572  30.117  27.996  1.00  0.00     0.040 A 
ATOM     51  C   UNL A   1      36.363  29.654  30.350  1.00  0.00     0.040 A 
ATOM     52  F   UNL A   1      38.207  28.828  31.548  1.00  0.00    -0.206 F 
ATOM     53  C   UNL A   1      35.798  30.095  29.155  1.00  0.00     0.006 A 
ENDBRANCH  25  46
BRANCH  37  54
ATOM     54  C   UNL A   1      44.505  32.447  30.551  1.00  0.00     0.057 A 
ATOM     55  C   UNL A   1      44.486  32.906  31.872  1.00  0.00     0.134 A 
ATOM     56  C   UNL A   1      44.862  33.361  29.549  1.00  0.00     0.134 A 
ATOM     57  F   UNL A   1      44.145  32.083  32.876  1.00  0.00    -0.206 F 
ATOM     58  C   UNL A   1      44.831  34.219  32.190  1.00  0.00     0.040 A 
ATOM     59  C   UNL A   1      45.240  34.668  29.860  1.00  0.00     0.040 A 
ATOM     60  F   UNL A   1      44.918  32.977  28.265  1.00  0.00    -0.206 F 
ATOM     61  C   UNL A   1      45.225  35.100  31.184  1.00  0.00     0.006 A 
ENDBRANCH  37  54
ENDBRANCH  11  12
ENDBRANCH   4   6
ENDBRANCH   3   4
ENDBRANCH   2   3
ENDBRANCH   1   2
BRANCH   1  62
ATOM     62  O   UNL A   1      44.824  20.367  25.358  1.00  0.00    -0.374 OA
BRANCH  62  63
ATOM     63  C   UNL A   1      45.116  21.395  24.406  1.00  0.00     0.202 C 
BRANCH  63  64
ATOM     64  C   UNL A   1      46.062  22.468  24.963  1.00  0.00     0.261 C 
BRANCH  64  65
ATOM     65  O   UNL A   1      45.841  23.740  24.324  1.00  0.00    -0.460 OA
BRANCH  65  66
ATOM     66  C   UNL A   1      46.473  24.802  24.882  1.00  0.00     0.338 C 
ATOM     67  O   UNL A   1      47.666  25.044  24.894  1.00  0.00    -0.246 OA
BRANCH  66  68
ATOM     68  C   UNL A   1      45.437  25.777  25.275  1.00  0.00     0.060 A 
ATOM     69  C   UNL A   1      44.082  25.561  25.010  1.00  0.00     0.016 A 
ATOM     70  C   UNL A   1      45.864  26.985  25.838  1.00  0.00     0.030 A 
ATOM     71  C   UNL A   1      43.154  26.562  25.318  1.00  0.00     0.015 A 
ATOM     72  C   UNL A   1      44.947  28.017  26.043  1.00  0.00     0.055 A 
ATOM     73  C   UNL A   1      43.591  27.798  25.822  1.00  0.00     0.054 A 
ATOM     74  C   UNL A   1      45.442  29.361  26.396  1.00  0.00     0.270 A 
ATOM     75  C   UNL A   1      42.619  28.865  26.131  1.00  0.00     0.270 A 
ATOM     76  N   UNL A   1      44.493  30.327  26.617  1.00  0.00    -0.263 N 
ATOM     77  O   UNL A   1      46.643  29.606  26.430  1.00  0.00    -0.267 OA
ATOM     78  O   UNL A   1      41.413  28.672  26.038  1.00  0.00    -0.267 OA
ATOM     79  N   UNL A   1      43.133  30.072  26.542  1.00  0.00    -0.263 N 
ATOM     80  H   UNL A   1      44.792  31.239  26.838  1.00  0.00     0.191 HD
ATOM     81  H   UNL A   1      42.506  30.787  26.795  1.00  0.00     0.191 HD
ENDBRANCH  66  68
ENDBRANCH  65  66
ENDBRANCH  64  65
ENDBRANCH  63  64
ENDBRANCH  62  63
ENDBRANCH   1  62
TORSDOF 14
ENDMDL
MODEL 3
REMARK VINA RESULT:      -8.5      7.442     13.488
REMARK SMILES O=C(OCCOCCOC(=O)c1ccc2c(=O)[nH][nH]c(=O)c2c1)c1ccc(-c2c3nc(c(-c4c(F)cccc4F)c4ccc([nH]4)c(-c4c(F)cccc4F)c4nc(c(-c5c(F)cccc5F)c5ccc2[nH]5)C=C4)C=C3)cc1
REMARK SMILES IDX 5 1 4 2 3 3 2 4 1 5 24 6 25 7 77 8 26 9 76 10 27 11 28 12
REMARK SMILES IDX 29 13 70 14 30 15 75 16 69 17 71 18 31 19 74 20 68 21 67 22
REMARK SMILES IDX 32 24 58 25 41 26 57 27 42 28 45 29 56 30 72 31 43 32 44 33
REMARK SMILES IDX 55 35 73 36 46 37 33 38 34 39 39 40 35 41 36 42 38 43 40 44
REMARK SMILES IDX 37 45 59 46 60 47 65 48 61 49 62 50 64 51 66 52 63 53 47 54
REMARK SMILES IDX 48 55 53 56 49 57 50 58 52 59 54 60 51 61 6 62 7 63 8 64
REMARK SMILES IDX 9 65 10 66 11 67 12 68 13 69 23 70 14 71 22 72 15 73 20 74
REMARK SMILES IDX 16 75 19 76 21 77 17 78 18 79
REMARK H PARENT 71 23 45 34 19 80 18 81
REMARK Flexibility Score: inf
ROOT
ATOM      1  C   UNL A   1      46.458  20.890  37.252  1.00  0.00     0.202 C 
ENDROOT
BRANCH   1   2
ATOM      2  C   UNL A   1      46.013  22.267  37.738  1.00  0.00     0.261 C 
BRANCH   2   3
ATOM      3  O   UNL A   1      46.498  23.332  36.913  1.00  0.00    -0.460 OA
BRANCH   3   4
ATOM      4  C   UNL A   1      46.292  24.663  37.018  1.00  0.00     0.338 C 
ATOM      5  O   UNL A   1      46.801  25.235  37.984  1.00  0.00    -0.246 OA
BRANCH   4   6
ATOM      6  C   UNL A   1      45.461  25.497  36.082  1.00  0.00     0.060 A 
ATOM      7  C   UNL A   1      44.203  24.961  35.741  1.00  0.00     0.016 A 
ATOM      8  C   UNL A   1      45.807  26.729  35.518  1.00  0.00     0.016 A 
ATOM      9  C   UNL A   1      43.346  25.615  34.854  1.00  0.00     0.010 A 
ATOM     10  C   UNL A   1      44.969  27.382  34.615  1.00  0.00     0.010 A 
ATOM     11  C   UNL A   1      43.734  26.830  34.286  1.00  0.00    -0.014 A 
BRANCH  11  12
ATOM     12  C   UNL A   1      42.798  27.608  33.462  1.00  0.00     0.031 A 
ATOM     13  C   UNL A   1      42.730  27.421  31.983  1.00  0.00     0.074 A 
ATOM     14  C   UNL A   1      42.058  28.535  34.093  1.00  0.00     0.049 A 
ATOM     15  N   UNL A   1      41.887  27.940  31.130  1.00  0.00    -0.248 NA
ATOM     16  C   UNL A   1      43.749  26.551  31.377  1.00  0.00     0.031 C 
ATOM     17  C   UNL A   1      42.144  28.844  35.524  1.00  0.00     0.029 A 
ATOM     18  N   UNL A   1      41.105  29.390  33.621  1.00  0.00    -0.354 N 
ATOM     19  C   UNL A   1      42.238  27.423  29.891  1.00  0.00     0.074 A 
ATOM     20  C   UNL A   1      43.418  26.607  30.093  1.00  0.00     0.031 C 
ATOM     21  C   UNL A   1      41.272  29.821  35.814  1.00  0.00     0.029 A 
ATOM     22  C   UNL A   1      40.566  30.193  34.595  1.00  0.00     0.049 A 
ATOM     23  H   UNL A   1      40.831  29.428  32.676  1.00  0.00     0.167 HD
ATOM     24  C   UNL A   1      41.609  27.601  28.704  1.00  0.00     0.037 A 
ATOM     25  C   UNL A   1      39.588  31.109  34.507  1.00  0.00     0.037 A 
ATOM     26  C   UNL A   1      40.475  28.476  28.531  1.00  0.00     0.049 A 
ATOM     27  C   UNL A   1      38.901  31.282  33.185  1.00  0.00     0.074 A 
ATOM     28  C   UNL A   1      39.740  28.736  27.388  1.00  0.00     0.029 A 
ATOM     29  N   UNL A   1      39.926  29.257  29.542  1.00  0.00    -0.354 N 
ATOM     30  N   UNL A   1      39.161  30.701  32.036  1.00  0.00    -0.248 NA
ATOM     31  C   UNL A   1      37.763  32.204  33.155  1.00  0.00     0.031 C 
ATOM     32  C   UNL A   1      38.773  29.701  27.700  1.00  0.00     0.029 A 
ATOM     33  C   UNL A   1      38.871  30.007  29.048  1.00  0.00     0.049 A 
ATOM     34  H   UNL A   1      40.241  29.274  30.475  1.00  0.00     0.167 HD
ATOM     35  C   UNL A   1      38.208  31.173  31.148  1.00  0.00     0.074 A 
ATOM     36  C   UNL A   1      37.345  32.061  31.905  1.00  0.00     0.031 C 
ATOM     37  C   UNL A   1      38.053  30.904  29.827  1.00  0.00     0.037 A 
BRANCH  24  38
ATOM     38  C   UNL A   1      42.127  26.827  27.525  1.00  0.00     0.057 A 
ATOM     39  C   UNL A   1      43.002  27.405  26.597  1.00  0.00     0.134 A 
ATOM     40  C   UNL A   1      41.732  25.501  27.293  1.00  0.00     0.134 A 
ATOM     41  F   UNL A   1      43.419  28.670  26.748  1.00  0.00    -0.206 F 
ATOM     42  C   UNL A   1      43.466  26.692  25.486  1.00  0.00     0.040 A 
ATOM     43  C   UNL A   1      42.207  24.772  26.200  1.00  0.00     0.040 A 
ATOM     44  F   UNL A   1      40.900  24.880  28.144  1.00  0.00    -0.206 F 
ATOM     45  C   UNL A   1      43.073  25.370  25.289  1.00  0.00     0.006 A 
ENDBRANCH  24  38
BRANCH  25  46
ATOM     46  C   UNL A   1      39.168  31.858  35.714  1.00  0.00     0.057 A 
ATOM     47  C   UNL A   1      39.662  33.141  35.983  1.00  0.00     0.134 A 
ATOM     48  C   UNL A   1      38.284  31.299  36.643  1.00  0.00     0.134 A 
ATOM     49  F   UNL A   1      40.531  33.722  35.142  1.00  0.00    -0.206 F 
ATOM     50  C   UNL A   1      39.289  33.841  37.130  1.00  0.00     0.040 A 
ATOM     51  C   UNL A   1      37.883  31.998  37.783  1.00  0.00     0.040 A 
ATOM     52  F   UNL A   1      37.777  30.075  36.439  1.00  0.00    -0.206 F 
ATOM     53  C   UNL A   1      38.389  33.273  38.030  1.00  0.00     0.006 A 
ENDBRANCH  25  46
BRANCH  37  54
ATOM     54  C   UNL A   1      36.903  31.588  29.150  1.00  0.00     0.057 A 
ATOM     55  C   UNL A   1      37.014  32.916  28.724  1.00  0.00     0.134 A 
ATOM     56  C   UNL A   1      35.702  30.916  28.880  1.00  0.00     0.134 A 
ATOM     57  F   UNL A   1      38.133  33.617  28.958  1.00  0.00    -0.206 F 
ATOM     58  C   UNL A   1      35.978  33.547  28.035  1.00  0.00     0.040 A 
ATOM     59  C   UNL A   1      34.672  31.527  28.165  1.00  0.00     0.040 A 
ATOM     60  F   UNL A   1      35.542  29.636  29.246  1.00  0.00    -0.206 F 
ATOM     61  C   UNL A   1      34.809  32.847  27.740  1.00  0.00     0.006 A 
ENDBRANCH  37  54
ENDBRANCH  11  12
ENDBRANCH   4   6
ENDBRANCH   3   4
ENDBRANCH   2   3
ENDBRANCH   1   2
BRANCH   1  62
ATOM     62  O   UNL A   1      45.799  19.788  37.870  1.00  0.00    -0.374 OA
BRANCH  62  63
ATOM     63  C   UNL A   1      46.515  19.201  38.962  1.00  0.00     0.202 C 
BRANCH  63  64
ATOM     64  C   UNL A   1      46.057  17.769  39.270  1.00  0.00     0.261 C 
BRANCH  64  65
ATOM     65  O   UNL A   1      44.645  17.721  39.546  1.00  0.00    -0.460 OA
BRANCH  65  66
ATOM     66  C   UNL A   1      43.990  16.621  39.098  1.00  0.00     0.338 C 
ATOM     67  O   UNL A   1      44.090  16.078  38.013  1.00  0.00    -0.246 OA
BRANCH  66  68
ATOM     68  C   UNL A   1      43.294  16.020  40.252  1.00  0.00     0.060 A 
ATOM     69  C   UNL A   1      43.539  16.440  41.561  1.00  0.00     0.016 A 
ATOM     70  C   UNL A   1      42.445  14.935  40.004  1.00  0.00     0.030 A 
ATOM     71  C   UNL A   1      42.923  15.769  42.624  1.00  0.00     0.015 A 
ATOM     72  C   UNL A   1      41.920  14.206  41.072  1.00  0.00     0.055 A 
ATOM     73  C   UNL A   1      42.123  14.641  42.378  1.00  0.00     0.054 A 
ATOM     74  C   UNL A   1      41.239  12.925  40.805  1.00  0.00     0.270 A 
ATOM     75  C   UNL A   1      41.487  13.918  43.496  1.00  0.00     0.270 A 
ATOM     76  N   UNL A   1      40.715  12.270  41.891  1.00  0.00    -0.263 N 
ATOM     77  O   UNL A   1      41.200  12.451  39.675  1.00  0.00    -0.267 OA
ATOM     78  O   UNL A   1      41.567  14.328  44.647  1.00  0.00    -0.267 OA
ATOM     79  N   UNL A   1      40.788  12.777  43.179  1.00  0.00    -0.263 N 
ATOM     80  H   UNL A   1      40.269  11.404  41.748  1.00  0.00     0.191 HD
ATOM     81  H   UNL A   1      40.318  12.299  43.899  1.00  0.00     0.191 HD
ENDBRANCH  66  68
ENDBRANCH  65  66
ENDBRANCH  64  65
ENDBRANCH  63  64
ENDBRANCH  62  63
ENDBRANCH   1  62
TORSDOF 14
ENDMDL
