MODEL 1
REMARK VINA RESULT:     -10.6      0.000      0.000
REMARK SMILES O=C(OCCOCCOC(=O)[C@H](Cc1ccc(O)cc1)NC(=O)c1ccc(Cl)s1)c1ccc(-c2c3nc(c(-c4c(F)cccc4F)c4ccc([nH]4)c(-c4c(F)cccc4F)c4nc(c(-c5c(F)cccc5F)c5ccc2[nH]5)C=C4)C=C3)cc1
REMARK SMILES IDX 7 1 6 2 5 3 4 4 3 5 2 6 1 7 30 8 31 9 83 10 32 11 82 12
REMARK SMILES IDX 33 13 34 14 35 15 76 16 36 17 81 18 75 19 77 20 37 21 80 22
REMARK SMILES IDX 74 23 73 24 38 26 64 27 47 28 63 29 48 30 51 31 62 32 78 33
REMARK SMILES IDX 49 34 50 35 61 37 79 38 52 39 39 40 40 41 45 42 41 43 42 44
REMARK SMILES IDX 44 45 46 46 43 47 65 48 66 49 71 50 67 51 68 52 70 53 72 54
REMARK SMILES IDX 69 55 53 56 54 57 59 58 55 59 56 60 58 61 60 62 57 63 8 64
REMARK SMILES IDX 9 65 10 66 11 67 12 68 21 69 22 70 23 72 24 73 25 74 29 75
REMARK SMILES IDX 26 76 27 77 28 78 13 79 14 80 15 81 20 82 16 83 19 84 17 85
REMARK SMILES IDX 18 86
REMARK H PARENT 77 25 51 36 21 71 18 87
REMARK Flexibility Score: inf
ROOT
ATOM      1  C   UNL A   1      38.421  22.279  26.044  1.00  0.00     0.202 C 
ENDROOT
BRANCH   1   2
ATOM      2  O   UNL A   1      39.435  21.334  25.686  1.00  0.00    -0.374 OA
BRANCH   2   3
ATOM      3  C   UNL A   1      40.428  21.064  26.677  1.00  0.00     0.202 C 
BRANCH   3   4
ATOM      4  C   UNL A   1      41.863  21.267  26.197  1.00  0.00     0.261 C 
BRANCH   4   5
ATOM      5  O   UNL A   1      41.926  22.419  25.344  1.00  0.00    -0.460 OA
BRANCH   5   6
ATOM      6  C   UNL A   1      42.612  23.565  25.553  1.00  0.00     0.338 C 
ATOM      7  O   UNL A   1      43.528  23.851  24.785  1.00  0.00    -0.246 OA
BRANCH   6   8
ATOM      8  C   UNL A   1      42.273  24.545  26.627  1.00  0.00     0.060 A 
ATOM      9  C   UNL A   1      41.238  24.407  27.557  1.00  0.00     0.016 A 
ATOM     10  C   UNL A   1      43.135  25.646  26.757  1.00  0.00     0.016 A 
ATOM     11  C   UNL A   1      41.028  25.345  28.557  1.00  0.00     0.010 A 
ATOM     12  C   UNL A   1      42.945  26.587  27.768  1.00  0.00     0.010 A 
ATOM     13  C   UNL A   1      41.878  26.439  28.659  1.00  0.00    -0.014 A 
BRANCH  13  14
ATOM     14  C   UNL A   1      41.559  27.480  29.641  1.00  0.00     0.031 A 
ATOM     15  C   UNL A   1      42.393  27.556  30.877  1.00  0.00     0.074 A 
ATOM     16  C   UNL A   1      40.594  28.372  29.375  1.00  0.00     0.049 A 
ATOM     17  N   UNL A   1      42.231  28.293  31.939  1.00  0.00    -0.248 NA
ATOM     18  C   UNL A   1      43.579  26.683  30.915  1.00  0.00     0.031 C 
ATOM     19  C   UNL A   1      39.827  28.436  28.129  1.00  0.00     0.029 A 
ATOM     20  N   UNL A   1      40.094  29.392  30.134  1.00  0.00    -0.354 N 
ATOM     21  C   UNL A   1      43.270  27.947  32.790  1.00  0.00     0.074 A 
ATOM     22  C   UNL A   1      44.067  26.947  32.116  1.00  0.00     0.031 C 
ATOM     23  C   UNL A   1      38.939  29.439  28.217  1.00  0.00     0.029 A 
ATOM     24  C   UNL A   1      39.036  30.036  29.545  1.00  0.00     0.049 A 
ATOM     25  H   UNL A   1      40.456  29.640  31.016  1.00  0.00     0.167 HD
ATOM     26  C   UNL A   1      43.510  28.413  34.035  1.00  0.00     0.037 A 
ATOM     27  C   UNL A   1      38.210  30.968  30.055  1.00  0.00     0.037 A 
ATOM     28  C   UNL A   1      42.678  29.393  34.676  1.00  0.00     0.049 A 
ATOM     29  C   UNL A   1      38.444  31.418  31.470  1.00  0.00     0.074 A 
ATOM     30  C   UNL A   1      42.762  29.902  35.958  1.00  0.00     0.029 A 
ATOM     31  N   UNL A   1      41.592  30.011  34.065  1.00  0.00    -0.354 N 
ATOM     32  N   UNL A   1      39.381  31.040  32.308  1.00  0.00    -0.248 NA
ATOM     33  C   UNL A   1      37.504  32.402  32.019  1.00  0.00     0.031 C 
ATOM     34  C   UNL A   1      41.704  30.803  36.132  1.00  0.00     0.029 A 
ATOM     35  C   UNL A   1      40.988  30.886  34.946  1.00  0.00     0.049 A 
ATOM     36  H   UNL A   1      41.298  29.848  33.140  1.00  0.00     0.167 HD
ATOM     37  C   UNL A   1      39.156  31.745  33.481  1.00  0.00     0.074 A 
ATOM     38  C   UNL A   1      37.994  32.583  33.239  1.00  0.00     0.031 C 
ATOM     39  C   UNL A   1      39.838  31.707  34.652  1.00  0.00     0.037 A 
BRANCH  26  40
ATOM     40  C   UNL A   1      44.650  27.787  34.777  1.00  0.00     0.057 A 
ATOM     41  C   UNL A   1      44.519  26.575  35.466  1.00  0.00     0.134 A 
ATOM     42  C   UNL A   1      45.879  28.454  34.870  1.00  0.00     0.134 A 
ATOM     43  F   UNL A   1      43.356  25.906  35.448  1.00  0.00    -0.206 F 
ATOM     44  C   UNL A   1      45.557  26.065  36.249  1.00  0.00     0.040 A 
ATOM     45  C   UNL A   1      46.931  27.943  35.632  1.00  0.00     0.040 A 
ATOM     46  F   UNL A   1      46.067  29.625  34.245  1.00  0.00    -0.206 F 
ATOM     47  C   UNL A   1      46.767  26.751  36.334  1.00  0.00     0.006 A 
ENDBRANCH  26  40
BRANCH  27  48
ATOM     48  C   UNL A   1      37.077  31.471  29.240  1.00  0.00     0.057 A 
ATOM     49  C   UNL A   1      35.920  30.712  29.052  1.00  0.00     0.134 A 
ATOM     50  C   UNL A   1      37.106  32.754  28.673  1.00  0.00     0.134 A 
ATOM     51  F   UNL A   1      35.836  29.472  29.556  1.00  0.00    -0.206 F 
ATOM     52  C   UNL A   1      34.828  31.208  28.333  1.00  0.00     0.040 A 
ATOM     53  C   UNL A   1      36.015  33.270  27.973  1.00  0.00     0.040 A 
ATOM     54  F   UNL A   1      38.185  33.535  28.823  1.00  0.00    -0.206 F 
ATOM     55  C   UNL A   1      34.871  32.495  27.800  1.00  0.00     0.006 A 
ENDBRANCH  27  48
BRANCH  39  56
ATOM     56  C   UNL A   1      39.365  32.615  35.741  1.00  0.00     0.057 A 
ATOM     57  C   UNL A   1      38.456  32.182  36.713  1.00  0.00     0.134 A 
ATOM     58  C   UNL A   1      39.894  33.905  35.865  1.00  0.00     0.134 A 
ATOM     59  F   UNL A   1      37.911  30.959  36.637  1.00  0.00    -0.206 F 
ATOM     60  C   UNL A   1      38.086  33.007  37.774  1.00  0.00     0.040 A 
ATOM     61  C   UNL A   1      39.545  34.732  36.931  1.00  0.00     0.040 A 
ATOM     62  F   UNL A   1      40.775  34.368  34.966  1.00  0.00    -0.206 F 
ATOM     63  C   UNL A   1      38.639  34.282  37.890  1.00  0.00     0.006 A 
ENDBRANCH  39  56
ENDBRANCH  13  14
ENDBRANCH   6   8
ENDBRANCH   5   6
ENDBRANCH   4   5
ENDBRANCH   3   4
ENDBRANCH   2   3
ENDBRANCH   1   2
BRANCH   1  64
ATOM     64  C   UNL A   1      37.040  21.698  25.732  1.00  0.00     0.261 C 
BRANCH  64  65
ATOM     65  O   UNL A   1      36.140  22.777  25.426  1.00  0.00    -0.462 OA
BRANCH  65  66
ATOM     66  C   UNL A   1      34.845  22.402  25.178  1.00  0.00     0.329 C 
ATOM     67  O   UNL A   1      34.459  21.249  25.049  1.00  0.00    -0.250 OA
BRANCH  66  68
ATOM     68  C   UNL A   1      33.937  23.637  25.299  1.00  0.00     0.197 C 
BRANCH  68  69
ATOM     69  N   UNL A   1      32.960  23.410  26.367  1.00  0.00    -0.338 N 
ATOM     70  C   UNL A   1      31.608  23.649  26.400  1.00  0.00     0.262 C 
ATOM     71  H   UNL A   1      33.332  23.024  27.193  1.00  0.00     0.164 HD
ATOM     72  O   UNL A   1      31.004  23.279  27.405  1.00  0.00    -0.268 OA
BRANCH  70  73
ATOM     73  C   UNL A   1      30.969  24.355  25.308  1.00  0.00     0.093 A 
ATOM     74  C   UNL A   1      30.699  23.957  24.009  1.00  0.00     0.027 A 
ATOM     75  S   UNL A   1      30.339  25.925  25.615  1.00  0.00    -0.118 S 
ATOM     76  C   UNL A   1      30.050  24.977  23.247  1.00  0.00     0.033 A 
ATOM     77  C   UNL A   1      29.797  26.079  24.021  1.00  0.00     0.094 A 
ATOM     78  Cl  UNL A   1      29.003  27.518  23.525  1.00  0.00    -0.072 Cl
ENDBRANCH  70  73
ENDBRANCH  68  69
BRANCH  68  79
ATOM     79  C   UNL A   1      34.731  24.948  25.470  1.00  0.00     0.072 C 
BRANCH  79  80
ATOM     80  C   UNL A   1      34.088  26.092  24.702  1.00  0.00    -0.045 A 
ATOM     81  C   UNL A   1      33.723  25.947  23.354  1.00  0.00     0.007 A 
ATOM     82  C   UNL A   1      33.810  27.305  25.351  1.00  0.00     0.007 A 
ATOM     83  C   UNL A   1      33.078  26.987  22.674  1.00  0.00     0.046 A 
ATOM     84  C   UNL A   1      33.162  28.339  24.674  1.00  0.00     0.046 A 
ATOM     85  C   UNL A   1      32.802  28.174  23.343  1.00  0.00     0.115 A 
BRANCH  85  86
ATOM     86  O   UNL A   1      32.172  29.212  22.723  1.00  0.00    -0.508 OA
ATOM     87  H   UNL A   1      32.039  29.194  21.797  1.00  0.00     0.293 HD
ENDBRANCH  85  86
ENDBRANCH  79  80
ENDBRANCH  68  79
ENDBRANCH  66  68
ENDBRANCH  65  66
ENDBRANCH  64  65
ENDBRANCH   1  64
TORSDOF 19
ENDMDL
MODEL 2
REMARK VINA RESULT:     -10.6      4.071      5.825
REMARK SMILES O=C(OCCOCCOC(=O)[C@H](Cc1ccc(O)cc1)NC(=O)c1ccc(Cl)s1)c1ccc(-c2c3nc(c(-c4c(F)cccc4F)c4ccc([nH]4)c(-c4c(F)cccc4F)c4nc(c(-c5c(F)cccc5F)c5ccc2[nH]5)C=C4)C=C3)cc1
REMARK SMILES IDX 7 1 6 2 5 3 4 4 3 5 2 6 1 7 30 8 31 9 83 10 32 11 82 12
REMARK SMILES IDX 33 13 34 14 35 15 76 16 36 17 81 18 75 19 77 20 37 21 80 22
REMARK SMILES IDX 74 23 73 24 38 26 64 27 47 28 63 29 48 30 51 31 62 32 78 33
REMARK SMILES IDX 49 34 50 35 61 37 79 38 52 39 39 40 40 41 45 42 41 43 42 44
REMARK SMILES IDX 44 45 46 46 43 47 65 48 66 49 71 50 67 51 68 52 70 53 72 54
REMARK SMILES IDX 69 55 53 56 54 57 59 58 55 59 56 60 58 61 60 62 57 63 8 64
REMARK SMILES IDX 9 65 10 66 11 67 12 68 21 69 22 70 23 72 24 73 25 74 29 75
REMARK SMILES IDX 26 76 27 77 28 78 13 79 14 80 15 81 20 82 16 83 19 84 17 85
REMARK SMILES IDX 18 86
REMARK H PARENT 77 25 51 36 21 71 18 87
REMARK Flexibility Score: inf
ROOT
ATOM      1  C   UNL A   1      36.394  20.938  25.415  1.00  0.00     0.202 C 
ENDROOT
BRANCH   1   2
ATOM      2  O   UNL A   1      37.413  20.478  24.521  1.00  0.00    -0.374 OA
BRANCH   2   3
ATOM      3  C   UNL A   1      38.190  19.364  24.964  1.00  0.00     0.202 C 
BRANCH   3   4
ATOM      4  C   UNL A   1      39.244  19.712  26.012  1.00  0.00     0.261 C 
BRANCH   4   5
ATOM      5  O   UNL A   1      40.455  18.996  25.731  1.00  0.00    -0.460 OA
BRANCH   5   6
ATOM      6  C   UNL A   1      41.724  19.391  25.977  1.00  0.00     0.338 C 
ATOM      7  O   UNL A   1      42.639  18.594  25.775  1.00  0.00    -0.246 OA
BRANCH   6   8
ATOM      8  C   UNL A   1      42.088  20.770  26.416  1.00  0.00     0.060 A 
ATOM      9  C   UNL A   1      42.223  21.194  27.742  1.00  0.00     0.016 A 
ATOM     10  C   UNL A   1      42.407  21.682  25.396  1.00  0.00     0.016 A 
ATOM     11  C   UNL A   1      42.617  22.485  28.057  1.00  0.00     0.010 A 
ATOM     12  C   UNL A   1      42.819  22.979  25.701  1.00  0.00     0.010 A 
ATOM     13  C   UNL A   1      42.910  23.381  27.037  1.00  0.00    -0.014 A 
BRANCH  13  14
ATOM     14  C   UNL A   1      43.198  24.774  27.392  1.00  0.00     0.031 A 
ATOM     15  C   UNL A   1      44.620  25.226  27.353  1.00  0.00     0.074 A 
ATOM     16  C   UNL A   1      42.189  25.613  27.666  1.00  0.00     0.049 A 
ATOM     17  N   UNL A   1      45.139  26.356  27.743  1.00  0.00    -0.248 NA
ATOM     18  C   UNL A   1      45.589  24.273  26.785  1.00  0.00     0.031 C 
ATOM     19  C   UNL A   1      40.766  25.270  27.596  1.00  0.00     0.029 A 
ATOM     20  N   UNL A   1      42.204  26.922  28.055  1.00  0.00    -0.354 N 
ATOM     21  C   UNL A   1      46.500  26.238  27.506  1.00  0.00     0.074 A 
ATOM     22  C   UNL A   1      46.727  24.934  26.923  1.00  0.00     0.031 C 
ATOM     23  C   UNL A   1      40.043  26.345  27.949  1.00  0.00     0.029 A 
ATOM     24  C   UNL A   1      40.955  27.420  28.328  1.00  0.00     0.049 A 
ATOM     25  H   UNL A   1      43.028  27.456  28.133  1.00  0.00     0.167 HD
ATOM     26  C   UNL A   1      47.469  27.138  27.782  1.00  0.00     0.037 A 
ATOM     27  C   UNL A   1      40.604  28.598  28.875  1.00  0.00     0.037 A 
ATOM     28  C   UNL A   1      47.201  28.415  28.383  1.00  0.00     0.049 A 
ATOM     29  C   UNL A   1      41.700  29.556  29.249  1.00  0.00     0.074 A 
ATOM     30  C   UNL A   1      48.091  29.393  28.781  1.00  0.00     0.029 A 
ATOM     31  N   UNL A   1      45.925  28.884  28.676  1.00  0.00    -0.354 N 
ATOM     32  N   UNL A   1      42.997  29.420  29.096  1.00  0.00    -0.248 NA
ATOM     33  C   UNL A   1      41.296  30.815  29.883  1.00  0.00     0.031 C 
ATOM     34  C   UNL A   1      47.353  30.440  29.347  1.00  0.00     0.029 A 
ATOM     35  C   UNL A   1      46.002  30.132  29.263  1.00  0.00     0.049 A 
ATOM     36  H   UNL A   1      45.089  28.397  28.491  1.00  0.00     0.167 HD
ATOM     37  C   UNL A   1      43.567  30.577  29.604  1.00  0.00     0.074 A 
ATOM     38  C   UNL A   1      42.469  31.410  30.062  1.00  0.00     0.031 C 
ATOM     39  C   UNL A   1      44.875  30.925  29.691  1.00  0.00     0.037 A 
BRANCH  26  40
ATOM     40  C   UNL A   1      48.878  26.708  27.518  1.00  0.00     0.057 A 
ATOM     41  C   UNL A   1      49.506  26.917  26.283  1.00  0.00     0.134 A 
ATOM     42  C   UNL A   1      49.592  25.998  28.492  1.00  0.00     0.134 A 
ATOM     43  F   UNL A   1      48.862  27.557  25.295  1.00  0.00    -0.206 F 
ATOM     44  C   UNL A   1      50.778  26.406  26.015  1.00  0.00     0.040 A 
ATOM     45  C   UNL A   1      50.872  25.501  28.243  1.00  0.00     0.040 A 
ATOM     46  F   UNL A   1      49.044  25.752  29.692  1.00  0.00    -0.206 F 
ATOM     47  C   UNL A   1      51.464  25.695  26.998  1.00  0.00     0.006 A 
ENDBRANCH  26  40
BRANCH  27  48
ATOM     48  C   UNL A   1      39.173  28.886  29.142  1.00  0.00     0.057 A 
ATOM     49  C   UNL A   1      38.602  28.644  30.394  1.00  0.00     0.134 A 
ATOM     50  C   UNL A   1      38.355  29.467  28.162  1.00  0.00     0.134 A 
ATOM     51  F   UNL A   1      39.328  28.078  31.369  1.00  0.00    -0.206 F 
ATOM     52  C   UNL A   1      37.270  28.970  30.666  1.00  0.00     0.040 A 
ATOM     53  C   UNL A   1      37.031  29.818  28.426  1.00  0.00     0.040 A 
ATOM     54  F   UNL A   1      38.845  29.731  26.942  1.00  0.00    -0.206 F 
ATOM     55  C   UNL A   1      36.484  29.568  29.683  1.00  0.00     0.006 A 
ENDBRANCH  27  48
BRANCH  39  56
ATOM     56  C   UNL A   1      45.181  32.269  30.271  1.00  0.00     0.057 A 
ATOM     57  C   UNL A   1      45.201  33.421  29.479  1.00  0.00     0.134 A 
ATOM     58  C   UNL A   1      45.371  32.416  31.650  1.00  0.00     0.134 A 
ATOM     59  F   UNL A   1      45.035  33.337  28.151  1.00  0.00    -0.206 F 
ATOM     60  C   UNL A   1      45.403  34.681  30.041  1.00  0.00     0.040 A 
ATOM     61  C   UNL A   1      45.555  33.672  32.225  1.00  0.00     0.040 A 
ATOM     62  F   UNL A   1      45.353  31.345  32.458  1.00  0.00    -0.206 F 
ATOM     63  C   UNL A   1      45.570  34.809  31.420  1.00  0.00     0.006 A 
ENDBRANCH  39  56
ENDBRANCH  13  14
ENDBRANCH   6   8
ENDBRANCH   5   6
ENDBRANCH   4   5
ENDBRANCH   3   4
ENDBRANCH   2   3
ENDBRANCH   1   2
BRANCH   1  64
ATOM     64  C   UNL A   1      35.131  21.286  24.624  1.00  0.00     0.261 C 
BRANCH  64  65
ATOM     65  O   UNL A   1      34.867  22.693  24.765  1.00  0.00    -0.462 OA
BRANCH  65  66
ATOM     66  C   UNL A   1      35.135  23.450  23.655  1.00  0.00     0.329 C 
ATOM     67  O   UNL A   1      35.968  23.177  22.802  1.00  0.00    -0.250 OA
BRANCH  66  68
ATOM     68  C   UNL A   1      34.087  24.569  23.550  1.00  0.00     0.197 C 
BRANCH  68  69
ATOM     69  N   UNL A   1      33.600  24.642  22.170  1.00  0.00    -0.338 N 
ATOM     70  C   UNL A   1      33.075  25.698  21.467  1.00  0.00     0.262 C 
ATOM     71  H   UNL A   1      33.659  23.798  21.665  1.00  0.00     0.164 HD
ATOM     72  O   UNL A   1      32.824  25.504  20.279  1.00  0.00    -0.268 OA
BRANCH  70  73
ATOM     73  C   UNL A   1      32.794  26.951  22.141  1.00  0.00     0.093 A 
ATOM     74  C   UNL A   1      33.635  27.985  22.512  1.00  0.00     0.027 A 
ATOM     75  S   UNL A   1      31.156  27.327  22.502  1.00  0.00    -0.118 S 
ATOM     76  C   UNL A   1      32.940  29.048  23.168  1.00  0.00     0.033 A 
ATOM     77  C   UNL A   1      31.593  28.801  23.206  1.00  0.00     0.094 A 
ATOM     78  Cl  UNL A   1      30.382  29.823  23.865  1.00  0.00    -0.072 Cl
ENDBRANCH  70  73
ENDBRANCH  68  69
BRANCH  68  79
ATOM     79  C   UNL A   1      32.954  24.427  24.587  1.00  0.00     0.072 C 
BRANCH  79  80
ATOM     80  C   UNL A   1      32.781  25.699  25.401  1.00  0.00    -0.045 A 
ATOM     81  C   UNL A   1      31.518  26.096  25.868  1.00  0.00     0.007 A 
ATOM     82  C   UNL A   1      33.900  26.478  25.734  1.00  0.00     0.007 A 
ATOM     83  C   UNL A   1      31.379  27.238  26.666  1.00  0.00     0.046 A 
ATOM     84  C   UNL A   1      33.762  27.613  26.535  1.00  0.00     0.046 A 
ATOM     85  C   UNL A   1      32.504  27.985  26.994  1.00  0.00     0.115 A 
BRANCH  85  86
ATOM     86  O   UNL A   1      32.419  29.101  27.772  1.00  0.00    -0.508 OA
ATOM     87  H   UNL A   1      31.911  29.833  27.486  1.00  0.00     0.293 HD
ENDBRANCH  85  86
ENDBRANCH  79  80
ENDBRANCH  68  79
ENDBRANCH  66  68
ENDBRANCH  65  66
ENDBRANCH  64  65
ENDBRANCH   1  64
TORSDOF 19
ENDMDL
MODEL 3
REMARK VINA RESULT:     -10.6      4.220      7.915
REMARK SMILES O=C(OCCOCCOC(=O)[C@H](Cc1ccc(O)cc1)NC(=O)c1ccc(Cl)s1)c1ccc(-c2c3nc(c(-c4c(F)cccc4F)c4ccc([nH]4)c(-c4c(F)cccc4F)c4nc(c(-c5c(F)cccc5F)c5ccc2[nH]5)C=C4)C=C3)cc1
REMARK SMILES IDX 7 1 6 2 5 3 4 4 3 5 2 6 1 7 30 8 31 9 83 10 32 11 82 12
REMARK SMILES IDX 33 13 34 14 35 15 76 16 36 17 81 18 75 19 77 20 37 21 80 22
REMARK SMILES IDX 74 23 73 24 38 26 64 27 47 28 63 29 48 30 51 31 62 32 78 33
REMARK SMILES IDX 49 34 50 35 61 37 79 38 52 39 39 40 40 41 45 42 41 43 42 44
REMARK SMILES IDX 44 45 46 46 43 47 65 48 66 49 71 50 67 51 68 52 70 53 72 54
REMARK SMILES IDX 69 55 53 56 54 57 59 58 55 59 56 60 58 61 60 62 57 63 8 64
REMARK SMILES IDX 9 65 10 66 11 67 12 68 21 69 22 70 23 72 24 73 25 74 29 75
REMARK SMILES IDX 26 76 27 77 28 78 13 79 14 80 15 81 20 82 16 83 19 84 17 85
REMARK SMILES IDX 18 86
REMARK H PARENT 77 25 51 36 21 71 18 87
REMARK Flexibility Score: inf
ROOT
ATOM      1  C   UNL A   1      36.175  20.751  25.143  1.00  0.00     0.202 C 
ENDROOT
BRANCH   1   2
ATOM      2  O   UNL A   1      37.558  21.060  24.939  1.00  0.00    -0.374 OA
BRANCH   2   3
ATOM      3  C   UNL A   1      38.444  19.947  24.812  1.00  0.00     0.202 C 
BRANCH   3   4
ATOM      4  C   UNL A   1      39.317  19.697  26.040  1.00  0.00     0.261 C 
BRANCH   4   5
ATOM      5  O   UNL A   1      40.506  18.995  25.648  1.00  0.00    -0.460 OA
BRANCH   5   6
ATOM      6  C   UNL A   1      41.789  19.363  25.860  1.00  0.00     0.338 C 
ATOM      7  O   UNL A   1      42.680  18.541  25.651  1.00  0.00    -0.246 OA
BRANCH   6   8
ATOM      8  C   UNL A   1      42.196  20.740  26.269  1.00  0.00     0.060 A 
ATOM      9  C   UNL A   1      42.463  21.802  25.400  1.00  0.00     0.016 A 
ATOM     10  C   UNL A   1      42.219  20.996  27.650  1.00  0.00     0.016 A 
ATOM     11  C   UNL A   1      42.784  23.066  25.871  1.00  0.00     0.010 A 
ATOM     12  C   UNL A   1      42.525  22.266  28.136  1.00  0.00     0.010 A 
ATOM     13  C   UNL A   1      42.822  23.297  27.240  1.00  0.00    -0.014 A 
BRANCH  13  14
ATOM     14  C   UNL A   1      43.288  24.604  27.714  1.00  0.00     0.031 A 
ATOM     15  C   UNL A   1      42.264  25.600  28.143  1.00  0.00     0.074 A 
ATOM     16  C   UNL A   1      44.604  24.841  27.820  1.00  0.00     0.049 A 
ATOM     17  N   UNL A   1      42.415  26.851  28.474  1.00  0.00    -0.248 NA
ATOM     18  C   UNL A   1      40.875  25.112  28.220  1.00  0.00     0.031 C 
ATOM     19  C   UNL A   1      45.661  23.867  27.541  1.00  0.00     0.029 A 
ATOM     20  N   UNL A   1      45.275  25.972  28.191  1.00  0.00    -0.354 N 
ATOM     21  C   UNL A   1      41.139  27.314  28.758  1.00  0.00     0.074 A 
ATOM     22  C   UNL A   1      40.226  26.207  28.580  1.00  0.00     0.031 C 
ATOM     23  C   UNL A   1      46.853  24.451  27.737  1.00  0.00     0.029 A 
ATOM     24  C   UNL A   1      46.638  25.851  28.090  1.00  0.00     0.049 A 
ATOM     25  H   UNL A   1      44.826  26.792  28.500  1.00  0.00     0.167 HD
ATOM     26  C   UNL A   1      40.772  28.566  29.112  1.00  0.00     0.037 A 
ATOM     27  C   UNL A   1      47.592  26.790  28.219  1.00  0.00     0.037 A 
ATOM     28  C   UNL A   1      41.711  29.643  29.258  1.00  0.00     0.049 A 
ATOM     29  C   UNL A   1      47.160  28.195  28.535  1.00  0.00     0.074 A 
ATOM     30  C   UNL A   1      41.472  30.974  29.541  1.00  0.00     0.029 A 
ATOM     31  N   UNL A   1      43.088  29.499  29.122  1.00  0.00    -0.354 N 
ATOM     32  N   UNL A   1      45.948  28.657  28.733  1.00  0.00    -0.248 NA
ATOM     33  C   UNL A   1      48.215  29.210  28.627  1.00  0.00     0.031 C 
ATOM     34  C   UNL A   1      42.704  31.640  29.542  1.00  0.00     0.029 A 
ATOM     35  C   UNL A   1      43.712  30.717  29.301  1.00  0.00     0.049 A 
ATOM     36  H   UNL A   1      43.549  28.650  28.926  1.00  0.00     0.167 HD
ATOM     37  C   UNL A   1      46.088  30.013  28.985  1.00  0.00     0.074 A 
ATOM     38  C   UNL A   1      47.511  30.296  28.923  1.00  0.00     0.031 C 
ATOM     39  C   UNL A   1      45.136  30.943  29.240  1.00  0.00     0.037 A 
BRANCH  26  40
ATOM     40  C   UNL A   1      39.304  28.818  29.260  1.00  0.00     0.057 A 
ATOM     41  C   UNL A   1      38.512  29.272  28.198  1.00  0.00     0.134 A 
ATOM     42  C   UNL A   1      38.689  28.680  30.511  1.00  0.00     0.134 A 
ATOM     43  F   UNL A   1      39.049  29.461  26.983  1.00  0.00    -0.206 F 
ATOM     44  C   UNL A   1      37.170  29.614  28.382  1.00  0.00     0.040 A 
ATOM     45  C   UNL A   1      37.344  28.998  30.703  1.00  0.00     0.040 A 
ATOM     46  F   UNL A   1      39.394  28.261  31.573  1.00  0.00    -0.206 F 
ATOM     47  C   UNL A   1      36.583  29.477  29.639  1.00  0.00     0.006 A 
ENDBRANCH  26  40
BRANCH  27  48
ATOM     48  C   UNL A   1      49.013  26.429  27.991  1.00  0.00     0.057 A 
ATOM     49  C   UNL A   1      49.576  26.455  26.713  1.00  0.00     0.134 A 
ATOM     50  C   UNL A   1      49.858  26.103  29.062  1.00  0.00     0.134 A 
ATOM     51  F   UNL A   1      48.816  26.746  25.646  1.00  0.00    -0.206 F 
ATOM     52  C   UNL A   1      50.929  26.173  26.504  1.00  0.00     0.040 A 
ATOM     53  C   UNL A   1      51.216  25.841  28.871  1.00  0.00     0.040 A 
ATOM     54  F   UNL A   1      49.381  26.067  30.314  1.00  0.00    -0.206 F 
ATOM     55  C   UNL A   1      51.755  25.875  27.586  1.00  0.00     0.006 A 
ENDBRANCH  27  48
BRANCH  39  56
ATOM     56  C   UNL A   1      45.606  32.339  29.501  1.00  0.00     0.057 A 
ATOM     57  C   UNL A   1      45.972  32.760  30.784  1.00  0.00     0.134 A 
ATOM     58  C   UNL A   1      45.775  33.237  28.442  1.00  0.00     0.134 A 
ATOM     59  F   UNL A   1      45.822  31.944  31.837  1.00  0.00    -0.206 F 
ATOM     60  C   UNL A   1      46.490  34.036  31.004  1.00  0.00     0.040 A 
ATOM     61  C   UNL A   1      46.309  34.508  28.647  1.00  0.00     0.040 A 
ATOM     62  F   UNL A   1      45.448  32.882  27.189  1.00  0.00    -0.206 F 
ATOM     63  C   UNL A   1      46.669  34.910  29.932  1.00  0.00     0.006 A 
ENDBRANCH  39  56
ENDBRANCH  13  14
ENDBRANCH   6   8
ENDBRANCH   5   6
ENDBRANCH   4   5
ENDBRANCH   3   4
ENDBRANCH   2   3
ENDBRANCH   1   2
BRANCH   1  64
ATOM     64  C   UNL A   1      35.308  21.664  24.272  1.00  0.00     0.261 C 
BRANCH  64  65
ATOM     65  O   UNL A   1      34.690  22.656  25.109  1.00  0.00    -0.462 OA
BRANCH  65  66
ATOM     66  C   UNL A   1      35.286  23.890  25.087  1.00  0.00     0.329 C 
ATOM     67  O   UNL A   1      36.479  24.098  25.258  1.00  0.00    -0.250 OA
BRANCH  66  68
ATOM     68  C   UNL A   1      34.261  24.930  24.608  1.00  0.00     0.197 C 
BRANCH  68  69
ATOM     69  N   UNL A   1      33.852  24.605  23.239  1.00  0.00    -0.338 N 
ATOM     70  C   UNL A   1      33.286  25.394  22.268  1.00  0.00     0.262 C 
ATOM     71  H   UNL A   1      34.009  23.670  22.972  1.00  0.00     0.164 HD
ATOM     72  O   UNL A   1      33.122  24.882  21.162  1.00  0.00    -0.268 OA
BRANCH  70  73
ATOM     73  C   UNL A   1      32.865  26.744  22.586  1.00  0.00     0.093 A 
ATOM     74  C   UNL A   1      33.588  27.923  22.659  1.00  0.00     0.027 A 
ATOM     75  S   UNL A   1      31.191  27.031  22.850  1.00  0.00    -0.118 S 
ATOM     76  C   UNL A   1      32.775  29.044  23.014  1.00  0.00     0.033 A 
ATOM     77  C   UNL A   1      31.460  28.676  23.130  1.00  0.00     0.094 A 
ATOM     78  Cl  UNL A   1      30.138  29.706  23.503  1.00  0.00    -0.072 Cl
ENDBRANCH  70  73
ENDBRANCH  68  69
BRANCH  68  79
ATOM     79  C   UNL A   1      33.071  25.087  25.576  1.00  0.00     0.072 C 
BRANCH  79  80
ATOM     80  C   UNL A   1      33.006  26.491  26.157  1.00  0.00    -0.045 A 
ATOM     81  C   UNL A   1      34.138  27.321  26.174  1.00  0.00     0.007 A 
ATOM     82  C   UNL A   1      31.792  26.993  26.649  1.00  0.00     0.007 A 
ATOM     83  C   UNL A   1      34.053  28.633  26.657  1.00  0.00     0.046 A 
ATOM     84  C   UNL A   1      31.706  28.303  27.124  1.00  0.00     0.046 A 
ATOM     85  C   UNL A   1      32.835  29.112  27.126  1.00  0.00     0.115 A 
BRANCH  85  86
ATOM     86  O   UNL A   1      32.703  30.383  27.601  1.00  0.00    -0.508 OA
ATOM     87  H   UNL A   1      32.612  30.532  28.521  1.00  0.00     0.293 HD
ENDBRANCH  85  86
ENDBRANCH  79  80
ENDBRANCH  68  79
ENDBRANCH  66  68
ENDBRANCH  65  66
ENDBRANCH  64  65
ENDBRANCH   1  64
TORSDOF 19
ENDMDL
