MODEL 1
REMARK VINA RESULT:     -10.6      0.000      0.000
REMARK SMILES CCCCCCNC(=O)Oc1cccc(-c2ccc([C@@H](C)C(=O)OCCOCCOC(=O)c3ccc(-c4c5nc(c(-c6c(F)cccc6F)c6ccc([nH]6)c(-c6c(F)cccc6F)c6nc(c(-c7c(F)cccc7F)c7ccc4[nH]7)C=C6)C=C5)cc3)cc2F)c1
REMARK SMILES IDX 22 1 23 2 20 3 21 4 19 5 16 6 17 7 88 8 18 9 87 10 89 11
REMARK SMILES IDX 15 12 11 13 12 14 90 15 13 16 14 17 10 18 8 19 7 20 9 22
REMARK SMILES IDX 6 23 5 24 4 25 3 26 2 27 1 28 24 29 25 30 26 31 27 32 28 33
REMARK SMILES IDX 29 34 30 35 31 36 32 37 33 38 34 39 86 40 35 41 85 42 36 43
REMARK SMILES IDX 37 44 38 45 79 46 39 47 84 48 78 49 80 50 40 51 83 52 77 53
REMARK SMILES IDX 76 54 41 56 67 57 50 58 66 59 51 60 54 61 65 62 81 63 52 64
REMARK SMILES IDX 53 65 64 67 82 68 55 69 42 70 43 71 48 72 44 73 45 74 47 75
REMARK SMILES IDX 49 76 46 77 68 78 69 79 74 80 70 81 71 82 73 83 75 84 72 85
REMARK SMILES IDX 56 86 57 87 62 88 58 89 59 90 61 91 63 92 60 93
REMARK H PARENT 7 21 80 55 54 66
REMARK Flexibility Score: inf
ROOT
ATOM      1  C   UNL A   1      31.807  28.632  23.003  1.00  0.00     0.313 C 
ATOM      2  O   UNL A   1      32.844  28.924  22.414  1.00  0.00    -0.252 OA
ENDROOT
BRANCH   1   3
ATOM      3  C   UNL A   1      30.870  27.552  22.484  1.00  0.00     0.126 C 
ATOM      4  C   UNL A   1      29.446  27.874  22.927  1.00  0.00     0.025 C 
BRANCH   3   5
ATOM      5  C   UNL A   1      31.236  26.095  22.754  1.00  0.00    -0.031 A 
ATOM      6  C   UNL A   1      31.878  23.323  23.034  1.00  0.00     0.018 A 
ATOM      7  C   UNL A   1      30.774  23.889  23.694  1.00  0.00     0.012 A 
ATOM      8  C   UNL A   1      32.669  24.185  22.265  1.00  0.00     0.131 A 
ATOM      9  C   UNL A   1      30.457  25.251  23.556  1.00  0.00     0.005 A 
ATOM     10  C   UNL A   1      32.361  25.540  22.123  1.00  0.00     0.044 A 
ATOM     11  F   UNL A   1      33.737  23.712  21.603  1.00  0.00    -0.206 F 
BRANCH   6  12
ATOM     12  C   UNL A   1      32.159  21.878  23.113  1.00  0.00    -0.012 A 
ATOM     13  C   UNL A   1      33.141  19.953  24.227  1.00  0.00     0.133 A 
ATOM     14  C   UNL A   1      32.744  19.113  23.190  1.00  0.00     0.047 A 
ATOM     15  C   UNL A   1      32.872  21.325  24.190  1.00  0.00     0.056 A 
ATOM     16  C   UNL A   1      32.039  19.645  22.115  1.00  0.00     0.004 A 
ATOM     17  C   UNL A   1      31.747  21.013  22.080  1.00  0.00     0.009 A 
BRANCH  13  18
ATOM     18  O   UNL A   1      33.914  19.377  25.248  1.00  0.00    -0.410 OA
BRANCH  18  19
ATOM     19  C   UNL A   1      35.085  18.735  24.875  1.00  0.00     0.412 C 
ATOM     20  N   UNL A   1      36.187  19.543  24.929  1.00  0.00    -0.321 N 
ATOM     21  H   UNL A   1      37.049  19.125  24.701  1.00  0.00     0.167 HD
ATOM     22  O   UNL A   1      35.182  17.567  24.512  1.00  0.00    -0.224 OA
BRANCH  20  23
ATOM     23  C   UNL A   1      36.228  20.949  25.283  1.00  0.00     0.119 C 
BRANCH  23  24
ATOM     24  C   UNL A   1      36.804  21.811  24.159  1.00  0.00     0.021 C 
BRANCH  24  25
ATOM     25  C   UNL A   1      36.039  23.112  23.883  1.00  0.00     0.002 C 
BRANCH  25  26
ATOM     26  C   UNL A   1      35.802  24.015  25.100  1.00  0.00    -0.000 C 
BRANCH  26  27
ATOM     27  C   UNL A   1      34.340  24.358  25.394  1.00  0.00    -0.003 C 
ATOM     28  C   UNL A   1      34.095  25.847  25.588  1.00  0.00     0.004 C 
ENDBRANCH  26  27
ENDBRANCH  25  26
ENDBRANCH  24  25
ENDBRANCH  23  24
ENDBRANCH  20  23
ENDBRANCH  18  19
ENDBRANCH  13  18
ENDBRANCH   6  12
ENDBRANCH   3   5
ENDBRANCH   1   3
BRANCH   1  29
ATOM     29  O   UNL A   1      31.368  29.247  24.131  1.00  0.00    -0.463 OA
BRANCH  29  30
ATOM     30  C   UNL A   1      31.928  28.768  25.367  1.00  0.00     0.261 C 
BRANCH  30  31
ATOM     31  C   UNL A   1      32.941  29.763  25.938  1.00  0.00     0.202 C 
BRANCH  31  32
ATOM     32  O   UNL A   1      32.447  30.670  26.924  1.00  0.00    -0.374 OA
BRANCH  32  33
ATOM     33  C   UNL A   1      31.457  31.614  26.515  1.00  0.00     0.202 C 
BRANCH  33  34
ATOM     34  C   UNL A   1      31.613  33.047  27.035  1.00  0.00     0.261 C 
BRANCH  34  35
ATOM     35  O   UNL A   1      32.972  33.513  26.963  1.00  0.00    -0.460 OA
BRANCH  35  36
ATOM     36  C   UNL A   1      33.501  33.886  28.154  1.00  0.00     0.338 C 
ATOM     37  O   UNL A   1      32.988  34.591  29.004  1.00  0.00    -0.246 OA
BRANCH  36  38
ATOM     38  C   UNL A   1      34.760  33.153  28.401  1.00  0.00     0.060 A 
ATOM     39  C   UNL A   1      34.647  31.819  28.813  1.00  0.00     0.016 A 
ATOM     40  C   UNL A   1      36.010  33.769  28.325  1.00  0.00     0.016 A 
ATOM     41  C   UNL A   1      35.778  31.115  29.215  1.00  0.00     0.010 A 
ATOM     42  C   UNL A   1      37.147  33.060  28.730  1.00  0.00     0.010 A 
ATOM     43  C   UNL A   1      37.029  31.745  29.220  1.00  0.00    -0.014 A 
BRANCH  43  44
ATOM     44  C   UNL A   1      38.167  31.075  29.898  1.00  0.00     0.031 A 
ATOM     45  C   UNL A   1      38.432  31.373  31.349  1.00  0.00     0.074 A 
ATOM     46  C   UNL A   1      38.911  30.158  29.254  1.00  0.00     0.049 A 
ATOM     47  N   UNL A   1      39.342  30.875  32.147  1.00  0.00    -0.248 NA
ATOM     48  C   UNL A   1      37.548  32.363  31.985  1.00  0.00     0.031 C 
ATOM     49  C   UNL A   1      38.728  29.746  27.865  1.00  0.00     0.029 A 
ATOM     50  N   UNL A   1      39.968  29.402  29.695  1.00  0.00    -0.354 N 
ATOM     51  C   UNL A   1      39.142  31.491  33.378  1.00  0.00     0.074 A 
ATOM     52  C   UNL A   1      38.050  32.426  33.209  1.00  0.00     0.031 C 
ATOM     53  C   UNL A   1      39.640  28.804  27.567  1.00  0.00     0.029 A 
ATOM     54  C   UNL A   1      40.485  28.567  28.735  1.00  0.00     0.049 A 
ATOM     55  H   UNL A   1      40.323  29.454  30.612  1.00  0.00     0.167 HD
ATOM     56  C   UNL A   1      39.797  31.288  34.545  1.00  0.00     0.037 A 
ATOM     57  C   UNL A   1      41.527  27.716  28.793  1.00  0.00     0.037 A 
ATOM     58  C   UNL A   1      40.884  30.359  34.714  1.00  0.00     0.049 A 
ATOM     59  C   UNL A   1      42.292  27.563  30.080  1.00  0.00     0.074 A 
ATOM     60  C   UNL A   1      41.602  30.071  35.861  1.00  0.00     0.029 A 
ATOM     61  N   UNL A   1      41.416  29.575  33.702  1.00  0.00    -0.354 N 
ATOM     62  N   UNL A   1      42.081  28.133  31.242  1.00  0.00    -0.248 NA
ATOM     63  C   UNL A   1      43.442  26.648  30.062  1.00  0.00     0.031 C 
ATOM     64  C   UNL A   1      42.600  29.147  35.532  1.00  0.00     0.029 A 
ATOM     65  C   UNL A   1      42.472  28.823  34.191  1.00  0.00     0.049 A 
ATOM     66  H   UNL A   1      41.091  29.555  32.773  1.00  0.00     0.167 HD
ATOM     67  C   UNL A   1      43.048  27.624  32.099  1.00  0.00     0.074 A 
ATOM     68  C   UNL A   1      43.844  26.694  31.325  1.00  0.00     0.031 C 
ATOM     69  C   UNL A   1      43.255  27.899  33.410  1.00  0.00     0.037 A 
BRANCH  56  70
ATOM     70  C   UNL A   1      39.365  32.109  35.724  1.00  0.00     0.057 A 
ATOM     71  C   UNL A   1      39.889  33.386  35.971  1.00  0.00     0.134 A 
ATOM     72  C   UNL A   1      38.408  31.619  36.623  1.00  0.00     0.134 A 
ATOM     73  F   UNL A   1      40.818  33.908  35.157  1.00  0.00    -0.206 F 
ATOM     74  C   UNL A   1      39.501  34.131  37.086  1.00  0.00     0.040 A 
ATOM     75  C   UNL A   1      37.993  32.366  37.727  1.00  0.00     0.040 A 
ATOM     76  F   UNL A   1      37.862  30.407  36.443  1.00  0.00    -0.206 F 
ATOM     77  C   UNL A   1      38.547  33.622  37.965  1.00  0.00     0.006 A 
ENDBRANCH  56  70
BRANCH  57  78
ATOM     78  C   UNL A   1      41.903  26.929  27.592  1.00  0.00     0.057 A 
ATOM     79  C   UNL A   1      41.437  25.623  27.405  1.00  0.00     0.134 A 
ATOM     80  C   UNL A   1      42.742  27.462  26.606  1.00  0.00     0.134 A 
ATOM     81  F   UNL A   1      40.649  25.050  28.328  1.00  0.00    -0.206 F 
ATOM     82  C   UNL A   1      41.796  24.872  26.286  1.00  0.00     0.040 A 
ATOM     83  C   UNL A   1      43.091  26.730  25.470  1.00  0.00     0.040 A 
ATOM     84  F   UNL A   1      43.224  28.709  26.727  1.00  0.00    -0.206 F 
ATOM     85  C   UNL A   1      42.621  25.428  25.310  1.00  0.00     0.006 A 
ENDBRANCH  57  78
BRANCH  69  86
ATOM     86  C   UNL A   1      44.366  27.162  34.103  1.00  0.00     0.057 A 
ATOM     87  C   UNL A   1      45.667  27.676  34.168  1.00  0.00     0.134 A 
ATOM     88  C   UNL A   1      44.119  25.943  34.747  1.00  0.00     0.134 A 
ATOM     89  F   UNL A   1      45.973  28.833  33.562  1.00  0.00    -0.206 F 
ATOM     90  C   UNL A   1      46.688  26.993  34.832  1.00  0.00     0.040 A 
ATOM     91  C   UNL A   1      45.125  25.263  35.435  1.00  0.00     0.040 A 
ATOM     92  F   UNL A   1      42.893  25.400  34.731  1.00  0.00    -0.206 F 
ATOM     93  C   UNL A   1      46.416  25.785  35.474  1.00  0.00     0.006 A 
ENDBRANCH  69  86
ENDBRANCH  43  44
ENDBRANCH  36  38
ENDBRANCH  35  36
ENDBRANCH  34  35
ENDBRANCH  33  34
ENDBRANCH  32  33
ENDBRANCH  31  32
ENDBRANCH  30  31
ENDBRANCH  29  30
ENDBRANCH   1  29
TORSDOF 23
ENDMDL
MODEL 2
REMARK VINA RESULT:     -10.5      0.368      5.853
REMARK SMILES CCCCCCNC(=O)Oc1cccc(-c2ccc([C@@H](C)C(=O)OCCOCCOC(=O)c3ccc(-c4c5nc(c(-c6c(F)cccc6F)c6ccc([nH]6)c(-c6c(F)cccc6F)c6nc(c(-c7c(F)cccc7F)c7ccc4[nH]7)C=C6)C=C5)cc3)cc2F)c1
REMARK SMILES IDX 22 1 23 2 20 3 21 4 19 5 16 6 17 7 88 8 18 9 87 10 89 11
REMARK SMILES IDX 15 12 11 13 12 14 90 15 13 16 14 17 10 18 8 19 7 20 9 22
REMARK SMILES IDX 6 23 5 24 4 25 3 26 2 27 1 28 24 29 25 30 26 31 27 32 28 33
REMARK SMILES IDX 29 34 30 35 31 36 32 37 33 38 34 39 86 40 35 41 85 42 36 43
REMARK SMILES IDX 37 44 38 45 79 46 39 47 84 48 78 49 80 50 40 51 83 52 77 53
REMARK SMILES IDX 76 54 41 56 67 57 50 58 66 59 51 60 54 61 65 62 81 63 52 64
REMARK SMILES IDX 53 65 64 67 82 68 55 69 42 70 43 71 48 72 44 73 45 74 47 75
REMARK SMILES IDX 49 76 46 77 68 78 69 79 74 80 70 81 71 82 73 83 75 84 72 85
REMARK SMILES IDX 56 86 57 87 62 88 58 89 59 90 61 91 63 92 60 93
REMARK H PARENT 7 21 80 55 54 66
REMARK Flexibility Score: inf
ROOT
ATOM      1  C   UNL A   1      31.937  28.610  23.024  1.00  0.00     0.313 C 
ATOM      2  O   UNL A   1      33.003  28.869  22.472  1.00  0.00    -0.252 OA
ENDROOT
BRANCH   1   3
ATOM      3  C   UNL A   1      30.993  27.549  22.480  1.00  0.00     0.126 C 
ATOM      4  C   UNL A   1      29.564  27.896  22.889  1.00  0.00     0.025 C 
BRANCH   3   5
ATOM      5  C   UNL A   1      31.324  26.084  22.753  1.00  0.00    -0.031 A 
ATOM      6  C   UNL A   1      31.919  23.303  23.038  1.00  0.00     0.018 A 
ATOM      7  C   UNL A   1      30.771  23.869  23.618  1.00  0.00     0.012 A 
ATOM      8  C   UNL A   1      32.774  24.168  22.347  1.00  0.00     0.131 A 
ATOM      9  C   UNL A   1      30.477  25.235  23.479  1.00  0.00     0.005 A 
ATOM     10  C   UNL A   1      32.490  25.528  22.203  1.00  0.00     0.044 A 
ATOM     11  F   UNL A   1      33.887  23.695  21.762  1.00  0.00    -0.206 F 
BRANCH   6  12
ATOM     12  C   UNL A   1      32.181  21.854  23.114  1.00  0.00    -0.012 A 
ATOM     13  C   UNL A   1      33.154  19.917  24.214  1.00  0.00     0.133 A 
ATOM     14  C   UNL A   1      32.728  19.080  23.186  1.00  0.00     0.047 A 
ATOM     15  C   UNL A   1      32.904  21.292  24.179  1.00  0.00     0.056 A 
ATOM     16  C   UNL A   1      32.011  19.621  22.124  1.00  0.00     0.004 A 
ATOM     17  C   UNL A   1      31.737  20.993  22.091  1.00  0.00     0.009 A 
BRANCH  13  18
ATOM     18  O   UNL A   1      33.937  19.332  25.223  1.00  0.00    -0.410 OA
BRANCH  18  19
ATOM     19  C   UNL A   1      35.127  18.731  24.838  1.00  0.00     0.412 C 
ATOM     20  N   UNL A   1      36.214  19.552  24.963  1.00  0.00    -0.321 N 
ATOM     21  H   UNL A   1      37.087  19.162  24.729  1.00  0.00     0.167 HD
ATOM     22  O   UNL A   1      35.252  17.589  24.409  1.00  0.00    -0.224 OA
BRANCH  20  23
ATOM     23  C   UNL A   1      36.224  20.935  25.399  1.00  0.00     0.119 C 
BRANCH  23  24
ATOM     24  C   UNL A   1      36.660  21.889  24.287  1.00  0.00     0.021 C 
BRANCH  24  25
ATOM     25  C   UNL A   1      35.969  23.258  24.298  1.00  0.00     0.002 C 
BRANCH  25  26
ATOM     26  C   UNL A   1      35.601  23.805  25.683  1.00  0.00    -0.000 C 
BRANCH  26  27
ATOM     27  C   UNL A   1      34.185  24.371  25.815  1.00  0.00    -0.003 C 
ATOM     28  C   UNL A   1      34.081  25.838  25.427  1.00  0.00     0.004 C 
ENDBRANCH  26  27
ENDBRANCH  25  26
ENDBRANCH  24  25
ENDBRANCH  23  24
ENDBRANCH  20  23
ENDBRANCH  18  19
ENDBRANCH  13  18
ENDBRANCH   6  12
ENDBRANCH   3   5
ENDBRANCH   1   3
BRANCH   1  29
ATOM     29  O   UNL A   1      31.473  29.246  24.131  1.00  0.00    -0.463 OA
BRANCH  29  30
ATOM     30  C   UNL A   1      31.997  28.783  25.389  1.00  0.00     0.261 C 
BRANCH  30  31
ATOM     31  C   UNL A   1      32.986  29.791  25.980  1.00  0.00     0.202 C 
BRANCH  31  32
ATOM     32  O   UNL A   1      32.451  30.718  26.925  1.00  0.00    -0.374 OA
BRANCH  32  33
ATOM     33  C   UNL A   1      31.436  31.613  26.470  1.00  0.00     0.202 C 
BRANCH  33  34
ATOM     34  C   UNL A   1      31.567  33.079  26.896  1.00  0.00     0.261 C 
BRANCH  34  35
ATOM     35  O   UNL A   1      32.928  33.544  26.857  1.00  0.00    -0.460 OA
BRANCH  35  36
ATOM     36  C   UNL A   1      33.403  33.989  28.045  1.00  0.00     0.338 C 
ATOM     37  O   UNL A   1      32.870  34.773  28.809  1.00  0.00    -0.246 OA
BRANCH  36  38
ATOM     38  C   UNL A   1      34.618  33.236  28.419  1.00  0.00     0.060 A 
ATOM     39  C   UNL A   1      34.431  31.960  28.965  1.00  0.00     0.016 A 
ATOM     40  C   UNL A   1      35.897  33.789  28.329  1.00  0.00     0.016 A 
ATOM     41  C   UNL A   1      35.514  31.258  29.485  1.00  0.00     0.010 A 
ATOM     42  C   UNL A   1      36.986  33.082  28.853  1.00  0.00     0.010 A 
ATOM     43  C   UNL A   1      36.792  31.834  29.474  1.00  0.00    -0.014 A 
BRANCH  43  44
ATOM     44  C   UNL A   1      37.873  31.194  30.264  1.00  0.00     0.031 A 
ATOM     45  C   UNL A   1      38.777  30.195  29.592  1.00  0.00     0.074 A 
ATOM     46  C   UNL A   1      38.098  31.549  31.541  1.00  0.00     0.049 A 
ATOM     47  N   UNL A   1      39.805  29.547  30.076  1.00  0.00    -0.248 NA
ATOM     48  C   UNL A   1      38.480  29.890  28.183  1.00  0.00     0.031 C 
ATOM     49  C   UNL A   1      37.327  32.537  32.292  1.00  0.00     0.029 A 
ATOM     50  N   UNL A   1      39.053  31.120  32.429  1.00  0.00    -0.354 N 
ATOM     51  C   UNL A   1      40.278  28.758  29.034  1.00  0.00     0.074 A 
ATOM     52  C   UNL A   1      39.401  28.980  27.905  1.00  0.00     0.031 C 
ATOM     53  C   UNL A   1      37.844  32.644  33.528  1.00  0.00     0.029 A 
ATOM     54  C   UNL A   1      38.964  31.715  33.663  1.00  0.00     0.049 A 
ATOM     55  H   UNL A   1      39.738  30.450  32.202  1.00  0.00     0.167 HD
ATOM     56  C   UNL A   1      41.353  27.934  29.013  1.00  0.00     0.037 A 
ATOM     57  C   UNL A   1      39.698  31.524  34.776  1.00  0.00     0.037 A 
ATOM     58  C   UNL A   1      42.226  27.711  30.135  1.00  0.00     0.049 A 
ATOM     59  C   UNL A   1      40.840  30.544  34.754  1.00  0.00     0.074 A 
ATOM     60  C   UNL A   1      43.349  26.906  30.208  1.00  0.00     0.029 A 
ATOM     61  N   UNL A   1      42.066  28.288  31.386  1.00  0.00    -0.354 N 
ATOM     62  N   UNL A   1      41.292  29.821  33.758  1.00  0.00    -0.248 NA
ATOM     63  C   UNL A   1      41.574  30.354  36.013  1.00  0.00     0.031 C 
ATOM     64  C   UNL A   1      43.841  26.959  31.517  1.00  0.00     0.029 A 
ATOM     65  C   UNL A   1      43.053  27.836  32.246  1.00  0.00     0.049 A 
ATOM     66  H   UNL A   1      41.355  28.926  31.627  1.00  0.00     0.167 HD
ATOM     67  C   UNL A   1      42.379  29.115  34.259  1.00  0.00     0.074 A 
ATOM     68  C   UNL A   1      42.523  29.503  35.647  1.00  0.00     0.031 C 
ATOM     69  C   UNL A   1      43.187  28.231  33.626  1.00  0.00     0.037 A 
BRANCH  56  70
ATOM     70  C   UNL A   1      41.623  27.195  27.735  1.00  0.00     0.057 A 
ATOM     71  C   UNL A   1      42.345  27.773  26.681  1.00  0.00     0.134 A 
ATOM     72  C   UNL A   1      41.160  25.884  27.558  1.00  0.00     0.134 A 
ATOM     73  F   UNL A   1      42.805  29.029  26.782  1.00  0.00    -0.206 F 
ATOM     74  C   UNL A   1      42.567  27.087  25.486  1.00  0.00     0.040 A 
ATOM     75  C   UNL A   1      41.399  25.179  26.377  1.00  0.00     0.040 A 
ATOM     76  F   UNL A   1      40.467  25.269  28.528  1.00  0.00    -0.206 F 
ATOM     77  C   UNL A   1      42.097  25.784  25.334  1.00  0.00     0.006 A 
ENDBRANCH  56  70
BRANCH  57  78
ATOM     78  C   UNL A   1      39.382  32.289  36.008  1.00  0.00     0.057 A 
ATOM     79  C   UNL A   1      38.432  31.825  36.925  1.00  0.00     0.134 A 
ATOM     80  C   UNL A   1      40.018  33.503  36.295  1.00  0.00     0.134 A 
ATOM     81  F   UNL A   1      37.773  30.680  36.691  1.00  0.00    -0.206 F 
ATOM     82  C   UNL A   1      38.119  32.543  38.079  1.00  0.00     0.040 A 
ATOM     83  C   UNL A   1      39.732  34.220  37.457  1.00  0.00     0.040 A 
ATOM     84  F   UNL A   1      40.937  34.002  35.455  1.00  0.00    -0.206 F 
ATOM     85  C   UNL A   1      38.775  33.742  38.351  1.00  0.00     0.006 A 
ENDBRANCH  57  78
BRANCH  69  86
ATOM     86  C   UNL A   1      44.321  27.644  34.416  1.00  0.00     0.057 A 
ATOM     87  C   UNL A   1      44.201  26.419  35.084  1.00  0.00     0.134 A 
ATOM     88  C   UNL A   1      45.561  28.293  34.475  1.00  0.00     0.134 A 
ATOM     89  F   UNL A   1      43.037  25.751  35.078  1.00  0.00    -0.206 F 
ATOM     90  C   UNL A   1      45.268  25.871  35.800  1.00  0.00     0.040 A 
ATOM     91  C   UNL A   1      46.642  27.744  35.164  1.00  0.00     0.040 A 
ATOM     92  F   UNL A   1      45.745  29.465  33.849  1.00  0.00    -0.206 F 
ATOM     93  C   UNL A   1      46.495  26.531  35.835  1.00  0.00     0.006 A 
ENDBRANCH  69  86
ENDBRANCH  43  44
ENDBRANCH  36  38
ENDBRANCH  35  36
ENDBRANCH  34  35
ENDBRANCH  33  34
ENDBRANCH  32  33
ENDBRANCH  31  32
ENDBRANCH  30  31
ENDBRANCH  29  30
ENDBRANCH   1  29
TORSDOF 23
ENDMDL
MODEL 3
REMARK VINA RESULT:      -9.8      1.400      2.717
REMARK SMILES CCCCCCNC(=O)Oc1cccc(-c2ccc([C@@H](C)C(=O)OCCOCCOC(=O)c3ccc(-c4c5nc(c(-c6c(F)cccc6F)c6ccc([nH]6)c(-c6c(F)cccc6F)c6nc(c(-c7c(F)cccc7F)c7ccc4[nH]7)C=C6)C=C5)cc3)cc2F)c1
REMARK SMILES IDX 22 1 23 2 20 3 21 4 19 5 16 6 17 7 88 8 18 9 87 10 89 11
REMARK SMILES IDX 15 12 11 13 12 14 90 15 13 16 14 17 10 18 8 19 7 20 9 22
REMARK SMILES IDX 6 23 5 24 4 25 3 26 2 27 1 28 24 29 25 30 26 31 27 32 28 33
REMARK SMILES IDX 29 34 30 35 31 36 32 37 33 38 34 39 86 40 35 41 85 42 36 43
REMARK SMILES IDX 37 44 38 45 79 46 39 47 84 48 78 49 80 50 40 51 83 52 77 53
REMARK SMILES IDX 76 54 41 56 67 57 50 58 66 59 51 60 54 61 65 62 81 63 52 64
REMARK SMILES IDX 53 65 64 67 82 68 55 69 42 70 43 71 48 72 44 73 45 74 47 75
REMARK SMILES IDX 49 76 46 77 68 78 69 79 74 80 70 81 71 82 73 83 75 84 72 85
REMARK SMILES IDX 56 86 57 87 62 88 58 89 59 90 61 91 63 92 60 93
REMARK H PARENT 7 21 80 55 54 66
REMARK Flexibility Score: inf
ROOT
ATOM      1  C   UNL A   1      30.543  29.069  22.982  1.00  0.00     0.313 C 
ATOM      2  O   UNL A   1      31.037  29.658  22.024  1.00  0.00    -0.252 OA
ENDROOT
BRANCH   1   3
ATOM      3  C   UNL A   1      29.869  27.714  22.827  1.00  0.00     0.126 C 
ATOM      4  C   UNL A   1      28.475  27.778  23.445  1.00  0.00     0.025 C 
BRANCH   3   5
ATOM      5  C   UNL A   1      30.637  26.475  23.278  1.00  0.00    -0.031 A 
ATOM      6  C   UNL A   1      32.038  24.065  23.911  1.00  0.00     0.018 A 
ATOM      7  C   UNL A   1      30.840  24.407  24.561  1.00  0.00     0.012 A 
ATOM      8  C   UNL A   1      32.532  24.973  22.968  1.00  0.00     0.131 A 
ATOM      9  C   UNL A   1      30.150  25.591  24.251  1.00  0.00     0.005 A 
ATOM     10  C   UNL A   1      31.852  26.153  22.653  1.00  0.00     0.044 A 
ATOM     11  F   UNL A   1      33.668  24.709  22.304  1.00  0.00    -0.206 F 
BRANCH   6  12
ATOM     12  C   UNL A   1      32.715  22.783  24.178  1.00  0.00    -0.012 A 
ATOM     13  C   UNL A   1      34.728  21.464  24.524  1.00  0.00     0.133 A 
ATOM     14  C   UNL A   1      33.981  20.292  24.615  1.00  0.00     0.047 A 
ATOM     15  C   UNL A   1      34.113  22.698  24.290  1.00  0.00     0.056 A 
ATOM     16  C   UNL A   1      32.596  20.359  24.505  1.00  0.00     0.004 A 
ATOM     17  C   UNL A   1      31.970  21.592  24.292  1.00  0.00     0.009 A 
BRANCH  13  18
ATOM     18  O   UNL A   1      36.125  21.329  24.567  1.00  0.00    -0.410 OA
BRANCH  18  19
ATOM     19  C   UNL A   1      36.879  22.314  23.947  1.00  0.00     0.412 C 
ATOM     20  N   UNL A   1      37.887  22.801  24.734  1.00  0.00    -0.321 N 
ATOM     21  H   UNL A   1      38.470  23.482  24.328  1.00  0.00     0.167 HD
ATOM     22  O   UNL A   1      36.700  22.755  22.816  1.00  0.00    -0.224 OA
BRANCH  20  23
ATOM     23  C   UNL A   1      38.192  22.426  26.101  1.00  0.00     0.119 C 
BRANCH  23  24
ATOM     24  C   UNL A   1      39.555  21.743  26.223  1.00  0.00     0.021 C 
BRANCH  24  25
ATOM     25  C   UNL A   1      40.683  22.638  26.752  1.00  0.00     0.002 C 
BRANCH  25  26
ATOM     26  C   UNL A   1      41.187  22.309  28.162  1.00  0.00    -0.000 C 
BRANCH  26  27
ATOM     27  C   UNL A   1      42.358  23.159  28.661  1.00  0.00    -0.003 C 
ATOM     28  C   UNL A   1      43.316  23.577  27.556  1.00  0.00     0.004 C 
ENDBRANCH  26  27
ENDBRANCH  25  26
ENDBRANCH  24  25
ENDBRANCH  23  24
ENDBRANCH  20  23
ENDBRANCH  18  19
ENDBRANCH  13  18
ENDBRANCH   6  12
ENDBRANCH   3   5
ENDBRANCH   1   3
BRANCH   1  29
ATOM     29  O   UNL A   1      30.510  29.560  24.248  1.00  0.00    -0.463 OA
BRANCH  29  30
ATOM     30  C   UNL A   1      31.423  28.956  25.182  1.00  0.00     0.261 C 
BRANCH  30  31
ATOM     31  C   UNL A   1      32.757  29.706  25.214  1.00  0.00     0.202 C 
BRANCH  31  32
ATOM     32  O   UNL A   1      32.969  30.567  26.333  1.00  0.00    -0.374 OA
BRANCH  32  33
ATOM     33  C   UNL A   1      31.822  31.190  26.912  1.00  0.00     0.202 C 
BRANCH  33  34
ATOM     34  C   UNL A   1      31.799  32.723  26.921  1.00  0.00     0.261 C 
BRANCH  34  35
ATOM     35  O   UNL A   1      33.114  33.291  27.045  1.00  0.00    -0.460 OA
BRANCH  35  36
ATOM     36  C   UNL A   1      33.268  34.123  28.104  1.00  0.00     0.338 C 
ATOM     37  O   UNL A   1      32.547  35.049  28.429  1.00  0.00    -0.246 OA
BRANCH  36  38
ATOM     38  C   UNL A   1      34.363  33.642  28.972  1.00  0.00     0.060 A 
ATOM     39  C   UNL A   1      35.645  34.143  28.713  1.00  0.00     0.016 A 
ATOM     40  C   UNL A   1      34.166  32.663  29.948  1.00  0.00     0.016 A 
ATOM     41  C   UNL A   1      36.747  33.618  29.383  1.00  0.00     0.010 A 
ATOM     42  C   UNL A   1      35.276  32.136  30.620  1.00  0.00     0.010 A 
ATOM     43  C   UNL A   1      36.575  32.580  30.307  1.00  0.00    -0.014 A 
BRANCH  43  44
ATOM     44  C   UNL A   1      37.772  31.858  30.807  1.00  0.00     0.031 A 
ATOM     45  C   UNL A   1      38.246  32.115  32.212  1.00  0.00     0.074 A 
ATOM     46  C   UNL A   1      38.386  30.933  30.050  1.00  0.00     0.049 A 
ATOM     47  N   UNL A   1      39.240  31.571  32.866  1.00  0.00    -0.248 NA
ATOM     48  C   UNL A   1      37.494  33.119  32.983  1.00  0.00     0.031 C 
ATOM     49  C   UNL A   1      37.998  30.557  28.692  1.00  0.00     0.029 A 
ATOM     50  N   UNL A   1      39.467  30.134  30.325  1.00  0.00    -0.354 N 
ATOM     51  C   UNL A   1      39.235  32.165  34.123  1.00  0.00     0.074 A 
ATOM     52  C   UNL A   1      38.164  33.139  34.125  1.00  0.00     0.031 C 
ATOM     53  C   UNL A   1      38.825  29.594  28.254  1.00  0.00     0.029 A 
ATOM     54  C   UNL A   1      39.816  29.304  29.288  1.00  0.00     0.049 A 
ATOM     55  H   UNL A   1      39.948  30.153  31.184  1.00  0.00     0.167 HD
ATOM     56  C   UNL A   1      40.038  31.915  35.184  1.00  0.00     0.037 A 
ATOM     57  C   UNL A   1      40.825  28.418  29.185  1.00  0.00     0.037 A 
ATOM     58  C   UNL A   1      41.105  30.949  35.183  1.00  0.00     0.049 A 
ATOM     59  C   UNL A   1      41.756  28.212  30.349  1.00  0.00     0.074 A 
ATOM     60  C   UNL A   1      41.966  30.612  36.213  1.00  0.00     0.029 A 
ATOM     61  N   UNL A   1      41.464  30.170  34.093  1.00  0.00    -0.354 N 
ATOM     62  N   UNL A   1      41.729  28.763  31.539  1.00  0.00    -0.248 NA
ATOM     63  C   UNL A   1      42.860  27.261  30.155  1.00  0.00     0.031 C 
ATOM     64  C   UNL A   1      42.875  29.665  35.732  1.00  0.00     0.029 A 
ATOM     65  C   UNL A   1      42.550  29.374  34.416  1.00  0.00     0.049 A 
ATOM     66  H   UNL A   1      41.012  30.182  33.218  1.00  0.00     0.167 HD
ATOM     67  C   UNL A   1      42.788  28.204  32.244  1.00  0.00     0.074 A 
ATOM     68  C   UNL A   1      43.435  27.266  31.350  1.00  0.00     0.031 C 
ATOM     69  C   UNL A   1      43.185  28.443  33.518  1.00  0.00     0.037 A 
BRANCH  56  70
ATOM     70  C   UNL A   1      39.804  32.724  36.426  1.00  0.00     0.057 A 
ATOM     71  C   UNL A   1      38.836  32.364  37.374  1.00  0.00     0.134 A 
ATOM     72  C   UNL A   1      40.559  33.876  36.680  1.00  0.00     0.134 A 
ATOM     73  F   UNL A   1      38.069  31.279  37.184  1.00  0.00    -0.206 F 
ATOM     74  C   UNL A   1      38.606  33.138  38.513  1.00  0.00     0.040 A 
ATOM     75  C   UNL A   1      40.356  34.643  37.829  1.00  0.00     0.040 A 
ATOM     76  F   UNL A   1      41.505  34.275  35.817  1.00  0.00    -0.206 F 
ATOM     77  C   UNL A   1      39.371  34.280  38.744  1.00  0.00     0.006 A 
ENDBRANCH  56  70
BRANCH  57  78
ATOM     78  C   UNL A   1      41.003  27.646  27.930  1.00  0.00     0.057 A 
ATOM     79  C   UNL A   1      41.893  28.072  26.937  1.00  0.00     0.134 A 
ATOM     80  C   UNL A   1      40.285  26.469  27.691  1.00  0.00     0.134 A 
ATOM     81  F   UNL A   1      42.591  29.206  27.099  1.00  0.00    -0.206 F 
ATOM     82  C   UNL A   1      42.057  27.360  25.748  1.00  0.00     0.040 A 
ATOM     83  C   UNL A   1      40.456  25.734  26.516  1.00  0.00     0.040 A 
ATOM     84  F   UNL A   1      39.415  26.008  28.603  1.00  0.00    -0.206 F 
ATOM     85  C   UNL A   1      41.342  26.183  25.539  1.00  0.00     0.006 A 
ENDBRANCH  57  78
BRANCH  69  86
ATOM     86  C   UNL A   1      44.354  27.655  34.035  1.00  0.00     0.057 A 
ATOM     87  C   UNL A   1      44.197  26.389  34.611  1.00  0.00     0.134 A 
ATOM     88  C   UNL A   1      45.658  28.154  33.917  1.00  0.00     0.134 A 
ATOM     89  F   UNL A   1      42.974  25.858  34.765  1.00  0.00    -0.206 F 
ATOM     90  C   UNL A   1      45.293  25.655  35.070  1.00  0.00     0.040 A 
ATOM     91  C   UNL A   1      46.764  27.421  34.348  1.00  0.00     0.040 A 
ATOM     92  F   UNL A   1      45.879  29.357  33.366  1.00  0.00    -0.206 F 
ATOM     93  C   UNL A   1      46.582  26.169  34.933  1.00  0.00     0.006 A 
ENDBRANCH  69  86
ENDBRANCH  43  44
ENDBRANCH  36  38
ENDBRANCH  35  36
ENDBRANCH  34  35
ENDBRANCH  33  34
ENDBRANCH  32  33
ENDBRANCH  31  32
ENDBRANCH  30  31
ENDBRANCH  29  30
ENDBRANCH   1  29
TORSDOF 23
ENDMDL
