MODEL 1
REMARK VINA RESULT:     -11.6      0.000      0.000
REMARK SMILES CC(=O)NS(=O)(=O)c1cc(-c2ccn(C(F)F)c(=O)c2)ccc1C(=O)OCCOCCOC(=O)c1ccc(-c2c3nc(c(-c4c(F)cccc4F)c4ccc([nH]4)c(-c4c(F)cccc4F)c4nc(c(-c5c(F)cccc5F)c5ccc2[nH]5)C=C4)C=C3)cc1
REMARK SMILES IDX 29 1 28 2 27 3 26 4 24 5 25 6 23 7 8 8 9 9 10 10 22 11 21 12
REMARK SMILES IDX 5 13 6 14 7 15 4 16 1 17 2 18 3 19 11 21 12 22 20 23 13 24
REMARK SMILES IDX 18 25 14 26 19 27 15 28 16 29 17 30 30 31 31 32 32 33 33 34
REMARK SMILES IDX 34 35 35 36 36 37 88 38 37 39 87 40 38 41 39 42 40 43 81 44
REMARK SMILES IDX 41 45 86 46 80 47 82 48 42 49 85 50 79 51 78 52 43 54 69 55
REMARK SMILES IDX 52 56 68 57 53 58 56 59 67 60 83 61 54 62 55 63 66 65 84 66
REMARK SMILES IDX 57 67 44 68 45 69 50 70 46 71 47 72 49 73 51 74 48 75 70 76
REMARK SMILES IDX 71 77 76 78 72 79 73 80 75 81 77 82 74 83 58 84 59 85 64 86
REMARK SMILES IDX 60 87 61 88 63 89 65 90 62 91
REMARK H PARENT 4 20 82 53 56 64
REMARK Flexibility Score: inf
ROOT
ATOM      1  O   UNL A   1      34.768  23.219  23.892  1.00  0.00    -0.374 OA
ENDROOT
BRANCH   1   2
ATOM      2  C   UNL A   1      33.641  22.604  23.260  1.00  0.00     0.202 C 
BRANCH   2   3
ATOM      3  C   UNL A   1      32.300  23.196  23.699  1.00  0.00     0.261 C 
BRANCH   3   4
ATOM      4  O   UNL A   1      32.368  24.636  23.763  1.00  0.00    -0.460 OA
BRANCH   4   5
ATOM      5  C   UNL A   1      31.340  25.210  24.430  1.00  0.00     0.339 C 
ATOM      6  O   UNL A   1      30.282  24.698  24.748  1.00  0.00    -0.246 OA
BRANCH   5   7
ATOM      7  C   UNL A   1      31.755  26.538  24.922  1.00  0.00     0.080 A 
ATOM      8  C   UNL A   1      31.354  27.763  24.385  1.00  0.00     0.103 A 
ATOM      9  C   UNL A   1      31.785  28.967  24.974  1.00  0.00     0.032 A 
ATOM     10  C   UNL A   1      32.647  28.957  26.072  1.00  0.00    -0.017 A 
ATOM     11  C   UNL A   1      32.620  26.532  26.028  1.00  0.00     0.018 A 
ATOM     12  C   UNL A   1      33.073  27.731  26.589  1.00  0.00     0.010 A 
BRANCH   8  13
ATOM     13  S   UNL A   1      30.274  27.922  23.002  1.00  0.00     0.264 S 
ATOM     14  O   UNL A   1      28.947  27.558  23.448  1.00  0.00    -0.201 OA
ATOM     15  O   UNL A   1      30.852  27.277  21.849  1.00  0.00    -0.201 OA
BRANCH  13  16
ATOM     16  N   UNL A   1      30.216  29.570  22.674  1.00  0.00    -0.249 N 
ATOM     17  C   UNL A   1      28.025  30.230  21.633  1.00  0.00     0.115 C 
ATOM     18  C   UNL A   1      29.031  30.323  22.745  1.00  0.00     0.230 C 
ATOM     19  O   UNL A   1      28.918  31.102  23.666  1.00  0.00    -0.274 OA
ATOM     20  H   UNL A   1      31.049  30.029  22.420  1.00  0.00     0.183 HD
ENDBRANCH  13  16
ENDBRANCH   8  13
BRANCH  10  21
ATOM     21  C   UNL A   1      33.093  30.223  26.674  1.00  0.00    -0.011 A 
ATOM     22  C   UNL A   1      34.394  30.386  27.291  1.00  0.00     0.027 A 
ATOM     23  C   UNL A   1      32.242  31.263  26.653  1.00  0.00     0.080 A 
ATOM     24  C   UNL A   1      34.728  31.545  27.871  1.00  0.00     0.095 A 
ATOM     25  C   UNL A   1      32.601  32.560  27.287  1.00  0.00     0.255 A 
ATOM     26  N   UNL A   1      33.850  32.613  27.886  1.00  0.00    -0.258 N 
ATOM     27  O   UNL A   1      31.784  33.474  27.251  1.00  0.00    -0.269 OA
BRANCH  26  28
ATOM     28  C   UNL A   1      34.190  33.833  28.572  1.00  0.00     0.451 C 
ATOM     29  F   UNL A   1      33.856  33.773  29.884  1.00  0.00    -0.185 F 
ATOM     30  F   UNL A   1      35.520  34.076  28.486  1.00  0.00    -0.185 F 
ENDBRANCH  26  28
ENDBRANCH  10  21
ENDBRANCH   5   7
ENDBRANCH   4   5
ENDBRANCH   3   4
ENDBRANCH   2   3
ENDBRANCH   1   2
BRANCH   1  31
ATOM     31  C   UNL A   1      35.192  22.610  25.111  1.00  0.00     0.202 C 
BRANCH  31  32
ATOM     32  C   UNL A   1      36.157  21.426  24.924  1.00  0.00     0.261 C 
BRANCH  32  33
ATOM     33  O   UNL A   1      37.503  21.868  24.656  1.00  0.00    -0.460 OA
BRANCH  33  34
ATOM     34  C   UNL A   1      38.454  21.414  25.504  1.00  0.00     0.338 C 
ATOM     35  O   UNL A   1      38.893  20.275  25.549  1.00  0.00    -0.246 OA
BRANCH  34  36
ATOM     36  C   UNL A   1      39.056  22.520  26.297  1.00  0.00     0.060 A 
ATOM     37  C   UNL A   1      38.470  23.784  26.151  1.00  0.00     0.016 A 
ATOM     38  C   UNL A   1      40.163  22.369  27.141  1.00  0.00     0.016 A 
ATOM     39  C   UNL A   1      39.024  24.900  26.778  1.00  0.00     0.010 A 
ATOM     40  C   UNL A   1      40.710  23.492  27.788  1.00  0.00     0.010 A 
ATOM     41  C   UNL A   1      40.176  24.775  27.566  1.00  0.00    -0.014 A 
BRANCH  41  42
ATOM     42  C   UNL A   1      40.897  26.016  27.969  1.00  0.00     0.031 A 
ATOM     43  C   UNL A   1      42.316  26.219  27.499  1.00  0.00     0.074 A 
ATOM     44  C   UNL A   1      40.279  27.010  28.636  1.00  0.00     0.049 A 
ATOM     45  N   UNL A   1      43.099  27.260  27.635  1.00  0.00    -0.248 NA
ATOM     46  C   UNL A   1      42.932  25.099  26.770  1.00  0.00     0.031 C 
ATOM     47  C   UNL A   1      38.900  26.978  29.118  1.00  0.00     0.029 A 
ATOM     48  N   UNL A   1      40.734  28.255  29.003  1.00  0.00    -0.354 N 
ATOM     49  C   UNL A   1      44.291  26.923  27.006  1.00  0.00     0.074 A 
ATOM     50  C   UNL A   1      44.148  25.564  26.530  1.00  0.00     0.031 C 
ATOM     51  C   UNL A   1      38.617  28.154  29.707  1.00  0.00     0.029 A 
ATOM     52  C   UNL A   1      39.798  29.015  29.663  1.00  0.00     0.049 A 
ATOM     53  H   UNL A   1      41.646  28.572  28.812  1.00  0.00     0.167 HD
ATOM     54  C   UNL A   1      45.400  27.677  26.817  1.00  0.00     0.037 A 
ATOM     55  C   UNL A   1      39.882  30.260  30.176  1.00  0.00     0.037 A 
ATOM     56  C   UNL A   1      45.557  29.033  27.276  1.00  0.00     0.049 A 
ATOM     57  C   UNL A   1      41.155  31.053  30.021  1.00  0.00     0.074 A 
ATOM     58  C   UNL A   1      46.641  29.877  27.109  1.00  0.00     0.029 A 
ATOM     59  N   UNL A   1      44.606  29.739  27.994  1.00  0.00    -0.354 N 
ATOM     60  N   UNL A   1      42.260  30.734  29.394  1.00  0.00    -0.248 NA
ATOM     61  C   UNL A   1      41.187  32.387  30.643  1.00  0.00     0.031 C 
ATOM     62  C   UNL A   1      46.369  31.076  27.776  1.00  0.00     0.029 A 
ATOM     63  C   UNL A   1      45.092  30.999  28.308  1.00  0.00     0.049 A 
ATOM     64  H   UNL A   1      43.718  29.398  28.245  1.00  0.00     0.167 HD
ATOM     65  C   UNL A   1      43.104  31.832  29.520  1.00  0.00     0.074 A 
ATOM     66  C   UNL A   1      42.378  32.834  30.272  1.00  0.00     0.031 C 
ATOM     67  C   UNL A   1      44.366  31.996  29.052  1.00  0.00     0.037 A 
BRANCH  54  68
ATOM     68  C   UNL A   1      46.552  27.037  26.097  1.00  0.00     0.057 A 
ATOM     69  C   UNL A   1      46.783  27.249  24.732  1.00  0.00     0.134 A 
ATOM     70  C   UNL A   1      47.458  26.221  26.787  1.00  0.00     0.134 A 
ATOM     71  F   UNL A   1      45.945  28.009  24.009  1.00  0.00    -0.206 F 
ATOM     72  C   UNL A   1      47.858  26.649  24.072  1.00  0.00     0.040 A 
ATOM     73  C   UNL A   1      48.550  25.638  26.145  1.00  0.00     0.040 A 
ATOM     74  F   UNL A   1      47.297  25.982  28.098  1.00  0.00    -0.206 F 
ATOM     75  C   UNL A   1      48.749  25.847  24.782  1.00  0.00     0.006 A 
ENDBRANCH  54  68
BRANCH  55  76
ATOM     76  C   UNL A   1      38.723  30.846  30.901  1.00  0.00     0.057 A 
ATOM     77  C   UNL A   1      37.790  31.662  30.252  1.00  0.00     0.134 A 
ATOM     78  C   UNL A   1      38.549  30.636  32.275  1.00  0.00     0.134 A 
ATOM     79  F   UNL A   1      37.920  31.928  28.944  1.00  0.00    -0.206 F 
ATOM     80  C   UNL A   1      36.735  32.260  30.944  1.00  0.00     0.040 A 
ATOM     81  C   UNL A   1      37.484  31.204  32.973  1.00  0.00     0.040 A 
ATOM     82  F   UNL A   1      39.414  29.870  32.957  1.00  0.00    -0.206 F 
ATOM     83  C   UNL A   1      36.577  32.027  32.308  1.00  0.00     0.006 A 
ENDBRANCH  55  76
BRANCH  67  84
ATOM     84  C   UNL A   1      45.039  33.315  29.306  1.00  0.00     0.057 A 
ATOM     85  C   UNL A   1      44.893  34.403  28.435  1.00  0.00     0.134 A 
ATOM     86  C   UNL A   1      45.807  33.514  30.461  1.00  0.00     0.134 A 
ATOM     87  F   UNL A   1      44.179  34.278  27.306  1.00  0.00    -0.206 F 
ATOM     88  C   UNL A   1      45.506  35.631  28.691  1.00  0.00     0.040 A 
ATOM     89  C   UNL A   1      46.402  34.746  30.742  1.00  0.00     0.040 A 
ATOM     90  F   UNL A   1      45.979  32.520  31.345  1.00  0.00    -0.206 F 
ATOM     91  C   UNL A   1      46.258  35.807  29.852  1.00  0.00     0.006 A 
ENDBRANCH  67  84
ENDBRANCH  41  42
ENDBRANCH  34  36
ENDBRANCH  33  34
ENDBRANCH  32  33
ENDBRANCH  31  32
ENDBRANCH   1  31
TORSDOF 18
ENDMDL
MODEL 2
REMARK VINA RESULT:     -11.4      4.462      9.834
REMARK SMILES CC(=O)NS(=O)(=O)c1cc(-c2ccn(C(F)F)c(=O)c2)ccc1C(=O)OCCOCCOC(=O)c1ccc(-c2c3nc(c(-c4c(F)cccc4F)c4ccc([nH]4)c(-c4c(F)cccc4F)c4nc(c(-c5c(F)cccc5F)c5ccc2[nH]5)C=C4)C=C3)cc1
REMARK SMILES IDX 29 1 28 2 27 3 26 4 24 5 25 6 23 7 8 8 9 9 10 10 22 11 21 12
REMARK SMILES IDX 5 13 6 14 7 15 4 16 1 17 2 18 3 19 11 21 12 22 20 23 13 24
REMARK SMILES IDX 18 25 14 26 19 27 15 28 16 29 17 30 30 31 31 32 32 33 33 34
REMARK SMILES IDX 34 35 35 36 36 37 88 38 37 39 87 40 38 41 39 42 40 43 81 44
REMARK SMILES IDX 41 45 86 46 80 47 82 48 42 49 85 50 79 51 78 52 43 54 69 55
REMARK SMILES IDX 52 56 68 57 53 58 56 59 67 60 83 61 54 62 55 63 66 65 84 66
REMARK SMILES IDX 57 67 44 68 45 69 50 70 46 71 47 72 49 73 51 74 48 75 70 76
REMARK SMILES IDX 71 77 76 78 72 79 73 80 75 81 77 82 74 83 58 84 59 85 64 86
REMARK SMILES IDX 60 87 61 88 63 89 65 90 62 91
REMARK H PARENT 4 20 82 53 56 64
REMARK Flexibility Score: inf
ROOT
ATOM      1  O   UNL A   1      33.277  30.834  26.983  1.00  0.00    -0.374 OA
ENDROOT
BRANCH   1   2
ATOM      2  C   UNL A   1      33.142  29.411  27.042  1.00  0.00     0.202 C 
BRANCH   2   3
ATOM      3  C   UNL A   1      32.838  28.772  25.685  1.00  0.00     0.261 C 
BRANCH   3   4
ATOM      4  O   UNL A   1      33.227  27.382  25.670  1.00  0.00    -0.460 OA
BRANCH   4   5
ATOM      5  C   UNL A   1      33.606  26.927  24.454  1.00  0.00     0.339 C 
ATOM      6  O   UNL A   1      34.036  27.575  23.518  1.00  0.00    -0.246 OA
BRANCH   5   7
ATOM      7  C   UNL A   1      33.622  25.451  24.466  1.00  0.00     0.080 A 
ATOM      8  C   UNL A   1      32.559  24.625  24.093  1.00  0.00     0.103 A 
ATOM      9  C   UNL A   1      32.713  23.226  24.105  1.00  0.00     0.032 A 
ATOM     10  C   UNL A   1      33.909  22.643  24.528  1.00  0.00    -0.017 A 
ATOM     11  C   UNL A   1      34.824  24.861  24.889  1.00  0.00     0.018 A 
ATOM     12  C   UNL A   1      34.961  23.469  24.933  1.00  0.00     0.010 A 
BRANCH   8  13
ATOM     13  S   UNL A   1      30.997  25.226  23.543  1.00  0.00     0.264 S 
ATOM     14  O   UNL A   1      30.264  24.098  23.012  1.00  0.00    -0.201 OA
ATOM     15  O   UNL A   1      31.179  26.412  22.742  1.00  0.00    -0.201 OA
BRANCH  13  16
ATOM     16  N   UNL A   1      30.185  25.690  24.941  1.00  0.00    -0.249 N 
ATOM     17  C   UNL A   1      30.096  23.823  26.622  1.00  0.00     0.115 C 
ATOM     18  C   UNL A   1      30.522  25.206  26.217  1.00  0.00     0.230 C 
ATOM     19  O   UNL A   1      31.062  25.975  26.982  1.00  0.00    -0.274 OA
ATOM     20  H   UNL A   1      29.440  26.329  24.863  1.00  0.00     0.183 HD
ENDBRANCH  13  16
ENDBRANCH   8  13
BRANCH  10  21
ATOM     21  C   UNL A   1      34.055  21.180  24.541  1.00  0.00    -0.011 A 
ATOM     22  C   UNL A   1      35.286  20.514  24.918  1.00  0.00     0.027 A 
ATOM     23  C   UNL A   1      32.993  20.440  24.177  1.00  0.00     0.080 A 
ATOM     24  C   UNL A   1      35.378  19.180  24.861  1.00  0.00     0.095 A 
ATOM     25  C   UNL A   1      33.079  18.955  24.116  1.00  0.00     0.255 A 
ATOM     26  N   UNL A   1      34.306  18.407  24.456  1.00  0.00    -0.258 N 
ATOM     27  O   UNL A   1      32.086  18.327  23.765  1.00  0.00    -0.269 OA
BRANCH  26  28
ATOM     28  C   UNL A   1      34.436  16.978  24.331  1.00  0.00     0.451 C 
ATOM     29  F   UNL A   1      34.521  16.601  23.033  1.00  0.00    -0.185 F 
ATOM     30  F   UNL A   1      35.547  16.541  24.973  1.00  0.00    -0.185 F 
ENDBRANCH  26  28
ENDBRANCH  10  21
ENDBRANCH   5   7
ENDBRANCH   4   5
ENDBRANCH   3   4
ENDBRANCH   2   3
ENDBRANCH   1   2
BRANCH   1  31
ATOM     31  C   UNL A   1      32.051  31.561  26.898  1.00  0.00     0.202 C 
BRANCH  31  32
ATOM     32  C   UNL A   1      32.219  33.090  26.928  1.00  0.00     0.261 C 
BRANCH  32  33
ATOM     33  O   UNL A   1      32.150  33.611  28.270  1.00  0.00    -0.460 OA
BRANCH  33  34
ATOM     34  C   UNL A   1      33.190  34.384  28.659  1.00  0.00     0.338 C 
ATOM     35  O   UNL A   1      33.134  35.568  28.956  1.00  0.00    -0.246 OA
BRANCH  34  36
ATOM     36  C   UNL A   1      34.427  33.582  28.857  1.00  0.00     0.060 A 
ATOM     37  C   UNL A   1      34.330  32.490  29.730  1.00  0.00     0.016 A 
ATOM     38  C   UNL A   1      35.656  33.869  28.252  1.00  0.00     0.016 A 
ATOM     39  C   UNL A   1      35.458  31.738  30.056  1.00  0.00     0.010 A 
ATOM     40  C   UNL A   1      36.790  33.098  28.564  1.00  0.00     0.010 A 
ATOM     41  C   UNL A   1      36.709  32.061  29.512  1.00  0.00    -0.014 A 
BRANCH  41  42
ATOM     42  C   UNL A   1      37.923  31.430  30.104  1.00  0.00     0.031 A 
ATOM     43  C   UNL A   1      38.271  31.728  31.541  1.00  0.00     0.074 A 
ATOM     44  C   UNL A   1      38.644  30.512  29.433  1.00  0.00     0.049 A 
ATOM     45  N   UNL A   1      39.211  31.215  32.297  1.00  0.00    -0.248 NA
ATOM     46  C   UNL A   1      37.441  32.734  32.222  1.00  0.00     0.031 C 
ATOM     47  C   UNL A   1      38.405  30.088  28.055  1.00  0.00     0.029 A 
ATOM     48  N   UNL A   1      39.718  29.752  29.835  1.00  0.00    -0.354 N 
ATOM     49  C   UNL A   1      39.081  31.831  33.535  1.00  0.00     0.074 A 
ATOM     50  C   UNL A   1      38.004  32.789  33.419  1.00  0.00     0.031 C 
ATOM     51  C   UNL A   1      39.298  29.136  27.730  1.00  0.00     0.029 A 
ATOM     52  C   UNL A   1      40.185  28.896  28.867  1.00  0.00     0.049 A 
ATOM     53  H   UNL A   1      40.116  29.818  30.733  1.00  0.00     0.167 HD
ATOM     54  C   UNL A   1      39.775  31.608  34.677  1.00  0.00     0.037 A 
ATOM     55  C   UNL A   1      41.210  28.019  28.892  1.00  0.00     0.037 A 
ATOM     56  C   UNL A   1      40.843  30.653  34.812  1.00  0.00     0.049 A 
ATOM     57  C   UNL A   1      42.020  27.843  30.152  1.00  0.00     0.074 A 
ATOM     58  C   UNL A   1      41.588  30.349  35.939  1.00  0.00     0.029 A 
ATOM     59  N   UNL A   1      41.323  29.853  33.788  1.00  0.00    -0.354 N 
ATOM     60  N   UNL A   1      41.862  28.407  31.325  1.00  0.00    -0.248 NA
ATOM     61  C   UNL A   1      43.149  26.902  30.090  1.00  0.00     0.031 C 
ATOM     62  C   UNL A   1      42.556  29.405  35.584  1.00  0.00     0.029 A 
ATOM     63  C   UNL A   1      42.376  29.078  34.249  1.00  0.00     0.049 A 
ATOM     64  H   UNL A   1      40.970  29.836  32.870  1.00  0.00     0.167 HD
ATOM     65  C   UNL A   1      42.848  27.868  32.144  1.00  0.00     0.074 A 
ATOM     66  C   UNL A   1      43.592  26.923  31.339  1.00  0.00     0.031 C 
ATOM     67  C   UNL A   1      43.112  28.134  33.448  1.00  0.00     0.037 A 
BRANCH  54  68
ATOM     68  C   UNL A   1      39.413  32.437  35.874  1.00  0.00     0.057 A 
ATOM     69  C   UNL A   1      40.016  33.676  36.129  1.00  0.00     0.134 A 
ATOM     70  C   UNL A   1      38.427  32.003  36.769  1.00  0.00     0.134 A 
ATOM     71  F   UNL A   1      40.978  34.144  35.319  1.00  0.00    -0.206 F 
ATOM     72  C   UNL A   1      39.671  34.440  37.246  1.00  0.00     0.040 A 
ATOM     73  C   UNL A   1      38.054  32.770  37.873  1.00  0.00     0.040 A 
ATOM     74  F   UNL A   1      37.805  30.828  36.580  1.00  0.00    -0.206 F 
ATOM     75  C   UNL A   1      38.682  33.989  38.118  1.00  0.00     0.006 A 
ENDBRANCH  54  68
BRANCH  55  76
ATOM     76  C   UNL A   1      41.548  27.234  27.675  1.00  0.00     0.057 A 
ATOM     77  C   UNL A   1      42.487  27.693  26.744  1.00  0.00     0.134 A 
ATOM     78  C   UNL A   1      40.905  26.021  27.396  1.00  0.00     0.134 A 
ATOM     79  F   UNL A   1      43.112  28.864  26.938  1.00  0.00    -0.206 F 
ATOM     80  C   UNL A   1      42.762  26.985  25.573  1.00  0.00     0.040 A 
ATOM     81  C   UNL A   1      41.191  25.289  26.243  1.00  0.00     0.040 A 
ATOM     82  F   UNL A   1      39.990  25.530  28.244  1.00  0.00    -0.206 F 
ATOM     83  C   UNL A   1      42.117  25.776  25.323  1.00  0.00     0.006 A 
ENDBRANCH  55  76
BRANCH  67  84
ATOM     84  C   UNL A   1      44.229  27.371  34.103  1.00  0.00     0.057 A 
ATOM     85  C   UNL A   1      45.533  27.877  34.171  1.00  0.00     0.134 A 
ATOM     86  C   UNL A   1      43.986  26.133  34.713  1.00  0.00     0.134 A 
ATOM     87  F   UNL A   1      45.836  29.053  33.601  1.00  0.00    -0.206 F 
ATOM     88  C   UNL A   1      46.559  27.170  34.801  1.00  0.00     0.040 A 
ATOM     89  C   UNL A   1      44.997  25.429  35.369  1.00  0.00     0.040 A 
ATOM     90  F   UNL A   1      42.757  25.594  34.696  1.00  0.00    -0.206 F 
ATOM     91  C   UNL A   1      46.291  25.944  35.408  1.00  0.00     0.006 A 
ENDBRANCH  67  84
ENDBRANCH  41  42
ENDBRANCH  34  36
ENDBRANCH  33  34
ENDBRANCH  32  33
ENDBRANCH  31  32
ENDBRANCH   1  31
TORSDOF 18
ENDMDL
MODEL 3
REMARK VINA RESULT:     -11.4      1.485      2.380
REMARK SMILES CC(=O)NS(=O)(=O)c1cc(-c2ccn(C(F)F)c(=O)c2)ccc1C(=O)OCCOCCOC(=O)c1ccc(-c2c3nc(c(-c4c(F)cccc4F)c4ccc([nH]4)c(-c4c(F)cccc4F)c4nc(c(-c5c(F)cccc5F)c5ccc2[nH]5)C=C4)C=C3)cc1
REMARK SMILES IDX 29 1 28 2 27 3 26 4 24 5 25 6 23 7 8 8 9 9 10 10 22 11 21 12
REMARK SMILES IDX 5 13 6 14 7 15 4 16 1 17 2 18 3 19 11 21 12 22 20 23 13 24
REMARK SMILES IDX 18 25 14 26 19 27 15 28 16 29 17 30 30 31 31 32 32 33 33 34
REMARK SMILES IDX 34 35 35 36 36 37 88 38 37 39 87 40 38 41 39 42 40 43 81 44
REMARK SMILES IDX 41 45 86 46 80 47 82 48 42 49 85 50 79 51 78 52 43 54 69 55
REMARK SMILES IDX 52 56 68 57 53 58 56 59 67 60 83 61 54 62 55 63 66 65 84 66
REMARK SMILES IDX 57 67 44 68 45 69 50 70 46 71 47 72 49 73 51 74 48 75 70 76
REMARK SMILES IDX 71 77 76 78 72 79 73 80 75 81 77 82 74 83 58 84 59 85 64 86
REMARK SMILES IDX 60 87 61 88 63 89 65 90 62 91
REMARK H PARENT 4 20 82 53 56 64
REMARK Flexibility Score: inf
ROOT
ATOM      1  O   UNL A   1      36.090  20.660  24.916  1.00  0.00    -0.374 OA
ENDROOT
BRANCH   1   2
ATOM      2  C   UNL A   1      34.724  20.644  25.341  1.00  0.00     0.202 C 
BRANCH   2   3
ATOM      3  C   UNL A   1      34.394  21.731  26.366  1.00  0.00     0.261 C 
BRANCH   3   4
ATOM      4  O   UNL A   1      33.114  22.335  26.084  1.00  0.00    -0.460 OA
BRANCH   4   5
ATOM      5  C   UNL A   1      33.108  23.138  24.996  1.00  0.00     0.339 C 
ATOM      6  O   UNL A   1      32.925  22.818  23.836  1.00  0.00    -0.246 OA
BRANCH   5   7
ATOM      7  C   UNL A   1      33.159  24.549  25.427  1.00  0.00     0.080 A 
ATOM      8  C   UNL A   1      32.061  25.315  25.827  1.00  0.00     0.103 A 
ATOM      9  C   UNL A   1      32.246  26.641  26.260  1.00  0.00     0.032 A 
ATOM     10  C   UNL A   1      33.514  27.224  26.257  1.00  0.00    -0.017 A 
ATOM     11  C   UNL A   1      34.434  25.138  25.427  1.00  0.00     0.018 A 
ATOM     12  C   UNL A   1      34.607  26.468  25.825  1.00  0.00     0.010 A 
BRANCH   8  13
ATOM     13  S   UNL A   1      30.408  24.708  25.877  1.00  0.00     0.264 S 
ATOM     14  O   UNL A   1      29.613  25.681  26.593  1.00  0.00    -0.201 OA
ATOM     15  O   UNL A   1      30.403  23.325  26.290  1.00  0.00    -0.201 OA
BRANCH  13  16
ATOM     16  N   UNL A   1      29.873  24.753  24.284  1.00  0.00    -0.249 N 
ATOM     17  C   UNL A   1      30.228  27.018  23.252  1.00  0.00     0.115 C 
ATOM     18  C   UNL A   1      30.487  25.539  23.293  1.00  0.00     0.230 C 
ATOM     19  O   UNL A   1      31.128  24.962  22.441  1.00  0.00    -0.274 OA
ATOM     20  H   UNL A   1      29.093  24.206  24.033  1.00  0.00     0.183 HD
ENDBRANCH  13  16
ENDBRANCH   8  13
BRANCH  10  21
ATOM     21  C   UNL A   1      33.692  28.613  26.706  1.00  0.00    -0.011 A 
ATOM     22  C   UNL A   1      34.909  29.088  27.334  1.00  0.00     0.027 A 
ATOM     23  C   UNL A   1      32.668  29.466  26.529  1.00  0.00     0.080 A 
ATOM     24  C   UNL A   1      34.996  30.350  27.772  1.00  0.00     0.095 A 
ATOM     25  C   UNL A   1      32.753  30.874  27.003  1.00  0.00     0.255 A 
ATOM     26  N   UNL A   1      33.939  31.230  27.627  1.00  0.00    -0.258 N 
ATOM     27  O   UNL A   1      31.787  31.609  26.829  1.00  0.00    -0.269 OA
BRANCH  26  28
ATOM     28  C   UNL A   1      34.016  32.565  28.162  1.00  0.00     0.451 C 
ATOM     29  F   UNL A   1      34.197  32.550  29.505  1.00  0.00    -0.185 F 
ATOM     30  F   UNL A   1      35.048  33.245  27.605  1.00  0.00    -0.185 F 
ENDBRANCH  26  28
ENDBRANCH  10  21
ENDBRANCH   5   7
ENDBRANCH   4   5
ENDBRANCH   3   4
ENDBRANCH   2   3
ENDBRANCH   1   2
BRANCH   1  31
ATOM     31  C   UNL A   1      36.726  19.382  24.857  1.00  0.00     0.202 C 
BRANCH  31  32
ATOM     32  C   UNL A   1      38.259  19.433  24.973  1.00  0.00     0.261 C 
BRANCH  32  33
ATOM     33  O   UNL A   1      38.707  20.624  25.651  1.00  0.00    -0.460 OA
BRANCH  33  34
ATOM     34  C   UNL A   1      39.927  20.550  26.230  1.00  0.00     0.338 C 
ATOM     35  O   UNL A   1      40.718  19.625  26.127  1.00  0.00    -0.246 OA
BRANCH  34  36
ATOM     36  C   UNL A   1      40.297  21.828  26.897  1.00  0.00     0.060 A 
ATOM     37  C   UNL A   1      39.718  22.993  26.378  1.00  0.00     0.016 A 
ATOM     38  C   UNL A   1      41.188  21.924  27.973  1.00  0.00     0.016 A 
ATOM     39  C   UNL A   1      40.079  24.247  26.872  1.00  0.00     0.010 A 
ATOM     40  C   UNL A   1      41.536  23.187  28.485  1.00  0.00     0.010 A 
ATOM     41  C   UNL A   1      41.025  24.361  27.900  1.00  0.00    -0.014 A 
BRANCH  41  42
ATOM     42  C   UNL A   1      41.594  25.707  28.193  1.00  0.00     0.031 A 
ATOM     43  C   UNL A   1      42.955  26.057  27.642  1.00  0.00     0.074 A 
ATOM     44  C   UNL A   1      40.881  26.656  28.829  1.00  0.00     0.049 A 
ATOM     45  N   UNL A   1      43.601  27.197  27.676  1.00  0.00    -0.248 NA
ATOM     46  C   UNL A   1      43.680  24.980  26.951  1.00  0.00     0.031 C 
ATOM     47  C   UNL A   1      39.539  26.480  29.380  1.00  0.00     0.029 A 
ATOM     48  N   UNL A   1      41.185  27.970  29.099  1.00  0.00    -0.354 N 
ATOM     49  C   UNL A   1      44.800  26.973  27.010  1.00  0.00     0.074 A 
ATOM     50  C   UNL A   1      44.814  25.579  26.624  1.00  0.00     0.031 C 
ATOM     51  C   UNL A   1      39.130  27.647  29.911  1.00  0.00     0.029 A 
ATOM     52  C   UNL A   1      40.186  28.646  29.758  1.00  0.00     0.049 A 
ATOM     53  H   UNL A   1      42.040  28.387  28.845  1.00  0.00     0.167 HD
ATOM     54  C   UNL A   1      45.793  27.849  26.723  1.00  0.00     0.037 A 
ATOM     55  C   UNL A   1      40.129  29.922  30.191  1.00  0.00     0.037 A 
ATOM     56  C   UNL A   1      45.790  29.240  27.092  1.00  0.00     0.049 A 
ATOM     57  C   UNL A   1      41.281  30.860  29.926  1.00  0.00     0.074 A 
ATOM     58  C   UNL A   1      46.748  30.203  26.822  1.00  0.00     0.029 A 
ATOM     59  N   UNL A   1      44.786  29.865  27.813  1.00  0.00    -0.354 N 
ATOM     60  N   UNL A   1      42.391  30.643  29.265  1.00  0.00    -0.248 NA
ATOM     61  C   UNL A   1      41.165  32.224  30.466  1.00  0.00     0.031 C 
ATOM     62  C   UNL A   1      46.351  31.398  27.429  1.00  0.00     0.029 A 
ATOM     63  C   UNL A   1      45.117  31.194  28.027  1.00  0.00     0.049 A 
ATOM     64  H   UNL A   1      43.962  29.431  28.128  1.00  0.00     0.167 HD
ATOM     65  C   UNL A   1      43.090  31.845  29.284  1.00  0.00     0.074 A 
ATOM     66  C   UNL A   1      42.271  32.793  30.010  1.00  0.00     0.031 C 
ATOM     67  C   UNL A   1      44.299  32.137  28.745  1.00  0.00     0.037 A 
BRANCH  54  68
ATOM     68  C   UNL A   1      46.987  27.315  25.986  1.00  0.00     0.057 A 
ATOM     69  C   UNL A   1      48.064  26.717  26.653  1.00  0.00     0.134 A 
ATOM     70  C   UNL A   1      47.046  27.375  24.588  1.00  0.00     0.134 A 
ATOM     71  F   UNL A   1      48.077  26.641  27.993  1.00  0.00    -0.206 F 
ATOM     72  C   UNL A   1      49.170  26.223  25.958  1.00  0.00     0.040 A 
ATOM     73  C   UNL A   1      48.133  26.860  23.880  1.00  0.00     0.040 A 
ATOM     74  F   UNL A   1      46.045  27.929  23.887  1.00  0.00    -0.206 F 
ATOM     75  C   UNL A   1      49.202  26.288  24.567  1.00  0.00     0.006 A 
ENDBRANCH  54  68
BRANCH  55  76
ATOM     76  C   UNL A   1      38.935  30.403  30.936  1.00  0.00     0.057 A 
ATOM     77  C   UNL A   1      38.793  30.183  32.311  1.00  0.00     0.134 A 
ATOM     78  C   UNL A   1      37.888  31.059  30.277  1.00  0.00     0.134 A 
ATOM     79  F   UNL A   1      39.747  29.532  32.993  1.00  0.00    -0.206 F 
ATOM     80  C   UNL A   1      37.647  30.583  33.001  1.00  0.00     0.040 A 
ATOM     81  C   UNL A   1      36.749  31.489  30.959  1.00  0.00     0.040 A 
ATOM     82  F   UNL A   1      37.959  31.293  28.959  1.00  0.00    -0.206 F 
ATOM     83  C   UNL A   1      36.623  31.243  32.325  1.00  0.00     0.006 A 
ENDBRANCH  55  76
BRANCH  67  84
ATOM     84  C   UNL A   1      44.805  33.545  28.887  1.00  0.00     0.057 A 
ATOM     85  C   UNL A   1      44.500  34.541  27.950  1.00  0.00     0.134 A 
ATOM     86  C   UNL A   1      45.570  33.921  29.999  1.00  0.00     0.134 A 
ATOM     87  F   UNL A   1      43.779  34.248  26.858  1.00  0.00    -0.206 F 
ATOM     88  C   UNL A   1      44.958  35.852  28.102  1.00  0.00     0.040 A 
ATOM     89  C   UNL A   1      46.011  35.234  30.176  1.00  0.00     0.040 A 
ATOM     90  F   UNL A   1      45.890  33.021  30.942  1.00  0.00    -0.206 F 
ATOM     91  C   UNL A   1      45.710  36.203  29.222  1.00  0.00     0.006 A 
ENDBRANCH  67  84
ENDBRANCH  41  42
ENDBRANCH  34  36
ENDBRANCH  33  34
ENDBRANCH  32  33
ENDBRANCH  31  32
ENDBRANCH   1  31
TORSDOF 18
ENDMDL
