MODEL 1
REMARK VINA RESULT:      -8.6      0.000      0.000
REMARK SMILES CC[C@H](C)[C@@H](Nc1ccc(Cl)c(Br)c1)C(=O)OCCOCCOC(=O)c1ccc(-c2c3nc(c(-c4c(F)cccc4F)c4ccc([nH]4)c(-c4c(F)cccc4F)c4nc(c(-c5c(F)cccc5F)c5ccc2[nH]5)C=C4)C=C3)cc1
REMARK SMILES IDX 20 1 19 2 18 3 17 4 15 5 16 6 5 7 3 8 4 9 2 10 1 11 6 12
REMARK SMILES IDX 7 14 8 15 14 16 9 17 12 18 10 19 13 20 11 21 21 22 22 23
REMARK SMILES IDX 23 24 24 25 25 26 26 27 27 28 79 29 28 30 78 31 29 32 30 33
REMARK SMILES IDX 31 34 72 35 32 36 77 37 71 38 73 39 33 40 76 41 70 42 69 43
REMARK SMILES IDX 34 45 60 46 43 47 59 48 44 49 47 50 58 51 74 52 45 53 46 54
REMARK SMILES IDX 57 56 75 57 48 58 35 59 36 60 41 61 37 62 38 63 40 64 42 65
REMARK SMILES IDX 39 66 61 67 62 68 67 69 63 70 64 71 66 72 68 73 65 74 49 75
REMARK SMILES IDX 50 76 55 77 51 78 52 79 54 80 56 81 53 82
REMARK H PARENT 6 13 73 44 47 55
REMARK Flexibility Score: inf
ROOT
ATOM      1  O   UNL A   1      34.186  35.424  32.599  1.00  0.00    -0.374 OA
ENDROOT
BRANCH   1   2
ATOM      2  C   UNL A   1      33.870  34.242  33.325  1.00  0.00     0.202 C 
BRANCH   2   3
ATOM      3  C   UNL A   1      35.021  33.316  33.726  1.00  0.00     0.261 C 
BRANCH   3   4
ATOM      4  O   UNL A   1      35.630  33.618  34.995  1.00  0.00    -0.462 OA
BRANCH   4   5
ATOM      5  C   UNL A   1      36.899  34.121  34.914  1.00  0.00     0.328 C 
ATOM      6  O   UNL A   1      37.239  35.017  34.146  1.00  0.00    -0.250 OA
BRANCH   5   7
ATOM      7  C   UNL A   1      37.905  33.374  35.818  1.00  0.00     0.192 C 
BRANCH   7   8
ATOM      8  C   UNL A   1      37.886  33.848  37.311  1.00  0.00     0.019 C 
ATOM      9  C   UNL A   1      37.391  32.735  38.249  1.00  0.00     0.010 C 
BRANCH   8  10
ATOM     10  C   UNL A   1      39.272  34.410  37.741  1.00  0.00     0.002 C 
ATOM     11  C   UNL A   1      39.309  35.672  38.595  1.00  0.00     0.004 C 
ENDBRANCH   8  10
ENDBRANCH   7   8
BRANCH   7  12
ATOM     12  N   UNL A   1      37.793  31.895  35.721  1.00  0.00    -0.372 N 
ATOM     13  H   UNL A   1      37.017  31.465  36.149  1.00  0.00     0.161 HD
BRANCH  12  14
ATOM     14  C   UNL A   1      38.701  31.081  35.071  1.00  0.00     0.036 A 
ATOM     15  C   UNL A   1      38.407  30.459  33.854  1.00  0.00     0.027 A 
ATOM     16  C   UNL A   1      39.923  30.787  35.686  1.00  0.00     0.043 A 
ATOM     17  C   UNL A   1      39.271  29.513  33.297  1.00  0.00     0.024 A 
ATOM     18  C   UNL A   1      40.801  29.847  35.131  1.00  0.00     0.038 A 
ATOM     19  C   UNL A   1      40.465  29.193  33.943  1.00  0.00     0.055 A 
ATOM     20  Br  UNL A   1      42.413  29.493  36.074  1.00  0.00    -0.049 Br
ATOM     21  Cl  UNL A   1      41.455  27.969  33.235  1.00  0.00    -0.083 Cl
ENDBRANCH  12  14
ENDBRANCH   7  12
ENDBRANCH   5   7
ENDBRANCH   4   5
ENDBRANCH   3   4
ENDBRANCH   2   3
ENDBRANCH   1   2
BRANCH   1  22
ATOM     22  C   UNL A   1      33.107  36.277  32.230  1.00  0.00     0.202 C 
BRANCH  22  23
ATOM     23  C   UNL A   1      32.479  36.050  30.851  1.00  0.00     0.261 C 
BRANCH  23  24
ATOM     24  O   UNL A   1      33.471  35.860  29.825  1.00  0.00    -0.460 OA
BRANCH  24  25
ATOM     25  C   UNL A   1      33.345  34.708  29.123  1.00  0.00     0.338 C 
ATOM     26  O   UNL A   1      32.422  34.389  28.386  1.00  0.00    -0.246 OA
BRANCH  25  27
ATOM     27  C   UNL A   1      34.593  33.924  29.202  1.00  0.00     0.060 A 
ATOM     28  C   UNL A   1      35.709  34.226  28.420  1.00  0.00     0.016 A 
ATOM     29  C   UNL A   1      34.646  32.890  30.146  1.00  0.00     0.016 A 
ATOM     30  C   UNL A   1      36.900  33.522  28.630  1.00  0.00     0.010 A 
ATOM     31  C   UNL A   1      35.832  32.191  30.354  1.00  0.00     0.010 A 
ATOM     32  C   UNL A   1      36.978  32.524  29.621  1.00  0.00    -0.014 A 
BRANCH  32  33
ATOM     33  C   UNL A   1      38.286  31.934  30.001  1.00  0.00     0.031 A 
ATOM     34  C   UNL A   1      39.257  32.667  30.875  1.00  0.00     0.074 A 
ATOM     35  C   UNL A   1      38.623  30.740  29.477  1.00  0.00     0.049 A 
ATOM     36  N   UNL A   1      40.432  32.279  31.307  1.00  0.00    -0.248 NA
ATOM     37  C   UNL A   1      38.868  34.016  31.305  1.00  0.00     0.031 C 
ATOM     38  C   UNL A   1      37.794  29.964  28.554  1.00  0.00     0.029 A 
ATOM     39  N   UNL A   1      39.753  29.978  29.633  1.00  0.00    -0.354 N 
ATOM     40  C   UNL A   1      40.913  33.324  32.084  1.00  0.00     0.074 A 
ATOM     41  C   UNL A   1      39.930  34.387  32.006  1.00  0.00     0.031 C 
ATOM     42  C   UNL A   1      38.435  28.829  28.238  1.00  0.00     0.029 A 
ATOM     43  C   UNL A   1      39.730  28.811  28.910  1.00  0.00     0.049 A 
ATOM     44  H   UNL A   1      40.508  30.243  30.207  1.00  0.00     0.167 HD
ATOM     45  C   UNL A   1      42.056  33.381  32.812  1.00  0.00     0.037 A 
ATOM     46  C   UNL A   1      40.650  27.836  28.796  1.00  0.00     0.037 A 
ATOM     47  C   UNL A   1      43.054  32.339  32.844  1.00  0.00     0.049 A 
ATOM     48  C   UNL A   1      41.933  27.943  29.570  1.00  0.00     0.074 A 
ATOM     49  C   UNL A   1      44.234  32.290  33.569  1.00  0.00     0.029 A 
ATOM     50  N   UNL A   1      43.003  31.171  32.094  1.00  0.00    -0.354 N 
ATOM     51  N   UNL A   1      42.335  28.892  30.380  1.00  0.00    -0.248 NA
ATOM     52  C   UNL A   1      42.886  26.834  29.423  1.00  0.00     0.031 C 
ATOM     53  C   UNL A   1      44.920  31.121  33.215  1.00  0.00     0.029 A 
ATOM     54  C   UNL A   1      44.143  30.411  32.316  1.00  0.00     0.049 A 
ATOM     55  H   UNL A   1      42.266  30.919  31.493  1.00  0.00     0.167 HD
ATOM     56  C   UNL A   1      43.577  28.489  30.853  1.00  0.00     0.074 A 
ATOM     57  C   UNL A   1      43.849  27.197  30.257  1.00  0.00     0.031 C 
ATOM     58  C   UNL A   1      44.415  29.132  31.703  1.00  0.00     0.037 A 
BRANCH  45  59
ATOM     59  C   UNL A   1      42.280  34.628  33.622  1.00  0.00     0.057 A 
ATOM     60  C   UNL A   1      42.863  35.766  33.054  1.00  0.00     0.134 A 
ATOM     61  C   UNL A   1      41.904  34.704  34.972  1.00  0.00     0.134 A 
ATOM     62  F   UNL A   1      43.263  35.762  31.773  1.00  0.00    -0.206 F 
ATOM     63  C   UNL A   1      43.046  36.940  33.790  1.00  0.00     0.040 A 
ATOM     64  C   UNL A   1      42.050  35.882  35.708  1.00  0.00     0.040 A 
ATOM     65  F   UNL A   1      41.339  33.650  35.580  1.00  0.00    -0.206 F 
ATOM     66  C   UNL A   1      42.624  37.005  35.116  1.00  0.00     0.006 A 
ENDBRANCH  45  59
BRANCH  46  67
ATOM     67  C   UNL A   1      40.380  26.668  27.921  1.00  0.00     0.057 A 
ATOM     68  C   UNL A   1      40.939  26.574  26.641  1.00  0.00     0.134 A 
ATOM     69  C   UNL A   1      39.554  25.621  28.344  1.00  0.00     0.134 A 
ATOM     70  F   UNL A   1      41.731  27.550  26.174  1.00  0.00    -0.206 F 
ATOM     71  C   UNL A   1      40.679  25.484  25.809  1.00  0.00     0.040 A 
ATOM     72  C   UNL A   1      39.308  24.512  27.534  1.00  0.00     0.040 A 
ATOM     73  F   UNL A   1      39.003  25.647  29.567  1.00  0.00    -0.206 F 
ATOM     74  C   UNL A   1      39.867  24.445  26.258  1.00  0.00     0.006 A 
ENDBRANCH  46  67
BRANCH  58  75
ATOM     75  C   UNL A   1      45.701  28.432  32.049  1.00  0.00     0.057 A 
ATOM     76  C   UNL A   1      45.767  27.561  33.145  1.00  0.00     0.134 A 
ATOM     77  C   UNL A   1      46.873  28.619  31.304  1.00  0.00     0.134 A 
ATOM     78  F   UNL A   1      44.685  27.338  33.905  1.00  0.00    -0.206 F 
ATOM     79  C   UNL A   1      46.950  26.901  33.484  1.00  0.00     0.040 A 
ATOM     80  C   UNL A   1      48.054  27.941  31.615  1.00  0.00     0.040 A 
ATOM     81  F   UNL A   1      46.876  29.425  30.231  1.00  0.00    -0.206 F 
ATOM     82  C   UNL A   1      48.095  27.082  32.712  1.00  0.00     0.006 A 
ENDBRANCH  58  75
ENDBRANCH  32  33
ENDBRANCH  25  27
ENDBRANCH  24  25
ENDBRANCH  23  24
ENDBRANCH  22  23
ENDBRANCH   1  22
TORSDOF 18
ENDMDL
MODEL 2
REMARK VINA RESULT:      -8.2      5.572     11.041
REMARK SMILES CC[C@H](C)[C@@H](Nc1ccc(Cl)c(Br)c1)C(=O)OCCOCCOC(=O)c1ccc(-c2c3nc(c(-c4c(F)cccc4F)c4ccc([nH]4)c(-c4c(F)cccc4F)c4nc(c(-c5c(F)cccc5F)c5ccc2[nH]5)C=C4)C=C3)cc1
REMARK SMILES IDX 20 1 19 2 18 3 17 4 15 5 16 6 5 7 3 8 4 9 2 10 1 11 6 12
REMARK SMILES IDX 7 14 8 15 14 16 9 17 12 18 10 19 13 20 11 21 21 22 22 23
REMARK SMILES IDX 23 24 24 25 25 26 26 27 27 28 79 29 28 30 78 31 29 32 30 33
REMARK SMILES IDX 31 34 72 35 32 36 77 37 71 38 73 39 33 40 76 41 70 42 69 43
REMARK SMILES IDX 34 45 60 46 43 47 59 48 44 49 47 50 58 51 74 52 45 53 46 54
REMARK SMILES IDX 57 56 75 57 48 58 35 59 36 60 41 61 37 62 38 63 40 64 42 65
REMARK SMILES IDX 39 66 61 67 62 68 67 69 63 70 64 71 66 72 68 73 65 74 49 75
REMARK SMILES IDX 50 76 55 77 51 78 52 79 54 80 56 81 53 82
REMARK H PARENT 6 13 73 44 47 55
REMARK Flexibility Score: inf
ROOT
ATOM      1  O   UNL A   1      40.860  21.160  26.810  1.00  0.00    -0.374 OA
ENDROOT
BRANCH   1   2
ATOM      2  C   UNL A   1      39.690  21.874  26.430  1.00  0.00     0.202 C 
BRANCH   2   3
ATOM      3  C   UNL A   1      38.597  21.112  25.677  1.00  0.00     0.261 C 
BRANCH   3   4
ATOM      4  O   UNL A   1      37.432  21.889  25.344  1.00  0.00    -0.462 OA
BRANCH   4   5
ATOM      5  C   UNL A   1      36.344  21.154  24.962  1.00  0.00     0.328 C 
ATOM      6  O   UNL A   1      36.301  19.926  24.978  1.00  0.00    -0.250 OA
BRANCH   5   7
ATOM      7  C   UNL A   1      35.195  22.020  24.400  1.00  0.00     0.192 C 
BRANCH   7   8
ATOM      8  C   UNL A   1      33.813  21.761  25.091  1.00  0.00     0.019 C 
ATOM      9  C   UNL A   1      33.004  20.686  24.347  1.00  0.00     0.010 C 
BRANCH   8  10
ATOM     10  C   UNL A   1      33.992  21.427  26.600  1.00  0.00     0.002 C 
ATOM     11  C   UNL A   1      33.963  22.573  27.604  1.00  0.00     0.004 C 
ENDBRANCH   8  10
ENDBRANCH   7   8
BRANCH   7  12
ATOM     12  N   UNL A   1      35.518  23.471  24.366  1.00  0.00    -0.372 N 
ATOM     13  H   UNL A   1      36.460  23.733  24.479  1.00  0.00     0.161 HD
BRANCH  12  14
ATOM     14  C   UNL A   1      34.588  24.477  24.188  1.00  0.00     0.036 A 
ATOM     15  C   UNL A   1      33.938  24.683  22.967  1.00  0.00     0.027 A 
ATOM     16  C   UNL A   1      34.347  25.382  25.226  1.00  0.00     0.043 A 
ATOM     17  C   UNL A   1      33.128  25.801  22.759  1.00  0.00     0.024 A 
ATOM     18  C   UNL A   1      33.528  26.502  25.031  1.00  0.00     0.038 A 
ATOM     19  C   UNL A   1      32.933  26.723  23.787  1.00  0.00     0.055 A 
ATOM     20  Br  UNL A   1      33.308  27.691  26.497  1.00  0.00    -0.049 Br
ATOM     21  Cl  UNL A   1      31.974  28.116  23.441  1.00  0.00    -0.083 Cl
ENDBRANCH  12  14
ENDBRANCH   7  12
ENDBRANCH   5   7
ENDBRANCH   4   5
ENDBRANCH   3   4
ENDBRANCH   2   3
ENDBRANCH   1   2
BRANCH   1  22
ATOM     22  C   UNL A   1      41.857  20.951  25.815  1.00  0.00     0.202 C 
BRANCH  22  23
ATOM     23  C   UNL A   1      43.029  21.938  25.782  1.00  0.00     0.261 C 
BRANCH  23  24
ATOM     24  O   UNL A   1      42.833  22.985  24.815  1.00  0.00    -0.460 OA
BRANCH  24  25
ATOM     25  C   UNL A   1      43.623  24.072  24.989  1.00  0.00     0.338 C 
ATOM     26  O   UNL A   1      44.637  24.356  24.367  1.00  0.00    -0.246 OA
BRANCH  25  27
ATOM     27  C   UNL A   1      42.989  25.017  25.930  1.00  0.00     0.060 A 
ATOM     28  C   UNL A   1      41.760  24.750  26.535  1.00  0.00     0.016 A 
ATOM     29  C   UNL A   1      43.700  26.181  26.248  1.00  0.00     0.016 A 
ATOM     30  C   UNL A   1      41.274  25.629  27.509  1.00  0.00     0.010 A 
ATOM     31  C   UNL A   1      43.214  27.055  27.218  1.00  0.00     0.010 A 
ATOM     32  C   UNL A   1      42.014  26.769  27.879  1.00  0.00    -0.014 A 
BRANCH  32  33
ATOM     33  C   UNL A   1      41.618  27.579  29.059  1.00  0.00     0.031 A 
ATOM     34  C   UNL A   1      42.315  27.444  30.377  1.00  0.00     0.074 A 
ATOM     35  C   UNL A   1      40.554  28.397  28.942  1.00  0.00     0.049 A 
ATOM     36  N   UNL A   1      42.095  28.091  31.495  1.00  0.00    -0.248 NA
ATOM     37  C   UNL A   1      43.385  26.441  30.457  1.00  0.00     0.031 C 
ATOM     38  C   UNL A   1      39.748  28.558  27.731  1.00  0.00     0.029 A 
ATOM     39  N   UNL A   1      39.961  29.233  29.853  1.00  0.00    -0.354 N 
ATOM     40  C   UNL A   1      43.018  27.596  32.407  1.00  0.00     0.074 A 
ATOM     41  C   UNL A   1      43.752  26.546  31.727  1.00  0.00     0.031 C 
ATOM     42  C   UNL A   1      38.775  29.451  27.969  1.00  0.00     0.029 A 
ATOM     43  C   UNL A   1      38.870  29.902  29.353  1.00  0.00     0.049 A 
ATOM     44  H   UNL A   1      40.286  29.344  30.776  1.00  0.00     0.167 HD
ATOM     45  C   UNL A   1      43.245  27.995  33.683  1.00  0.00     0.037 A 
ATOM     46  C   UNL A   1      38.036  30.776  29.945  1.00  0.00     0.037 A 
ATOM     47  C   UNL A   1      42.476  29.005  34.370  1.00  0.00     0.049 A 
ATOM     48  C   UNL A   1      38.273  31.166  31.375  1.00  0.00     0.074 A 
ATOM     49  C   UNL A   1      42.643  29.498  35.654  1.00  0.00     0.029 A 
ATOM     50  N   UNL A   1      41.372  29.658  33.837  1.00  0.00    -0.354 N 
ATOM     51  N   UNL A   1      39.210  30.762  32.199  1.00  0.00    -0.248 NA
ATOM     52  C   UNL A   1      37.343  32.143  31.955  1.00  0.00     0.031 C 
ATOM     53  C   UNL A   1      41.609  30.405  35.915  1.00  0.00     0.029 A 
ATOM     54  C   UNL A   1      40.831  30.525  34.775  1.00  0.00     0.049 A 
ATOM     55  H   UNL A   1      41.024  29.525  32.927  1.00  0.00     0.167 HD
ATOM     56  C   UNL A   1      38.994  31.448  33.388  1.00  0.00     0.074 A 
ATOM     57  C   UNL A   1      37.852  32.311  33.167  1.00  0.00     0.031 C 
ATOM     58  C   UNL A   1      39.680  31.368  34.554  1.00  0.00     0.037 A 
BRANCH  45  59
ATOM     59  C   UNL A   1      44.371  27.317  34.413  1.00  0.00     0.057 A 
ATOM     60  C   UNL A   1      45.678  27.814  34.352  1.00  0.00     0.134 A 
ATOM     61  C   UNL A   1      44.155  26.170  35.194  1.00  0.00     0.134 A 
ATOM     62  F   UNL A   1      45.963  28.897  33.614  1.00  0.00    -0.206 F 
ATOM     63  C   UNL A   1      46.724  27.210  35.054  1.00  0.00     0.040 A 
ATOM     64  C   UNL A   1      45.186  25.577  35.926  1.00  0.00     0.040 A 
ATOM     65  F   UNL A   1      42.927  25.640  35.297  1.00  0.00    -0.206 F 
ATOM     66  C   UNL A   1      46.476  26.098  35.856  1.00  0.00     0.006 A 
ENDBRANCH  45  59
BRANCH  46  67
ATOM     67  C   UNL A   1      36.905  31.350  29.173  1.00  0.00     0.057 A 
ATOM     68  C   UNL A   1      35.768  30.589  28.873  1.00  0.00     0.134 A 
ATOM     69  C   UNL A   1      36.937  32.672  28.715  1.00  0.00     0.134 A 
ATOM     70  F   UNL A   1      35.682  29.313  29.276  1.00  0.00    -0.206 F 
ATOM     71  C   UNL A   1      34.708  31.120  28.138  1.00  0.00     0.040 A 
ATOM     72  C   UNL A   1      35.871  33.224  28.003  1.00  0.00     0.040 A 
ATOM     73  F   UNL A   1      37.992  33.455  28.986  1.00  0.00    -0.206 F 
ATOM     74  C   UNL A   1      34.754  32.444  27.707  1.00  0.00     0.006 A 
ENDBRANCH  46  67
BRANCH  58  75
ATOM     75  C   UNL A   1      39.217  32.257  35.676  1.00  0.00     0.057 A 
ATOM     76  C   UNL A   1      39.687  33.572  35.787  1.00  0.00     0.134 A 
ATOM     77  C   UNL A   1      38.310  31.813  36.649  1.00  0.00     0.134 A 
ATOM     78  F   UNL A   1      40.560  34.062  34.895  1.00  0.00    -0.206 F 
ATOM     79  C   UNL A   1      39.270  34.413  36.821  1.00  0.00     0.040 A 
ATOM     80  C   UNL A   1      37.863  32.655  37.670  1.00  0.00     0.040 A 
ATOM     81  F   UNL A   1      37.807  30.571  36.593  1.00  0.00    -0.206 F 
ATOM     82  C   UNL A   1      38.348  33.958  37.760  1.00  0.00     0.006 A 
ENDBRANCH  58  75
ENDBRANCH  32  33
ENDBRANCH  25  27
ENDBRANCH  24  25
ENDBRANCH  23  24
ENDBRANCH  22  23
ENDBRANCH   1  22
TORSDOF 18
ENDMDL
MODEL 3
REMARK VINA RESULT:      -8.2      5.026      9.872
REMARK SMILES CC[C@H](C)[C@@H](Nc1ccc(Cl)c(Br)c1)C(=O)OCCOCCOC(=O)c1ccc(-c2c3nc(c(-c4c(F)cccc4F)c4ccc([nH]4)c(-c4c(F)cccc4F)c4nc(c(-c5c(F)cccc5F)c5ccc2[nH]5)C=C4)C=C3)cc1
REMARK SMILES IDX 20 1 19 2 18 3 17 4 15 5 16 6 5 7 3 8 4 9 2 10 1 11 6 12
REMARK SMILES IDX 7 14 8 15 14 16 9 17 12 18 10 19 13 20 11 21 21 22 22 23
REMARK SMILES IDX 23 24 24 25 25 26 26 27 27 28 79 29 28 30 78 31 29 32 30 33
REMARK SMILES IDX 31 34 72 35 32 36 77 37 71 38 73 39 33 40 76 41 70 42 69 43
REMARK SMILES IDX 34 45 60 46 43 47 59 48 44 49 47 50 58 51 74 52 45 53 46 54
REMARK SMILES IDX 57 56 75 57 48 58 35 59 36 60 41 61 37 62 38 63 40 64 42 65
REMARK SMILES IDX 39 66 61 67 62 68 67 69 63 70 64 71 66 72 68 73 65 74 49 75
REMARK SMILES IDX 50 76 55 77 51 78 52 79 54 80 56 81 53 82
REMARK H PARENT 6 13 73 44 47 55
REMARK Flexibility Score: inf
ROOT
ATOM      1  O   UNL A   1      32.420  30.841  26.980  1.00  0.00    -0.374 OA
ENDROOT
BRANCH   1   2
ATOM      2  C   UNL A   1      32.330  29.672  26.175  1.00  0.00     0.202 C 
BRANCH   2   3
ATOM      3  C   UNL A   1      33.305  28.528  26.459  1.00  0.00     0.261 C 
BRANCH   3   4
ATOM      4  O   UNL A   1      33.770  27.822  25.293  1.00  0.00    -0.462 OA
BRANCH   4   5
ATOM      5  C   UNL A   1      33.241  26.572  25.133  1.00  0.00     0.328 C 
ATOM      6  O   UNL A   1      32.693  25.933  26.028  1.00  0.00    -0.250 OA
BRANCH   5   7
ATOM      7  C   UNL A   1      33.492  25.984  23.726  1.00  0.00     0.192 C 
BRANCH   7   8
ATOM      8  C   UNL A   1      33.594  24.421  23.703  1.00  0.00     0.019 C 
ATOM      9  C   UNL A   1      33.048  23.839  22.389  1.00  0.00     0.010 C 
BRANCH   8  10
ATOM     10  C   UNL A   1      35.046  23.947  24.000  1.00  0.00     0.002 C 
ATOM     11  C   UNL A   1      35.518  23.921  25.449  1.00  0.00     0.004 C 
ENDBRANCH   8  10
ENDBRANCH   7   8
BRANCH   7  12
ATOM     12  N   UNL A   1      32.529  26.476  22.706  1.00  0.00    -0.372 N 
ATOM     13  H   UNL A   1      32.805  26.444  21.761  1.00  0.00     0.161 HD
BRANCH  12  14
ATOM     14  C   UNL A   1      31.272  26.974  22.991  1.00  0.00     0.036 A 
ATOM     15  C   UNL A   1      30.292  26.207  23.629  1.00  0.00     0.027 A 
ATOM     16  C   UNL A   1      30.925  28.255  22.550  1.00  0.00     0.043 A 
ATOM     17  C   UNL A   1      28.982  26.671  23.759  1.00  0.00     0.024 A 
ATOM     18  C   UNL A   1      29.615  28.734  22.685  1.00  0.00     0.038 A 
ATOM     19  C   UNL A   1      28.636  27.931  23.273  1.00  0.00     0.055 A 
ATOM     20  Br  UNL A   1      29.245  30.471  22.009  1.00  0.00    -0.049 Br
ATOM     21  Cl  UNL A   1      26.984  28.415  23.409  1.00  0.00    -0.083 Cl
ENDBRANCH  12  14
ENDBRANCH   7  12
ENDBRANCH   5   7
ENDBRANCH   4   5
ENDBRANCH   3   4
ENDBRANCH   2   3
ENDBRANCH   1   2
BRANCH   1  22
ATOM     22  C   UNL A   1      31.494  31.892  26.722  1.00  0.00     0.202 C 
BRANCH  22  23
ATOM     23  C   UNL A   1      32.021  33.328  26.824  1.00  0.00     0.261 C 
BRANCH  23  24
ATOM     24  O   UNL A   1      32.178  33.753  28.191  1.00  0.00    -0.460 OA
BRANCH  24  25
ATOM     25  C   UNL A   1      33.235  34.572  28.410  1.00  0.00     0.338 C 
ATOM     26  O   UNL A   1      33.222  35.793  28.476  1.00  0.00    -0.246 OA
BRANCH  25  27
ATOM     27  C   UNL A   1      34.428  33.779  28.767  1.00  0.00     0.060 A 
ATOM     28  C   UNL A   1      35.724  34.241  28.532  1.00  0.00     0.016 A 
ATOM     29  C   UNL A   1      34.216  32.556  29.417  1.00  0.00     0.016 A 
ATOM     30  C   UNL A   1      36.810  33.496  29.005  1.00  0.00     0.010 A 
ATOM     31  C   UNL A   1      35.299  31.816  29.887  1.00  0.00     0.010 A 
ATOM     32  C   UNL A   1      36.603  32.297  29.715  1.00  0.00    -0.014 A 
BRANCH  32  33
ATOM     33  C   UNL A   1      37.729  31.623  30.409  1.00  0.00     0.031 A 
ATOM     34  C   UNL A   1      38.553  30.570  29.734  1.00  0.00     0.074 A 
ATOM     35  C   UNL A   1      37.953  31.925  31.701  1.00  0.00     0.049 A 
ATOM     36  N   UNL A   1      39.577  29.901  30.202  1.00  0.00    -0.248 NA
ATOM     37  C   UNL A   1      38.167  30.209  28.364  1.00  0.00     0.031 C 
ATOM     38  C   UNL A   1      37.170  32.879  32.489  1.00  0.00     0.029 A 
ATOM     39  N   UNL A   1      38.892  31.454  32.584  1.00  0.00    -0.354 N 
ATOM     40  C   UNL A   1      39.979  29.057  29.175  1.00  0.00     0.074 A 
ATOM     41  C   UNL A   1      39.043  29.253  28.085  1.00  0.00     0.031 C 
ATOM     42  C   UNL A   1      37.670  32.935  33.732  1.00  0.00     0.029 A 
ATOM     43  C   UNL A   1      38.787  32.002  33.839  1.00  0.00     0.049 A 
ATOM     44  H   UNL A   1      39.574  30.787  32.341  1.00  0.00     0.167 HD
ATOM     45  C   UNL A   1      41.042  28.216  29.138  1.00  0.00     0.037 A 
ATOM     46  C   UNL A   1      39.506  31.775  34.953  1.00  0.00     0.037 A 
ATOM     47  C   UNL A   1      41.940  27.987  30.245  1.00  0.00     0.049 A 
ATOM     48  C   UNL A   1      40.647  30.800  34.905  1.00  0.00     0.074 A 
ATOM     49  C   UNL A   1      43.060  27.174  30.300  1.00  0.00     0.029 A 
ATOM     50  N   UNL A   1      41.801  28.553  31.506  1.00  0.00    -0.354 N 
ATOM     51  N   UNL A   1      41.079  30.079  33.899  1.00  0.00    -0.248 NA
ATOM     52  C   UNL A   1      41.408  30.616  36.148  1.00  0.00     0.031 C 
ATOM     53  C   UNL A   1      43.564  27.206  31.606  1.00  0.00     0.029 A 
ATOM     54  C   UNL A   1      42.796  28.084  32.352  1.00  0.00     0.049 A 
ATOM     55  H   UNL A   1      41.099  29.193  31.762  1.00  0.00     0.167 HD
ATOM     56  C   UNL A   1      42.172  29.370  34.379  1.00  0.00     0.074 A 
ATOM     57  C   UNL A   1      42.350  29.768  35.761  1.00  0.00     0.031 C 
ATOM     58  C   UNL A   1      42.955  28.471  33.734  1.00  0.00     0.037 A 
BRANCH  45  59
ATOM     59  C   UNL A   1      41.273  27.474  27.850  1.00  0.00     0.057 A 
ATOM     60  C   UNL A   1      40.724  26.204  27.636  1.00  0.00     0.134 A 
ATOM     61  C   UNL A   1      42.034  28.029  26.810  1.00  0.00     0.134 A 
ATOM     62  F   UNL A   1      39.998  25.605  28.592  1.00  0.00    -0.206 F 
ATOM     63  C   UNL A   1      40.906  25.522  26.431  1.00  0.00     0.040 A 
ATOM     64  C   UNL A   1      42.195  27.372  25.588  1.00  0.00     0.040 A 
ATOM     65  F   UNL A   1      42.590  29.242  26.947  1.00  0.00    -0.206 F 
ATOM     66  C   UNL A   1      41.630  26.113  25.397  1.00  0.00     0.006 A 
ENDBRANCH  45  59
BRANCH  46  67
ATOM     67  C   UNL A   1      39.171  32.499  36.205  1.00  0.00     0.057 A 
ATOM     68  C   UNL A   1      39.711  33.760  36.483  1.00  0.00     0.134 A 
ATOM     69  C   UNL A   1      38.305  31.944  37.154  1.00  0.00     0.134 A 
ATOM     70  F   UNL A   1      40.555  34.341  35.618  1.00  0.00    -0.206 F 
ATOM     71  C   UNL A   1      39.410  34.440  37.664  1.00  0.00     0.040 A 
ATOM     72  C   UNL A   1      37.973  32.624  38.326  1.00  0.00     0.040 A 
ATOM     73  F   UNL A   1      37.744  30.745  36.936  1.00  0.00    -0.206 F 
ATOM     74  C   UNL A   1      38.532  33.875  38.586  1.00  0.00     0.006 A 
ENDBRANCH  46  67
BRANCH  58  75
ATOM     75  C   UNL A   1      44.090  27.871  34.519  1.00  0.00     0.057 A 
ATOM     76  C   UNL A   1      45.335  28.511  34.578  1.00  0.00     0.134 A 
ATOM     77  C   UNL A   1      43.954  26.661  35.214  1.00  0.00     0.134 A 
ATOM     78  F   UNL A   1      45.537  29.670  33.934  1.00  0.00    -0.206 F 
ATOM     79  C   UNL A   1      46.401  27.971  35.301  1.00  0.00     0.040 A 
ATOM     80  C   UNL A   1      45.004  26.127  35.965  1.00  0.00     0.040 A 
ATOM     81  F   UNL A   1      42.784  26.004  35.214  1.00  0.00    -0.206 F 
ATOM     82  C   UNL A   1      46.234  26.781  36.005  1.00  0.00     0.006 A 
ENDBRANCH  58  75
ENDBRANCH  32  33
ENDBRANCH  25  27
ENDBRANCH  24  25
ENDBRANCH  23  24
ENDBRANCH  22  23
ENDBRANCH   1  22
TORSDOF 18
ENDMDL
