MODEL 1
REMARK VINA RESULT:     -11.4      0.000      0.000
REMARK SMILES O=C(Cc1ccc(OC[C@H]2Cc3ccccc3S2)cc1)OCCOCCOC(=O)c1ccc(-c2c3nc(c(-c4c(F)cccc4F)c4ccc([nH]4)c(-c4c(F)cccc4F)c4nc(c(-c5c(F)cccc5F)c5ccc2[nH]5)C=C4)C=C3)cc1
REMARK SMILES IDX 23 1 22 2 21 3 2 4 1 5 3 6 4 7 5 8 20 9 6 10 19 11 7 12 8 13
REMARK SMILES IDX 9 14 10 15 11 16 18 17 12 18 17 19 13 20 16 21 14 22 15 23
REMARK SMILES IDX 24 24 25 25 26 26 27 27 28 28 29 29 30 30 31 31 83 32 32 33
REMARK SMILES IDX 82 34 33 35 34 36 35 37 76 38 36 39 81 40 75 41 77 42 37 43
REMARK SMILES IDX 80 44 74 45 73 46 38 48 64 49 47 50 63 51 48 52 51 53 62 54
REMARK SMILES IDX 78 55 49 56 50 57 61 59 79 60 52 61 39 62 40 63 45 64 41 65
REMARK SMILES IDX 42 66 44 67 46 68 43 69 65 70 66 71 71 72 67 73 68 74 70 75
REMARK SMILES IDX 72 76 69 77 53 78 54 79 59 80 55 81 56 82 58 83 60 84 57 85
REMARK H PARENT 77 47 51 58
REMARK Flexibility Score: inf
ROOT
ATOM      1  C   UNL A   1      40.897  20.590  27.070  1.00  0.00     0.202 C 
ENDROOT
BRANCH   1   2
ATOM      2  C   UNL A   1      39.951  21.778  26.922  1.00  0.00     0.261 C 
BRANCH   2   3
ATOM      3  O   UNL A   1      38.954  21.592  25.901  1.00  0.00    -0.463 OA
BRANCH   3   4
ATOM      4  C   UNL A   1      37.892  22.404  25.673  1.00  0.00     0.310 C 
ATOM      5  O   UNL A   1      38.062  23.624  25.669  1.00  0.00    -0.252 OA
BRANCH   4   6
ATOM      6  C   UNL A   1      36.504  21.821  25.476  1.00  0.00     0.158 C 
BRANCH   6   7
ATOM      7  C   UNL A   1      35.455  22.833  25.102  1.00  0.00    -0.037 A 
ATOM      8  C   UNL A   1      34.923  23.691  26.068  1.00  0.00     0.008 A 
ATOM      9  C   UNL A   1      35.101  23.020  23.760  1.00  0.00     0.008 A 
ATOM     10  C   UNL A   1      34.264  24.851  25.671  1.00  0.00     0.047 A 
ATOM     11  C   UNL A   1      34.401  24.164  23.374  1.00  0.00     0.047 A 
ATOM     12  C   UNL A   1      34.108  25.146  24.316  1.00  0.00     0.119 A 
BRANCH  12  13
ATOM     13  O   UNL A   1      33.747  26.439  24.062  1.00  0.00    -0.492 OA
BRANCH  13  14
ATOM     14  C   UNL A   1      33.142  27.215  25.096  1.00  0.00     0.244 C 
BRANCH  14  15
ATOM     15  C   UNL A   1      31.744  27.805  24.826  1.00  0.00     0.094 C 
ATOM     16  C   UNL A   1      31.663  29.245  24.277  1.00  0.00     0.055 C 
ATOM     17  S   UNL A   1      30.659  26.819  23.723  1.00  0.00    -0.119 SA
ATOM     18  C   UNL A   1      30.239  29.411  23.793  1.00  0.00    -0.033 A 
ATOM     19  C   UNL A   1      29.635  28.212  23.400  1.00  0.00     0.011 A 
ATOM     20  C   UNL A   1      29.518  30.598  23.714  1.00  0.00     0.005 A 
ATOM     21  C   UNL A   1      28.338  28.162  22.920  1.00  0.00     0.015 A 
ATOM     22  C   UNL A   1      28.190  30.554  23.270  1.00  0.00     0.000 A 
ATOM     23  C   UNL A   1      27.604  29.343  22.879  1.00  0.00     0.001 A 
ENDBRANCH  14  15
ENDBRANCH  13  14
ENDBRANCH  12  13
ENDBRANCH   6   7
ENDBRANCH   4   6
ENDBRANCH   3   4
ENDBRANCH   2   3
ENDBRANCH   1   2
BRANCH   1  24
ATOM     24  O   UNL A   1      42.290  20.894  27.039  1.00  0.00    -0.374 OA
BRANCH  24  25
ATOM     25  C   UNL A   1      42.987  20.507  25.849  1.00  0.00     0.202 C 
BRANCH  25  26
ATOM     26  C   UNL A   1      43.802  21.607  25.162  1.00  0.00     0.261 C 
BRANCH  26  27
ATOM     27  O   UNL A   1      43.038  22.815  25.007  1.00  0.00    -0.460 OA
BRANCH  27  28
ATOM     28  C   UNL A   1      43.756  23.960  25.092  1.00  0.00     0.338 C 
ATOM     29  O   UNL A   1      44.739  24.269  24.444  1.00  0.00    -0.246 OA
BRANCH  28  30
ATOM     30  C   UNL A   1      43.052  24.909  25.976  1.00  0.00     0.060 A 
ATOM     31  C   UNL A   1      43.550  26.215  26.045  1.00  0.00     0.016 A 
ATOM     32  C   UNL A   1      41.957  24.522  26.752  1.00  0.00     0.016 A 
ATOM     33  C   UNL A   1      42.993  27.122  26.939  1.00  0.00     0.010 A 
ATOM     34  C   UNL A   1      41.402  25.435  27.652  1.00  0.00     0.010 A 
ATOM     35  C   UNL A   1      41.944  26.725  27.774  1.00  0.00    -0.014 A 
BRANCH  35  36
ATOM     36  C   UNL A   1      41.547  27.603  28.898  1.00  0.00     0.031 A 
ATOM     37  C   UNL A   1      42.327  27.518  30.178  1.00  0.00     0.074 A 
ATOM     38  C   UNL A   1      40.541  28.484  28.763  1.00  0.00     0.049 A 
ATOM     39  N   UNL A   1      42.120  28.123  31.319  1.00  0.00    -0.248 NA
ATOM     40  C   UNL A   1      43.500  26.628  30.170  1.00  0.00     0.031 C 
ATOM     41  C   UNL A   1      39.761  28.700  27.545  1.00  0.00     0.029 A 
ATOM     42  N   UNL A   1      39.996  29.353  29.673  1.00  0.00    -0.354 N 
ATOM     43  C   UNL A   1      43.125  27.672  32.168  1.00  0.00     0.074 A 
ATOM     44  C   UNL A   1      43.925  26.728  31.421  1.00  0.00     0.031 C 
ATOM     45  C   UNL A   1      38.820  29.627  27.790  1.00  0.00     0.029 A 
ATOM     46  C   UNL A   1      38.908  30.038  29.190  1.00  0.00     0.049 A 
ATOM     47  H   UNL A   1      40.351  29.475  30.583  1.00  0.00     0.167 HD
ATOM     48  C   UNL A   1      43.359  28.022  33.455  1.00  0.00     0.037 A 
ATOM     49  C   UNL A   1      38.063  30.875  29.822  1.00  0.00     0.037 A 
ATOM     50  C   UNL A   1      42.555  28.965  34.187  1.00  0.00     0.049 A 
ATOM     51  C   UNL A   1      38.292  31.182  31.279  1.00  0.00     0.074 A 
ATOM     52  C   UNL A   1      42.709  29.400  35.491  1.00  0.00     0.029 A 
ATOM     53  N   UNL A   1      41.442  29.615  33.675  1.00  0.00    -0.354 N 
ATOM     54  N   UNL A   1      39.246  30.760  32.075  1.00  0.00    -0.248 NA
ATOM     55  C   UNL A   1      37.329  32.084  31.924  1.00  0.00     0.031 C 
ATOM     56  C   UNL A   1      41.655  30.271  35.786  1.00  0.00     0.029 A 
ATOM     57  C   UNL A   1      40.882  30.427  34.645  1.00  0.00     0.049 A 
ATOM     58  H   UNL A   1      41.100  29.513  32.757  1.00  0.00     0.167 HD
ATOM     59  C   UNL A   1      39.015  31.368  33.303  1.00  0.00     0.074 A 
ATOM     60  C   UNL A   1      37.839  32.198  33.143  1.00  0.00     0.031 C 
ATOM     61  C   UNL A   1      39.714  31.253  34.460  1.00  0.00     0.037 A 
BRANCH  48  62
ATOM     62  C   UNL A   1      44.503  27.352  34.157  1.00  0.00     0.057 A 
ATOM     63  C   UNL A   1      45.789  27.908  34.186  1.00  0.00     0.134 A 
ATOM     64  C   UNL A   1      44.310  26.139  34.832  1.00  0.00     0.134 A 
ATOM     65  F   UNL A   1      46.047  29.058  33.546  1.00  0.00    -0.206 F 
ATOM     66  C   UNL A   1      46.846  27.270  34.839  1.00  0.00     0.040 A 
ATOM     67  C   UNL A   1      45.353  25.507  35.513  1.00  0.00     0.040 A 
ATOM     68  F   UNL A   1      43.105  25.551  34.846  1.00  0.00    -0.206 F 
ATOM     69  C   UNL A   1      46.627  26.070  35.511  1.00  0.00     0.006 A 
ENDBRANCH  48  62
BRANCH  49  70
ATOM     70  C   UNL A   1      36.910  31.461  29.092  1.00  0.00     0.057 A 
ATOM     71  C   UNL A   1      36.940  32.783  28.632  1.00  0.00     0.134 A 
ATOM     72  C   UNL A   1      35.746  30.722  28.854  1.00  0.00     0.134 A 
ATOM     73  F   UNL A   1      38.018  33.549  28.849  1.00  0.00    -0.206 F 
ATOM     74  C   UNL A   1      35.846  33.353  27.977  1.00  0.00     0.040 A 
ATOM     75  C   UNL A   1      34.656  31.270  28.176  1.00  0.00     0.040 A 
ATOM     76  F   UNL A   1      35.654  29.449  29.268  1.00  0.00    -0.206 F 
ATOM     77  C   UNL A   1      34.702  32.593  27.742  1.00  0.00     0.006 A 
ENDBRANCH  49  70
BRANCH  61  78
ATOM     78  C   UNL A   1      39.255  32.079  35.627  1.00  0.00     0.057 A 
ATOM     79  C   UNL A   1      39.660  33.407  35.804  1.00  0.00     0.134 A 
ATOM     80  C   UNL A   1      38.359  31.545  36.563  1.00  0.00     0.134 A 
ATOM     81  F   UNL A   1      40.526  33.973  34.949  1.00  0.00    -0.206 F 
ATOM     82  C   UNL A   1      39.210  34.169  36.883  1.00  0.00     0.040 A 
ATOM     83  C   UNL A   1      37.878  32.307  37.629  1.00  0.00     0.040 A 
ATOM     84  F   UNL A   1      37.923  30.282  36.447  1.00  0.00    -0.206 F 
ATOM     85  C   UNL A   1      38.309  33.621  37.795  1.00  0.00     0.006 A 
ENDBRANCH  61  78
ENDBRANCH  35  36
ENDBRANCH  28  30
ENDBRANCH  27  28
ENDBRANCH  26  27
ENDBRANCH  25  26
ENDBRANCH  24  25
ENDBRANCH   1  24
TORSDOF 18
ENDMDL
MODEL 2
REMARK VINA RESULT:     -11.2      4.615     10.043
REMARK SMILES O=C(Cc1ccc(OC[C@H]2Cc3ccccc3S2)cc1)OCCOCCOC(=O)c1ccc(-c2c3nc(c(-c4c(F)cccc4F)c4ccc([nH]4)c(-c4c(F)cccc4F)c4nc(c(-c5c(F)cccc5F)c5ccc2[nH]5)C=C4)C=C3)cc1
REMARK SMILES IDX 23 1 22 2 21 3 2 4 1 5 3 6 4 7 5 8 20 9 6 10 19 11 7 12 8 13
REMARK SMILES IDX 9 14 10 15 11 16 18 17 12 18 17 19 13 20 16 21 14 22 15 23
REMARK SMILES IDX 24 24 25 25 26 26 27 27 28 28 29 29 30 30 31 31 83 32 32 33
REMARK SMILES IDX 82 34 33 35 34 36 35 37 76 38 36 39 81 40 75 41 77 42 37 43
REMARK SMILES IDX 80 44 74 45 73 46 38 48 64 49 47 50 63 51 48 52 51 53 62 54
REMARK SMILES IDX 78 55 49 56 50 57 61 59 79 60 52 61 39 62 40 63 45 64 41 65
REMARK SMILES IDX 42 66 44 67 46 68 43 69 65 70 66 71 71 72 67 73 68 74 70 75
REMARK SMILES IDX 72 76 69 77 53 78 54 79 59 80 55 81 56 82 58 83 60 84 57 85
REMARK H PARENT 77 47 51 58
REMARK Flexibility Score: inf
ROOT
ATOM      1  C   UNL A   1      34.869  33.667  28.042  1.00  0.00     0.202 C 
ENDROOT
BRANCH   1   2
ATOM      2  C   UNL A   1      34.440  32.241  28.376  1.00  0.00     0.261 C 
BRANCH   2   3
ATOM      3  O   UNL A   1      33.336  31.774  27.580  1.00  0.00    -0.463 OA
BRANCH   3   4
ATOM      4  C   UNL A   1      33.169  30.510  27.120  1.00  0.00     0.310 C 
ATOM      5  O   UNL A   1      34.165  29.819  26.896  1.00  0.00    -0.252 OA
BRANCH   4   6
ATOM      6  C   UNL A   1      31.779  29.968  26.837  1.00  0.00     0.158 C 
BRANCH   6   7
ATOM      7  C   UNL A   1      31.764  28.632  26.147  1.00  0.00    -0.037 A 
ATOM      8  C   UNL A   1      31.660  27.453  26.890  1.00  0.00     0.008 A 
ATOM      9  C   UNL A   1      31.715  28.560  24.749  1.00  0.00     0.008 A 
ATOM     10  C   UNL A   1      31.265  26.276  26.261  1.00  0.00     0.047 A 
ATOM     11  C   UNL A   1      31.360  27.364  24.122  1.00  0.00     0.047 A 
ATOM     12  C   UNL A   1      30.999  26.261  24.892  1.00  0.00     0.119 A 
BRANCH  12  13
ATOM     13  O   UNL A   1      30.318  25.157  24.464  1.00  0.00    -0.492 OA
BRANCH  13  14
ATOM     14  C   UNL A   1      30.968  24.218  23.608  1.00  0.00     0.244 C 
BRANCH  14  15
ATOM     15  C   UNL A   1      32.381  23.745  24.002  1.00  0.00     0.094 C 
ATOM     16  C   UNL A   1      32.605  22.230  24.195  1.00  0.00     0.055 C 
ATOM     17  S   UNL A   1      33.743  24.287  22.901  1.00  0.00    -0.119 SA
ATOM     18  C   UNL A   1      34.107  22.048  24.224  1.00  0.00    -0.033 A 
ATOM     19  C   UNL A   1      34.806  23.026  23.510  1.00  0.00     0.011 A 
ATOM     20  C   UNL A   1      34.812  21.039  24.873  1.00  0.00     0.005 A 
ATOM     21  C   UNL A   1      36.188  23.024  23.414  1.00  0.00     0.015 A 
ATOM     22  C   UNL A   1      36.212  21.050  24.818  1.00  0.00     0.000 A 
ATOM     23  C   UNL A   1      36.894  22.038  24.096  1.00  0.00     0.001 A 
ENDBRANCH  14  15
ENDBRANCH  13  14
ENDBRANCH  12  13
ENDBRANCH   6   7
ENDBRANCH   4   6
ENDBRANCH   3   4
ENDBRANCH   2   3
ENDBRANCH   1   2
BRANCH   1  24
ATOM     24  O   UNL A   1      34.814  34.603  29.116  1.00  0.00    -0.374 OA
BRANCH  24  25
ATOM     25  C   UNL A   1      34.043  34.202  30.255  1.00  0.00     0.202 C 
BRANCH  25  26
ATOM     26  C   UNL A   1      34.687  34.454  31.622  1.00  0.00     0.261 C 
BRANCH  26  27
ATOM     27  O   UNL A   1      36.037  33.961  31.672  1.00  0.00    -0.460 OA
BRANCH  27  28
ATOM     28  C   UNL A   1      36.200  32.811  32.368  1.00  0.00     0.338 C 
ATOM     29  O   UNL A   1      35.556  32.426  33.327  1.00  0.00    -0.246 OA
BRANCH  28  30
ATOM     30  C   UNL A   1      37.178  31.956  31.668  1.00  0.00     0.060 A 
ATOM     31  C   UNL A   1      38.132  31.296  32.452  1.00  0.00     0.016 A 
ATOM     32  C   UNL A   1      37.190  31.835  30.277  1.00  0.00     0.016 A 
ATOM     33  C   UNL A   1      39.141  30.562  31.840  1.00  0.00     0.010 A 
ATOM     34  C   UNL A   1      38.209  31.099  29.665  1.00  0.00     0.010 A 
ATOM     35  C   UNL A   1      39.208  30.494  30.445  1.00  0.00    -0.014 A 
BRANCH  35  36
ATOM     36  C   UNL A   1      40.428  29.947  29.809  1.00  0.00     0.031 A 
ATOM     37  C   UNL A   1      41.602  30.862  29.613  1.00  0.00     0.074 A 
ATOM     38  C   UNL A   1      40.499  28.652  29.453  1.00  0.00     0.049 A 
ATOM     39  N   UNL A   1      42.741  30.637  29.012  1.00  0.00    -0.248 NA
ATOM     40  C   UNL A   1      41.472  32.219  30.171  1.00  0.00     0.031 C 
ATOM     41  C   UNL A   1      39.447  27.658  29.659  1.00  0.00     0.029 A 
ATOM     42  N   UNL A   1      41.503  27.958  28.829  1.00  0.00    -0.354 N 
ATOM     43  C   UNL A   1      43.454  31.827  29.103  1.00  0.00     0.074 A 
ATOM     44  C   UNL A   1      42.612  32.777  29.795  1.00  0.00     0.031 C 
ATOM     45  C   UNL A   1      39.853  26.483  29.147  1.00  0.00     0.029 A 
ATOM     46  C   UNL A   1      41.174  26.656  28.546  1.00  0.00     0.049 A 
ATOM     47  H   UNL A   1      42.377  28.355  28.606  1.00  0.00     0.167 HD
ATOM     48  C   UNL A   1      44.701  32.097  28.653  1.00  0.00     0.037 A 
ATOM     49  C   UNL A   1      41.852  25.724  27.850  1.00  0.00     0.037 A 
ATOM     50  C   UNL A   1      45.530  31.140  27.967  1.00  0.00     0.049 A 
ATOM     51  C   UNL A   1      43.204  26.074  27.283  1.00  0.00     0.074 A 
ATOM     52  C   UNL A   1      46.813  31.305  27.477  1.00  0.00     0.029 A 
ATOM     53  N   UNL A   1      45.150  29.840  27.670  1.00  0.00    -0.354 N 
ATOM     54  N   UNL A   1      43.876  27.197  27.377  1.00  0.00    -0.248 NA
ATOM     55  C   UNL A   1      43.891  25.028  26.515  1.00  0.00     0.031 C 
ATOM     56  C   UNL A   1      47.188  30.121  26.835  1.00  0.00     0.029 A 
ATOM     57  C   UNL A   1      46.163  29.198  26.979  1.00  0.00     0.049 A 
ATOM     58  H   UNL A   1      44.287  29.434  27.914  1.00  0.00     0.167 HD
ATOM     59  C   UNL A   1      45.075  26.982  26.709  1.00  0.00     0.074 A 
ATOM     60  C   UNL A   1      45.043  25.617  26.226  1.00  0.00     0.031 C 
ATOM     61  C   UNL A   1      46.112  27.834  26.515  1.00  0.00     0.037 A 
BRANCH  48  62
ATOM     62  C   UNL A   1      45.225  33.489  28.856  1.00  0.00     0.057 A 
ATOM     63  C   UNL A   1      44.999  34.513  27.927  1.00  0.00     0.134 A 
ATOM     64  C   UNL A   1      45.951  33.813  30.010  1.00  0.00     0.134 A 
ATOM     65  F   UNL A   1      44.327  34.267  26.792  1.00  0.00    -0.206 F 
ATOM     66  C   UNL A   1      45.497  35.803  28.127  1.00  0.00     0.040 A 
ATOM     67  C   UNL A   1      46.428  35.106  30.234  1.00  0.00     0.040 A 
ATOM     68  F   UNL A   1      46.202  32.881  30.941  1.00  0.00    -0.206 F 
ATOM     69  C   UNL A   1      46.208  36.103  29.287  1.00  0.00     0.006 A 
ENDBRANCH  48  62
BRANCH  49  70
ATOM     70  C   UNL A   1      41.259  24.381  27.628  1.00  0.00     0.057 A 
ATOM     71  C   UNL A   1      41.727  23.258  28.319  1.00  0.00     0.134 A 
ATOM     72  C   UNL A   1      40.223  24.185  26.706  1.00  0.00     0.134 A 
ATOM     73  F   UNL A   1      42.731  23.376  29.199  1.00  0.00    -0.206 F 
ATOM     74  C   UNL A   1      41.198  21.985  28.089  1.00  0.00     0.040 A 
ATOM     75  C   UNL A   1      39.667  22.924  26.487  1.00  0.00     0.040 A 
ATOM     76  F   UNL A   1      39.729  25.220  26.011  1.00  0.00    -0.206 F 
ATOM     77  C   UNL A   1      40.161  21.818  27.175  1.00  0.00     0.006 A 
ENDBRANCH  49  70
BRANCH  61  78
ATOM     78  C   UNL A   1      47.314  27.302  25.789  1.00  0.00     0.057 A 
ATOM     79  C   UNL A   1      47.466  27.435  24.404  1.00  0.00     0.134 A 
ATOM     80  C   UNL A   1      48.355  26.686  26.498  1.00  0.00     0.134 A 
ATOM     81  F   UNL A   1      46.500  28.005  23.666  1.00  0.00    -0.206 F 
ATOM     82  C   UNL A   1      48.598  26.953  23.744  1.00  0.00     0.040 A 
ATOM     83  C   UNL A   1      49.505  26.228  25.854  1.00  0.00     0.040 A 
ATOM     84  F   UNL A   1      48.278  26.537  27.829  1.00  0.00    -0.206 F 
ATOM     85  C   UNL A   1      49.625  26.355  24.472  1.00  0.00     0.006 A 
ENDBRANCH  61  78
ENDBRANCH  35  36
ENDBRANCH  28  30
ENDBRANCH  27  28
ENDBRANCH  26  27
ENDBRANCH  25  26
ENDBRANCH  24  25
ENDBRANCH   1  24
TORSDOF 18
ENDMDL
MODEL 3
REMARK VINA RESULT:     -11.1      2.383      4.033
REMARK SMILES O=C(Cc1ccc(OC[C@H]2Cc3ccccc3S2)cc1)OCCOCCOC(=O)c1ccc(-c2c3nc(c(-c4c(F)cccc4F)c4ccc([nH]4)c(-c4c(F)cccc4F)c4nc(c(-c5c(F)cccc5F)c5ccc2[nH]5)C=C4)C=C3)cc1
REMARK SMILES IDX 23 1 22 2 21 3 2 4 1 5 3 6 4 7 5 8 20 9 6 10 19 11 7 12 8 13
REMARK SMILES IDX 9 14 10 15 11 16 18 17 12 18 17 19 13 20 16 21 14 22 15 23
REMARK SMILES IDX 24 24 25 25 26 26 27 27 28 28 29 29 30 30 31 31 83 32 32 33
REMARK SMILES IDX 82 34 33 35 34 36 35 37 76 38 36 39 81 40 75 41 77 42 37 43
REMARK SMILES IDX 80 44 74 45 73 46 38 48 64 49 47 50 63 51 48 52 51 53 62 54
REMARK SMILES IDX 78 55 49 56 50 57 61 59 79 60 52 61 39 62 40 63 45 64 41 65
REMARK SMILES IDX 42 66 44 67 46 68 43 69 65 70 66 71 71 72 67 73 68 74 70 75
REMARK SMILES IDX 72 76 69 77 53 78 54 79 59 80 55 81 56 82 58 83 60 84 57 85
REMARK H PARENT 77 47 51 58
REMARK Flexibility Score: inf
ROOT
ATOM      1  C   UNL A   1      40.981  20.398  27.512  1.00  0.00     0.202 C 
ENDROOT
BRANCH   1   2
ATOM      2  C   UNL A   1      39.968  20.566  26.383  1.00  0.00     0.261 C 
BRANCH   2   3
ATOM      3  O   UNL A   1      39.468  21.909  26.258  1.00  0.00    -0.463 OA
BRANCH   3   4
ATOM      4  C   UNL A   1      38.261  22.261  25.750  1.00  0.00     0.310 C 
ATOM      5  O   UNL A   1      37.544  21.390  25.255  1.00  0.00    -0.252 OA
BRANCH   4   6
ATOM      6  C   UNL A   1      37.820  23.714  25.746  1.00  0.00     0.158 C 
BRANCH   6   7
ATOM      7  C   UNL A   1      36.437  23.939  25.197  1.00  0.00    -0.037 A 
ATOM      8  C   UNL A   1      36.105  23.500  23.913  1.00  0.00     0.008 A 
ATOM      9  C   UNL A   1      35.431  24.466  26.016  1.00  0.00     0.008 A 
ATOM     10  C   UNL A   1      34.766  23.360  23.558  1.00  0.00     0.047 A 
ATOM     11  C   UNL A   1      34.092  24.360  25.634  1.00  0.00     0.047 A 
ATOM     12  C   UNL A   1      33.757  23.679  24.467  1.00  0.00     0.119 A 
BRANCH  12  13
ATOM     13  O   UNL A   1      32.525  23.198  24.128  1.00  0.00    -0.492 OA
BRANCH  13  14
ATOM     14  C   UNL A   1      31.881  22.252  24.982  1.00  0.00     0.244 C 
BRANCH  14  15
ATOM     15  C   UNL A   1      32.298  20.773  24.858  1.00  0.00     0.094 C 
ATOM     16  C   UNL A   1      32.298  20.140  23.451  1.00  0.00     0.055 C 
ATOM     17  S   UNL A   1      33.932  20.341  25.569  1.00  0.00    -0.119 SA
ATOM     18  C   UNL A   1      33.064  18.843  23.594  1.00  0.00    -0.033 A 
ATOM     19  C   UNL A   1      34.008  18.858  24.626  1.00  0.00     0.011 A 
ATOM     20  C   UNL A   1      32.911  17.695  22.825  1.00  0.00     0.005 A 
ATOM     21  C   UNL A   1      34.812  17.767  24.907  1.00  0.00     0.015 A 
ATOM     22  C   UNL A   1      33.689  16.569  23.126  1.00  0.00     0.000 A 
ATOM     23  C   UNL A   1      34.631  16.606  24.162  1.00  0.00     0.001 A 
ENDBRANCH  14  15
ENDBRANCH  13  14
ENDBRANCH  12  13
ENDBRANCH   6   7
ENDBRANCH   4   6
ENDBRANCH   3   4
ENDBRANCH   2   3
ENDBRANCH   1   2
BRANCH   1  24
ATOM     24  O   UNL A   1      42.268  20.967  27.286  1.00  0.00    -0.374 OA
BRANCH  24  25
ATOM     25  C   UNL A   1      42.784  20.833  25.957  1.00  0.00     0.202 C 
BRANCH  25  26
ATOM     26  C   UNL A   1      44.162  21.457  25.707  1.00  0.00     0.261 C 
BRANCH  26  27
ATOM     27  O   UNL A   1      44.291  22.734  26.354  1.00  0.00    -0.460 OA
BRANCH  27  28
ATOM     28  C   UNL A   1      43.939  23.798  25.592  1.00  0.00     0.338 C 
ATOM     29  O   UNL A   1      44.038  23.910  24.384  1.00  0.00    -0.246 OA
BRANCH  28  30
ATOM     30  C   UNL A   1      43.213  24.773  26.427  1.00  0.00     0.060 A 
ATOM     31  C   UNL A   1      43.718  26.077  26.481  1.00  0.00     0.016 A 
ATOM     32  C   UNL A   1      42.090  24.413  27.175  1.00  0.00     0.016 A 
ATOM     33  C   UNL A   1      43.139  27.009  27.333  1.00  0.00     0.010 A 
ATOM     34  C   UNL A   1      41.511  25.352  28.033  1.00  0.00     0.010 A 
ATOM     35  C   UNL A   1      42.059  26.641  28.141  1.00  0.00    -0.014 A 
BRANCH  35  36
ATOM     36  C   UNL A   1      41.631  27.549  29.229  1.00  0.00     0.031 A 
ATOM     37  C   UNL A   1      42.381  27.506  30.530  1.00  0.00     0.074 A 
ATOM     38  C   UNL A   1      40.624  28.420  29.044  1.00  0.00     0.049 A 
ATOM     39  N   UNL A   1      42.144  28.143  31.647  1.00  0.00    -0.248 NA
ATOM     40  C   UNL A   1      43.558  26.623  30.576  1.00  0.00     0.031 C 
ATOM     41  C   UNL A   1      39.873  28.596  27.803  1.00  0.00     0.029 A 
ATOM     42  N   UNL A   1      40.053  29.313  29.915  1.00  0.00    -0.354 N 
ATOM     43  C   UNL A   1      43.130  27.723  32.533  1.00  0.00     0.074 A 
ATOM     44  C   UNL A   1      43.952  26.761  31.833  1.00  0.00     0.031 C 
ATOM     45  C   UNL A   1      38.922  29.525  27.998  1.00  0.00     0.029 A 
ATOM     46  C   UNL A   1      38.974  29.978  29.386  1.00  0.00     0.049 A 
ATOM     47  H   UNL A   1      40.386  29.463  30.830  1.00  0.00     0.167 HD
ATOM     48  C   UNL A   1      43.331  28.111  33.814  1.00  0.00     0.037 A 
ATOM     49  C   UNL A   1      38.110  30.827  29.974  1.00  0.00     0.037 A 
ATOM     50  C   UNL A   1      42.506  29.072  34.498  1.00  0.00     0.049 A 
ATOM     51  C   UNL A   1      38.303  31.179  31.426  1.00  0.00     0.074 A 
ATOM     52  C   UNL A   1      42.626  29.545  35.793  1.00  0.00     0.029 A 
ATOM     53  N   UNL A   1      41.402  29.700  33.941  1.00  0.00    -0.354 N 
ATOM     54  N   UNL A   1      39.239  30.785  32.257  1.00  0.00    -0.248 NA
ATOM     55  C   UNL A   1      37.320  32.094  32.021  1.00  0.00     0.031 C 
ATOM     56  C   UNL A   1      41.562  30.418  36.036  1.00  0.00     0.029 A 
ATOM     57  C   UNL A   1      40.815  30.537  34.874  1.00  0.00     0.049 A 
ATOM     58  H   UNL A   1      41.083  29.569  33.019  1.00  0.00     0.167 HD
ATOM     59  C   UNL A   1      38.977  31.427  33.460  1.00  0.00     0.074 A 
ATOM     60  C   UNL A   1      37.801  32.246  33.247  1.00  0.00     0.031 C 
ATOM     61  C   UNL A   1      39.648  31.351  34.636  1.00  0.00     0.037 A 
BRANCH  48  62
ATOM     62  C   UNL A   1      44.462  27.469  34.563  1.00  0.00     0.057 A 
ATOM     63  C   UNL A   1      45.738  28.044  34.623  1.00  0.00     0.134 A 
ATOM     64  C   UNL A   1      44.264  26.264  35.250  1.00  0.00     0.134 A 
ATOM     65  F   UNL A   1      46.001  29.187  33.974  1.00  0.00    -0.206 F 
ATOM     66  C   UNL A   1      46.783  27.431  35.320  1.00  0.00     0.040 A 
ATOM     67  C   UNL A   1      45.292  25.657  35.973  1.00  0.00     0.040 A 
ATOM     68  F   UNL A   1      43.067  25.659  35.235  1.00  0.00    -0.206 F 
ATOM     69  C   UNL A   1      46.558  26.238  36.004  1.00  0.00     0.006 A 
ENDBRANCH  48  62
BRANCH  49  70
ATOM     70  C   UNL A   1      36.973  31.386  29.199  1.00  0.00     0.057 A 
ATOM     71  C   UNL A   1      35.853  30.606  28.891  1.00  0.00     0.134 A 
ATOM     72  C   UNL A   1      36.987  32.706  28.734  1.00  0.00     0.134 A 
ATOM     73  F   UNL A   1      35.790  29.327  29.290  1.00  0.00    -0.206 F 
ATOM     74  C   UNL A   1      34.795  31.113  28.132  1.00  0.00     0.040 A 
ATOM     75  C   UNL A   1      35.924  33.235  27.999  1.00  0.00     0.040 A 
ATOM     76  F   UNL A   1      38.030  33.507  28.996  1.00  0.00    -0.206 F 
ATOM     77  C   UNL A   1      34.827  32.433  27.689  1.00  0.00     0.006 A 
ENDBRANCH  49  70
BRANCH  61  78
ATOM     78  C   UNL A   1      39.157  32.208  35.767  1.00  0.00     0.057 A 
ATOM     79  C   UNL A   1      39.567  33.536  35.926  1.00  0.00     0.134 A 
ATOM     80  C   UNL A   1      38.226  31.704  36.685  1.00  0.00     0.134 A 
ATOM     81  F   UNL A   1      40.467  34.075  35.088  1.00  0.00    -0.206 F 
ATOM     82  C   UNL A   1      39.088  34.328  36.971  1.00  0.00     0.040 A 
ATOM     83  C   UNL A   1      37.716  32.494  37.716  1.00  0.00     0.040 A 
ATOM     84  F   UNL A   1      37.783  30.442  36.584  1.00  0.00    -0.206 F 
ATOM     85  C   UNL A   1      38.153  33.809  37.865  1.00  0.00     0.006 A 
ENDBRANCH  61  78
ENDBRANCH  35  36
ENDBRANCH  28  30
ENDBRANCH  27  28
ENDBRANCH  26  27
ENDBRANCH  25  26
ENDBRANCH  24  25
ENDBRANCH   1  24
TORSDOF 18
ENDMDL
