MODEL 1
REMARK VINA RESULT:      -7.2      0.000      0.000
REMARK SMILES NS(=O)(=O)c1ccc(-n2nc(C(=O)NCCCCCCCCCCC(=O)OCCOCCOC(=O)c3ccc(-c4c5nc(c(-c6c(F)cccc6F)c6ccc([nH]6)c(-c6c(F)cccc6F)c6nc(c(-c7c(F)cccc7F)c7ccc4[nH]7)C=C6)C=C5)cc3)cc2-c2ccccc2)cc1
REMARK SMILES IDX 23 1 22 2 21 3 20 4 19 5 18 6 17 7 16 8 15 9 14 10 12 11
REMARK SMILES IDX 13 12 11 14 9 15 10 16 91 17 90 18 8 19 5 20 6 21 99 22 7 23
REMARK SMILES IDX 98 24 2 25 3 26 4 27 1 28 92 31 93 32 97 33 94 34 96 35
REMARK SMILES IDX 95 36 24 37 25 38 26 39 27 40 28 41 29 42 30 43 31 44 32 45
REMARK SMILES IDX 33 46 34 47 35 48 36 49 37 50 89 51 38 52 88 53 39 54 40 55
REMARK SMILES IDX 41 56 82 57 42 58 87 59 81 60 83 61 43 62 86 63 80 64 79 65
REMARK SMILES IDX 44 67 70 68 53 69 69 70 54 71 57 72 68 73 84 74 55 75 56 76
REMARK SMILES IDX 67 78 85 79 58 80 45 81 46 82 51 83 47 84 48 85 50 86 52 87
REMARK SMILES IDX 49 88 71 89 72 90 77 91 73 92 74 93 76 94 78 95 75 96 59 97
REMARK SMILES IDX 60 98 65 99 61 100 62 101 64 102 66 103 63 104
REMARK H PARENT 14 13 1 29 1 30 83 66 57 77
REMARK Flexibility Score: inf
ROOT
ATOM      1  C   UNL A   1      46.151  29.836  35.751  1.00  0.00     0.012 C 
ENDROOT
BRANCH   1   2
ATOM      2  C   UNL A   1      46.538  31.098  34.978  1.00  0.00     0.001 C 
BRANCH   2   3
ATOM      3  C   UNL A   1      48.025  31.178  34.644  1.00  0.00     0.000 C 
BRANCH   3   4
ATOM      4  C   UNL A   1      48.320  30.690  33.226  1.00  0.00     0.000 C 
BRANCH   4   5
ATOM      5  C   UNL A   1      48.513  31.843  32.235  1.00  0.00     0.000 C 
BRANCH   5   6
ATOM      6  C   UNL A   1      48.080  31.476  30.811  1.00  0.00     0.000 C 
BRANCH   6   7
ATOM      7  C   UNL A   1      48.853  30.282  30.235  1.00  0.00     0.002 C 
BRANCH   7   8
ATOM      8  C   UNL A   1      47.963  29.320  29.443  1.00  0.00     0.021 C 
BRANCH   8   9
ATOM      9  C   UNL A   1      46.636  29.978  29.079  1.00  0.00     0.116 C 
BRANCH   9  10
ATOM     10  N   UNL A   1      46.595  30.231  27.661  1.00  0.00    -0.351 N 
ATOM     11  C   UNL A   1      46.039  29.540  26.614  1.00  0.00     0.271 C 
ATOM     12  O   UNL A   1      46.288  29.989  25.492  1.00  0.00    -0.267 OA
ATOM     13  H   UNL A   1      47.054  31.059  27.391  1.00  0.00     0.163 HD
BRANCH  11  14
ATOM     14  C   UNL A   1      45.150  28.380  26.829  1.00  0.00     0.151 A 
ATOM     15  N   UNL A   1      44.473  26.358  26.544  1.00  0.00    -0.232 N 
ATOM     16  N   UNL A   1      45.554  27.157  26.435  1.00  0.00    -0.162 NA
ATOM     17  C   UNL A   1      43.401  27.005  27.125  1.00  0.00     0.075 A 
ATOM     18  C   UNL A   1      43.868  28.269  27.416  1.00  0.00     0.065 A 
BRANCH  15  19
ATOM     19  C   UNL A   1      44.552  25.006  26.150  1.00  0.00     0.065 A 
ATOM     20  C   UNL A   1      44.967  22.418  25.270  1.00  0.00     0.082 A 
ATOM     21  C   UNL A   1      45.146  22.719  26.623  1.00  0.00     0.024 A 
ATOM     22  C   UNL A   1      44.522  23.389  24.365  1.00  0.00     0.024 A 
ATOM     23  C   UNL A   1      44.955  24.025  27.063  1.00  0.00     0.030 A 
ATOM     24  C   UNL A   1      44.288  24.686  24.812  1.00  0.00     0.030 A 
BRANCH  20  25
ATOM     25  S   UNL A   1      45.291  20.786  24.679  1.00  0.00     0.238 S 
ATOM     26  O   UNL A   1      46.704  20.536  24.710  1.00  0.00    -0.207 OA
ATOM     27  O   UNL A   1      44.476  20.536  23.503  1.00  0.00    -0.207 OA
BRANCH  25  28
ATOM     28  N   UNL A   1      44.618  19.850  25.901  1.00  0.00    -0.225 NA
ATOM     29  H   UNL A   1      45.177  19.007  26.031  1.00  0.00     0.137 HD
ATOM     30  H   UNL A   1      43.665  19.590  25.644  1.00  0.00     0.137 HD
ENDBRANCH  25  28
ENDBRANCH  20  25
ENDBRANCH  15  19
BRANCH  17  31
ATOM     31  C   UNL A   1      42.120  26.424  27.505  1.00  0.00     0.000 A 
ATOM     32  C   UNL A   1      41.128  27.211  28.102  1.00  0.00     0.010 A 
ATOM     33  C   UNL A   1      41.856  25.078  27.224  1.00  0.00     0.010 A 
ATOM     34  C   UNL A   1      39.892  26.653  28.427  1.00  0.00     0.001 A 
ATOM     35  C   UNL A   1      40.618  24.523  27.550  1.00  0.00     0.001 A 
ATOM     36  C   UNL A   1      39.638  25.311  28.150  1.00  0.00     0.000 A 
ENDBRANCH  17  31
ENDBRANCH  11  14
ENDBRANCH   9  10
ENDBRANCH   8   9
ENDBRANCH   7   8
ENDBRANCH   6   7
ENDBRANCH   5   6
ENDBRANCH   4   5
ENDBRANCH   3   4
ENDBRANCH   2   3
ENDBRANCH   1   2
BRANCH   1  37
ATOM     37  C   UNL A   1      45.221  30.043  36.955  1.00  0.00     0.123 C 
BRANCH  37  38
ATOM     38  C   UNL A   1      45.413  29.154  38.169  1.00  0.00     0.305 C 
ATOM     39  O   UNL A   1      46.302  29.342  38.989  1.00  0.00    -0.252 OA
BRANCH  38  40
ATOM     40  O   UNL A   1      44.519  28.141  38.216  1.00  0.00    -0.463 OA
BRANCH  40  41
ATOM     41  C   UNL A   1      44.932  26.862  37.708  1.00  0.00     0.261 C 
BRANCH  41  42
ATOM     42  C   UNL A   1      43.701  25.995  37.450  1.00  0.00     0.202 C 
BRANCH  42  43
ATOM     43  O   UNL A   1      43.818  25.017  36.413  1.00  0.00    -0.374 OA
BRANCH  43  44
ATOM     44  C   UNL A   1      43.781  25.443  35.053  1.00  0.00     0.202 C 
BRANCH  44  45
ATOM     45  C   UNL A   1      43.886  24.359  33.989  1.00  0.00     0.261 C 
BRANCH  45  46
ATOM     46  O   UNL A   1      44.785  24.745  32.961  1.00  0.00    -0.460 OA
BRANCH  46  47
ATOM     47  C   UNL A   1      45.498  25.865  33.223  1.00  0.00     0.338 C 
ATOM     48  O   UNL A   1      46.246  26.068  34.161  1.00  0.00    -0.246 OA
BRANCH  47  49
ATOM     49  C   UNL A   1      45.098  26.886  32.246  1.00  0.00     0.060 A 
ATOM     50  C   UNL A   1      45.650  28.148  32.454  1.00  0.00     0.016 A 
ATOM     51  C   UNL A   1      43.936  26.690  31.487  1.00  0.00     0.016 A 
ATOM     52  C   UNL A   1      44.848  29.231  32.211  1.00  0.00     0.010 A 
ATOM     53  C   UNL A   1      43.129  27.769  31.253  1.00  0.00     0.010 A 
ATOM     54  C   UNL A   1      43.553  29.000  31.739  1.00  0.00    -0.014 A 
BRANCH  54  55
ATOM     55  C   UNL A   1      42.635  30.108  31.736  1.00  0.00     0.031 A 
ATOM     56  C   UNL A   1      41.888  30.211  32.999  1.00  0.00     0.074 A 
ATOM     57  C   UNL A   1      42.578  30.979  30.714  1.00  0.00     0.049 A 
ATOM     58  N   UNL A   1      40.644  29.934  33.203  1.00  0.00    -0.248 NA
ATOM     59  C   UNL A   1      42.676  30.416  34.224  1.00  0.00     0.031 C 
ATOM     60  C   UNL A   1      43.483  31.118  29.569  1.00  0.00     0.029 A 
ATOM     61  N   UNL A   1      41.724  32.022  30.561  1.00  0.00    -0.354 N 
ATOM     62  C   UNL A   1      40.448  30.152  34.561  1.00  0.00     0.074 A 
ATOM     63  C   UNL A   1      41.754  30.185  35.157  1.00  0.00     0.031 C 
ATOM     64  C   UNL A   1      43.270  32.320  28.984  1.00  0.00     0.029 A 
ATOM     65  C   UNL A   1      42.144  32.967  29.634  1.00  0.00     0.049 A 
ATOM     66  H   UNL A   1      40.882  32.101  31.063  1.00  0.00     0.167 HD
ATOM     67  C   UNL A   1      39.251  30.597  35.026  1.00  0.00     0.037 A 
ATOM     68  C   UNL A   1      41.644  34.226  29.553  1.00  0.00     0.037 A 
ATOM     69  C   UNL A   1      38.203  30.353  34.062  1.00  0.00     0.049 A 
ATOM     70  C   UNL A   1      40.326  34.217  30.256  1.00  0.00     0.074 A 
ATOM     71  C   UNL A   1      37.707  29.224  33.435  1.00  0.00     0.029 A 
ATOM     72  N   UNL A   1      37.758  31.416  33.312  1.00  0.00    -0.354 N 
ATOM     73  N   UNL A   1      39.275  33.576  29.816  1.00  0.00    -0.248 NA
ATOM     74  C   UNL A   1      40.329  34.493  31.689  1.00  0.00     0.031 C 
ATOM     75  C   UNL A   1      37.424  29.635  32.100  1.00  0.00     0.029 A 
ATOM     76  C   UNL A   1      37.701  31.000  32.007  1.00  0.00     0.049 A 
ATOM     77  H   UNL A   1      37.524  32.311  33.649  1.00  0.00     0.167 HD
ATOM     78  C   UNL A   1      38.698  33.013  30.948  1.00  0.00     0.074 A 
ATOM     79  C   UNL A   1      39.360  33.660  32.079  1.00  0.00     0.031 C 
ATOM     80  C   UNL A   1      37.957  31.866  30.880  1.00  0.00     0.037 A 
BRANCH  67  81
ATOM     81  C   UNL A   1      39.118  31.621  36.133  1.00  0.00     0.057 A 
ATOM     82  C   UNL A   1      38.143  31.406  37.123  1.00  0.00     0.134 A 
ATOM     83  C   UNL A   1      39.669  32.921  36.119  1.00  0.00     0.134 A 
ATOM     84  F   UNL A   1      37.553  30.208  37.261  1.00  0.00    -0.206 F 
ATOM     85  C   UNL A   1      37.668  32.433  37.945  1.00  0.00     0.040 A 
ATOM     86  C   UNL A   1      39.237  33.940  36.970  1.00  0.00     0.040 A 
ATOM     87  F   UNL A   1      40.586  33.324  35.234  1.00  0.00    -0.206 F 
ATOM     88  C   UNL A   1      38.203  33.711  37.858  1.00  0.00     0.006 A 
ENDBRANCH  67  81
BRANCH  68  89
ATOM     89  C   UNL A   1      42.389  35.474  29.265  1.00  0.00     0.057 A 
ATOM     90  C   UNL A   1      42.015  36.311  28.204  1.00  0.00     0.134 A 
ATOM     91  C   UNL A   1      43.319  36.015  30.173  1.00  0.00     0.134 A 
ATOM     92  F   UNL A   1      41.100  35.909  27.311  1.00  0.00    -0.206 F 
ATOM     93  C   UNL A   1      42.524  37.611  28.063  1.00  0.00     0.040 A 
ATOM     94  C   UNL A   1      43.842  37.305  30.038  1.00  0.00     0.040 A 
ATOM     95  F   UNL A   1      43.689  35.346  31.273  1.00  0.00    -0.206 F 
ATOM     96  C   UNL A   1      43.435  38.114  28.987  1.00  0.00     0.006 A 
ENDBRANCH  68  89
BRANCH  80  97
ATOM     97  C   UNL A   1      37.596  31.325  29.524  1.00  0.00     0.057 A 
ATOM     98  C   UNL A   1      38.381  30.399  28.820  1.00  0.00     0.134 A 
ATOM     99  C   UNL A   1      36.327  31.601  29.006  1.00  0.00     0.134 A 
ATOM    100  F   UNL A   1      39.566  29.993  29.294  1.00  0.00    -0.206 F 
ATOM    101  C   UNL A   1      37.934  29.804  27.635  1.00  0.00     0.040 A 
ATOM    102  C   UNL A   1      35.855  30.989  27.842  1.00  0.00     0.040 A 
ATOM    103  F   UNL A   1      35.497  32.432  29.657  1.00  0.00    -0.206 F 
ATOM    104  C   UNL A   1      36.663  30.093  27.149  1.00  0.00     0.006 A 
ENDBRANCH  80  97
ENDBRANCH  54  55
ENDBRANCH  47  49
ENDBRANCH  46  47
ENDBRANCH  45  46
ENDBRANCH  44  45
ENDBRANCH  43  44
ENDBRANCH  42  43
ENDBRANCH  41  42
ENDBRANCH  40  41
ENDBRANCH  38  40
ENDBRANCH  37  38
ENDBRANCH   1  37
TORSDOF 29
ENDMDL
MODEL 2
REMARK VINA RESULT:      -7.0      5.088     11.452
REMARK SMILES NS(=O)(=O)c1ccc(-n2nc(C(=O)NCCCCCCCCCCC(=O)OCCOCCOC(=O)c3ccc(-c4c5nc(c(-c6c(F)cccc6F)c6ccc([nH]6)c(-c6c(F)cccc6F)c6nc(c(-c7c(F)cccc7F)c7ccc4[nH]7)C=C6)C=C5)cc3)cc2-c2ccccc2)cc1
REMARK SMILES IDX 23 1 22 2 21 3 20 4 19 5 18 6 17 7 16 8 15 9 14 10 12 11
REMARK SMILES IDX 13 12 11 14 9 15 10 16 91 17 90 18 8 19 5 20 6 21 99 22 7 23
REMARK SMILES IDX 98 24 2 25 3 26 4 27 1 28 92 31 93 32 97 33 94 34 96 35
REMARK SMILES IDX 95 36 24 37 25 38 26 39 27 40 28 41 29 42 30 43 31 44 32 45
REMARK SMILES IDX 33 46 34 47 35 48 36 49 37 50 89 51 38 52 88 53 39 54 40 55
REMARK SMILES IDX 41 56 82 57 42 58 87 59 81 60 83 61 43 62 86 63 80 64 79 65
REMARK SMILES IDX 44 67 70 68 53 69 69 70 54 71 57 72 68 73 84 74 55 75 56 76
REMARK SMILES IDX 67 78 85 79 58 80 45 81 46 82 51 83 47 84 48 85 50 86 52 87
REMARK SMILES IDX 49 88 71 89 72 90 77 91 73 92 74 93 76 94 78 95 75 96 59 97
REMARK SMILES IDX 60 98 65 99 61 100 62 101 64 102 66 103 63 104
REMARK H PARENT 14 13 1 29 1 30 83 66 57 77
REMARK Flexibility Score: inf
ROOT
ATOM      1  C   UNL A   1      43.853  34.557  33.747  1.00  0.00     0.012 C 
ENDROOT
BRANCH   1   2
ATOM      2  C   UNL A   1      44.902  34.262  32.673  1.00  0.00     0.001 C 
BRANCH   2   3
ATOM      3  C   UNL A   1      44.325  33.612  31.419  1.00  0.00     0.000 C 
BRANCH   3   4
ATOM      4  C   UNL A   1      43.286  34.502  30.738  1.00  0.00     0.000 C 
BRANCH   4   5
ATOM      5  C   UNL A   1      43.162  34.220  29.237  1.00  0.00     0.000 C 
BRANCH   5   6
ATOM      6  C   UNL A   1      44.518  34.221  28.522  1.00  0.00     0.000 C 
BRANCH   6   7
ATOM      7  C   UNL A   1      44.624  33.148  27.429  1.00  0.00     0.002 C 
BRANCH   7   8
ATOM      8  C   UNL A   1      43.876  33.525  26.147  1.00  0.00     0.021 C 
BRANCH   8   9
ATOM      9  C   UNL A   1      44.525  34.730  25.471  1.00  0.00     0.116 C 
BRANCH   9  10
ATOM     10  N   UNL A   1      45.948  34.523  25.377  1.00  0.00    -0.351 N 
ATOM     11  C   UNL A   1      47.015  35.375  25.503  1.00  0.00     0.271 C 
ATOM     12  O   UNL A   1      48.118  34.882  25.250  1.00  0.00    -0.267 OA
ATOM     13  H   UNL A   1      46.202  33.592  25.186  1.00  0.00     0.163 HD
BRANCH  11  14
ATOM     14  C   UNL A   1      46.854  36.766  25.974  1.00  0.00     0.151 A 
ATOM     15  N   UNL A   1      45.872  38.379  27.003  1.00  0.00    -0.232 N 
ATOM     16  N   UNL A   1      45.962  37.035  26.946  1.00  0.00    -0.162 NA
ATOM     17  C   UNL A   1      46.784  39.000  26.174  1.00  0.00     0.075 A 
ATOM     18  C   UNL A   1      47.496  37.970  25.598  1.00  0.00     0.065 A 
BRANCH  15  19
ATOM     19  C   UNL A   1      44.966  38.989  27.897  1.00  0.00     0.065 A 
ATOM     20  C   UNL A   1      43.365  40.413  29.642  1.00  0.00     0.082 A 
ATOM     21  C   UNL A   1      42.996  40.317  28.298  1.00  0.00     0.024 A 
ATOM     22  C   UNL A   1      44.496  39.751  30.133  1.00  0.00     0.024 A 
ATOM     23  C   UNL A   1      43.811  39.615  27.416  1.00  0.00     0.030 A 
ATOM     24  C   UNL A   1      45.289  39.012  29.259  1.00  0.00     0.030 A 
BRANCH  20  25
ATOM     25  S   UNL A   1      42.389  41.373  30.758  1.00  0.00     0.238 S 
ATOM     26  O   UNL A   1      42.815  42.743  30.712  1.00  0.00    -0.207 OA
ATOM     27  O   UNL A   1      42.233  40.642  32.004  1.00  0.00    -0.207 OA
BRANCH  25  28
ATOM     28  N   UNL A   1      40.884  41.320  30.013  1.00  0.00    -0.225 NA
ATOM     29  H   UNL A   1      40.833  40.503  29.406  1.00  0.00     0.137 HD
ATOM     30  H   UNL A   1      40.750  42.165  29.458  1.00  0.00     0.137 HD
ENDBRANCH  25  28
ENDBRANCH  20  25
ENDBRANCH  15  19
BRANCH  17  31
ATOM     31  C   UNL A   1      47.050  40.429  26.068  1.00  0.00     0.000 A 
ATOM     32  C   UNL A   1      46.606  41.157  24.958  1.00  0.00     0.010 A 
ATOM     33  C   UNL A   1      47.711  41.093  27.109  1.00  0.00     0.010 A 
ATOM     34  C   UNL A   1      46.834  42.531  24.885  1.00  0.00     0.001 A 
ATOM     35  C   UNL A   1      47.938  42.468  27.032  1.00  0.00     0.001 A 
ATOM     36  C   UNL A   1      47.498  43.185  25.922  1.00  0.00     0.000 A 
ENDBRANCH  17  31
ENDBRANCH  11  14
ENDBRANCH   9  10
ENDBRANCH   8   9
ENDBRANCH   7   8
ENDBRANCH   6   7
ENDBRANCH   5   6
ENDBRANCH   4   5
ENDBRANCH   3   4
ENDBRANCH   2   3
ENDBRANCH   1   2
BRANCH   1  37
ATOM     37  C   UNL A   1      42.855  33.428  34.040  1.00  0.00     0.123 C 
BRANCH  37  38
ATOM     38  C   UNL A   1      41.376  33.766  34.051  1.00  0.00     0.305 C 
ATOM     39  O   UNL A   1      40.926  34.771  33.517  1.00  0.00    -0.252 OA
BRANCH  38  40
ATOM     40  O   UNL A   1      40.641  32.855  34.727  1.00  0.00    -0.463 OA
BRANCH  40  41
ATOM     41  C   UNL A   1      40.120  31.738  33.989  1.00  0.00     0.261 C 
BRANCH  41  42
ATOM     42  C   UNL A   1      38.682  32.032  33.566  1.00  0.00     0.202 C 
BRANCH  42  43
ATOM     43  O   UNL A   1      38.510  32.682  32.304  1.00  0.00    -0.374 OA
BRANCH  43  44
ATOM     44  C   UNL A   1      37.828  31.996  31.259  1.00  0.00     0.202 C 
BRANCH  44  45
ATOM     45  C   UNL A   1      38.660  31.569  30.057  1.00  0.00     0.261 C 
BRANCH  45  46
ATOM     46  O   UNL A   1      37.841  31.405  28.909  1.00  0.00    -0.460 OA
BRANCH  46  47
ATOM     47  C   UNL A   1      37.118  30.262  28.887  1.00  0.00     0.338 C 
ATOM     48  O   UNL A   1      36.004  30.077  29.342  1.00  0.00    -0.246 OA
BRANCH  47  49
ATOM     49  C   UNL A   1      37.975  29.203  28.340  1.00  0.00     0.060 A 
ATOM     50  C   UNL A   1      38.297  28.186  29.236  1.00  0.00     0.016 A 
ATOM     51  C   UNL A   1      38.736  29.461  27.191  1.00  0.00     0.016 A 
ATOM     52  C   UNL A   1      39.566  27.674  29.174  1.00  0.00     0.010 A 
ATOM     53  C   UNL A   1      40.007  28.960  27.134  1.00  0.00     0.010 A 
ATOM     54  C   UNL A   1      40.433  28.178  28.199  1.00  0.00    -0.014 A 
BRANCH  54  55
ATOM     55  C   UNL A   1      41.827  27.834  28.304  1.00  0.00     0.031 A 
ATOM     56  C   UNL A   1      42.144  26.589  27.589  1.00  0.00     0.074 A 
ATOM     57  C   UNL A   1      42.713  28.643  28.909  1.00  0.00     0.049 A 
ATOM     58  N   UNL A   1      42.421  25.437  28.099  1.00  0.00    -0.248 NA
ATOM     59  C   UNL A   1      41.890  26.569  26.140  1.00  0.00     0.031 C 
ATOM     60  C   UNL A   1      42.535  30.021  29.377  1.00  0.00     0.029 A 
ATOM     61  N   UNL A   1      44.032  28.412  29.126  1.00  0.00    -0.354 N 
ATOM     62  C   UNL A   1      42.595  24.595  27.007  1.00  0.00     0.074 A 
ATOM     63  C   UNL A   1      42.010  25.268  25.882  1.00  0.00     0.031 C 
ATOM     64  C   UNL A   1      43.752  30.572  29.596  1.00  0.00     0.029 A 
ATOM     65  C   UNL A   1      44.770  29.556  29.402  1.00  0.00     0.049 A 
ATOM     66  H   UNL A   1      44.430  27.513  29.091  1.00  0.00     0.167 HD
ATOM     67  C   UNL A   1      43.478  23.563  27.060  1.00  0.00     0.037 A 
ATOM     68  C   UNL A   1      46.124  29.623  29.325  1.00  0.00     0.037 A 
ATOM     69  C   UNL A   1      43.790  23.225  28.430  1.00  0.00     0.049 A 
ATOM     70  C   UNL A   1      46.633  28.220  29.379  1.00  0.00     0.074 A 
ATOM     71  C   UNL A   1      43.042  22.836  29.527  1.00  0.00     0.029 A 
ATOM     72  N   UNL A   1      44.997  23.648  28.938  1.00  0.00    -0.354 N 
ATOM     73  N   UNL A   1      46.549  27.459  30.438  1.00  0.00    -0.248 NA
ATOM     74  C   UNL A   1      46.767  27.508  28.112  1.00  0.00     0.031 C 
ATOM     75  C   UNL A   1      43.639  23.502  30.638  1.00  0.00     0.029 A 
ATOM     76  C   UNL A   1      44.751  24.203  30.168  1.00  0.00     0.049 A 
ATOM     77  H   UNL A   1      45.875  23.567  28.500  1.00  0.00     0.167 HD
ATOM     78  C   UNL A   1      46.206  26.203  29.953  1.00  0.00     0.074 A 
ATOM     79  C   UNL A   1      46.410  26.282  28.507  1.00  0.00     0.031 C 
ATOM     80  C   UNL A   1      45.505  25.308  30.711  1.00  0.00     0.037 A 
BRANCH  67  81
ATOM     81  C   UNL A   1      44.368  23.169  25.901  1.00  0.00     0.057 A 
ATOM     82  C   UNL A   1      44.452  21.808  25.561  1.00  0.00     0.134 A 
ATOM     83  C   UNL A   1      45.353  23.988  25.307  1.00  0.00     0.134 A 
ATOM     84  F   UNL A   1      43.565  20.922  26.040  1.00  0.00    -0.206 F 
ATOM     85  C   UNL A   1      45.502  21.288  24.797  1.00  0.00     0.040 A 
ATOM     86  C   UNL A   1      46.375  23.486  24.501  1.00  0.00     0.040 A 
ATOM     87  F   UNL A   1      45.453  25.302  25.532  1.00  0.00    -0.206 F 
ATOM     88  C   UNL A   1      46.479  22.125  24.278  1.00  0.00     0.006 A 
ENDBRANCH  67  81
BRANCH  68  89
ATOM     89  C   UNL A   1      46.942  30.754  28.827  1.00  0.00     0.057 A 
ATOM     90  C   UNL A   1      47.708  31.534  29.706  1.00  0.00     0.134 A 
ATOM     91  C   UNL A   1      47.203  30.940  27.457  1.00  0.00     0.134 A 
ATOM     92  F   UNL A   1      47.571  31.397  31.032  1.00  0.00    -0.206 F 
ATOM     93  C   UNL A   1      48.684  32.432  29.248  1.00  0.00     0.040 A 
ATOM     94  C   UNL A   1      48.165  31.841  26.988  1.00  0.00     0.040 A 
ATOM     95  F   UNL A   1      46.596  30.193  26.524  1.00  0.00    -0.206 F 
ATOM     96  C   UNL A   1      48.919  32.582  27.885  1.00  0.00     0.006 A 
ENDBRANCH  68  89
BRANCH  80  97
ATOM     97  C   UNL A   1      45.283  25.619  32.165  1.00  0.00     0.057 A 
ATOM     98  C   UNL A   1      46.221  25.347  33.173  1.00  0.00     0.134 A 
ATOM     99  C   UNL A   1      44.173  26.389  32.527  1.00  0.00     0.134 A 
ATOM    100  F   UNL A   1      47.366  24.707  32.899  1.00  0.00    -0.206 F 
ATOM    101  C   UNL A   1      46.042  25.792  34.487  1.00  0.00     0.040 A 
ATOM    102  C   UNL A   1      43.999  26.868  33.827  1.00  0.00     0.040 A 
ATOM    103  F   UNL A   1      43.264  26.739  31.603  1.00  0.00    -0.206 F 
ATOM    104  C   UNL A   1      44.932  26.564  34.814  1.00  0.00     0.006 A 
ENDBRANCH  80  97
ENDBRANCH  54  55
ENDBRANCH  47  49
ENDBRANCH  46  47
ENDBRANCH  45  46
ENDBRANCH  44  45
ENDBRANCH  43  44
ENDBRANCH  42  43
ENDBRANCH  41  42
ENDBRANCH  40  41
ENDBRANCH  38  40
ENDBRANCH  37  38
ENDBRANCH   1  37
TORSDOF 29
ENDMDL
MODEL 3
REMARK VINA RESULT:      -7.0      5.976     10.106
REMARK SMILES NS(=O)(=O)c1ccc(-n2nc(C(=O)NCCCCCCCCCCC(=O)OCCOCCOC(=O)c3ccc(-c4c5nc(c(-c6c(F)cccc6F)c6ccc([nH]6)c(-c6c(F)cccc6F)c6nc(c(-c7c(F)cccc7F)c7ccc4[nH]7)C=C6)C=C5)cc3)cc2-c2ccccc2)cc1
REMARK SMILES IDX 23 1 22 2 21 3 20 4 19 5 18 6 17 7 16 8 15 9 14 10 12 11
REMARK SMILES IDX 13 12 11 14 9 15 10 16 91 17 90 18 8 19 5 20 6 21 99 22 7 23
REMARK SMILES IDX 98 24 2 25 3 26 4 27 1 28 92 31 93 32 97 33 94 34 96 35
REMARK SMILES IDX 95 36 24 37 25 38 26 39 27 40 28 41 29 42 30 43 31 44 32 45
REMARK SMILES IDX 33 46 34 47 35 48 36 49 37 50 89 51 38 52 88 53 39 54 40 55
REMARK SMILES IDX 41 56 82 57 42 58 87 59 81 60 83 61 43 62 86 63 80 64 79 65
REMARK SMILES IDX 44 67 70 68 53 69 69 70 54 71 57 72 68 73 84 74 55 75 56 76
REMARK SMILES IDX 67 78 85 79 58 80 45 81 46 82 51 83 47 84 48 85 50 86 52 87
REMARK SMILES IDX 49 88 71 89 72 90 77 91 73 92 74 93 76 94 78 95 75 96 59 97
REMARK SMILES IDX 60 98 65 99 61 100 62 101 64 102 66 103 63 104
REMARK H PARENT 14 13 1 29 1 30 83 66 57 77
REMARK Flexibility Score: inf
ROOT
ATOM      1  C   UNL A   1      36.710  30.458  28.246  1.00  0.00     0.012 C 
ENDROOT
BRANCH   1   2
ATOM      2  C   UNL A   1      37.412  29.365  29.054  1.00  0.00     0.001 C 
BRANCH   2   3
ATOM      3  C   UNL A   1      38.930  29.364  28.890  1.00  0.00     0.000 C 
BRANCH   3   4
ATOM      4  C   UNL A   1      39.561  28.073  29.412  1.00  0.00     0.000 C 
BRANCH   4   5
ATOM      5  C   UNL A   1      41.062  28.221  29.685  1.00  0.00     0.000 C 
BRANCH   5   6
ATOM      6  C   UNL A   1      41.870  27.004  29.220  1.00  0.00     0.000 C 
BRANCH   6   7
ATOM      7  C   UNL A   1      41.063  26.051  28.328  1.00  0.00     0.002 C 
BRANCH   7   8
ATOM      8  C   UNL A   1      41.280  26.303  26.834  1.00  0.00     0.021 C 
BRANCH   8   9
ATOM      9  C   UNL A   1      40.542  25.265  25.992  1.00  0.00     0.116 C 
BRANCH   9  10
ATOM     10  N   UNL A   1      40.864  23.943  26.464  1.00  0.00    -0.351 N 
ATOM     11  C   UNL A   1      40.095  22.828  26.684  1.00  0.00     0.271 C 
ATOM     12  O   UNL A   1      40.682  21.875  27.205  1.00  0.00    -0.267 OA
ATOM     13  H   UNL A   1      41.818  23.815  26.669  1.00  0.00     0.163 HD
BRANCH  11  14
ATOM     14  C   UNL A   1      38.682  22.757  26.260  1.00  0.00     0.151 A 
ATOM     15  N   UNL A   1      36.916  21.795  25.498  1.00  0.00    -0.232 N 
ATOM     16  N   UNL A   1      38.101  21.554  26.093  1.00  0.00    -0.162 NA
ATOM     17  C   UNL A   1      36.650  23.145  25.388  1.00  0.00     0.075 A 
ATOM     18  C   UNL A   1      37.729  23.765  25.982  1.00  0.00     0.065 A 
BRANCH  15  19
ATOM     19  C   UNL A   1      36.079  20.720  25.131  1.00  0.00     0.065 A 
ATOM     20  C   UNL A   1      34.488  18.506  24.676  1.00  0.00     0.082 A 
ATOM     21  C   UNL A   1      33.887  19.726  24.996  1.00  0.00     0.024 A 
ATOM     22  C   UNL A   1      35.875  18.398  24.522  1.00  0.00     0.024 A 
ATOM     23  C   UNL A   1      34.688  20.836  25.243  1.00  0.00     0.030 A 
ATOM     24  C   UNL A   1      36.675  19.520  24.726  1.00  0.00     0.030 A 
BRANCH  20  25
ATOM     25  S   UNL A   1      33.492  17.065  24.447  1.00  0.00     0.238 S 
ATOM     26  O   UNL A   1      33.619  16.207  25.589  1.00  0.00    -0.207 OA
ATOM     27  O   UNL A   1      33.653  16.587  23.084  1.00  0.00    -0.207 OA
BRANCH  25  28
ATOM     28  N   UNL A   1      31.945  17.718  24.514  1.00  0.00    -0.225 NA
ATOM     29  H   UNL A   1      31.617  17.915  23.569  1.00  0.00     0.137 HD
ATOM     30  H   UNL A   1      31.964  18.582  25.055  1.00  0.00     0.137 HD
ENDBRANCH  25  28
ENDBRANCH  20  25
ENDBRANCH  15  19
BRANCH  17  31
ATOM     31  C   UNL A   1      35.422  23.767  24.910  1.00  0.00     0.000 A 
ATOM     32  C   UNL A   1      34.525  24.357  25.808  1.00  0.00     0.010 A 
ATOM     33  C   UNL A   1      35.159  23.821  23.536  1.00  0.00     0.010 A 
ATOM     34  C   UNL A   1      33.372  24.983  25.336  1.00  0.00     0.001 A 
ATOM     35  C   UNL A   1      34.004  24.448  23.067  1.00  0.00     0.001 A 
ATOM     36  C   UNL A   1      33.112  25.028  23.967  1.00  0.00     0.000 A 
ENDBRANCH  17  31
ENDBRANCH  11  14
ENDBRANCH   9  10
ENDBRANCH   8   9
ENDBRANCH   7   8
ENDBRANCH   6   7
ENDBRANCH   5   6
ENDBRANCH   4   5
ENDBRANCH   3   4
ENDBRANCH   2   3
ENDBRANCH   1   2
BRANCH   1  37
ATOM     37  C   UNL A   1      37.049  31.904  28.634  1.00  0.00     0.123 C 
BRANCH  37  38
ATOM     38  C   UNL A   1      37.097  32.257  30.108  1.00  0.00     0.305 C 
ATOM     39  O   UNL A   1      38.140  32.534  30.685  1.00  0.00    -0.252 OA
BRANCH  38  40
ATOM     40  O   UNL A   1      35.879  32.204  30.694  1.00  0.00    -0.463 OA
BRANCH  40  41
ATOM     41  C   UNL A   1      35.794  31.615  32.002  1.00  0.00     0.261 C 
BRANCH  41  42
ATOM     42  C   UNL A   1      35.487  32.702  33.031  1.00  0.00     0.202 C 
BRANCH  42  43
ATOM     43  O   UNL A   1      36.576  33.120  33.858  1.00  0.00    -0.374 OA
BRANCH  43  44
ATOM     44  C   UNL A   1      37.276  34.317  33.529  1.00  0.00     0.202 C 
BRANCH  44  45
ATOM     45  C   UNL A   1      38.606  34.552  34.231  1.00  0.00     0.261 C 
BRANCH  45  46
ATOM     46  O   UNL A   1      39.685  34.470  33.311  1.00  0.00    -0.460 OA
BRANCH  46  47
ATOM     47  C   UNL A   1      40.608  33.525  33.604  1.00  0.00     0.338 C 
ATOM     48  O   UNL A   1      40.415  32.351  33.860  1.00  0.00    -0.246 OA
BRANCH  47  49
ATOM     49  C   UNL A   1      41.910  34.193  33.712  1.00  0.00     0.060 A 
ATOM     50  C   UNL A   1      41.864  35.497  34.201  1.00  0.00     0.016 A 
ATOM     51  C   UNL A   1      42.994  33.709  32.966  1.00  0.00     0.016 A 
ATOM     52  C   UNL A   1      42.720  36.407  33.641  1.00  0.00     0.010 A 
ATOM     53  C   UNL A   1      43.843  34.618  32.398  1.00  0.00     0.010 A 
ATOM     54  C   UNL A   1      43.602  35.962  32.651  1.00  0.00    -0.014 A 
BRANCH  54  55
ATOM     55  C   UNL A   1      44.308  36.957  31.888  1.00  0.00     0.031 A 
ATOM     56  C   UNL A   1      44.563  38.176  32.671  1.00  0.00     0.074 A 
ATOM     57  C   UNL A   1      44.748  36.714  30.642  1.00  0.00     0.049 A 
ATOM     58  N   UNL A   1      43.991  39.325  32.548  1.00  0.00    -0.248 NA
ATOM     59  C   UNL A   1      45.379  38.028  33.886  1.00  0.00     0.031 C 
ATOM     60  C   UNL A   1      44.796  35.445  29.911  1.00  0.00     0.029 A 
ATOM     61  N   UNL A   1      45.368  37.578  29.799  1.00  0.00    -0.354 N 
ATOM     62  C   UNL A   1      44.551  40.113  33.546  1.00  0.00     0.074 A 
ATOM     63  C   UNL A   1      45.177  39.208  34.469  1.00  0.00     0.031 C 
ATOM     64  C   UNL A   1      45.623  35.580  28.848  1.00  0.00     0.029 A 
ATOM     65  C   UNL A   1      46.055  36.963  28.760  1.00  0.00     0.049 A 
ATOM     66  H   UNL A   1      45.333  38.555  29.914  1.00  0.00     0.167 HD
ATOM     67  C   UNL A   1      44.722  41.449  33.362  1.00  0.00     0.037 A 
ATOM     68  C   UNL A   1      47.001  37.578  28.007  1.00  0.00     0.037 A 
ATOM     69  C   UNL A   1      43.872  41.933  32.299  1.00  0.00     0.049 A 
ATOM     70  C   UNL A   1      46.802  39.049  28.172  1.00  0.00     0.074 A 
ATOM     71  C   UNL A   1      42.508  41.925  32.070  1.00  0.00     0.029 A 
ATOM     72  N   UNL A   1      44.450  42.182  31.076  1.00  0.00    -0.354 N 
ATOM     73  N   UNL A   1      45.760  39.694  27.717  1.00  0.00    -0.248 NA
ATOM     74  C   UNL A   1      47.501  39.700  29.275  1.00  0.00     0.031 C 
ATOM     75  C   UNL A   1      42.368  41.676  30.673  1.00  0.00     0.029 A 
ATOM     76  C   UNL A   1      43.649  41.611  30.121  1.00  0.00     0.049 A 
ATOM     77  H   UNL A   1      45.285  42.679  30.915  1.00  0.00     0.167 HD
ATOM     78  C   UNL A   1      45.431  40.599  28.720  1.00  0.00     0.074 A 
ATOM     79  C   UNL A   1      46.574  40.594  29.631  1.00  0.00     0.031 C 
ATOM     80  C   UNL A   1      44.150  41.044  28.892  1.00  0.00     0.037 A 
BRANCH  67  81
ATOM     81  C   UNL A   1      45.947  42.203  33.835  1.00  0.00     0.057 A 
ATOM     82  C   UNL A   1      45.760  43.452  34.453  1.00  0.00     0.134 A 
ATOM     83  C   UNL A   1      47.279  41.923  33.459  1.00  0.00     0.134 A 
ATOM     84  F   UNL A   1      44.546  43.835  34.878  1.00  0.00    -0.206 F 
ATOM     85  C   UNL A   1      46.788  44.393  34.571  1.00  0.00     0.040 A 
ATOM     86  C   UNL A   1      48.322  42.836  33.620  1.00  0.00     0.040 A 
ATOM     87  F   UNL A   1      47.649  40.801  32.834  1.00  0.00    -0.206 F 
ATOM     88  C   UNL A   1      48.072  44.093  34.138  1.00  0.00     0.006 A 
ENDBRANCH  67  81
BRANCH  68  89
ATOM     89  C   UNL A   1      48.262  36.994  27.493  1.00  0.00     0.057 A 
ATOM     90  C   UNL A   1      48.552  36.992  26.120  1.00  0.00     0.134 A 
ATOM     91  C   UNL A   1      49.331  36.658  28.344  1.00  0.00     0.134 A 
ATOM     92  F   UNL A   1      47.615  37.345  25.228  1.00  0.00    -0.206 F 
ATOM     93  C   UNL A   1      49.830  36.690  25.628  1.00  0.00     0.040 A 
ATOM     94  C   UNL A   1      50.608  36.344  27.865  1.00  0.00     0.040 A 
ATOM     95  F   UNL A   1      49.203  36.706  29.677  1.00  0.00    -0.206 F 
ATOM     96  C   UNL A   1      50.865  36.372  26.502  1.00  0.00     0.006 A 
ENDBRANCH  68  89
BRANCH  80  97
ATOM     97  C   UNL A   1      43.126  40.702  27.846  1.00  0.00     0.057 A 
ATOM     98  C   UNL A   1      42.990  41.393  26.631  1.00  0.00     0.134 A 
ATOM     99  C   UNL A   1      42.388  39.523  27.987  1.00  0.00     0.134 A 
ATOM    100  F   UNL A   1      43.734  42.474  26.363  1.00  0.00    -0.206 F 
ATOM    101  C   UNL A   1      42.132  40.948  25.621  1.00  0.00     0.040 A 
ATOM    102  C   UNL A   1      41.552  39.048  26.973  1.00  0.00     0.040 A 
ATOM    103  F   UNL A   1      42.511  38.777  29.097  1.00  0.00    -0.206 F 
ATOM    104  C   UNL A   1      41.416  39.766  25.788  1.00  0.00     0.006 A 
ENDBRANCH  80  97
ENDBRANCH  54  55
ENDBRANCH  47  49
ENDBRANCH  46  47
ENDBRANCH  45  46
ENDBRANCH  44  45
ENDBRANCH  43  44
ENDBRANCH  42  43
ENDBRANCH  41  42
ENDBRANCH  40  41
ENDBRANCH  38  40
ENDBRANCH  37  38
ENDBRANCH   1  37
TORSDOF 29
ENDMDL
