MODEL 1
REMARK VINA RESULT:     -11.8      0.000      0.000
REMARK SMILES C[C@H](C(=O)OCCOCCOC(=O)c1ccc(-c2c3nc(c(-c4c(F)cccc4F)c4ccc([nH]4)c(-c4c(F)cccc4F)c4nc(c(-c5c(F)cccc5F)c5ccc2[nH]5)C=C4)C=C3)cc1)[C@@H](C(=O)c1ccccc1)c1ccc(F)cc1
REMARK SMILES IDX 7 1 6 2 5 3 3 4 4 5 2 6 1 7 68 8 69 9 70 10 71 11 72 12
REMARK SMILES IDX 76 13 73 14 75 15 74 16 77 17 78 18 83 19 79 20 82 21 80 22
REMARK SMILES IDX 81 23 8 24 9 25 10 26 11 27 12 28 13 29 14 30 15 31 67 32
REMARK SMILES IDX 16 33 66 34 17 35 18 36 19 37 60 38 20 39 65 40 59 41 61 42
REMARK SMILES IDX 21 43 64 44 58 45 57 46 22 48 48 49 31 50 47 51 32 52 35 53
REMARK SMILES IDX 46 54 62 55 33 56 34 57 45 59 63 60 36 61 23 62 24 63 29 64
REMARK SMILES IDX 25 65 26 66 28 67 30 68 27 69 49 70 50 71 55 72 51 73 52 74
REMARK SMILES IDX 54 75 56 76 53 77 37 78 38 79 43 80 39 81 40 82 42 83 44 84
REMARK SMILES IDX 41 85
REMARK H PARENT 61 47 35 58
REMARK Flexibility Score: inf
ROOT
ATOM      1  C   UNL A   1      32.971  27.524  24.324  1.00  0.00     0.202 C 
ENDROOT
BRANCH   1   2
ATOM      2  C   UNL A   1      33.452  26.364  25.207  1.00  0.00     0.261 C 
BRANCH   2   3
ATOM      3  O   UNL A   1      32.878  25.090  24.839  1.00  0.00    -0.463 OA
BRANCH   3   4
ATOM      4  C   UNL A   1      32.407  24.324  25.833  1.00  0.00     0.309 C 
ATOM      5  O   UNL A   1      31.892  24.801  26.838  1.00  0.00    -0.252 OA
BRANCH   4   6
ATOM      6  C   UNL A   1      32.634  22.822  25.587  1.00  0.00     0.111 C 
ATOM      7  C   UNL A   1      31.234  22.260  25.999  1.00  0.00     0.021 C 
BRANCH   6   8
ATOM      8  C   UNL A   1      33.105  22.390  24.124  1.00  0.00     0.105 C 
BRANCH   8   9
ATOM      9  C   UNL A   1      34.576  22.814  23.621  1.00  0.00     0.171 C 
ATOM     10  O   UNL A   1      34.806  23.368  22.544  1.00  0.00    -0.293 OA
BRANCH   9  11
ATOM     11  C   UNL A   1      35.795  22.736  24.498  1.00  0.00     0.018 A 
ATOM     12  C   UNL A   1      36.958  21.355  24.306  1.00  0.00     0.012 A 
ATOM     13  C   UNL A   1      36.249  24.108  25.599  1.00  0.00     0.012 A 
ATOM     14  C   UNL A   1      38.460  21.247  25.356  1.00  0.00     0.001 A 
ATOM     15  C   UNL A   1      37.877  24.137  26.451  1.00  0.00     0.001 A 
ATOM     16  C   UNL A   1      38.911  22.645  26.443  1.00  0.00     0.000 A 
ENDBRANCH   9  11
ENDBRANCH   8   9
BRANCH   8  17
ATOM     17  C   UNL A   1      32.939  20.835  24.022  1.00  0.00    -0.036 A 
ATOM     18  C   UNL A   1      33.721  19.991  24.842  1.00  0.00     0.007 A 
ATOM     19  C   UNL A   1      32.215  20.236  22.969  1.00  0.00     0.007 A 
ATOM     20  C   UNL A   1      33.819  18.618  24.574  1.00  0.00     0.039 A 
ATOM     21  C   UNL A   1      32.282  18.859  22.733  1.00  0.00     0.039 A 
ATOM     22  C   UNL A   1      33.101  18.066  23.521  1.00  0.00     0.123 A 
ATOM     23  F   UNL A   1      33.225  16.761  23.245  1.00  0.00    -0.207 F 
ENDBRANCH   8  17
ENDBRANCH   6   8
ENDBRANCH   4   6
ENDBRANCH   3   4
ENDBRANCH   2   3
ENDBRANCH   1   2
BRANCH   1  24
ATOM     24  O   UNL A   1      31.915  28.322  24.846  1.00  0.00    -0.374 OA
BRANCH  24  25
ATOM     25  C   UNL A   1      32.213  29.656  25.264  1.00  0.00     0.202 C 
BRANCH  25  26
ATOM     26  C   UNL A   1      31.575  30.131  26.569  1.00  0.00     0.261 C 
BRANCH  26  27
ATOM     27  O   UNL A   1      31.431  31.580  26.546  1.00  0.00    -0.460 OA
BRANCH  27  28
ATOM     28  C   UNL A   1      32.495  32.438  27.166  1.00  0.00     0.338 C 
ATOM     29  O   UNL A   1      31.841  33.510  27.335  1.00  0.00    -0.246 OA
BRANCH  28  30
ATOM     30  C   UNL A   1      34.527  31.886  27.593  1.00  0.00     0.060 A 
ATOM     31  C   UNL A   1      35.102  30.494  27.820  1.00  0.00     0.016 A 
ATOM     32  C   UNL A   1      35.758  32.701  27.953  1.00  0.00     0.016 A 
ATOM     33  C   UNL A   1      36.142  30.085  28.656  1.00  0.00     0.010 A 
ATOM     34  C   UNL A   1      36.951  32.281  28.631  1.00  0.00     0.010 A 
ATOM     35  C   UNL A   1      37.093  30.979  29.071  1.00  0.00    -0.014 A 
BRANCH  35  36
ATOM     36  C   UNL A   1      38.233  30.458  29.849  1.00  0.00     0.031 A 
ATOM     37  C   UNL A   1      39.250  29.567  29.203  1.00  0.00     0.074 A 
ATOM     38  C   UNL A   1      38.404  30.924  31.103  1.00  0.00     0.049 A 
ATOM     39  N   UNL A   1      40.277  28.967  29.743  1.00  0.00    -0.248 NA
ATOM     40  C   UNL A   1      39.101  29.320  27.759  1.00  0.00     0.031 C 
ATOM     41  C   UNL A   1      37.517  31.888  31.770  1.00  0.00     0.029 A 
ATOM     42  N   UNL A   1      39.386  30.696  32.027  1.00  0.00    -0.354 N 
ATOM     43  C   UNL A   1      40.867  28.230  28.724  1.00  0.00     0.074 A 
ATOM     44  C   UNL A   1      40.095  28.472  27.525  1.00  0.00     0.031 C 
ATOM     45  C   UNL A   1      38.028  32.214  32.963  1.00  0.00     0.029 A 
ATOM     46  C   UNL A   1      39.189  31.376  33.205  1.00  0.00     0.049 A 
ATOM     47  H   UNL A   1      40.156  30.106  31.864  1.00  0.00     0.167 HD
ATOM     48  C   UNL A   1      41.943  27.412  28.810  1.00  0.00     0.037 A 
ATOM     49  C   UNL A   1      39.830  31.277  34.381  1.00  0.00     0.037 A 
ATOM     50  C   UNL A   1      42.684  27.211  30.031  1.00  0.00     0.049 A 
ATOM     51  C   UNL A   1      40.954  30.293  34.471  1.00  0.00     0.074 A 
ATOM     52  C   UNL A   1      43.771  26.387  30.262  1.00  0.00     0.029 A 
ATOM     53  N   UNL A   1      42.406  27.851  31.233  1.00  0.00    -0.354 N 
ATOM     54  N   UNL A   1      41.462  29.538  33.526  1.00  0.00    -0.248 NA
ATOM     55  C   UNL A   1      41.578  30.126  35.786  1.00  0.00     0.031 C 
ATOM     56  C   UNL A   1      44.111  26.486  31.615  1.00  0.00     0.029 A 
ATOM     57  C   UNL A   1      43.282  27.420  32.216  1.00  0.00     0.049 A 
ATOM     58  H   UNL A   1      41.691  28.515  31.367  1.00  0.00     0.167 HD
ATOM     59  C   UNL A   1      42.479  28.813  34.125  1.00  0.00     0.074 A 
ATOM     60  C   UNL A   1      42.526  29.241  35.512  1.00  0.00     0.031 C 
ATOM     61  C   UNL A   1      43.296  27.876  33.585  1.00  0.00     0.037 A 
BRANCH  48  62
ATOM     62  C   UNL A   1      42.320  26.618  27.590  1.00  0.00     0.057 A 
ATOM     63  C   UNL A   1      43.279  27.054  26.667  1.00  0.00     0.134 A 
ATOM     64  C   UNL A   1      41.713  25.378  27.342  1.00  0.00     0.134 A 
ATOM     65  F   UNL A   1      43.890  28.237  26.829  1.00  0.00    -0.206 F 
ATOM     66  C   UNL A   1      43.601  26.301  25.534  1.00  0.00     0.040 A 
ATOM     67  C   UNL A   1      42.044  24.604  26.228  1.00  0.00     0.040 A 
ATOM     68  F   UNL A   1      40.785  24.894  28.183  1.00  0.00    -0.206 F 
ATOM     69  C   UNL A   1      42.987  25.070  25.315  1.00  0.00     0.006 A 
ENDBRANCH  48  62
BRANCH  49  70
ATOM     70  C   UNL A   1      39.362  32.059  35.555  1.00  0.00     0.057 A 
ATOM     71  C   UNL A   1      39.832  33.352  35.802  1.00  0.00     0.134 A 
ATOM     72  C   UNL A   1      38.412  31.541  36.448  1.00  0.00     0.134 A 
ATOM     73  F   UNL A   1      40.748  33.903  34.993  1.00  0.00    -0.206 F 
ATOM     74  C   UNL A   1      39.384  34.096  36.896  1.00  0.00     0.040 A 
ATOM     75  C   UNL A   1      37.930  32.285  37.524  1.00  0.00     0.040 A 
ATOM     76  F   UNL A   1      37.910  30.310  36.265  1.00  0.00    -0.206 F 
ATOM     77  C   UNL A   1      38.424  33.566  37.756  1.00  0.00     0.006 A 
ENDBRANCH  49  70
BRANCH  61  78
ATOM     78  C   UNL A   1      44.335  27.299  34.498  1.00  0.00     0.057 A 
ATOM     79  C   UNL A   1      45.584  27.905  34.675  1.00  0.00     0.134 A 
ATOM     80  C   UNL A   1      44.068  26.129  35.218  1.00  0.00     0.134 A 
ATOM     81  F   UNL A   1      45.904  29.017  33.996  1.00  0.00    -0.206 F 
ATOM     82  C   UNL A   1      46.545  27.350  35.519  1.00  0.00     0.040 A 
ATOM     83  C   UNL A   1      45.009  25.581  36.089  1.00  0.00     0.040 A 
ATOM     84  F   UNL A   1      42.886  25.505  35.093  1.00  0.00    -0.206 F 
ATOM     85  C   UNL A   1      46.255  26.189  36.233  1.00  0.00     0.006 A 
ENDBRANCH  61  78
ENDBRANCH  35  36
ENDBRANCH  28  30
ENDBRANCH  27  28
ENDBRANCH  26  27
ENDBRANCH  25  26
ENDBRANCH  24  25
ENDBRANCH   1  24
TORSDOF 18
ENDMDL
MODEL 2
REMARK VINA RESULT:     -11.7      1.379      3.081
REMARK SMILES C[C@H](C(=O)OCCOCCOC(=O)c1ccc(-c2c3nc(c(-c4c(F)cccc4F)c4ccc([nH]4)c(-c4c(F)cccc4F)c4nc(c(-c5c(F)cccc5F)c5ccc2[nH]5)C=C4)C=C3)cc1)[C@@H](C(=O)c1ccccc1)c1ccc(F)cc1
REMARK SMILES IDX 7 1 6 2 5 3 3 4 4 5 2 6 1 7 68 8 69 9 70 10 71 11 72 12
REMARK SMILES IDX 76 13 73 14 75 15 74 16 77 17 78 18 83 19 79 20 82 21 80 22
REMARK SMILES IDX 81 23 8 24 9 25 10 26 11 27 12 28 13 29 14 30 15 31 67 32
REMARK SMILES IDX 16 33 66 34 17 35 18 36 19 37 60 38 20 39 65 40 59 41 61 42
REMARK SMILES IDX 21 43 64 44 58 45 57 46 22 48 48 49 31 50 47 51 32 52 35 53
REMARK SMILES IDX 46 54 62 55 33 56 34 57 45 59 63 60 36 61 23 62 24 63 29 64
REMARK SMILES IDX 25 65 26 66 28 67 30 68 27 69 49 70 50 71 55 72 51 73 52 74
REMARK SMILES IDX 54 75 56 76 53 77 37 78 38 79 43 80 39 81 40 82 42 83 44 84
REMARK SMILES IDX 41 85
REMARK H PARENT 61 47 35 58
REMARK Flexibility Score: inf
ROOT
ATOM      1  C   UNL A   1      33.206  27.421  25.154  1.00  0.00     0.202 C 
ENDROOT
BRANCH   1   2
ATOM      2  C   UNL A   1      33.242  25.888  25.097  1.00  0.00     0.261 C 
BRANCH   2   3
ATOM      3  O   UNL A   1      34.502  25.363  24.623  1.00  0.00    -0.463 OA
BRANCH   3   4
ATOM      4  C   UNL A   1      34.471  24.614  23.513  1.00  0.00     0.309 C 
ATOM      5  O   UNL A   1      34.086  25.057  22.436  1.00  0.00    -0.252 OA
BRANCH   4   6
ATOM      6  C   UNL A   1      34.913  23.162  23.761  1.00  0.00     0.111 C 
ATOM      7  C   UNL A   1      36.194  23.105  22.864  1.00  0.00     0.021 C 
BRANCH   6   8
ATOM      8  C   UNL A   1      35.161  22.728  25.277  1.00  0.00     0.105 C 
BRANCH   8   9
ATOM      9  C   UNL A   1      34.514  21.352  25.811  1.00  0.00     0.171 C 
ATOM     10  O   UNL A   1      34.113  21.177  26.962  1.00  0.00    -0.293 OA
BRANCH   9  11
ATOM     11  C   UNL A   1      34.173  20.203  24.903  1.00  0.00     0.018 A 
ATOM     12  C   UNL A   1      35.185  18.695  24.937  1.00  0.00     0.012 A 
ATOM     13  C   UNL A   1      32.641  20.198  23.928  1.00  0.00     0.012 A 
ATOM     14  C   UNL A   1      34.778  17.273  23.848  1.00  0.00     0.001 A 
ATOM     15  C   UNL A   1      32.084  18.685  23.046  1.00  0.00     0.001 A 
ATOM     16  C   UNL A   1      33.223  17.280  22.889  1.00  0.00     0.000 A 
ENDBRANCH   9  11
ENDBRANCH   8   9
BRANCH   8  17
ATOM     17  C   UNL A   1      36.711  22.709  25.509  1.00  0.00    -0.036 A 
ATOM     18  C   UNL A   1      37.429  21.503  25.347  1.00  0.00     0.007 A 
ATOM     19  C   UNL A   1      37.382  23.794  26.111  1.00  0.00     0.007 A 
ATOM     20  C   UNL A   1      38.740  21.377  25.828  1.00  0.00     0.039 A 
ATOM     21  C   UNL A   1      38.706  23.678  26.550  1.00  0.00     0.039 A 
ATOM     22  C   UNL A   1      39.365  22.465  26.426  1.00  0.00     0.123 A 
ATOM     23  F   UNL A   1      40.604  22.332  26.918  1.00  0.00    -0.207 F 
ENDBRANCH   8  17
ENDBRANCH   6   8
ENDBRANCH   4   6
ENDBRANCH   3   4
ENDBRANCH   2   3
ENDBRANCH   1   2
BRANCH   1  24
ATOM     24  O   UNL A   1      31.934  28.018  25.376  1.00  0.00    -0.374 OA
BRANCH  24  25
ATOM     25  C   UNL A   1      31.851  29.131  26.270  1.00  0.00     0.202 C 
BRANCH  25  26
ATOM     26  C   UNL A   1      31.558  30.496  25.649  1.00  0.00     0.261 C 
BRANCH  26  27
ATOM     27  O   UNL A   1      31.297  31.468  26.703  1.00  0.00    -0.460 OA
BRANCH  27  28
ATOM     28  C   UNL A   1      32.403  32.371  27.165  1.00  0.00     0.338 C 
ATOM     29  O   UNL A   1      31.778  33.473  27.217  1.00  0.00    -0.246 OA
BRANCH  28  30
ATOM     30  C   UNL A   1      34.439  31.828  27.582  1.00  0.00     0.060 A 
ATOM     31  C   UNL A   1      35.009  30.445  27.871  1.00  0.00     0.016 A 
ATOM     32  C   UNL A   1      35.681  32.652  27.877  1.00  0.00     0.016 A 
ATOM     33  C   UNL A   1      36.063  30.073  28.708  1.00  0.00     0.010 A 
ATOM     34  C   UNL A   1      36.885  32.258  28.553  1.00  0.00     0.010 A 
ATOM     35  C   UNL A   1      37.027  30.980  29.058  1.00  0.00    -0.014 A 
BRANCH  35  36
ATOM     36  C   UNL A   1      38.178  30.492  29.840  1.00  0.00     0.031 A 
ATOM     37  C   UNL A   1      39.236  29.651  29.192  1.00  0.00     0.074 A 
ATOM     38  C   UNL A   1      38.318  30.945  31.103  1.00  0.00     0.049 A 
ATOM     39  N   UNL A   1      40.280  29.083  29.735  1.00  0.00    -0.248 NA
ATOM     40  C   UNL A   1      39.112  29.420  27.743  1.00  0.00     0.031 C 
ATOM     41  C   UNL A   1      37.388  31.864  31.775  1.00  0.00     0.029 A 
ATOM     42  N   UNL A   1      39.298  30.742  32.034  1.00  0.00    -0.354 N 
ATOM     43  C   UNL A   1      40.909  28.385  28.712  1.00  0.00     0.074 A 
ATOM     44  C   UNL A   1      40.141  28.615  27.508  1.00  0.00     0.031 C 
ATOM     45  C   UNL A   1      37.873  32.191  32.977  1.00  0.00     0.029 A 
ATOM     46  C   UNL A   1      39.063  31.395  33.220  1.00  0.00     0.049 A 
ATOM     47  H   UNL A   1      40.093  30.184  31.871  1.00  0.00     0.167 HD
ATOM     48  C   UNL A   1      42.015  27.608  28.798  1.00  0.00     0.037 A 
ATOM     49  C   UNL A   1      39.695  31.303  34.402  1.00  0.00     0.037 A 
ATOM     50  C   UNL A   1      42.751  27.418  30.023  1.00  0.00     0.049 A 
ATOM     51  C   UNL A   1      40.856  30.363  34.489  1.00  0.00     0.074 A 
ATOM     52  C   UNL A   1      43.866  26.633  30.254  1.00  0.00     0.029 A 
ATOM     53  N   UNL A   1      42.435  28.028  31.232  1.00  0.00    -0.354 N 
ATOM     54  N   UNL A   1      41.402  29.642  33.539  1.00  0.00    -0.248 NA
ATOM     55  C   UNL A   1      41.471  30.200  35.808  1.00  0.00     0.031 C 
ATOM     56  C   UNL A   1      44.187  26.724  31.613  1.00  0.00     0.029 A 
ATOM     57  C   UNL A   1      43.316  27.617  32.218  1.00  0.00     0.049 A 
ATOM     58  H   UNL A   1      41.693  28.662  31.368  1.00  0.00     0.167 HD
ATOM     59  C   UNL A   1      42.440  28.948  34.138  1.00  0.00     0.074 A 
ATOM     60  C   UNL A   1      42.456  29.357  35.532  1.00  0.00     0.031 C 
ATOM     61  C   UNL A   1      43.299  28.052  33.594  1.00  0.00     0.037 A 
BRANCH  48  62
ATOM     62  C   UNL A   1      42.435  26.848  27.570  1.00  0.00     0.057 A 
ATOM     63  C   UNL A   1      43.276  27.392  26.592  1.00  0.00     0.134 A 
ATOM     64  C   UNL A   1      41.992  25.532  27.373  1.00  0.00     0.134 A 
ATOM     65  F   UNL A   1      43.726  28.650  26.705  1.00  0.00    -0.206 F 
ATOM     66  C   UNL A   1      43.641  26.667  25.454  1.00  0.00     0.040 A 
ATOM     67  C   UNL A   1      42.370  24.788  26.253  1.00  0.00     0.040 A 
ATOM     68  F   UNL A   1      41.184  24.943  28.267  1.00  0.00    -0.206 F 
ATOM     69  C   UNL A   1      43.192  25.358  25.284  1.00  0.00     0.006 A 
ENDBRANCH  48  62
BRANCH  49  70
ATOM     70  C   UNL A   1      39.185  32.049  35.581  1.00  0.00     0.057 A 
ATOM     71  C   UNL A   1      39.565  33.372  35.827  1.00  0.00     0.134 A 
ATOM     72  C   UNL A   1      38.281  31.464  36.482  1.00  0.00     0.134 A 
ATOM     73  F   UNL A   1      40.433  33.987  35.011  1.00  0.00    -0.206 F 
ATOM     74  C   UNL A   1      39.077  34.081  36.927  1.00  0.00     0.040 A 
ATOM     75  C   UNL A   1      37.759  32.172  37.565  1.00  0.00     0.040 A 
ATOM     76  F   UNL A   1      37.865  30.202  36.301  1.00  0.00    -0.206 F 
ATOM     77  C   UNL A   1      38.164  33.483  37.794  1.00  0.00     0.006 A 
ENDBRANCH  49  70
BRANCH  61  78
ATOM     78  C   UNL A   1      44.349  27.502  34.509  1.00  0.00     0.057 A 
ATOM     79  C   UNL A   1      44.152  26.326  35.241  1.00  0.00     0.134 A 
ATOM     80  C   UNL A   1      45.580  28.156  34.644  1.00  0.00     0.134 A 
ATOM     81  F   UNL A   1      42.985  25.666  35.169  1.00  0.00    -0.206 F 
ATOM     82  C   UNL A   1      45.134  25.832  36.099  1.00  0.00     0.040 A 
ATOM     83  C   UNL A   1      46.582  27.656  35.473  1.00  0.00     0.040 A 
ATOM     84  F   UNL A   1      45.829  29.287  33.964  1.00  0.00    -0.206 F 
ATOM     85  C   UNL A   1      46.356  26.494  36.209  1.00  0.00     0.006 A 
ENDBRANCH  61  78
ENDBRANCH  35  36
ENDBRANCH  28  30
ENDBRANCH  27  28
ENDBRANCH  26  27
ENDBRANCH  25  26
ENDBRANCH  24  25
ENDBRANCH   1  24
TORSDOF 18
ENDMDL
MODEL 3
REMARK VINA RESULT:     -11.5      4.106      9.463
REMARK SMILES C[C@H](C(=O)OCCOCCOC(=O)c1ccc(-c2c3nc(c(-c4c(F)cccc4F)c4ccc([nH]4)c(-c4c(F)cccc4F)c4nc(c(-c5c(F)cccc5F)c5ccc2[nH]5)C=C4)C=C3)cc1)[C@@H](C(=O)c1ccccc1)c1ccc(F)cc1
REMARK SMILES IDX 7 1 6 2 5 3 3 4 4 5 2 6 1 7 68 8 69 9 70 10 71 11 72 12
REMARK SMILES IDX 76 13 73 14 75 15 74 16 77 17 78 18 83 19 79 20 82 21 80 22
REMARK SMILES IDX 81 23 8 24 9 25 10 26 11 27 12 28 13 29 14 30 15 31 67 32
REMARK SMILES IDX 16 33 66 34 17 35 18 36 19 37 60 38 20 39 65 40 59 41 61 42
REMARK SMILES IDX 21 43 64 44 58 45 57 46 22 48 48 49 31 50 47 51 32 52 35 53
REMARK SMILES IDX 46 54 62 55 33 56 34 57 45 59 63 60 36 61 23 62 24 63 29 64
REMARK SMILES IDX 25 65 26 66 28 67 30 68 27 69 49 70 50 71 55 72 51 73 52 74
REMARK SMILES IDX 54 75 56 76 53 77 37 78 38 79 43 80 39 81 40 82 42 83 44 84
REMARK SMILES IDX 41 85
REMARK H PARENT 61 47 35 58
REMARK Flexibility Score: inf
ROOT
ATOM      1  C   UNL A   1      33.171  22.238  23.989  1.00  0.00     0.202 C 
ENDROOT
BRANCH   1   2
ATOM      2  C   UNL A   1      33.680  23.627  24.399  1.00  0.00     0.261 C 
BRANCH   2   3
ATOM      3  O   UNL A   1      32.707  24.675  24.194  1.00  0.00    -0.463 OA
BRANCH   3   4
ATOM      4  C   UNL A   1      33.160  25.842  23.715  1.00  0.00     0.309 C 
ATOM      5  O   UNL A   1      34.357  26.101  23.647  1.00  0.00    -0.252 OA
BRANCH   4   6
ATOM      6  C   UNL A   1      32.027  26.805  23.323  1.00  0.00     0.111 C 
ATOM      7  C   UNL A   1      31.581  26.170  21.964  1.00  0.00     0.021 C 
BRANCH   6   8
ATOM      8  C   UNL A   1      30.841  26.995  24.373  1.00  0.00     0.105 C 
BRANCH   8   9
ATOM      9  C   UNL A   1      31.203  27.333  25.907  1.00  0.00     0.171 C 
ATOM     10  O   UNL A   1      30.807  26.678  26.872  1.00  0.00    -0.293 OA
BRANCH   9  11
ATOM     11  C   UNL A   1      32.209  28.380  26.298  1.00  0.00     0.018 A 
ATOM     12  C   UNL A   1      31.652  30.060  26.705  1.00  0.00     0.012 A 
ATOM     13  C   UNL A   1      33.950  27.949  26.584  1.00  0.00     0.012 A 
ATOM     14  C   UNL A   1      32.862  31.350  27.199  1.00  0.00     0.001 A 
ATOM     15  C   UNL A   1      35.114  29.158  27.333  1.00  0.00     0.001 A 
ATOM     16  C   UNL A   1      34.605  30.892  27.501  1.00  0.00     0.000 A 
ENDBRANCH   9  11
ENDBRANCH   8   9
BRANCH   8  17
ATOM     17  C   UNL A   1      29.883  28.095  23.801  1.00  0.00    -0.036 A 
ATOM     18  C   UNL A   1      28.531  27.781  23.538  1.00  0.00     0.007 A 
ATOM     19  C   UNL A   1      30.376  29.322  23.307  1.00  0.00     0.007 A 
ATOM     20  C   UNL A   1      27.733  28.632  22.760  1.00  0.00     0.039 A 
ATOM     21  C   UNL A   1      29.564  30.188  22.568  1.00  0.00     0.039 A 
ATOM     22  C   UNL A   1      28.257  29.825  22.281  1.00  0.00     0.123 A 
ATOM     23  F   UNL A   1      27.505  30.619  21.507  1.00  0.00    -0.207 F 
ENDBRANCH   8  17
ENDBRANCH   6   8
ENDBRANCH   4   6
ENDBRANCH   3   4
ENDBRANCH   2   3
ENDBRANCH   1   2
BRANCH   1  24
ATOM     24  O   UNL A   1      34.057  21.147  24.213  1.00  0.00    -0.374 OA
BRANCH  24  25
ATOM     25  C   UNL A   1      35.425  21.432  24.518  1.00  0.00     0.202 C 
BRANCH  25  26
ATOM     26  C   UNL A   1      36.210  20.344  25.250  1.00  0.00     0.261 C 
BRANCH  26  27
ATOM     27  O   UNL A   1      37.509  20.166  24.614  1.00  0.00    -0.460 OA
BRANCH  27  28
ATOM     28  C   UNL A   1      38.758  20.308  25.433  1.00  0.00     0.338 C 
ATOM     29  O   UNL A   1      39.278  19.168  25.238  1.00  0.00    -0.246 OA
BRANCH  28  30
ATOM     30  C   UNL A   1      39.377  22.017  26.577  1.00  0.00     0.060 A 
ATOM     31  C   UNL A   1      38.948  23.470  26.416  1.00  0.00     0.016 A 
ATOM     32  C   UNL A   1      40.471  22.218  27.613  1.00  0.00     0.016 A 
ATOM     33  C   UNL A   1      39.676  24.643  26.627  1.00  0.00     0.010 A 
ATOM     34  C   UNL A   1      41.113  23.435  28.022  1.00  0.00     0.010 A 
ATOM     35  C   UNL A   1      40.774  24.643  27.445  1.00  0.00    -0.014 A 
BRANCH  35  36
ATOM     36  C   UNL A   1      41.422  25.938  27.724  1.00  0.00     0.031 A 
ATOM     37  C   UNL A   1      40.731  26.968  28.564  1.00  0.00     0.074 A 
ATOM     38  C   UNL A   1      42.701  26.100  27.326  1.00  0.00     0.049 A 
ATOM     39  N   UNL A   1      41.119  28.180  28.861  1.00  0.00    -0.248 NA
ATOM     40  C   UNL A   1      39.437  26.590  29.157  1.00  0.00     0.031 C 
ATOM     41  C   UNL A   1      43.489  25.094  26.599  1.00  0.00     0.029 A 
ATOM     42  N   UNL A   1      43.579  27.133  27.502  1.00  0.00    -0.354 N 
ATOM     43  C   UNL A   1      40.098  28.730  29.626  1.00  0.00     0.074 A 
ATOM     44  C   UNL A   1      39.080  27.712  29.768  1.00  0.00     0.031 C 
ATOM     45  C   UNL A   1      44.743  25.533  26.449  1.00  0.00     0.029 A 
ATOM     46  C   UNL A   1      44.808  26.901  26.932  1.00  0.00     0.049 A 
ATOM     47  H   UNL A   1      43.354  27.958  27.987  1.00  0.00     0.167 HD
ATOM     48  C   UNL A   1      40.028  29.983  30.136  1.00  0.00     0.037 A 
ATOM     49  C   UNL A   1      45.850  27.729  26.750  1.00  0.00     0.037 A 
ATOM     50  C   UNL A   1      41.077  30.959  29.973  1.00  0.00     0.049 A 
ATOM     51  C   UNL A   1      45.705  29.135  27.240  1.00  0.00     0.074 A 
ATOM     52  C   UNL A   1      41.119  32.271  30.410  1.00  0.00     0.029 A 
ATOM     53  N   UNL A   1      42.278  30.719  29.315  1.00  0.00    -0.354 N 
ATOM     54  N   UNL A   1      44.706  29.677  27.896  1.00  0.00    -0.248 NA
ATOM     55  C   UNL A   1      46.809  30.051  26.946  1.00  0.00     0.031 C 
ATOM     56  C   UNL A   1      42.318  32.839  29.965  1.00  0.00     0.029 A 
ATOM     57  C   UNL A   1      43.055  31.866  29.309  1.00  0.00     0.049 A 
ATOM     58  H   UNL A   1      42.539  29.859  28.912  1.00  0.00     0.167 HD
ATOM     59  C   UNL A   1      45.065  30.997  28.111  1.00  0.00     0.074 A 
ATOM     60  C   UNL A   1      46.387  31.162  27.532  1.00  0.00     0.031 C 
ATOM     61  C   UNL A   1      44.369  31.986  28.724  1.00  0.00     0.037 A 
BRANCH  48  62
ATOM     62  C   UNL A   1      38.757  30.388  30.829  1.00  0.00     0.057 A 
ATOM     63  C   UNL A   1      37.667  30.947  30.148  1.00  0.00     0.134 A 
ATOM     64  C   UNL A   1      38.619  30.201  32.212  1.00  0.00     0.134 A 
ATOM     65  F   UNL A   1      37.732  31.170  28.828  1.00  0.00    -0.206 F 
ATOM     66  C   UNL A   1      36.501  31.326  30.820  1.00  0.00     0.040 A 
ATOM     67  C   UNL A   1      37.450  30.552  32.890  1.00  0.00     0.040 A 
ATOM     68  F   UNL A   1      39.620  29.671  32.931  1.00  0.00    -0.206 F 
ATOM     69  C   UNL A   1      36.387  31.124  32.194  1.00  0.00     0.006 A 
ENDBRANCH  48  62
BRANCH  49  70
ATOM     70  C   UNL A   1      47.052  27.265  26.009  1.00  0.00     0.057 A 
ATOM     71  C   UNL A   1      47.151  27.407  24.622  1.00  0.00     0.134 A 
ATOM     72  C   UNL A   1      48.145  26.690  26.674  1.00  0.00     0.134 A 
ATOM     73  F   UNL A   1      46.138  27.939  23.923  1.00  0.00    -0.206 F 
ATOM     74  C   UNL A   1      48.285  26.985  23.923  1.00  0.00     0.040 A 
ATOM     75  C   UNL A   1      49.297  26.296  25.994  1.00  0.00     0.040 A 
ATOM     76  F   UNL A   1      48.122  26.533  28.007  1.00  0.00    -0.206 F 
ATOM     77  C   UNL A   1      49.365  26.435  24.611  1.00  0.00     0.006 A 
ENDBRANCH  49  70
BRANCH  61  78
ATOM     78  C   UNL A   1      45.059  33.311  28.833  1.00  0.00     0.057 A 
ATOM     79  C   UNL A   1      45.969  33.590  29.860  1.00  0.00     0.134 A 
ATOM     80  C   UNL A   1      44.817  34.312  27.885  1.00  0.00     0.134 A 
ATOM     81  F   UNL A   1      46.226  32.676  30.809  1.00  0.00    -0.206 F 
ATOM     82  C   UNL A   1      46.594  34.832  29.956  1.00  0.00     0.040 A 
ATOM     83  C   UNL A   1      45.460  35.547  27.952  1.00  0.00     0.040 A 
ATOM     84  F   UNL A   1      43.958  34.102  26.875  1.00  0.00    -0.206 F 
ATOM     85  C   UNL A   1      46.345  35.811  28.995  1.00  0.00     0.006 A 
ENDBRANCH  61  78
ENDBRANCH  35  36
ENDBRANCH  28  30
ENDBRANCH  27  28
ENDBRANCH  26  27
ENDBRANCH  25  26
ENDBRANCH  24  25
ENDBRANCH   1  24
TORSDOF 18
ENDMDL
