MODEL 1
REMARK VINA RESULT:     -10.5      0.000      0.000
REMARK SMILES C[C@@H](C(=O)OCCOCCOC(=O)c1ccc(-c2c3nc(c(-c4c(F)cccc4F)c4ccc([nH]4)c(-c4c(F)cccc4F)c4nc(c(-c5c(F)cccc5F)c5ccc2[nH]5)C=C4)C=C3)cc1)c1ccc(=O)n(C(F)F)c1
REMARK SMILES IDX 8 1 7 2 6 3 5 4 3 5 4 6 2 7 1 8 68 9 69 10 77 11 70 12 73 13
REMARK SMILES IDX 71 14 72 15 74 16 75 17 76 18 9 19 10 20 11 21 12 22 13 23
REMARK SMILES IDX 14 24 15 25 67 26 16 27 66 28 17 29 18 30 19 31 60 32 20 33
REMARK SMILES IDX 65 34 59 35 61 36 21 37 64 38 58 39 57 40 22 42 48 43 31 44
REMARK SMILES IDX 47 45 32 46 35 47 46 48 62 49 33 50 34 51 45 53 63 54 36 55
REMARK SMILES IDX 23 56 24 57 29 58 25 59 26 60 28 61 30 62 27 63 49 64 50 65
REMARK SMILES IDX 55 66 51 67 52 68 54 69 56 70 53 71 37 72 38 73 43 74 39 75
REMARK SMILES IDX 40 76 42 77 44 78 41 79
REMARK H PARENT 61 41 35 52
REMARK Flexibility Score: inf
ROOT
ATOM      1  O   UNL A   1      41.473  21.010  25.602  1.00  0.00    -0.374 OA
ENDROOT
BRANCH   1   2
ATOM      2  C   UNL A   1      40.356  21.135  26.488  1.00  0.00     0.202 C 
BRANCH   2   3
ATOM      3  C   UNL A   1      39.450  22.340  26.222  1.00  0.00     0.261 C 
BRANCH   3   4
ATOM      4  O   UNL A   1      38.114  21.893  25.923  1.00  0.00    -0.463 OA
BRANCH   4   5
ATOM      5  C   UNL A   1      37.187  22.866  25.721  1.00  0.00     0.313 C 
ATOM      6  O   UNL A   1      37.298  24.018  26.123  1.00  0.00    -0.252 OA
BRANCH   5   7
ATOM      7  C   UNL A   1      35.987  22.375  24.896  1.00  0.00     0.127 C 
ATOM      8  C   UNL A   1      35.978  22.805  23.424  1.00  0.00     0.025 C 
BRANCH   7   9
ATOM      9  C   UNL A   1      34.673  22.777  25.560  1.00  0.00    -0.017 A 
ATOM     10  C   UNL A   1      34.388  22.211  26.865  1.00  0.00     0.012 A 
ATOM     11  C   UNL A   1      33.767  23.615  25.021  1.00  0.00     0.099 A 
ATOM     12  C   UNL A   1      33.248  22.498  27.508  1.00  0.00     0.072 A 
ATOM     13  N   UNL A   1      32.570  23.910  25.651  1.00  0.00    -0.258 N 
ATOM     14  C   UNL A   1      32.230  23.390  26.889  1.00  0.00     0.254 A 
ATOM     15  O   UNL A   1      31.183  23.595  27.492  1.00  0.00    -0.269 OA
BRANCH  13  16
ATOM     16  C   UNL A   1      31.593  24.751  25.004  1.00  0.00     0.451 C 
ATOM     17  F   UNL A   1      31.803  26.054  25.318  1.00  0.00    -0.185 F 
ATOM     18  F   UNL A   1      31.646  24.630  23.657  1.00  0.00    -0.185 F 
ENDBRANCH  13  16
ENDBRANCH   7   9
ENDBRANCH   5   7
ENDBRANCH   4   5
ENDBRANCH   3   4
ENDBRANCH   2   3
ENDBRANCH   1   2
BRANCH   1  19
ATOM     19  C   UNL A   1      42.767  21.003  26.203  1.00  0.00     0.202 C 
BRANCH  19  20
ATOM     20  C   UNL A   1      43.845  21.853  25.525  1.00  0.00     0.261 C 
BRANCH  20  21
ATOM     21  O   UNL A   1      43.282  23.014  24.899  1.00  0.00    -0.460 OA
BRANCH  21  22
ATOM     22  C   UNL A   1      43.987  24.150  25.098  1.00  0.00     0.338 C 
ATOM     23  O   UNL A   1      45.021  24.489  24.535  1.00  0.00    -0.246 OA
BRANCH  22  24
ATOM     24  C   UNL A   1      43.237  25.056  25.984  1.00  0.00     0.060 A 
ATOM     25  C   UNL A   1      43.768  26.336  26.182  1.00  0.00     0.016 A 
ATOM     26  C   UNL A   1      42.072  24.656  26.644  1.00  0.00     0.016 A 
ATOM     27  C   UNL A   1      43.175  27.201  27.095  1.00  0.00     0.010 A 
ATOM     28  C   UNL A   1      41.480  25.524  27.567  1.00  0.00     0.010 A 
ATOM     29  C   UNL A   1      42.056  26.781  27.824  1.00  0.00    -0.014 A 
BRANCH  29  30
ATOM     30  C   UNL A   1      41.605  27.592  28.978  1.00  0.00     0.031 A 
ATOM     31  C   UNL A   1      42.365  27.492  30.270  1.00  0.00     0.074 A 
ATOM     32  C   UNL A   1      40.566  28.437  28.858  1.00  0.00     0.049 A 
ATOM     33  N   UNL A   1      42.154  28.102  31.407  1.00  0.00    -0.248 NA
ATOM     34  C   UNL A   1      43.523  26.583  30.281  1.00  0.00     0.031 C 
ATOM     35  C   UNL A   1      39.782  28.647  27.642  1.00  0.00     0.029 A 
ATOM     36  N   UNL A   1      39.995  29.277  29.780  1.00  0.00    -0.354 N 
ATOM     37  C   UNL A   1      43.144  27.647  32.268  1.00  0.00     0.074 A 
ATOM     38  C   UNL A   1      43.940  26.688  31.534  1.00  0.00     0.031 C 
ATOM     39  C   UNL A   1      38.826  29.557  27.894  1.00  0.00     0.029 A 
ATOM     40  C   UNL A   1      38.915  29.971  29.294  1.00  0.00     0.049 A 
ATOM     41  H   UNL A   1      40.329  29.374  30.700  1.00  0.00     0.167 HD
ATOM     42  C   UNL A   1      43.373  28.004  33.554  1.00  0.00     0.037 A 
ATOM     43  C   UNL A   1      38.087  30.830  29.917  1.00  0.00     0.037 A 
ATOM     44  C   UNL A   1      42.583  28.962  34.277  1.00  0.00     0.049 A 
ATOM     45  C   UNL A   1      38.323  31.160  31.367  1.00  0.00     0.074 A 
ATOM     46  C   UNL A   1      42.747  29.412  35.576  1.00  0.00     0.029 A 
ATOM     47  N   UNL A   1      41.474  29.616  33.764  1.00  0.00    -0.354 N 
ATOM     48  N   UNL A   1      39.278  30.744  32.165  1.00  0.00    -0.248 NA
ATOM     49  C   UNL A   1      37.369  32.079  32.002  1.00  0.00     0.031 C 
ATOM     50  C   UNL A   1      41.708  30.303  35.863  1.00  0.00     0.029 A 
ATOM     51  C   UNL A   1      40.925  30.445  34.727  1.00  0.00     0.049 A 
ATOM     52  H   UNL A   1      41.127  29.506  32.849  1.00  0.00     0.167 HD
ATOM     53  C   UNL A   1      39.057  31.372  33.384  1.00  0.00     0.074 A 
ATOM     54  C   UNL A   1      37.884  32.204  33.218  1.00  0.00     0.031 C 
ATOM     55  C   UNL A   1      39.761  31.272  34.538  1.00  0.00     0.037 A 
BRANCH  42  56
ATOM     56  C   UNL A   1      44.511  27.333  34.264  1.00  0.00     0.057 A 
ATOM     57  C   UNL A   1      44.352  26.114  34.935  1.00  0.00     0.134 A 
ATOM     58  C   UNL A   1      45.790  27.904  34.256  1.00  0.00     0.134 A 
ATOM     59  F   UNL A   1      43.148  25.524  34.996  1.00  0.00    -0.206 F 
ATOM     60  C   UNL A   1      45.419  25.495  35.588  1.00  0.00     0.040 A 
ATOM     61  C   UNL A   1      46.871  27.283  34.883  1.00  0.00     0.040 A 
ATOM     62  F   UNL A   1      46.011  29.070  33.630  1.00  0.00    -0.206 F 
ATOM     63  C   UNL A   1      46.686  26.077  35.557  1.00  0.00     0.006 A 
ENDBRANCH  42  56
BRANCH  43  64
ATOM     64  C   UNL A   1      36.949  31.433  29.180  1.00  0.00     0.057 A 
ATOM     65  C   UNL A   1      35.781  30.706  28.925  1.00  0.00     0.134 A 
ATOM     66  C   UNL A   1      37.010  32.746  28.695  1.00  0.00     0.134 A 
ATOM     67  F   UNL A   1      35.672  29.437  29.346  1.00  0.00    -0.206 F 
ATOM     68  C   UNL A   1      34.721  31.255  28.202  1.00  0.00     0.040 A 
ATOM     69  C   UNL A   1      35.948  33.315  27.990  1.00  0.00     0.040 A 
ATOM     70  F   UNL A   1      38.101  33.496  28.907  1.00  0.00    -0.206 F 
ATOM     71  C   UNL A   1      34.803  32.566  27.736  1.00  0.00     0.006 A 
ENDBRANCH  43  64
BRANCH  55  72
ATOM     72  C   UNL A   1      39.304  32.107  35.697  1.00  0.00     0.057 A 
ATOM     73  C   UNL A   1      39.742  33.425  35.874  1.00  0.00     0.134 A 
ATOM     74  C   UNL A   1      38.382  31.599  36.621  1.00  0.00     0.134 A 
ATOM     75  F   UNL A   1      40.633  33.966  35.030  1.00  0.00    -0.206 F 
ATOM     76  C   UNL A   1      39.293  34.202  36.944  1.00  0.00     0.040 A 
ATOM     77  C   UNL A   1      37.908  32.375  37.679  1.00  0.00     0.040 A 
ATOM     78  F   UNL A   1      37.917  30.346  36.501  1.00  0.00    -0.206 F 
ATOM     79  C   UNL A   1      38.368  33.679  37.846  1.00  0.00     0.006 A 
ENDBRANCH  55  72
ENDBRANCH  29  30
ENDBRANCH  22  24
ENDBRANCH  21  22
ENDBRANCH  20  21
ENDBRANCH  19  20
ENDBRANCH   1  19
TORSDOF 16
ENDMDL
MODEL 2
REMARK VINA RESULT:     -10.5      2.024      3.028
REMARK SMILES C[C@@H](C(=O)OCCOCCOC(=O)c1ccc(-c2c3nc(c(-c4c(F)cccc4F)c4ccc([nH]4)c(-c4c(F)cccc4F)c4nc(c(-c5c(F)cccc5F)c5ccc2[nH]5)C=C4)C=C3)cc1)c1ccc(=O)n(C(F)F)c1
REMARK SMILES IDX 8 1 7 2 6 3 5 4 3 5 4 6 2 7 1 8 68 9 69 10 77 11 70 12 73 13
REMARK SMILES IDX 71 14 72 15 74 16 75 17 76 18 9 19 10 20 11 21 12 22 13 23
REMARK SMILES IDX 14 24 15 25 67 26 16 27 66 28 17 29 18 30 19 31 60 32 20 33
REMARK SMILES IDX 65 34 59 35 61 36 21 37 64 38 58 39 57 40 22 42 48 43 31 44
REMARK SMILES IDX 47 45 32 46 35 47 46 48 62 49 33 50 34 51 45 53 63 54 36 55
REMARK SMILES IDX 23 56 24 57 29 58 25 59 26 60 28 61 30 62 27 63 49 64 50 65
REMARK SMILES IDX 55 66 51 67 52 68 54 69 56 70 53 71 37 72 38 73 43 74 39 75
REMARK SMILES IDX 40 76 42 77 44 78 41 79
REMARK H PARENT 61 41 35 52
REMARK Flexibility Score: inf
ROOT
ATOM      1  O   UNL A   1      45.623  20.401  24.786  1.00  0.00    -0.374 OA
ENDROOT
BRANCH   1   2
ATOM      2  C   UNL A   1      44.382  19.770  25.119  1.00  0.00     0.202 C 
BRANCH   2   3
ATOM      3  C   UNL A   1      43.292  20.714  25.632  1.00  0.00     0.261 C 
BRANCH   3   4
ATOM      4  O   UNL A   1      42.101  19.966  25.943  1.00  0.00    -0.463 OA
BRANCH   4   5
ATOM      5  C   UNL A   1      41.441  20.332  27.073  1.00  0.00     0.313 C 
ATOM      6  O   UNL A   1      40.963  19.541  27.878  1.00  0.00    -0.252 OA
BRANCH   5   7
ATOM      7  C   UNL A   1      41.387  21.856  27.259  1.00  0.00     0.127 C 
ATOM      8  C   UNL A   1      41.678  22.359  28.678  1.00  0.00     0.025 C 
BRANCH   7   9
ATOM      9  C   UNL A   1      40.051  22.413  26.777  1.00  0.00    -0.017 A 
ATOM     10  C   UNL A   1      39.681  23.740  27.233  1.00  0.00     0.012 A 
ATOM     11  C   UNL A   1      39.197  21.761  25.966  1.00  0.00     0.099 A 
ATOM     12  C   UNL A   1      38.516  24.294  26.872  1.00  0.00     0.072 A 
ATOM     13  N   UNL A   1      37.975  22.299  25.596  1.00  0.00    -0.258 N 
ATOM     14  C   UNL A   1      37.556  23.552  26.010  1.00  0.00     0.254 A 
ATOM     15  O   UNL A   1      36.484  24.078  25.735  1.00  0.00    -0.269 OA
BRANCH  13  16
ATOM     16  C   UNL A   1      37.057  21.535  24.789  1.00  0.00     0.451 C 
ATOM     17  F   UNL A   1      37.017  22.021  23.523  1.00  0.00    -0.185 F 
ATOM     18  F   UNL A   1      37.413  20.231  24.727  1.00  0.00    -0.185 F 
ENDBRANCH  13  16
ENDBRANCH   7   9
ENDBRANCH   5   7
ENDBRANCH   4   5
ENDBRANCH   3   4
ENDBRANCH   2   3
ENDBRANCH   1   2
BRANCH   1  19
ATOM     19  C   UNL A   1      45.545  21.719  24.246  1.00  0.00     0.202 C 
BRANCH  19  20
ATOM     20  C   UNL A   1      45.958  22.867  25.171  1.00  0.00     0.261 C 
BRANCH  20  21
ATOM     21  O   UNL A   1      44.836  23.689  25.521  1.00  0.00    -0.460 OA
BRANCH  21  22
ATOM     22  C   UNL A   1      45.066  25.017  25.417  1.00  0.00     0.338 C 
ATOM     23  O   UNL A   1      45.800  25.582  24.616  1.00  0.00    -0.246 OA
BRANCH  22  24
ATOM     24  C   UNL A   1      44.151  25.754  26.305  1.00  0.00     0.060 A 
ATOM     25  C   UNL A   1      44.328  27.140  26.392  1.00  0.00     0.016 A 
ATOM     26  C   UNL A   1      43.177  25.109  27.072  1.00  0.00     0.016 A 
ATOM     27  C   UNL A   1      43.577  27.881  27.297  1.00  0.00     0.010 A 
ATOM     28  C   UNL A   1      42.426  25.854  27.986  1.00  0.00     0.010 A 
ATOM     29  C   UNL A   1      42.656  27.234  28.130  1.00  0.00    -0.014 A 
BRANCH  29  30
ATOM     30  C   UNL A   1      42.069  27.978  29.268  1.00  0.00     0.031 A 
ATOM     31  C   UNL A   1      42.767  27.927  30.598  1.00  0.00     0.074 A 
ATOM     32  C   UNL A   1      40.963  28.724  29.103  1.00  0.00     0.049 A 
ATOM     33  N   UNL A   1      42.438  28.494  31.729  1.00  0.00    -0.248 NA
ATOM     34  C   UNL A   1      44.003  27.131  30.661  1.00  0.00     0.031 C 
ATOM     35  C   UNL A   1      40.228  28.881  27.849  1.00  0.00     0.029 A 
ATOM     36  N   UNL A   1      40.268  29.490  30.002  1.00  0.00    -0.354 N 
ATOM     37  C   UNL A   1      43.420  28.119  32.637  1.00  0.00     0.074 A 
ATOM     38  C   UNL A   1      44.341  27.253  31.935  1.00  0.00     0.031 C 
ATOM     39  C   UNL A   1      39.178  29.693  28.060  1.00  0.00     0.029 A 
ATOM     40  C   UNL A   1      39.154  30.088  29.468  1.00  0.00     0.049 A 
ATOM     41  H   UNL A   1      40.541  29.601  30.941  1.00  0.00     0.167 HD
ATOM     42  C   UNL A   1      43.546  28.473  33.938  1.00  0.00     0.037 A 
ATOM     43  C   UNL A   1      38.216  30.854  30.056  1.00  0.00     0.037 A 
ATOM     44  C   UNL A   1      42.632  29.340  34.630  1.00  0.00     0.049 A 
ATOM     45  C   UNL A   1      38.343  31.179  31.520  1.00  0.00     0.074 A 
ATOM     46  C   UNL A   1      42.684  29.779  35.941  1.00  0.00     0.029 A 
ATOM     47  N   UNL A   1      41.494  29.895  34.065  1.00  0.00    -0.354 N 
ATOM     48  N   UNL A   1      39.289  30.840  32.364  1.00  0.00    -0.248 NA
ATOM     49  C   UNL A   1      37.274  31.993  32.114  1.00  0.00     0.031 C 
ATOM     50  C   UNL A   1      41.551  30.563  36.182  1.00  0.00     0.029 A 
ATOM     51  C   UNL A   1      40.820  30.652  35.008  1.00  0.00     0.049 A 
ATOM     52  H   UNL A   1      41.208  29.770  33.131  1.00  0.00     0.167 HD
ATOM     53  C   UNL A   1      38.945  31.423  33.577  1.00  0.00     0.074 A 
ATOM     54  C   UNL A   1      37.709  32.144  33.357  1.00  0.00     0.031 C 
ATOM     55  C   UNL A   1      39.594  31.369  34.766  1.00  0.00     0.037 A 
BRANCH  42  56
ATOM     56  C   UNL A   1      44.704  27.899  34.701  1.00  0.00     0.057 A 
ATOM     57  C   UNL A   1      45.916  28.587  34.838  1.00  0.00     0.134 A 
ATOM     58  C   UNL A   1      44.594  26.651  35.327  1.00  0.00     0.134 A 
ATOM     59  F   UNL A   1      46.092  29.778  34.247  1.00  0.00    -0.206 F 
ATOM     60  C   UNL A   1      46.984  28.047  35.556  1.00  0.00     0.040 A 
ATOM     61  C   UNL A   1      45.645  26.111  36.068  1.00  0.00     0.040 A 
ATOM     62  F   UNL A   1      43.459  25.941  35.236  1.00  0.00    -0.206 F 
ATOM     63  C   UNL A   1      46.848  26.807  36.179  1.00  0.00     0.006 A 
ENDBRANCH  42  56
BRANCH  43  64
ATOM     64  C   UNL A   1      37.066  31.361  29.266  1.00  0.00     0.057 A 
ATOM     65  C   UNL A   1      35.957  30.551  28.995  1.00  0.00     0.134 A 
ATOM     66  C   UNL A   1      37.058  32.661  28.745  1.00  0.00     0.134 A 
ATOM     67  F   UNL A   1      35.918  29.290  29.449  1.00  0.00    -0.206 F 
ATOM     68  C   UNL A   1      34.889  31.010  28.223  1.00  0.00     0.040 A 
ATOM     69  C   UNL A   1      35.986  33.140  27.991  1.00  0.00     0.040 A 
ATOM     70  F   UNL A   1      38.090  33.487  28.969  1.00  0.00    -0.206 F 
ATOM     71  C   UNL A   1      34.901  32.310  27.721  1.00  0.00     0.006 A 
ENDBRANCH  43  64
BRANCH  55  72
ATOM     72  C   UNL A   1      38.999  32.137  35.909  1.00  0.00     0.057 A 
ATOM     73  C   UNL A   1      39.284  33.492  36.115  1.00  0.00     0.134 A 
ATOM     74  C   UNL A   1      38.098  31.522  36.788  1.00  0.00     0.134 A 
ATOM     75  F   UNL A   1      40.147  34.135  35.315  1.00  0.00    -0.206 F 
ATOM     76  C   UNL A   1      38.708  34.204  37.169  1.00  0.00     0.040 A 
ATOM     77  C   UNL A   1      37.497  32.230  37.829  1.00  0.00     0.040 A 
ATOM     78  F   UNL A   1      37.776  30.228  36.638  1.00  0.00    -0.206 F 
ATOM     79  C   UNL A   1      37.806  33.574  38.025  1.00  0.00     0.006 A 
ENDBRANCH  55  72
ENDBRANCH  29  30
ENDBRANCH  22  24
ENDBRANCH  21  22
ENDBRANCH  20  21
ENDBRANCH  19  20
ENDBRANCH   1  19
TORSDOF 16
ENDMDL
MODEL 3
REMARK VINA RESULT:     -10.3      3.587      8.412
REMARK SMILES C[C@@H](C(=O)OCCOCCOC(=O)c1ccc(-c2c3nc(c(-c4c(F)cccc4F)c4ccc([nH]4)c(-c4c(F)cccc4F)c4nc(c(-c5c(F)cccc5F)c5ccc2[nH]5)C=C4)C=C3)cc1)c1ccc(=O)n(C(F)F)c1
REMARK SMILES IDX 8 1 7 2 6 3 5 4 3 5 4 6 2 7 1 8 68 9 69 10 77 11 70 12 73 13
REMARK SMILES IDX 71 14 72 15 74 16 75 17 76 18 9 19 10 20 11 21 12 22 13 23
REMARK SMILES IDX 14 24 15 25 67 26 16 27 66 28 17 29 18 30 19 31 60 32 20 33
REMARK SMILES IDX 65 34 59 35 61 36 21 37 64 38 58 39 57 40 22 42 48 43 31 44
REMARK SMILES IDX 47 45 32 46 35 47 46 48 62 49 33 50 34 51 45 53 63 54 36 55
REMARK SMILES IDX 23 56 24 57 29 58 25 59 26 60 28 61 30 62 27 63 49 64 50 65
REMARK SMILES IDX 55 66 51 67 52 68 54 69 56 70 53 71 37 72 38 73 43 74 39 75
REMARK SMILES IDX 40 76 42 77 44 78 41 79
REMARK H PARENT 61 41 35 52
REMARK Flexibility Score: inf
ROOT
ATOM      1  O   UNL A   1      32.377  30.512  26.158  1.00  0.00    -0.374 OA
ENDROOT
BRANCH   1   2
ATOM      2  C   UNL A   1      32.166  29.293  26.879  1.00  0.00     0.202 C 
BRANCH   2   3
ATOM      3  C   UNL A   1      32.379  28.014  26.068  1.00  0.00     0.261 C 
BRANCH   3   4
ATOM      4  O   UNL A   1      32.158  28.276  24.669  1.00  0.00    -0.463 OA
BRANCH   4   5
ATOM      5  C   UNL A   1      32.695  27.381  23.798  1.00  0.00     0.313 C 
ATOM      6  O   UNL A   1      33.897  27.250  23.599  1.00  0.00    -0.252 OA
BRANCH   5   7
ATOM      7  C   UNL A   1      31.628  26.516  23.108  1.00  0.00     0.127 C 
ATOM      8  C   UNL A   1      31.954  26.088  21.672  1.00  0.00     0.025 C 
BRANCH   7   9
ATOM      9  C   UNL A   1      30.267  27.204  23.146  1.00  0.00    -0.017 A 
ATOM     10  C   UNL A   1      29.185  26.500  23.809  1.00  0.00     0.012 A 
ATOM     11  C   UNL A   1      30.002  28.410  22.608  1.00  0.00     0.099 A 
ATOM     12  C   UNL A   1      27.954  27.025  23.870  1.00  0.00     0.072 A 
ATOM     13  N   UNL A   1      28.734  28.966  22.635  1.00  0.00    -0.258 N 
ATOM     14  C   UNL A   1      27.657  28.339  23.236  1.00  0.00     0.254 A 
ATOM     15  O   UNL A   1      26.508  28.766  23.280  1.00  0.00    -0.269 OA
BRANCH  13  16
ATOM     16  C   UNL A   1      28.477  30.224  21.980  1.00  0.00     0.451 C 
ATOM     17  F   UNL A   1      29.634  30.903  21.779  1.00  0.00    -0.185 F 
ATOM     18  F   UNL A   1      27.880  30.048  20.778  1.00  0.00    -0.185 F 
ENDBRANCH  13  16
ENDBRANCH   7   9
ENDBRANCH   5   7
ENDBRANCH   4   5
ENDBRANCH   3   4
ENDBRANCH   2   3
ENDBRANCH   1   2
BRANCH   1  19
ATOM     19  C   UNL A   1      31.300  31.447  26.155  1.00  0.00     0.202 C 
BRANCH  19  20
ATOM     20  C   UNL A   1      31.457  32.679  27.048  1.00  0.00     0.261 C 
BRANCH  20  21
ATOM     21  O   UNL A   1      32.746  33.286  26.886  1.00  0.00    -0.460 OA
BRANCH  21  22
ATOM     22  C   UNL A   1      33.282  33.768  28.030  1.00  0.00     0.338 C 
ATOM     23  O   UNL A   1      32.768  34.553  28.816  1.00  0.00    -0.246 OA
BRANCH  22  24
ATOM     24  C   UNL A   1      34.545  33.070  28.324  1.00  0.00     0.060 A 
ATOM     25  C   UNL A   1      34.459  31.711  28.648  1.00  0.00     0.016 A 
ATOM     26  C   UNL A   1      35.776  33.730  28.333  1.00  0.00     0.016 A 
ATOM     27  C   UNL A   1      35.597  31.019  29.049  1.00  0.00     0.010 A 
ATOM     28  C   UNL A   1      36.918  33.036  28.742  1.00  0.00     0.010 A 
ATOM     29  C   UNL A   1      36.822  31.691  29.142  1.00  0.00    -0.014 A 
BRANCH  29  30
ATOM     30  C   UNL A   1      37.955  31.028  29.826  1.00  0.00     0.031 A 
ATOM     31  C   UNL A   1      38.200  31.335  31.276  1.00  0.00     0.074 A 
ATOM     32  C   UNL A   1      38.718  30.131  29.178  1.00  0.00     0.049 A 
ATOM     33  N   UNL A   1      39.128  30.878  32.076  1.00  0.00    -0.248 NA
ATOM     34  C   UNL A   1      37.272  32.285  31.912  1.00  0.00     0.031 C 
ATOM     35  C   UNL A   1      38.546  29.724  27.784  1.00  0.00     0.029 A 
ATOM     36  N   UNL A   1      39.795  29.402  29.614  1.00  0.00    -0.354 N 
ATOM     37  C   UNL A   1      38.901  31.488  33.303  1.00  0.00     0.074 A 
ATOM     38  C   UNL A   1      37.767  32.369  33.138  1.00  0.00     0.031 C 
ATOM     39  C   UNL A   1      39.490  28.817  27.477  1.00  0.00     0.029 A 
ATOM     40  C   UNL A   1      40.346  28.603  28.643  1.00  0.00     0.049 A 
ATOM     41  H   UNL A   1      40.138  29.446  30.535  1.00  0.00     0.167 HD
ATOM     42  C   UNL A   1      39.574  31.320  34.466  1.00  0.00     0.037 A 
ATOM     43  C   UNL A   1      41.428  27.804  28.691  1.00  0.00     0.037 A 
ATOM     44  C   UNL A   1      40.697  30.438  34.627  1.00  0.00     0.049 A 
ATOM     45  C   UNL A   1      42.199  27.686  29.979  1.00  0.00     0.074 A 
ATOM     46  C   UNL A   1      41.433  30.178  35.770  1.00  0.00     0.029 A 
ATOM     47  N   UNL A   1      41.250  29.674  33.611  1.00  0.00    -0.354 N 
ATOM     48  N   UNL A   1      41.961  28.247  31.140  1.00  0.00    -0.248 NA
ATOM     49  C   UNL A   1      43.388  26.822  29.962  1.00  0.00     0.031 C 
ATOM     50  C   UNL A   1      42.462  29.292  35.433  1.00  0.00     0.029 A 
ATOM     51  C   UNL A   1      42.336  28.962  34.092  1.00  0.00     0.049 A 
ATOM     52  H   UNL A   1      40.920  29.643  32.684  1.00  0.00     0.167 HD
ATOM     53  C   UNL A   1      42.950  27.782  31.998  1.00  0.00     0.074 A 
ATOM     54  C   UNL A   1      43.785  26.887  31.226  1.00  0.00     0.031 C 
ATOM     55  C   UNL A   1      43.149  28.069  33.308  1.00  0.00     0.037 A 
BRANCH  42  56
ATOM     56  C   UNL A   1      39.125  32.129  35.647  1.00  0.00     0.057 A 
ATOM     57  C   UNL A   1      39.527  33.458  35.832  1.00  0.00     0.134 A 
ATOM     58  C   UNL A   1      38.258  31.578  36.598  1.00  0.00     0.134 A 
ATOM     59  F   UNL A   1      40.371  34.040  34.966  1.00  0.00    -0.206 F 
ATOM     60  C   UNL A   1      39.097  34.204  36.931  1.00  0.00     0.040 A 
ATOM     61  C   UNL A   1      37.802  32.320  37.688  1.00  0.00     0.040 A 
ATOM     62  F   UNL A   1      37.834  30.310  36.479  1.00  0.00    -0.206 F 
ATOM     63  C   UNL A   1      38.226  33.636  37.860  1.00  0.00     0.006 A 
ENDBRANCH  42  56
BRANCH  43  64
ATOM     64  C   UNL A   1      41.856  27.058  27.482  1.00  0.00     0.057 A 
ATOM     65  C   UNL A   1      41.484  25.723  27.282  1.00  0.00     0.134 A 
ATOM     66  C   UNL A   1      42.665  27.654  26.507  1.00  0.00     0.134 A 
ATOM     67  F   UNL A   1      40.727  25.092  28.192  1.00  0.00    -0.206 F 
ATOM     68  C   UNL A   1      41.913  25.004  26.166  1.00  0.00     0.040 A 
ATOM     69  C   UNL A   1      43.082  26.954  25.374  1.00  0.00     0.040 A 
ATOM     70  F   UNL A   1      43.056  28.930  26.639  1.00  0.00    -0.206 F 
ATOM     71  C   UNL A   1      42.712  25.622  25.205  1.00  0.00     0.006 A 
ENDBRANCH  43  64
BRANCH  55  72
ATOM     72  C   UNL A   1      44.291  27.382  33.996  1.00  0.00     0.057 A 
ATOM     73  C   UNL A   1      45.560  27.968  34.084  1.00  0.00     0.134 A 
ATOM     74  C   UNL A   1      44.106  26.138  34.613  1.00  0.00     0.134 A 
ATOM     75  F   UNL A   1      45.805  29.152  33.504  1.00  0.00    -0.206 F 
ATOM     76  C   UNL A   1      46.611  27.330  34.746  1.00  0.00     0.040 A 
ATOM     77  C   UNL A   1      45.142  25.504  35.299  1.00  0.00     0.040 A 
ATOM     78  F   UNL A   1      42.912  25.529  34.572  1.00  0.00    -0.206 F 
ATOM     79  C   UNL A   1      46.401  26.097  35.362  1.00  0.00     0.006 A 
ENDBRANCH  55  72
ENDBRANCH  29  30
ENDBRANCH  22  24
ENDBRANCH  21  22
ENDBRANCH  20  21
ENDBRANCH  19  20
ENDBRANCH   1  19
TORSDOF 16
ENDMDL
