MODEL 1
REMARK VINA RESULT:     -11.0      0.000      0.000
REMARK SMILES Cc1cc(SCC(=O)OCCOCCOC(=O)c2ccc(-c3c4nc(c(-c5c(F)cccc5F)c5ccc([nH]5)c(-c5c(F)cccc5F)c5nc(c(-c6c(F)cccc6F)c6ccc3[nH]6)C=C5)C=C4)cc2)c2cc(I)ccc2n1
REMARK SMILES IDX 12 1 11 2 10 3 9 4 7 5 8 6 6 7 5 8 4 9 1 10 2 11 3 12 79 13
REMARK SMILES IDX 78 14 72 15 77 16 73 17 76 18 74 19 75 20 13 21 14 22 15 23
REMARK SMILES IDX 16 24 17 25 18 26 19 27 71 28 20 29 70 30 21 31 22 32 23 33
REMARK SMILES IDX 64 34 24 35 69 36 63 37 65 38 25 39 68 40 62 41 61 42 26 44
REMARK SMILES IDX 52 45 35 46 51 47 36 48 39 49 50 50 66 51 37 52 38 53 49 55
REMARK SMILES IDX 67 56 40 57 27 58 28 59 33 60 29 61 30 62 32 63 34 64 31 65
REMARK SMILES IDX 53 66 54 67 59 68 55 69 56 70 58 71 60 72 57 73 41 74 42 75
REMARK SMILES IDX 47 76 43 77 44 78 46 79 48 80 45 81
REMARK H PARENT 65 43 39 54
REMARK Flexibility Score: inf
ROOT
ATOM      1  O   UNL A   1      41.869  20.399  25.719  1.00  0.00    -0.374 OA
ENDROOT
BRANCH   1   2
ATOM      2  C   UNL A   1      40.694  20.447  26.524  1.00  0.00     0.202 C 
BRANCH   2   3
ATOM      3  C   UNL A   1      40.055  21.816  26.794  1.00  0.00     0.261 C 
BRANCH   3   4
ATOM      4  O   UNL A   1      38.848  22.066  26.042  1.00  0.00    -0.463 OA
BRANCH   4   5
ATOM      5  C   UNL A   1      38.273  23.284  26.237  1.00  0.00     0.316 C 
ATOM      6  O   UNL A   1      38.694  24.116  27.039  1.00  0.00    -0.251 OA
BRANCH   5   7
ATOM      7  C   UNL A   1      37.040  23.584  25.410  1.00  0.00     0.197 C 
BRANCH   7   8
ATOM      8  S   UNL A   1      35.449  22.913  25.972  1.00  0.00    -0.114 SA
BRANCH   8   9
ATOM      9  C   UNL A   1      34.218  23.201  24.668  1.00  0.00     0.019 A 
ATOM     10  C   UNL A   1      33.250  25.759  22.049  1.00  0.00     0.067 C 
ATOM     11  C   UNL A   1      33.281  24.513  22.886  1.00  0.00     0.039 A 
ATOM     12  C   UNL A   1      34.035  24.444  24.054  1.00  0.00     0.039 A 
ATOM     13  N   UNL A   1      32.654  23.440  22.360  1.00  0.00    -0.253 NA
ATOM     14  C   UNL A   1      32.758  22.257  22.975  1.00  0.00     0.072 A 
ATOM     15  C   UNL A   1      33.508  22.068  24.156  1.00  0.00     0.015 A 
ATOM     16  C   UNL A   1      32.131  21.171  22.377  1.00  0.00     0.030 A 
ATOM     17  C   UNL A   1      33.518  20.765  24.728  1.00  0.00     0.026 A 
ATOM     18  C   UNL A   1      32.178  19.890  22.930  1.00  0.00     0.017 A 
ATOM     19  C   UNL A   1      32.857  19.696  24.121  1.00  0.00     0.014 A 
ATOM     20  I   UNL A   1      32.904  17.814  24.996  1.00  0.00    -0.044 I 
ENDBRANCH   8   9
ENDBRANCH   7   8
ENDBRANCH   5   7
ENDBRANCH   4   5
ENDBRANCH   3   4
ENDBRANCH   2   3
ENDBRANCH   1   2
BRANCH   1  21
ATOM     21  C   UNL A   1      42.985  21.179  26.128  1.00  0.00     0.202 C 
BRANCH  21  22
ATOM     22  C   UNL A   1      43.689  22.041  25.076  1.00  0.00     0.261 C 
BRANCH  22  23
ATOM     23  O   UNL A   1      43.126  23.339  24.929  1.00  0.00    -0.460 OA
BRANCH  23  24
ATOM     24  C   UNL A   1      43.989  24.342  25.199  1.00  0.00     0.338 C 
ATOM     25  O   UNL A   1      45.031  24.623  24.630  1.00  0.00    -0.246 OA
BRANCH  24  26
ATOM     26  C   UNL A   1      43.365  25.194  26.211  1.00  0.00     0.060 A 
ATOM     27  C   UNL A   1      42.278  24.739  26.959  1.00  0.00     0.016 A 
ATOM     28  C   UNL A   1      43.900  26.473  26.394  1.00  0.00     0.016 A 
ATOM     29  C   UNL A   1      41.737  25.573  27.931  1.00  0.00     0.010 A 
ATOM     30  C   UNL A   1      43.363  27.301  27.369  1.00  0.00     0.010 A 
ATOM     31  C   UNL A   1      42.297  26.844  28.156  1.00  0.00    -0.014 A 
BRANCH  31  32
ATOM     32  C   UNL A   1      41.863  27.648  29.315  1.00  0.00     0.031 A 
ATOM     33  C   UNL A   1      42.553  27.534  30.635  1.00  0.00     0.074 A 
ATOM     34  C   UNL A   1      40.787  28.439  29.155  1.00  0.00     0.049 A 
ATOM     35  N   UNL A   1      42.290  28.158  31.753  1.00  0.00    -0.248 NA
ATOM     36  C   UNL A   1      43.675  26.587  30.717  1.00  0.00     0.031 C 
ATOM     37  C   UNL A   1      40.023  28.577  27.912  1.00  0.00     0.029 A 
ATOM     38  N   UNL A   1      40.148  29.269  30.034  1.00  0.00    -0.354 N 
ATOM     39  C   UNL A   1      43.216  27.688  32.673  1.00  0.00     0.074 A 
ATOM     40  C   UNL A   1      44.020  26.693  31.994  1.00  0.00     0.031 C 
ATOM     41  C   UNL A   1      39.032  29.459  28.102  1.00  0.00     0.029 A 
ATOM     42  C   UNL A   1      39.068  29.915  29.486  1.00  0.00     0.049 A 
ATOM     43  H   UNL A   1      40.434  29.391  30.968  1.00  0.00     0.167 HD
ATOM     44  C   UNL A   1      43.380  28.067  33.964  1.00  0.00     0.037 A 
ATOM     45  C   UNL A   1      38.198  30.773  30.046  1.00  0.00     0.037 A 
ATOM     46  C   UNL A   1      42.550  29.043  34.625  1.00  0.00     0.049 A 
ATOM     47  C   UNL A   1      38.382  31.143  31.489  1.00  0.00     0.074 A 
ATOM     48  C   UNL A   1      42.652  29.529  35.916  1.00  0.00     0.029 A 
ATOM     49  N   UNL A   1      41.452  29.668  34.050  1.00  0.00    -0.354 N 
ATOM     50  N   UNL A   1      39.304  30.747  32.333  1.00  0.00    -0.248 NA
ATOM     51  C   UNL A   1      37.407  32.083  32.056  1.00  0.00     0.031 C 
ATOM     52  C   UNL A   1      41.581  30.401  36.141  1.00  0.00     0.029 A 
ATOM     53  C   UNL A   1      40.848  30.510  34.970  1.00  0.00     0.049 A 
ATOM     54  H   UNL A   1      41.147  29.533  33.123  1.00  0.00     0.167 HD
ATOM     55  C   UNL A   1      39.036  31.405  33.525  1.00  0.00     0.074 A 
ATOM     56  C   UNL A   1      37.878  32.243  33.284  1.00  0.00     0.031 C 
ATOM     57  C   UNL A   1      39.687  31.325  34.712  1.00  0.00     0.037 A 
BRANCH  44  58
ATOM     58  C   UNL A   1      44.481  27.409  34.744  1.00  0.00     0.057 A 
ATOM     59  C   UNL A   1      45.752  27.992  34.820  1.00  0.00     0.134 A 
ATOM     60  C   UNL A   1      44.298  26.180  35.392  1.00  0.00     0.134 A 
ATOM     61  F   UNL A   1      46.000  29.166  34.219  1.00  0.00    -0.206 F 
ATOM     62  C   UNL A   1      46.799  27.378  35.510  1.00  0.00     0.040 A 
ATOM     63  C   UNL A   1      45.330  25.569  36.108  1.00  0.00     0.040 A 
ATOM     64  F   UNL A   1      43.102  25.571  35.369  1.00  0.00    -0.206 F 
ATOM     65  C   UNL A   1      46.587  26.166  36.162  1.00  0.00     0.006 A 
ENDBRANCH  44  58
BRANCH  45  66
ATOM     66  C   UNL A   1      37.092  31.343  29.239  1.00  0.00     0.057 A 
ATOM     67  C   UNL A   1      37.142  32.656  28.754  1.00  0.00     0.134 A 
ATOM     68  C   UNL A   1      35.955  30.586  28.935  1.00  0.00     0.134 A 
ATOM     69  F   UNL A   1      38.198  33.438  29.023  1.00  0.00    -0.206 F 
ATOM     70  C   UNL A   1      36.100  33.196  28.001  1.00  0.00     0.040 A 
ATOM     71  C   UNL A   1      34.919  31.104  28.158  1.00  0.00     0.040 A 
ATOM     72  F   UNL A   1      35.855  29.319  29.363  1.00  0.00    -0.206 F 
ATOM     73  C   UNL A   1      34.988  32.415  27.692  1.00  0.00     0.006 A 
ENDBRANCH  45  66
BRANCH  57  74
ATOM     74  C   UNL A   1      39.166  32.187  35.827  1.00  0.00     0.057 A 
ATOM     75  C   UNL A   1      38.228  31.683  36.737  1.00  0.00     0.134 A 
ATOM     76  C   UNL A   1      39.584  33.513  35.998  1.00  0.00     0.134 A 
ATOM     77  F   UNL A   1      37.778  30.424  36.626  1.00  0.00    -0.206 F 
ATOM     78  C   UNL A   1      37.727  32.466  37.777  1.00  0.00     0.040 A 
ATOM     79  C   UNL A   1      39.116  34.295  37.055  1.00  0.00     0.040 A 
ATOM     80  F   UNL A   1      40.493  34.052  35.170  1.00  0.00    -0.206 F 
ATOM     81  C   UNL A   1      38.179  33.772  37.945  1.00  0.00     0.006 A 
ENDBRANCH  57  74
ENDBRANCH  31  32
ENDBRANCH  24  26
ENDBRANCH  23  24
ENDBRANCH  22  23
ENDBRANCH  21  22
ENDBRANCH   1  21
TORSDOF 16
ENDMDL
MODEL 2
REMARK VINA RESULT:     -10.8      1.454      1.983
REMARK SMILES Cc1cc(SCC(=O)OCCOCCOC(=O)c2ccc(-c3c4nc(c(-c5c(F)cccc5F)c5ccc([nH]5)c(-c5c(F)cccc5F)c5nc(c(-c6c(F)cccc6F)c6ccc3[nH]6)C=C5)C=C4)cc2)c2cc(I)ccc2n1
REMARK SMILES IDX 12 1 11 2 10 3 9 4 7 5 8 6 6 7 5 8 4 9 1 10 2 11 3 12 79 13
REMARK SMILES IDX 78 14 72 15 77 16 73 17 76 18 74 19 75 20 13 21 14 22 15 23
REMARK SMILES IDX 16 24 17 25 18 26 19 27 71 28 20 29 70 30 21 31 22 32 23 33
REMARK SMILES IDX 64 34 24 35 69 36 63 37 65 38 25 39 68 40 62 41 61 42 26 44
REMARK SMILES IDX 52 45 35 46 51 47 36 48 39 49 50 50 66 51 37 52 38 53 49 55
REMARK SMILES IDX 67 56 40 57 27 58 28 59 33 60 29 61 30 62 32 63 34 64 31 65
REMARK SMILES IDX 53 66 54 67 59 68 55 69 56 70 58 71 60 72 57 73 41 74 42 75
REMARK SMILES IDX 47 76 43 77 44 78 46 79 48 80 45 81
REMARK H PARENT 65 43 39 54
REMARK Flexibility Score: inf
ROOT
ATOM      1  O   UNL A   1      41.926  20.292  25.745  1.00  0.00    -0.374 OA
ENDROOT
BRANCH   1   2
ATOM      2  C   UNL A   1      40.741  20.353  26.534  1.00  0.00     0.202 C 
BRANCH   2   3
ATOM      3  C   UNL A   1      40.007  21.698  26.640  1.00  0.00     0.261 C 
BRANCH   3   4
ATOM      4  O   UNL A   1      38.872  21.823  25.758  1.00  0.00    -0.463 OA
BRANCH   4   5
ATOM      5  C   UNL A   1      38.179  22.991  25.852  1.00  0.00     0.316 C 
ATOM      6  O   UNL A   1      38.556  23.956  26.514  1.00  0.00    -0.251 OA
BRANCH   5   7
ATOM      7  C   UNL A   1      36.867  23.056  25.097  1.00  0.00     0.197 C 
BRANCH   7   8
ATOM      8  S   UNL A   1      35.370  23.506  26.020  1.00  0.00    -0.114 SA
BRANCH   8   9
ATOM      9  C   UNL A   1      33.959  23.449  24.877  1.00  0.00     0.019 A 
ATOM     10  C   UNL A   1      32.148  21.068  22.553  1.00  0.00     0.067 C 
ATOM     11  C   UNL A   1      32.518  22.293  23.340  1.00  0.00     0.039 A 
ATOM     12  C   UNL A   1      33.753  22.402  23.972  1.00  0.00     0.039 A 
ATOM     13  N   UNL A   1      31.533  23.200  23.504  1.00  0.00    -0.253 NA
ATOM     14  C   UNL A   1      31.739  24.249  24.310  1.00  0.00     0.072 A 
ATOM     15  C   UNL A   1      32.947  24.452  25.014  1.00  0.00     0.015 A 
ATOM     16  C   UNL A   1      30.684  25.136  24.484  1.00  0.00     0.030 A 
ATOM     17  C   UNL A   1      33.051  25.620  25.817  1.00  0.00     0.026 A 
ATOM     18  C   UNL A   1      30.788  26.260  25.304  1.00  0.00     0.017 A 
ATOM     19  C   UNL A   1      31.984  26.511  25.954  1.00  0.00     0.014 A 
ATOM     20  I   UNL A   1      32.187  28.201  27.142  1.00  0.00    -0.044 I 
ENDBRANCH   8   9
ENDBRANCH   7   8
ENDBRANCH   5   7
ENDBRANCH   4   5
ENDBRANCH   3   4
ENDBRANCH   2   3
ENDBRANCH   1   2
BRANCH   1  21
ATOM     21  C   UNL A   1      43.013  21.131  26.115  1.00  0.00     0.202 C 
BRANCH  21  22
ATOM     22  C   UNL A   1      43.641  22.019  25.037  1.00  0.00     0.261 C 
BRANCH  22  23
ATOM     23  O   UNL A   1      43.052  23.311  24.943  1.00  0.00    -0.460 OA
BRANCH  23  24
ATOM     24  C   UNL A   1      43.909  24.322  25.196  1.00  0.00     0.338 C 
ATOM     25  O   UNL A   1      44.944  24.605  24.614  1.00  0.00    -0.246 OA
BRANCH  24  26
ATOM     26  C   UNL A   1      43.291  25.177  26.207  1.00  0.00     0.060 A 
ATOM     27  C   UNL A   1      42.209  24.724  26.964  1.00  0.00     0.016 A 
ATOM     28  C   UNL A   1      43.824  26.458  26.381  1.00  0.00     0.016 A 
ATOM     29  C   UNL A   1      41.673  25.562  27.936  1.00  0.00     0.010 A 
ATOM     30  C   UNL A   1      43.291  27.290  27.356  1.00  0.00     0.010 A 
ATOM     31  C   UNL A   1      42.231  26.835  28.152  1.00  0.00    -0.014 A 
BRANCH  31  32
ATOM     32  C   UNL A   1      41.803  27.644  29.309  1.00  0.00     0.031 A 
ATOM     33  C   UNL A   1      42.498  27.533  30.627  1.00  0.00     0.074 A 
ATOM     34  C   UNL A   1      40.728  28.436  29.150  1.00  0.00     0.049 A 
ATOM     35  N   UNL A   1      42.240  28.162  31.744  1.00  0.00    -0.248 NA
ATOM     36  C   UNL A   1      43.619  26.585  30.708  1.00  0.00     0.031 C 
ATOM     37  C   UNL A   1      39.959  28.571  27.909  1.00  0.00     0.029 A 
ATOM     38  N   UNL A   1      40.093  29.270  30.028  1.00  0.00    -0.354 N 
ATOM     39  C   UNL A   1      43.169  27.694  32.662  1.00  0.00     0.074 A 
ATOM     40  C   UNL A   1      43.968  26.695  31.983  1.00  0.00     0.031 C 
ATOM     41  C   UNL A   1      38.971  29.456  28.100  1.00  0.00     0.029 A 
ATOM     42  C   UNL A   1      39.012  29.916  29.482  1.00  0.00     0.049 A 
ATOM     43  H   UNL A   1      40.383  29.396  30.961  1.00  0.00     0.167 HD
ATOM     44  C   UNL A   1      43.338  28.077  33.951  1.00  0.00     0.037 A 
ATOM     45  C   UNL A   1      38.146  30.778  30.042  1.00  0.00     0.037 A 
ATOM     46  C   UNL A   1      42.512  29.056  34.612  1.00  0.00     0.049 A 
ATOM     47  C   UNL A   1      38.336  31.153  31.484  1.00  0.00     0.074 A 
ATOM     48  C   UNL A   1      42.620  29.548  35.900  1.00  0.00     0.029 A 
ATOM     49  N   UNL A   1      41.413  29.681  34.038  1.00  0.00    -0.354 N 
ATOM     50  N   UNL A   1      39.261  30.759  32.326  1.00  0.00    -0.248 NA
ATOM     51  C   UNL A   1      37.365  32.096  32.050  1.00  0.00     0.031 C 
ATOM     52  C   UNL A   1      41.551  30.422  36.126  1.00  0.00     0.029 A 
ATOM     53  C   UNL A   1      40.814  30.528  34.957  1.00  0.00     0.049 A 
ATOM     54  H   UNL A   1      41.104  29.544  33.113  1.00  0.00     0.167 HD
ATOM     55  C   UNL A   1      38.998  31.421  33.516  1.00  0.00     0.074 A 
ATOM     56  C   UNL A   1      37.840  32.260  33.276  1.00  0.00     0.031 C 
ATOM     57  C   UNL A   1      39.653  31.344  34.701  1.00  0.00     0.037 A 
BRANCH  44  58
ATOM     58  C   UNL A   1      44.441  27.420  34.729  1.00  0.00     0.057 A 
ATOM     59  C   UNL A   1      45.737  27.951  34.721  1.00  0.00     0.134 A 
ATOM     60  C   UNL A   1      44.233  26.241  35.458  1.00  0.00     0.134 A 
ATOM     61  F   UNL A   1      46.010  29.074  34.040  1.00  0.00    -0.206 F 
ATOM     62  C   UNL A   1      46.784  27.334  35.409  1.00  0.00     0.040 A 
ATOM     63  C   UNL A   1      45.266  25.630  36.172  1.00  0.00     0.040 A 
ATOM     64  F   UNL A   1      43.013  25.684  35.517  1.00  0.00    -0.206 F 
ATOM     65  C   UNL A   1      46.548  26.174  36.143  1.00  0.00     0.006 A 
ENDBRANCH  44  58
BRANCH  45  66
ATOM     66  C   UNL A   1      37.038  31.347  29.237  1.00  0.00     0.057 A 
ATOM     67  C   UNL A   1      37.087  32.659  28.751  1.00  0.00     0.134 A 
ATOM     68  C   UNL A   1      35.900  30.590  28.938  1.00  0.00     0.134 A 
ATOM     69  F   UNL A   1      38.144  33.442  29.015  1.00  0.00    -0.206 F 
ATOM     70  C   UNL A   1      36.043  33.198  27.999  1.00  0.00     0.040 A 
ATOM     71  C   UNL A   1      34.862  31.106  28.163  1.00  0.00     0.040 A 
ATOM     72  F   UNL A   1      35.801  29.323  29.368  1.00  0.00    -0.206 F 
ATOM     73  C   UNL A   1      34.930  32.417  27.694  1.00  0.00     0.006 A 
ENDBRANCH  45  66
BRANCH  57  74
ATOM     74  C   UNL A   1      39.138  32.211  35.815  1.00  0.00     0.057 A 
ATOM     75  C   UNL A   1      38.224  31.703  36.746  1.00  0.00     0.134 A 
ATOM     76  C   UNL A   1      39.538  33.545  35.963  1.00  0.00     0.134 A 
ATOM     77  F   UNL A   1      37.792  30.436  36.658  1.00  0.00    -0.206 F 
ATOM     78  C   UNL A   1      37.728  32.490  37.786  1.00  0.00     0.040 A 
ATOM     79  C   UNL A   1      39.076  34.332  37.018  1.00  0.00     0.040 A 
ATOM     80  F   UNL A   1      40.423  34.089  35.113  1.00  0.00    -0.206 F 
ATOM     81  C   UNL A   1      38.163  33.805  37.931  1.00  0.00     0.006 A 
ENDBRANCH  57  74
ENDBRANCH  31  32
ENDBRANCH  24  26
ENDBRANCH  23  24
ENDBRANCH  22  23
ENDBRANCH  21  22
ENDBRANCH   1  21
TORSDOF 16
ENDMDL
MODEL 3
REMARK VINA RESULT:     -10.7      1.543      6.610
REMARK SMILES Cc1cc(SCC(=O)OCCOCCOC(=O)c2ccc(-c3c4nc(c(-c5c(F)cccc5F)c5ccc([nH]5)c(-c5c(F)cccc5F)c5nc(c(-c6c(F)cccc6F)c6ccc3[nH]6)C=C5)C=C4)cc2)c2cc(I)ccc2n1
REMARK SMILES IDX 12 1 11 2 10 3 9 4 7 5 8 6 6 7 5 8 4 9 1 10 2 11 3 12 79 13
REMARK SMILES IDX 78 14 72 15 77 16 73 17 76 18 74 19 75 20 13 21 14 22 15 23
REMARK SMILES IDX 16 24 17 25 18 26 19 27 71 28 20 29 70 30 21 31 22 32 23 33
REMARK SMILES IDX 64 34 24 35 69 36 63 37 65 38 25 39 68 40 62 41 61 42 26 44
REMARK SMILES IDX 52 45 35 46 51 47 36 48 39 49 50 50 66 51 37 52 38 53 49 55
REMARK SMILES IDX 67 56 40 57 27 58 28 59 33 60 29 61 30 62 32 63 34 64 31 65
REMARK SMILES IDX 53 66 54 67 59 68 55 69 56 70 58 71 60 72 57 73 41 74 42 75
REMARK SMILES IDX 47 76 43 77 44 78 46 79 48 80 45 81
REMARK H PARENT 65 43 39 54
REMARK Flexibility Score: inf
ROOT
ATOM      1  O   UNL A   1      42.516  21.101  27.064  1.00  0.00    -0.374 OA
ENDROOT
BRANCH   1   2
ATOM      2  C   UNL A   1      41.175  20.683  27.302  1.00  0.00     0.202 C 
BRANCH   2   3
ATOM      3  C   UNL A   1      40.052  21.357  26.499  1.00  0.00     0.261 C 
BRANCH   3   4
ATOM      4  O   UNL A   1      39.653  22.648  27.007  1.00  0.00    -0.463 OA
BRANCH   4   5
ATOM      5  C   UNL A   1      38.621  23.245  26.352  1.00  0.00     0.316 C 
ATOM      6  O   UNL A   1      38.328  24.433  26.480  1.00  0.00    -0.251 OA
BRANCH   5   7
ATOM      7  C   UNL A   1      37.803  22.358  25.436  1.00  0.00     0.197 C 
BRANCH   7   8
ATOM      8  S   UNL A   1      36.636  23.151  24.294  1.00  0.00    -0.114 SA
BRANCH   8   9
ATOM      9  C   UNL A   1      34.964  22.568  24.694  1.00  0.00     0.019 A 
ATOM     10  C   UNL A   1      33.047  19.375  25.387  1.00  0.00     0.067 C 
ATOM     11  C   UNL A   1      33.389  20.827  25.211  1.00  0.00     0.039 A 
ATOM     12  C   UNL A   1      34.588  21.222  24.625  1.00  0.00     0.039 A 
ATOM     13  N   UNL A   1      32.533  21.702  25.777  1.00  0.00    -0.253 NA
ATOM     14  C   UNL A   1      32.841  23.004  25.788  1.00  0.00     0.072 A 
ATOM     15  C   UNL A   1      34.037  23.515  25.237  1.00  0.00     0.015 A 
ATOM     16  C   UNL A   1      31.952  23.865  26.419  1.00  0.00     0.030 A 
ATOM     17  C   UNL A   1      34.235  24.923  25.287  1.00  0.00     0.026 A 
ATOM     18  C   UNL A   1      32.176  25.241  26.492  1.00  0.00     0.017 A 
ATOM     19  C   UNL A   1      33.312  25.769  25.903  1.00  0.00     0.014 A 
ATOM     20  I   UNL A   1      33.649  27.816  25.951  1.00  0.00    -0.044 I 
ENDBRANCH   8   9
ENDBRANCH   7   8
ENDBRANCH   5   7
ENDBRANCH   4   5
ENDBRANCH   3   4
ENDBRANCH   2   3
ENDBRANCH   1   2
BRANCH   1  21
ATOM     21  C   UNL A   1      43.026  20.975  25.742  1.00  0.00     0.202 C 
BRANCH  21  22
ATOM     22  C   UNL A   1      43.771  22.169  25.137  1.00  0.00     0.261 C 
BRANCH  22  23
ATOM     23  O   UNL A   1      43.024  23.379  25.155  1.00  0.00    -0.460 OA
BRANCH  23  24
ATOM     24  C   UNL A   1      43.780  24.484  25.330  1.00  0.00     0.338 C 
ATOM     25  O   UNL A   1      44.752  24.849  24.688  1.00  0.00    -0.246 OA
BRANCH  24  26
ATOM     26  C   UNL A   1      43.118  25.312  26.336  1.00  0.00     0.060 A 
ATOM     27  C   UNL A   1      42.100  24.791  27.136  1.00  0.00     0.016 A 
ATOM     28  C   UNL A   1      43.544  26.638  26.461  1.00  0.00     0.016 A 
ATOM     29  C   UNL A   1      41.521  25.607  28.101  1.00  0.00     0.010 A 
ATOM     30  C   UNL A   1      42.969  27.449  27.429  1.00  0.00     0.010 A 
ATOM     31  C   UNL A   1      41.974  26.928  28.267  1.00  0.00    -0.014 A 
BRANCH  31  32
ATOM     32  C   UNL A   1      41.510  27.730  29.415  1.00  0.00     0.031 A 
ATOM     33  C   UNL A   1      40.329  28.638  29.296  1.00  0.00     0.074 A 
ATOM     34  C   UNL A   1      42.224  27.661  30.552  1.00  0.00     0.049 A 
ATOM     35  N   UNL A   1      39.799  29.417  30.202  1.00  0.00    -0.248 NA
ATOM     36  C   UNL A   1      39.662  28.688  27.986  1.00  0.00     0.031 C 
ATOM     37  C   UNL A   1      43.421  26.835  30.744  1.00  0.00     0.029 A 
ATOM     38  N   UNL A   1      42.058  28.291  31.755  1.00  0.00    -0.354 N 
ATOM     39  C   UNL A   1      38.733  30.048  29.578  1.00  0.00     0.074 A 
ATOM     40  C   UNL A   1      38.717  29.594  28.204  1.00  0.00     0.031 C 
ATOM     41  C   UNL A   1      43.866  26.992  31.999  1.00  0.00     0.029 A 
ATOM     42  C   UNL A   1      43.013  27.956  32.682  1.00  0.00     0.049 A 
ATOM     43  H   UNL A   1      41.325  28.923  31.937  1.00  0.00     0.167 HD
ATOM     44  C   UNL A   1      37.846  30.920  30.117  1.00  0.00     0.037 A 
ATOM     45  C   UNL A   1      43.183  28.391  33.943  1.00  0.00     0.037 A 
ATOM     46  C   UNL A   1      37.897  31.376  31.483  1.00  0.00     0.049 A 
ATOM     47  C   UNL A   1      42.206  29.386  34.499  1.00  0.00     0.074 A 
ATOM     48  C   UNL A   1      37.027  32.226  32.143  1.00  0.00     0.029 A 
ATOM     49  N   UNL A   1      38.887  31.034  32.395  1.00  0.00    -0.354 N 
ATOM     50  N   UNL A   1      41.157  29.924  33.924  1.00  0.00    -0.248 NA
ATOM     51  C   UNL A   1      42.434  29.830  35.878  1.00  0.00     0.031 C 
ATOM     52  C   UNL A   1      37.523  32.445  33.432  1.00  0.00     0.029 A 
ATOM     53  C   UNL A   1      38.667  31.681  33.601  1.00  0.00     0.049 A 
ATOM     54  H   UNL A   1      39.635  30.419  32.212  1.00  0.00     0.167 HD
ATOM     55  C   UNL A   1      40.586  30.755  34.878  1.00  0.00     0.074 A 
ATOM     56  C   UNL A   1      41.394  30.627  36.075  1.00  0.00     0.031 C 
ATOM     57  C   UNL A   1      39.493  31.550  34.776  1.00  0.00     0.037 A 
BRANCH  44  58
ATOM     58  C   UNL A   1      36.762  31.447  29.221  1.00  0.00     0.057 A 
ATOM     59  C   UNL A   1      36.799  32.767  28.754  1.00  0.00     0.134 A 
ATOM     60  C   UNL A   1      35.661  30.664  28.849  1.00  0.00     0.134 A 
ATOM     61  F   UNL A   1      37.821  33.575  29.075  1.00  0.00    -0.206 F 
ATOM     62  C   UNL A   1      35.782  33.287  27.950  1.00  0.00     0.040 A 
ATOM     63  C   UNL A   1      34.652  31.164  28.024  1.00  0.00     0.040 A 
ATOM     64  F   UNL A   1      35.568  29.387  29.253  1.00  0.00    -0.206 F 
ATOM     65  C   UNL A   1      34.709  32.482  27.578  1.00  0.00     0.006 A 
ENDBRANCH  44  58
BRANCH  45  66
ATOM     66  C   UNL A   1      44.310  27.878  34.759  1.00  0.00     0.057 A 
ATOM     67  C   UNL A   1      44.196  26.697  35.503  1.00  0.00     0.134 A 
ATOM     68  C   UNL A   1      45.529  28.562  34.817  1.00  0.00     0.134 A 
ATOM     69  F   UNL A   1      43.048  26.003  35.502  1.00  0.00    -0.206 F 
ATOM     70  C   UNL A   1      45.253  26.217  36.277  1.00  0.00     0.040 A 
ATOM     71  C   UNL A   1      46.604  28.078  35.563  1.00  0.00     0.040 A 
ATOM     72  F   UNL A   1      45.702  29.693  34.117  1.00  0.00    -0.206 F 
ATOM     73  C   UNL A   1      46.465  26.903  36.300  1.00  0.00     0.006 A 
ENDBRANCH  45  66
BRANCH  57  74
ATOM     74  C   UNL A   1      39.103  32.323  36.004  1.00  0.00     0.057 A 
ATOM     75  C   UNL A   1      38.274  31.746  36.974  1.00  0.00     0.134 A 
ATOM     76  C   UNL A   1      39.540  33.635  36.224  1.00  0.00     0.134 A 
ATOM     77  F   UNL A   1      37.813  30.496  36.821  1.00  0.00    -0.206 F 
ATOM     78  C   UNL A   1      37.896  32.446  38.120  1.00  0.00     0.040 A 
ATOM     79  C   UNL A   1      39.197  34.333  37.383  1.00  0.00     0.040 A 
ATOM     80  F   UNL A   1      40.350  34.242  35.342  1.00  0.00    -0.206 F 
ATOM     81  C   UNL A   1      38.367  33.739  38.332  1.00  0.00     0.006 A 
ENDBRANCH  57  74
ENDBRANCH  31  32
ENDBRANCH  24  26
ENDBRANCH  23  24
ENDBRANCH  22  23
ENDBRANCH  21  22
ENDBRANCH   1  21
TORSDOF 16
ENDMDL
