MODEL 1
REMARK VINA RESULT:     -12.1      0.000      0.000
REMARK SMILES Cc1cc(C(=O)OCCOCCOC(=O)c2ccc(-c3c4nc(c(-c5c(F)cccc5F)c5ccc([nH]5)c(-c5c(F)cccc5F)c5nc(c(-c6c(F)cccc6F)c6ccc3[nH]6)C=C5)C=C4)cc2)nc(N2CCN(c3ccccc3Cl)CC2)n1
REMARK SMILES IDX 10 1 9 2 8 3 7 4 5 5 6 6 4 7 1 8 2 9 3 10 85 11 71 12 70 13
REMARK SMILES IDX 72 14 73 15 84 16 74 17 83 18 75 19 76 20 77 21 81 22 78 23
REMARK SMILES IDX 80 24 82 25 79 26 11 27 12 28 13 29 14 30 15 31 16 32 17 33
REMARK SMILES IDX 69 34 18 35 68 36 19 37 20 38 21 39 62 40 22 41 67 42 61 43
REMARK SMILES IDX 63 44 23 45 66 46 60 47 59 48 24 50 50 51 33 52 49 53 34 54
REMARK SMILES IDX 37 55 48 56 64 57 35 58 36 59 47 61 65 62 38 63 25 64 26 65
REMARK SMILES IDX 31 66 27 67 28 68 30 69 32 70 29 71 51 72 52 73 57 74 53 75
REMARK SMILES IDX 54 76 56 77 58 78 55 79 39 80 40 81 45 82 41 83 42 84 44 85
REMARK SMILES IDX 46 86 43 87
REMARK H PARENT 63 49 37 60
REMARK Flexibility Score: inf
ROOT
ATOM      1  O   UNL A   1      41.860  20.118  25.582  1.00  0.00    -0.374 OA
ENDROOT
BRANCH   1   2
ATOM      2  C   UNL A   1      40.587  20.151  26.229  1.00  0.00     0.202 C 
BRANCH   2   3
ATOM      3  C   UNL A   1      39.875  21.505  26.229  1.00  0.00     0.261 C 
BRANCH   3   4
ATOM      4  O   UNL A   1      38.677  21.447  25.436  1.00  0.00    -0.459 OA
BRANCH   4   5
ATOM      5  C   UNL A   1      37.787  22.440  25.694  1.00  0.00     0.357 C 
ATOM      6  O   UNL A   1      38.046  23.554  26.121  1.00  0.00    -0.244 OA
BRANCH   5   7
ATOM      7  C   UNL A   1      36.437  22.024  25.239  1.00  0.00     0.154 A 
ATOM      8  C   UNL A   1      34.210  19.104  24.626  1.00  0.00     0.067 C 
ATOM      9  C   UNL A   1      34.760  20.493  24.762  1.00  0.00     0.044 A 
ATOM     10  C   UNL A   1      36.072  20.703  25.127  1.00  0.00     0.059 A 
ATOM     11  N   UNL A   1      33.893  21.511  24.561  1.00  0.00    -0.218 NA
ATOM     12  C   UNL A   1      34.361  22.764  24.648  1.00  0.00     0.226 A 
ATOM     13  N   UNL A   1      35.619  23.053  24.961  1.00  0.00    -0.206 NA
BRANCH  12  14
ATOM     14  N   UNL A   1      33.545  23.836  24.440  1.00  0.00    -0.337 N 
ATOM     15  C   UNL A   1      33.691  24.639  23.234  1.00  0.00     0.141 C 
ATOM     16  C   UNL A   1      33.051  24.523  25.635  1.00  0.00     0.141 C 
ATOM     17  C   UNL A   1      32.331  25.310  22.909  1.00  0.00     0.138 C 
ATOM     18  C   UNL A   1      31.723  25.249  25.325  1.00  0.00     0.138 C 
ATOM     19  N   UNL A   1      31.852  26.041  24.090  1.00  0.00    -0.367 N 
BRANCH  19  20
ATOM     20  C   UNL A   1      31.209  27.256  23.974  1.00  0.00     0.056 A 
ATOM     21  C   UNL A   1      29.997  27.354  23.273  1.00  0.00     0.027 A 
ATOM     22  C   UNL A   1      31.744  28.444  24.516  1.00  0.00     0.064 A 
ATOM     23  C   UNL A   1      29.345  28.581  23.115  1.00  0.00     0.002 A 
ATOM     24  C   UNL A   1      31.098  29.673  24.351  1.00  0.00     0.023 A 
ATOM     25  Cl  UNL A   1      33.269  28.458  25.343  1.00  0.00    -0.082 Cl
ATOM     26  C   UNL A   1      29.897  29.741  23.650  1.00  0.00     0.002 A 
ENDBRANCH  19  20
ENDBRANCH  12  14
ENDBRANCH   5   7
ENDBRANCH   4   5
ENDBRANCH   3   4
ENDBRANCH   2   3
ENDBRANCH   1   2
BRANCH   1  27
ATOM     27  C   UNL A   1      42.897  20.922  26.146  1.00  0.00     0.202 C 
BRANCH  27  28
ATOM     28  C   UNL A   1      43.709  21.758  25.147  1.00  0.00     0.261 C 
BRANCH  28  29
ATOM     29  O   UNL A   1      43.038  22.986  24.806  1.00  0.00    -0.460 OA
BRANCH  29  30
ATOM     30  C   UNL A   1      43.769  24.108  24.996  1.00  0.00     0.338 C 
ATOM     31  O   UNL A   1      44.793  24.435  24.413  1.00  0.00    -0.246 OA
BRANCH  30  32
ATOM     32  C   UNL A   1      43.061  25.021  25.913  1.00  0.00     0.060 A 
ATOM     33  C   UNL A   1      43.591  26.307  26.082  1.00  0.00     0.016 A 
ATOM     34  C   UNL A   1      41.942  24.614  26.642  1.00  0.00     0.016 A 
ATOM     35  C   UNL A   1      43.032  27.176  27.018  1.00  0.00     0.010 A 
ATOM     36  C   UNL A   1      41.387  25.485  27.588  1.00  0.00     0.010 A 
ATOM     37  C   UNL A   1      41.950  26.756  27.802  1.00  0.00    -0.014 A 
BRANCH  37  38
ATOM     38  C   UNL A   1      41.500  27.596  28.939  1.00  0.00     0.031 A 
ATOM     39  C   UNL A   1      42.233  27.507  30.250  1.00  0.00     0.074 A 
ATOM     40  C   UNL A   1      40.471  28.450  28.800  1.00  0.00     0.049 A 
ATOM     41  N   UNL A   1      41.990  28.120  31.381  1.00  0.00    -0.248 NA
ATOM     42  C   UNL A   1      43.395  26.604  30.292  1.00  0.00     0.031 C 
ATOM     43  C   UNL A   1      39.705  28.659  27.572  1.00  0.00     0.029 A 
ATOM     44  N   UNL A   1      39.889  29.298  29.709  1.00  0.00    -0.354 N 
ATOM     45  C   UNL A   1      42.964  27.677  32.267  1.00  0.00     0.074 A 
ATOM     46  C   UNL A   1      43.784  26.722  31.552  1.00  0.00     0.031 C 
ATOM     47  C   UNL A   1      38.743  29.569  27.809  1.00  0.00     0.029 A 
ATOM     48  C   UNL A   1      38.810  29.984  29.209  1.00  0.00     0.049 A 
ATOM     49  H   UNL A   1      40.214  29.405  30.632  1.00  0.00     0.167 HD
ATOM     50  C   UNL A   1      43.165  28.042  33.555  1.00  0.00     0.037 A 
ATOM     51  C   UNL A   1      37.960  30.834  29.818  1.00  0.00     0.037 A 
ATOM     52  C   UNL A   1      42.353  28.994  34.266  1.00  0.00     0.049 A 
ATOM     53  C   UNL A   1      38.162  31.169  31.271  1.00  0.00     0.074 A 
ATOM     54  C   UNL A   1      42.487  29.439  35.569  1.00  0.00     0.029 A 
ATOM     55  N   UNL A   1      41.252  29.645  33.733  1.00  0.00    -0.354 N 
ATOM     56  N   UNL A   1      39.100  30.761  32.093  1.00  0.00    -0.248 NA
ATOM     57  C   UNL A   1      37.187  32.085  31.883  1.00  0.00     0.031 C 
ATOM     58  C   UNL A   1      41.441  30.327  35.839  1.00  0.00     0.029 A 
ATOM     59  C   UNL A   1      40.683  30.470  34.687  1.00  0.00     0.049 A 
ATOM     60  H   UNL A   1      40.922  29.537  32.811  1.00  0.00     0.167 HD
ATOM     61  C   UNL A   1      38.845  31.391  33.306  1.00  0.00     0.074 A 
ATOM     62  C   UNL A   1      37.673  32.217  33.110  1.00  0.00     0.031 C 
ATOM     63  C   UNL A   1      39.522  31.295  34.476  1.00  0.00     0.037 A 
BRANCH  50  64
ATOM     64  C   UNL A   1      44.301  27.394  34.289  1.00  0.00     0.057 A 
ATOM     65  C   UNL A   1      44.137  26.192  34.988  1.00  0.00     0.134 A 
ATOM     66  C   UNL A   1      45.583  27.957  34.260  1.00  0.00     0.134 A 
ATOM     67  F   UNL A   1      42.931  25.609  35.066  1.00  0.00    -0.206 F 
ATOM     68  C   UNL A   1      45.206  25.580  35.646  1.00  0.00     0.040 A 
ATOM     69  C   UNL A   1      46.664  27.343  34.894  1.00  0.00     0.040 A 
ATOM     70  F   UNL A   1      45.809  29.104  33.604  1.00  0.00    -0.206 F 
ATOM     71  C   UNL A   1      46.476  26.152  35.594  1.00  0.00     0.006 A 
ENDBRANCH  50  64
BRANCH  51  72
ATOM     72  C   UNL A   1      36.823  31.420  29.064  1.00  0.00     0.057 A 
ATOM     73  C   UNL A   1      36.833  32.760  28.661  1.00  0.00     0.134 A 
ATOM     74  C   UNL A   1      35.685  30.663  28.761  1.00  0.00     0.134 A 
ATOM     75  F   UNL A   1      37.884  33.542  28.944  1.00  0.00    -0.206 F 
ATOM     76  C   UNL A   1      35.744  33.333  28.002  1.00  0.00     0.040 A 
ATOM     77  C   UNL A   1      34.599  31.217  28.081  1.00  0.00     0.040 A 
ATOM     78  F   UNL A   1      35.613  29.373  29.120  1.00  0.00    -0.206 F 
ATOM     79  C   UNL A   1      34.623  32.559  27.707  1.00  0.00     0.006 A 
ENDBRANCH  51  72
BRANCH  63  80
ATOM     80  C   UNL A   1      39.036  32.130  35.624  1.00  0.00     0.057 A 
ATOM     81  C   UNL A   1      38.208  31.603  36.623  1.00  0.00     0.134 A 
ATOM     82  C   UNL A   1      39.436  33.466  35.752  1.00  0.00     0.134 A 
ATOM     83  F   UNL A   1      37.780  30.333  36.552  1.00  0.00    -0.206 F 
ATOM     84  C   UNL A   1      37.777  32.383  37.698  1.00  0.00     0.040 A 
ATOM     85  C   UNL A   1      39.032  34.248  36.836  1.00  0.00     0.040 A 
ATOM     86  F   UNL A   1      40.236  34.029  34.835  1.00  0.00    -0.206 F 
ATOM     87  C   UNL A   1      38.195  33.708  37.810  1.00  0.00     0.006 A 
ENDBRANCH  63  80
ENDBRANCH  37  38
ENDBRANCH  30  32
ENDBRANCH  29  30
ENDBRANCH  28  29
ENDBRANCH  27  28
ENDBRANCH   1  27
TORSDOF 16
ENDMDL
MODEL 2
REMARK VINA RESULT:     -11.3      0.844      6.045
REMARK SMILES Cc1cc(C(=O)OCCOCCOC(=O)c2ccc(-c3c4nc(c(-c5c(F)cccc5F)c5ccc([nH]5)c(-c5c(F)cccc5F)c5nc(c(-c6c(F)cccc6F)c6ccc3[nH]6)C=C5)C=C4)cc2)nc(N2CCN(c3ccccc3Cl)CC2)n1
REMARK SMILES IDX 10 1 9 2 8 3 7 4 5 5 6 6 4 7 1 8 2 9 3 10 85 11 71 12 70 13
REMARK SMILES IDX 72 14 73 15 84 16 74 17 83 18 75 19 76 20 77 21 81 22 78 23
REMARK SMILES IDX 80 24 82 25 79 26 11 27 12 28 13 29 14 30 15 31 16 32 17 33
REMARK SMILES IDX 69 34 18 35 68 36 19 37 20 38 21 39 62 40 22 41 67 42 61 43
REMARK SMILES IDX 63 44 23 45 66 46 60 47 59 48 24 50 50 51 33 52 49 53 34 54
REMARK SMILES IDX 37 55 48 56 64 57 35 58 36 59 47 61 65 62 38 63 25 64 26 65
REMARK SMILES IDX 31 66 27 67 28 68 30 69 32 70 29 71 51 72 52 73 57 74 53 75
REMARK SMILES IDX 54 76 56 77 58 78 55 79 39 80 40 81 45 82 41 83 42 84 44 85
REMARK SMILES IDX 46 86 43 87
REMARK H PARENT 63 49 37 60
REMARK Flexibility Score: inf
ROOT
ATOM      1  O   UNL A   1      41.495  21.779  27.106  1.00  0.00    -0.374 OA
ENDROOT
BRANCH   1   2
ATOM      2  C   UNL A   1      40.072  21.658  27.070  1.00  0.00     0.202 C 
BRANCH   2   3
ATOM      3  C   UNL A   1      39.404  22.054  25.752  1.00  0.00     0.261 C 
BRANCH   3   4
ATOM      4  O   UNL A   1      37.986  21.823  25.813  1.00  0.00    -0.459 OA
BRANCH   4   5
ATOM      5  C   UNL A   1      37.568  20.725  25.131  1.00  0.00     0.357 C 
ATOM      6  O   UNL A   1      38.258  19.780  24.784  1.00  0.00    -0.244 OA
BRANCH   5   7
ATOM      7  C   UNL A   1      36.091  20.765  24.988  1.00  0.00     0.154 A 
ATOM      8  C   UNL A   1      33.009  18.689  24.777  1.00  0.00     0.067 C 
ATOM      9  C   UNL A   1      33.969  19.839  24.847  1.00  0.00     0.044 A 
ATOM     10  C   UNL A   1      35.328  19.624  24.902  1.00  0.00     0.059 A 
ATOM     11  N   UNL A   1      33.429  21.077  24.908  1.00  0.00    -0.218 NA
ATOM     12  C   UNL A   1      34.262  22.127  24.942  1.00  0.00     0.226 A 
ATOM     13  N   UNL A   1      35.584  22.009  24.963  1.00  0.00    -0.206 NA
BRANCH  12  14
ATOM     14  N   UNL A   1      33.784  23.403  24.987  1.00  0.00    -0.337 N 
ATOM     15  C   UNL A   1      32.596  23.708  25.771  1.00  0.00     0.141 C 
ATOM     16  C   UNL A   1      34.028  24.234  23.807  1.00  0.00     0.141 C 
ATOM     17  C   UNL A   1      32.646  25.198  26.200  1.00  0.00     0.138 C 
ATOM     18  C   UNL A   1      34.026  25.730  24.195  1.00  0.00     0.138 C 
ATOM     19  N   UNL A   1      32.843  26.042  25.014  1.00  0.00    -0.367 N 
BRANCH  19  20
ATOM     20  C   UNL A   1      32.209  27.260  24.882  1.00  0.00     0.056 A 
ATOM     21  C   UNL A   1      31.105  27.399  24.027  1.00  0.00     0.027 A 
ATOM     22  C   UNL A   1      32.652  28.414  25.563  1.00  0.00     0.064 A 
ATOM     23  C   UNL A   1      30.468  28.632  23.854  1.00  0.00     0.002 A 
ATOM     24  C   UNL A   1      32.022  29.650  25.385  1.00  0.00     0.023 A 
ATOM     25  Cl  UNL A   1      34.048  28.382  26.594  1.00  0.00    -0.082 Cl
ATOM     26  C   UNL A   1      30.929  29.758  24.530  1.00  0.00     0.002 A 
ENDBRANCH  19  20
ENDBRANCH  12  14
ENDBRANCH   5   7
ENDBRANCH   4   5
ENDBRANCH   3   4
ENDBRANCH   2   3
ENDBRANCH   1   2
BRANCH   1  27
ATOM     27  C   UNL A   1      42.222  21.238  26.002  1.00  0.00     0.202 C 
BRANCH  27  28
ATOM     28  C   UNL A   1      43.306  22.147  25.409  1.00  0.00     0.261 C 
BRANCH  28  29
ATOM     29  O   UNL A   1      42.767  23.412  24.979  1.00  0.00    -0.460 OA
BRANCH  29  30
ATOM     30  C   UNL A   1      43.552  24.484  25.233  1.00  0.00     0.338 C 
ATOM     31  O   UNL A   1      44.584  24.802  24.659  1.00  0.00    -0.246 OA
BRANCH  30  32
ATOM     32  C   UNL A   1      42.898  25.364  26.220  1.00  0.00     0.060 A 
ATOM     33  C   UNL A   1      43.483  26.613  26.461  1.00  0.00     0.016 A 
ATOM     34  C   UNL A   1      41.776  24.955  26.944  1.00  0.00     0.016 A 
ATOM     35  C   UNL A   1      42.977  27.442  27.461  1.00  0.00     0.010 A 
ATOM     36  C   UNL A   1      41.274  25.785  27.954  1.00  0.00     0.010 A 
ATOM     37  C   UNL A   1      41.892  27.017  28.238  1.00  0.00    -0.014 A 
BRANCH  37  38
ATOM     38  C   UNL A   1      41.497  27.799  29.435  1.00  0.00     0.031 A 
ATOM     39  C   UNL A   1      40.325  28.737  29.342  1.00  0.00     0.074 A 
ATOM     40  C   UNL A   1      42.155  27.656  30.599  1.00  0.00     0.049 A 
ATOM     41  N   UNL A   1      39.831  29.541  30.249  1.00  0.00    -0.248 NA
ATOM     42  C   UNL A   1      39.616  28.775  28.053  1.00  0.00     0.031 C 
ATOM     43  C   UNL A   1      43.280  26.751  30.830  1.00  0.00     0.029 A 
ATOM     44  N   UNL A   1      41.970  28.279  31.808  1.00  0.00    -0.354 N 
ATOM     45  C   UNL A   1      38.758  30.181  29.642  1.00  0.00     0.074 A 
ATOM     46  C   UNL A   1      38.690  29.694  28.280  1.00  0.00     0.031 C 
ATOM     47  C   UNL A   1      43.695  26.888  32.101  1.00  0.00     0.029 A 
ATOM     48  C   UNL A   1      42.883  27.907  32.764  1.00  0.00     0.049 A 
ATOM     49  H   UNL A   1      41.251  28.931  31.975  1.00  0.00     0.167 HD
ATOM     50  C   UNL A   1      37.899  31.082  30.173  1.00  0.00     0.037 A 
ATOM     51  C   UNL A   1      43.056  28.355  34.023  1.00  0.00     0.037 A 
ATOM     52  C   UNL A   1      37.963  31.565  31.528  1.00  0.00     0.049 A 
ATOM     53  C   UNL A   1      42.132  29.410  34.568  1.00  0.00     0.074 A 
ATOM     54  C   UNL A   1      37.129  32.468  32.162  1.00  0.00     0.029 A 
ATOM     55  N   UNL A   1      38.920  31.185  32.456  1.00  0.00    -0.354 N 
ATOM     56  N   UNL A   1      41.107  29.991  33.992  1.00  0.00    -0.248 NA
ATOM     57  C   UNL A   1      42.388  29.872  35.941  1.00  0.00     0.031 C 
ATOM     58  C   UNL A   1      37.606  32.669  33.461  1.00  0.00     0.029 A 
ATOM     59  C   UNL A   1      38.711  31.854  33.650  1.00  0.00     0.049 A 
ATOM     60  H   UNL A   1      39.642  30.537  32.290  1.00  0.00     0.167 HD
ATOM     61  C   UNL A   1      40.580  30.863  34.938  1.00  0.00     0.074 A 
ATOM     62  C   UNL A   1      41.391  30.726  36.130  1.00  0.00     0.031 C 
ATOM     63  C   UNL A   1      39.520  31.700  34.831  1.00  0.00     0.037 A 
BRANCH  50  64
ATOM     64  C   UNL A   1      36.822  31.623  29.280  1.00  0.00     0.057 A 
ATOM     65  C   UNL A   1      35.675  30.879  28.976  1.00  0.00     0.134 A 
ATOM     66  C   UNL A   1      36.913  32.917  28.755  1.00  0.00     0.134 A 
ATOM     67  F   UNL A   1      35.533  29.627  29.437  1.00  0.00    -0.206 F 
ATOM     68  C   UNL A   1      34.663  31.399  28.166  1.00  0.00     0.040 A 
ATOM     69  C   UNL A   1      35.898  33.456  27.963  1.00  0.00     0.040 A 
ATOM     70  F   UNL A   1      37.983  33.683  29.012  1.00  0.00    -0.206 F 
ATOM     71  C   UNL A   1      34.770  32.694  27.663  1.00  0.00     0.006 A 
ENDBRANCH  50  64
BRANCH  51  72
ATOM     72  C   UNL A   1      44.162  27.823  34.858  1.00  0.00     0.057 A 
ATOM     73  C   UNL A   1      45.370  28.517  34.993  1.00  0.00     0.134 A 
ATOM     74  C   UNL A   1      44.049  26.590  35.513  1.00  0.00     0.134 A 
ATOM     75  F   UNL A   1      45.546  29.691  34.370  1.00  0.00    -0.206 F 
ATOM     76  C   UNL A   1      46.433  27.996  35.731  1.00  0.00     0.040 A 
ATOM     77  C   UNL A   1      45.097  26.068  36.274  1.00  0.00     0.040 A 
ATOM     78  F   UNL A   1      42.918  25.875  35.423  1.00  0.00    -0.206 F 
ATOM     79  C   UNL A   1      46.297  26.768  36.377  1.00  0.00     0.006 A 
ENDBRANCH  51  72
BRANCH  63  80
ATOM     80  C   UNL A   1      39.152  32.505  36.043  1.00  0.00     0.057 A 
ATOM     81  C   UNL A   1      38.319  31.993  37.045  1.00  0.00     0.134 A 
ATOM     82  C   UNL A   1      39.672  33.792  36.228  1.00  0.00     0.134 A 
ATOM     83  F   UNL A   1      37.779  30.771  36.923  1.00  0.00    -0.206 F 
ATOM     84  C   UNL A   1      37.998  32.742  38.180  1.00  0.00     0.040 A 
ATOM     85  C   UNL A   1      39.379  34.541  37.370  1.00  0.00     0.040 A 
ATOM     86  F   UNL A   1      40.483  34.338  35.310  1.00  0.00    -0.206 F 
ATOM     87  C   UNL A   1      38.535  34.017  38.347  1.00  0.00     0.006 A 
ENDBRANCH  63  80
ENDBRANCH  37  38
ENDBRANCH  30  32
ENDBRANCH  29  30
ENDBRANCH  28  29
ENDBRANCH  27  28
ENDBRANCH   1  27
TORSDOF 16
ENDMDL
MODEL 3
REMARK VINA RESULT:     -11.2      3.696      8.722
REMARK SMILES Cc1cc(C(=O)OCCOCCOC(=O)c2ccc(-c3c4nc(c(-c5c(F)cccc5F)c5ccc([nH]5)c(-c5c(F)cccc5F)c5nc(c(-c6c(F)cccc6F)c6ccc3[nH]6)C=C5)C=C4)cc2)nc(N2CCN(c3ccccc3Cl)CC2)n1
REMARK SMILES IDX 10 1 9 2 8 3 7 4 5 5 6 6 4 7 1 8 2 9 3 10 85 11 71 12 70 13
REMARK SMILES IDX 72 14 73 15 84 16 74 17 83 18 75 19 76 20 77 21 81 22 78 23
REMARK SMILES IDX 80 24 82 25 79 26 11 27 12 28 13 29 14 30 15 31 16 32 17 33
REMARK SMILES IDX 69 34 18 35 68 36 19 37 20 38 21 39 62 40 22 41 67 42 61 43
REMARK SMILES IDX 63 44 23 45 66 46 60 47 59 48 24 50 50 51 33 52 49 53 34 54
REMARK SMILES IDX 37 55 48 56 64 57 35 58 36 59 47 61 65 62 38 63 25 64 26 65
REMARK SMILES IDX 31 66 27 67 28 68 30 69 32 70 29 71 51 72 52 73 57 74 53 75
REMARK SMILES IDX 54 76 56 77 58 78 55 79 39 80 40 81 45 82 41 83 42 84 44 85
REMARK SMILES IDX 46 86 43 87
REMARK H PARENT 63 49 37 60
REMARK Flexibility Score: inf
ROOT
ATOM      1  O   UNL A   1      29.509  31.547  24.550  1.00  0.00    -0.374 OA
ENDROOT
BRANCH   1   2
ATOM      2  C   UNL A   1      29.526  30.940  23.257  1.00  0.00     0.202 C 
BRANCH   2   3
ATOM      3  C   UNL A   1      28.770  29.614  23.135  1.00  0.00     0.261 C 
BRANCH   3   4
ATOM      4  O   UNL A   1      29.437  28.581  23.879  1.00  0.00    -0.459 OA
BRANCH   4   5
ATOM      5  C   UNL A   1      30.350  27.875  23.163  1.00  0.00     0.357 C 
ATOM      6  O   UNL A   1      30.397  27.774  21.947  1.00  0.00    -0.244 OA
BRANCH   5   7
ATOM      7  C   UNL A   1      31.394  27.347  24.076  1.00  0.00     0.154 A 
ATOM      8  C   UNL A   1      33.695  28.211  26.872  1.00  0.00     0.067 C 
ATOM      9  C   UNL A   1      32.931  27.479  25.809  1.00  0.00     0.044 A 
ATOM     10  C   UNL A   1      32.044  28.142  24.990  1.00  0.00     0.059 A 
ATOM     11  N   UNL A   1      33.119  26.141  25.739  1.00  0.00    -0.218 NA
ATOM     12  C   UNL A   1      32.472  25.464  24.780  1.00  0.00     0.226 A 
ATOM     13  N   UNL A   1      31.627  26.032  23.928  1.00  0.00    -0.206 NA
BRANCH  12  14
ATOM     14  N   UNL A   1      32.629  24.116  24.643  1.00  0.00    -0.337 N 
ATOM     15  C   UNL A   1      33.689  23.591  23.793  1.00  0.00     0.141 C 
ATOM     16  C   UNL A   1      31.422  23.300  24.774  1.00  0.00     0.141 C 
ATOM     17  C   UNL A   1      34.082  22.178  24.297  1.00  0.00     0.138 C 
ATOM     18  C   UNL A   1      31.788  21.867  25.220  1.00  0.00     0.138 C 
ATOM     19  N   UNL A   1      32.880  21.338  24.385  1.00  0.00    -0.367 N 
BRANCH  19  20
ATOM     20  C   UNL A   1      32.907  20.002  24.043  1.00  0.00     0.056 A 
ATOM     21  C   UNL A   1      33.463  19.055  24.919  1.00  0.00     0.027 A 
ATOM     22  C   UNL A   1      32.417  19.533  22.806  1.00  0.00     0.064 A 
ATOM     23  C   UNL A   1      33.530  17.700  24.579  1.00  0.00     0.002 A 
ATOM     24  C   UNL A   1      32.492  18.180  22.460  1.00  0.00     0.023 A 
ATOM     25  Cl  UNL A   1      31.771  20.617  21.615  1.00  0.00    -0.082 Cl
ATOM     26  C   UNL A   1      33.049  17.263  23.348  1.00  0.00     0.002 A 
ENDBRANCH  19  20
ENDBRANCH  12  14
ENDBRANCH   5   7
ENDBRANCH   4   5
ENDBRANCH   3   4
ENDBRANCH   2   3
ENDBRANCH   1   2
BRANCH   1  27
ATOM     27  C   UNL A   1      30.649  31.334  25.384  1.00  0.00     0.202 C 
BRANCH  27  28
ATOM     28  C   UNL A   1      31.177  32.572  26.119  1.00  0.00     0.261 C 
BRANCH  28  29
ATOM     29  O   UNL A   1      32.095  32.219  27.172  1.00  0.00    -0.460 OA
BRANCH  29  30
ATOM     30  C   UNL A   1      32.872  33.233  27.616  1.00  0.00     0.338 C 
ATOM     31  O   UNL A   1      32.553  34.405  27.761  1.00  0.00    -0.246 OA
BRANCH  30  32
ATOM     32  C   UNL A   1      34.164  32.706  28.092  1.00  0.00     0.060 A 
ATOM     33  C   UNL A   1      34.227  31.345  28.419  1.00  0.00     0.016 A 
ATOM     34  C   UNL A   1      35.275  33.532  28.277  1.00  0.00     0.016 A 
ATOM     35  C   UNL A   1      35.388  30.814  28.979  1.00  0.00     0.010 A 
ATOM     36  C   UNL A   1      36.437  32.998  28.847  1.00  0.00     0.010 A 
ATOM     37  C   UNL A   1      36.487  31.645  29.230  1.00  0.00    -0.014 A 
BRANCH  37  38
ATOM     38  C   UNL A   1      37.631  31.128  30.019  1.00  0.00     0.031 A 
ATOM     39  C   UNL A   1      38.590  30.165  29.374  1.00  0.00     0.074 A 
ATOM     40  C   UNL A   1      37.833  31.531  31.286  1.00  0.00     0.049 A 
ATOM     41  N   UNL A   1      39.633  29.562  29.887  1.00  0.00    -0.248 NA
ATOM     42  C   UNL A   1      38.338  29.836  27.962  1.00  0.00     0.031 C 
ATOM     43  C   UNL A   1      37.000  32.490  32.011  1.00  0.00     0.029 A 
ATOM     44  N   UNL A   1      38.804  31.177  32.189  1.00  0.00    -0.354 N 
ATOM     45  C   UNL A   1      40.159  28.783  28.864  1.00  0.00     0.074 A 
ATOM     46  C   UNL A   1      39.304  28.966  27.710  1.00  0.00     0.031 C 
ATOM     47  C   UNL A   1      37.490  32.638  33.255  1.00  0.00     0.029 A 
ATOM     48  C   UNL A   1      38.651  31.765  33.421  1.00  0.00     0.049 A 
ATOM     49  H   UNL A   1      39.540  30.559  31.976  1.00  0.00     0.167 HD
ATOM     50  C   UNL A   1      41.261  27.997  28.880  1.00  0.00     0.037 A 
ATOM     51  C   UNL A   1      39.356  31.601  34.557  1.00  0.00     0.037 A 
ATOM     52  C   UNL A   1      42.113  27.817  30.025  1.00  0.00     0.049 A 
ATOM     53  C   UNL A   1      40.535  30.666  34.570  1.00  0.00     0.074 A 
ATOM     54  C   UNL A   1      43.261  27.051  30.135  1.00  0.00     0.029 A 
ATOM     55  N   UNL A   1      41.908  28.407  31.262  1.00  0.00    -0.354 N 
ATOM     56  N   UNL A   1      41.036  29.952  33.591  1.00  0.00    -0.248 NA
ATOM     57  C   UNL A   1      41.248  30.514  35.847  1.00  0.00     0.031 C 
ATOM     58  C   UNL A   1      43.727  27.144  31.450  1.00  0.00     0.029 A 
ATOM     59  C   UNL A   1      42.894  28.005  32.147  1.00  0.00     0.049 A 
ATOM     60  H   UNL A   1      41.170  29.022  31.480  1.00  0.00     0.167 HD
ATOM     61  C   UNL A   1      42.137  29.291  34.124  1.00  0.00     0.074 A 
ATOM     62  C   UNL A   1      42.237  29.698  35.510  1.00  0.00     0.031 C 
ATOM     63  C   UNL A   1      42.987  28.426  33.521  1.00  0.00     0.037 A 
BRANCH  50  64
ATOM     64  C   UNL A   1      41.600  27.254  27.622  1.00  0.00     0.057 A 
ATOM     65  C   UNL A   1      41.148  25.948  27.393  1.00  0.00     0.134 A 
ATOM     66  C   UNL A   1      42.350  27.867  26.611  1.00  0.00     0.134 A 
ATOM     67  F   UNL A   1      40.437  25.300  28.327  1.00  0.00    -0.206 F 
ATOM     68  C   UNL A   1      41.445  25.272  26.208  1.00  0.00     0.040 A 
ATOM     69  C   UNL A   1      42.634  27.210  25.413  1.00  0.00     0.040 A 
ATOM     70  F   UNL A   1      42.809  29.117  26.766  1.00  0.00    -0.206 F 
ATOM     71  C   UNL A   1      42.183  25.906  25.210  1.00  0.00     0.006 A 
ENDBRANCH  50  64
BRANCH  51  72
ATOM     72  C   UNL A   1      38.960  32.325  35.792  1.00  0.00     0.057 A 
ATOM     73  C   UNL A   1      38.182  31.708  36.778  1.00  0.00     0.134 A 
ATOM     74  C   UNL A   1      39.320  33.662  35.997  1.00  0.00     0.134 A 
ATOM     75  F   UNL A   1      37.786  30.436  36.627  1.00  0.00    -0.206 F 
ATOM     76  C   UNL A   1      37.760  32.399  37.915  1.00  0.00     0.040 A 
ATOM     77  C   UNL A   1      38.924  34.359  37.140  1.00  0.00     0.040 A 
ATOM     78  F   UNL A   1      40.063  34.312  35.089  1.00  0.00    -0.206 F 
ATOM     79  C   UNL A   1      38.134  33.729  38.099  1.00  0.00     0.006 A 
ENDBRANCH  51  72
BRANCH  63  80
ATOM     80  C   UNL A   1      44.123  27.890  34.343  1.00  0.00     0.057 A 
ATOM     81  C   UNL A   1      44.027  26.675  35.033  1.00  0.00     0.134 A 
ATOM     82  C   UNL A   1      45.341  28.579  34.410  1.00  0.00     0.134 A 
ATOM     83  F   UNL A   1      42.884  25.973  35.019  1.00  0.00    -0.206 F 
ATOM     84  C   UNL A   1      45.096  26.175  35.779  1.00  0.00     0.040 A 
ATOM     85  C   UNL A   1      46.425  28.076  35.132  1.00  0.00     0.040 A 
ATOM     86  F   UNL A   1      45.502  29.744  33.764  1.00  0.00    -0.206 F 
ATOM     87  C   UNL A   1      46.302  26.873  35.824  1.00  0.00     0.006 A 
ENDBRANCH  63  80
ENDBRANCH  37  38
ENDBRANCH  30  32
ENDBRANCH  29  30
ENDBRANCH  28  29
ENDBRANCH  27  28
ENDBRANCH   1  27
TORSDOF 16
ENDMDL
