MODEL 1
REMARK VINA RESULT:     -12.1      0.000      0.000
REMARK SMILES O=C(OCCOCCOC(=O)c1ccc(-c2c3nc(c(-c4c(F)cccc4F)c4ccc([nH]4)c(-c4c(F)cccc4F)c4nc(c(-c5c(F)cccc5F)c5ccc2[nH]5)C=C4)C=C3)cc1)c1ccc(/C=C/c2ccnc(-c3cccc([N+](=O)[O-])c3)[n+]2[O-])cc1
REMARK SMILES IDX 5 1 4 2 3 3 2 4 1 5 66 6 67 7 89 8 68 9 88 10 69 11 70 12
REMARK SMILES IDX 71 13 72 14 73 15 86 16 74 17 76 18 87 19 75 20 77 21 78 22
REMARK SMILES IDX 85 23 79 24 81 25 80 26 82 27 83 28 84 29 6 30 7 31 8 32
REMARK SMILES IDX 9 33 10 34 11 35 12 36 13 37 65 38 14 39 64 40 15 41 16 42
REMARK SMILES IDX 17 43 58 44 18 45 63 46 57 47 59 48 19 49 62 50 56 51 55 52
REMARK SMILES IDX 20 54 46 55 29 56 45 57 30 58 33 59 44 60 60 61 31 62 32 63
REMARK SMILES IDX 43 65 61 66 34 67 21 68 22 69 27 70 23 71 24 72 26 73 28 74
REMARK SMILES IDX 25 75 47 76 48 77 53 78 49 79 50 80 52 81 54 82 51 83 35 84
REMARK SMILES IDX 36 85 41 86 37 87 38 88 40 89 42 90 39 91
REMARK H PARENT 59 53 33 64
REMARK Flexibility Score: inf
ROOT
ATOM      1  C   UNL A   1      38.984  21.205  25.651  1.00  0.00     0.202 C 
ENDROOT
BRANCH   1   2
ATOM      2  C   UNL A   1      37.859  22.233  25.769  1.00  0.00     0.261 C 
BRANCH   2   3
ATOM      3  O   UNL A   1      36.937  22.094  24.669  1.00  0.00    -0.460 OA
BRANCH   3   4
ATOM      4  C   UNL A   1      35.686  21.575  24.749  1.00  0.00     0.338 C 
ATOM      5  O   UNL A   1      35.512  20.388  25.002  1.00  0.00    -0.246 OA
BRANCH   4   6
ATOM      6  C   UNL A   1      34.505  22.442  24.532  1.00  0.00     0.060 A 
ATOM      7  C   UNL A   1      33.844  23.057  25.591  1.00  0.00     0.016 A 
ATOM      8  C   UNL A   1      34.093  22.720  23.228  1.00  0.00     0.016 A 
ATOM      9  C   UNL A   1      32.720  23.844  25.382  1.00  0.00     0.009 A 
ATOM     10  C   UNL A   1      32.974  23.534  23.011  1.00  0.00     0.009 A 
ATOM     11  C   UNL A   1      32.258  24.076  24.090  1.00  0.00    -0.025 A 
BRANCH  11  12
ATOM     12  C   UNL A   1      31.060  24.883  23.844  1.00  0.00     0.012 C 
ATOM     13  C   UNL A   1      30.995  26.219  23.981  1.00  0.00     0.053 C 
BRANCH  13  14
ATOM     14  C   UNL A   1      29.742  26.952  23.780  1.00  0.00     0.134 A 
ATOM     15  C   UNL A   1      28.525  26.277  23.876  1.00  0.00     0.100 A 
ATOM     16  N   UNL A   1      29.776  28.323  23.506  1.00  0.00    -0.228 N 
ATOM     17  C   UNL A   1      27.373  27.017  23.755  1.00  0.00     0.259 A 
ATOM     18  C   UNL A   1      28.560  28.993  23.402  1.00  0.00     0.333 A 
ATOM     19  O   UNL A   1      30.891  28.944  23.364  1.00  0.00    -0.710 OA
ATOM     20  N   UNL A   1      27.362  28.347  23.544  1.00  0.00    -0.049 NA
BRANCH  18  21
ATOM     21  C   UNL A   1      28.564  30.437  23.193  1.00  0.00     0.076 A 
ATOM     22  C   UNL A   1      29.158  31.292  24.136  1.00  0.00     0.017 A 
ATOM     23  C   UNL A   1      28.073  30.986  21.996  1.00  0.00     0.102 A 
ATOM     24  C   UNL A   1      29.298  32.657  23.876  1.00  0.00     0.008 A 
ATOM     25  C   UNL A   1      28.216  32.353  21.739  1.00  0.00     0.270 A 
ATOM     26  C   UNL A   1      28.832  33.193  22.675  1.00  0.00     0.085 A 
BRANCH  25  27
ATOM     27  N   UNL A   1      27.736  32.903  20.466  1.00  0.00     0.062 N 
ATOM     28  O   UNL A   1      28.034  32.296  19.428  1.00  0.00    -0.258 OA
ATOM     29  O   UNL A   1      27.073  33.950  20.501  1.00  0.00    -0.258 OA
ENDBRANCH  25  27
ENDBRANCH  18  21
ENDBRANCH  13  14
ENDBRANCH  11  12
ENDBRANCH   4   6
ENDBRANCH   3   4
ENDBRANCH   2   3
ENDBRANCH   1   2
BRANCH   1  30
ATOM     30  O   UNL A   1      40.041  21.391  26.589  1.00  0.00    -0.374 OA
BRANCH  30  31
ATOM     31  C   UNL A   1      41.130  20.461  26.492  1.00  0.00     0.202 C 
BRANCH  31  32
ATOM     32  C   UNL A   1      42.414  21.236  26.179  1.00  0.00     0.261 C 
BRANCH  32  33
ATOM     33  O   UNL A   1      42.036  22.504  25.625  1.00  0.00    -0.460 OA
BRANCH  33  34
ATOM     34  C   UNL A   1      43.015  23.442  25.667  1.00  0.00     0.338 C 
ATOM     35  O   UNL A   1      44.051  23.453  25.024  1.00  0.00    -0.246 OA
BRANCH  34  36
ATOM     36  C   UNL A   1      42.513  24.578  26.471  1.00  0.00     0.060 A 
ATOM     37  C   UNL A   1      42.965  25.872  26.170  1.00  0.00     0.016 A 
ATOM     38  C   UNL A   1      41.557  24.381  27.473  1.00  0.00     0.016 A 
ATOM     39  C   UNL A   1      42.501  26.965  26.902  1.00  0.00     0.010 A 
ATOM     40  C   UNL A   1      41.090  25.468  28.200  1.00  0.00     0.010 A 
ATOM     41  C   UNL A   1      41.593  26.754  27.946  1.00  0.00    -0.014 A 
BRANCH  41  42
ATOM     42  C   UNL A   1      41.326  27.791  28.961  1.00  0.00     0.031 A 
ATOM     43  C   UNL A   1      42.100  27.701  30.244  1.00  0.00     0.074 A 
ATOM     44  C   UNL A   1      40.334  28.680  28.805  1.00  0.00     0.049 A 
ATOM     45  N   UNL A   1      41.889  28.292  31.388  1.00  0.00    -0.248 NA
ATOM     46  C   UNL A   1      43.247  26.777  30.239  1.00  0.00     0.031 C 
ATOM     47  C   UNL A   1      39.529  28.845  27.599  1.00  0.00     0.029 A 
ATOM     48  N   UNL A   1      39.802  29.572  29.699  1.00  0.00    -0.354 N 
ATOM     49  C   UNL A   1      42.852  27.783  32.249  1.00  0.00     0.074 A 
ATOM     50  C   UNL A   1      43.632  26.821  31.504  1.00  0.00     0.031 C 
ATOM     51  C   UNL A   1      38.569  29.756  27.842  1.00  0.00     0.029 A 
ATOM     52  C   UNL A   1      38.674  30.198  29.230  1.00  0.00     0.049 A 
ATOM     53  H   UNL A   1      40.191  29.747  30.587  1.00  0.00     0.167 HD
ATOM     54  C   UNL A   1      43.061  28.091  33.550  1.00  0.00     0.037 A 
ATOM     55  C   UNL A   1      37.803  31.000  29.873  1.00  0.00     0.037 A 
ATOM     56  C   UNL A   1      42.270  29.047  34.274  1.00  0.00     0.049 A 
ATOM     57  C   UNL A   1      38.037  31.321  31.326  1.00  0.00     0.074 A 
ATOM     58  C   UNL A   1      42.416  29.481  35.578  1.00  0.00     0.029 A 
ATOM     59  N   UNL A   1      41.170  29.711  33.748  1.00  0.00    -0.354 N 
ATOM     60  N   UNL A   1      38.977  30.878  32.128  1.00  0.00    -0.248 NA
ATOM     61  C   UNL A   1      37.097  32.252  31.962  1.00  0.00     0.031 C 
ATOM     62  C   UNL A   1      41.373  30.371  35.856  1.00  0.00     0.029 A 
ATOM     63  C   UNL A   1      40.612  30.534  34.708  1.00  0.00     0.049 A 
ATOM     64  H   UNL A   1      40.837  29.610  32.827  1.00  0.00     0.167 HD
ATOM     65  C   UNL A   1      38.759  31.496  33.353  1.00  0.00     0.074 A 
ATOM     66  C   UNL A   1      37.598  32.346  33.186  1.00  0.00     0.031 C 
ATOM     67  C   UNL A   1      39.459  31.378  34.508  1.00  0.00     0.037 A 
BRANCH  54  68
ATOM     68  C   UNL A   1      44.157  27.351  34.260  1.00  0.00     0.057 A 
ATOM     69  C   UNL A   1      43.919  26.168  34.972  1.00  0.00     0.134 A 
ATOM     70  C   UNL A   1      45.467  27.848  34.256  1.00  0.00     0.134 A 
ATOM     71  F   UNL A   1      42.683  25.649  35.035  1.00  0.00    -0.206 F 
ATOM     72  C   UNL A   1      44.933  25.529  35.688  1.00  0.00     0.040 A 
ATOM     73  C   UNL A   1      46.496  27.202  34.943  1.00  0.00     0.040 A 
ATOM     74  F   UNL A   1      45.766  28.976  33.596  1.00  0.00    -0.206 F 
ATOM     75  C   UNL A   1      46.227  26.044  35.672  1.00  0.00     0.006 A 
ENDBRANCH  54  68
BRANCH  55  76
ATOM     76  C   UNL A   1      36.629  31.537  29.142  1.00  0.00     0.057 A 
ATOM     77  C   UNL A   1      36.587  32.872  28.727  1.00  0.00     0.134 A 
ATOM     78  C   UNL A   1      35.544  30.719  28.802  1.00  0.00     0.134 A 
ATOM     79  F   UNL A   1      37.588  33.707  29.039  1.00  0.00    -0.206 F 
ATOM     80  C   UNL A   1      35.508  33.377  28.000  1.00  0.00     0.040 A 
ATOM     81  C   UNL A   1      34.468  31.205  28.057  1.00  0.00     0.040 A 
ATOM     82  F   UNL A   1      35.529  29.429  29.164  1.00  0.00    -0.206 F 
ATOM     83  C   UNL A   1      34.447  32.539  27.654  1.00  0.00     0.006 A 
ENDBRANCH  55  76
BRANCH  67  84
ATOM     84  C   UNL A   1      39.022  32.219  35.671  1.00  0.00     0.057 A 
ATOM     85  C   UNL A   1      38.231  31.703  36.704  1.00  0.00     0.134 A 
ATOM     86  C   UNL A   1      39.471  33.541  35.794  1.00  0.00     0.134 A 
ATOM     87  F   UNL A   1      37.762  30.448  36.639  1.00  0.00    -0.206 F 
ATOM     88  C   UNL A   1      37.892  32.477  37.815  1.00  0.00     0.040 A 
ATOM     89  C   UNL A   1      39.160  34.315  36.911  1.00  0.00     0.040 A 
ATOM     90  F   UNL A   1      40.242  34.089  34.843  1.00  0.00    -0.206 F 
ATOM     91  C   UNL A   1      38.366  33.784  37.925  1.00  0.00     0.006 A 
ENDBRANCH  67  84
ENDBRANCH  41  42
ENDBRANCH  34  36
ENDBRANCH  33  34
ENDBRANCH  32  33
ENDBRANCH  31  32
ENDBRANCH  30  31
ENDBRANCH   1  30
TORSDOF 18
ENDMDL
MODEL 2
REMARK VINA RESULT:     -12.0      4.197      7.297
REMARK SMILES O=C(OCCOCCOC(=O)c1ccc(-c2c3nc(c(-c4c(F)cccc4F)c4ccc([nH]4)c(-c4c(F)cccc4F)c4nc(c(-c5c(F)cccc5F)c5ccc2[nH]5)C=C4)C=C3)cc1)c1ccc(/C=C/c2ccnc(-c3cccc([N+](=O)[O-])c3)[n+]2[O-])cc1
REMARK SMILES IDX 5 1 4 2 3 3 2 4 1 5 66 6 67 7 89 8 68 9 88 10 69 11 70 12
REMARK SMILES IDX 71 13 72 14 73 15 86 16 74 17 76 18 87 19 75 20 77 21 78 22
REMARK SMILES IDX 85 23 79 24 81 25 80 26 82 27 83 28 84 29 6 30 7 31 8 32
REMARK SMILES IDX 9 33 10 34 11 35 12 36 13 37 65 38 14 39 64 40 15 41 16 42
REMARK SMILES IDX 17 43 58 44 18 45 63 46 57 47 59 48 19 49 62 50 56 51 55 52
REMARK SMILES IDX 20 54 46 55 29 56 45 57 30 58 33 59 44 60 60 61 31 62 32 63
REMARK SMILES IDX 43 65 61 66 34 67 21 68 22 69 27 70 23 71 24 72 26 73 28 74
REMARK SMILES IDX 25 75 47 76 48 77 53 78 49 79 50 80 52 81 54 82 51 83 35 84
REMARK SMILES IDX 36 85 41 86 37 87 38 88 40 89 42 90 39 91
REMARK H PARENT 59 53 33 64
REMARK Flexibility Score: inf
ROOT
ATOM      1  C   UNL A   1      34.015  22.211  23.960  1.00  0.00     0.202 C 
ENDROOT
BRANCH   1   2
ATOM      2  C   UNL A   1      33.747  23.100  22.746  1.00  0.00     0.261 C 
BRANCH   2   3
ATOM      3  O   UNL A   1      32.499  23.804  22.907  1.00  0.00    -0.460 OA
BRANCH   3   4
ATOM      4  C   UNL A   1      32.320  25.140  22.748  1.00  0.00     0.338 C 
ATOM      5  O   UNL A   1      31.741  25.583  21.763  1.00  0.00    -0.246 OA
BRANCH   4   6
ATOM      6  C   UNL A   1      32.823  26.085  23.771  1.00  0.00     0.060 A 
ATOM      7  C   UNL A   1      33.321  27.339  23.427  1.00  0.00     0.016 A 
ATOM      8  C   UNL A   1      32.720  25.749  25.121  1.00  0.00     0.016 A 
ATOM      9  C   UNL A   1      33.819  28.207  24.388  1.00  0.00     0.009 A 
ATOM     10  C   UNL A   1      33.198  26.633  26.097  1.00  0.00     0.009 A 
ATOM     11  C   UNL A   1      33.783  27.857  25.735  1.00  0.00    -0.025 A 
BRANCH  11  12
ATOM     12  C   UNL A   1      34.323  28.745  26.767  1.00  0.00     0.012 C 
ATOM     13  C   UNL A   1      34.032  30.052  26.882  1.00  0.00     0.053 C 
BRANCH  13  14
ATOM     14  C   UNL A   1      34.664  30.893  27.903  1.00  0.00     0.134 A 
ATOM     15  C   UNL A   1      35.787  30.424  28.584  1.00  0.00     0.100 A 
ATOM     16  N   UNL A   1      34.143  32.162  28.176  1.00  0.00    -0.228 N 
ATOM     17  C   UNL A   1      36.392  31.275  29.478  1.00  0.00     0.259 A 
ATOM     18  C   UNL A   1      34.822  32.956  29.095  1.00  0.00     0.333 A 
ATOM     19  O   UNL A   1      33.079  32.582  27.593  1.00  0.00    -0.710 OA
ATOM     20  N   UNL A   1      35.954  32.523  29.731  1.00  0.00    -0.049 NA
BRANCH  18  21
ATOM     21  C   UNL A   1      34.348  34.313  29.344  1.00  0.00     0.076 A 
ATOM     22  C   UNL A   1      34.452  35.299  28.350  1.00  0.00     0.017 A 
ATOM     23  C   UNL A   1      33.678  34.627  30.540  1.00  0.00     0.102 A 
ATOM     24  C   UNL A   1      33.869  36.556  28.523  1.00  0.00     0.008 A 
ATOM     25  C   UNL A   1      33.095  35.886  30.710  1.00  0.00     0.270 A 
ATOM     26  C   UNL A   1      33.184  36.853  29.701  1.00  0.00     0.085 A 
BRANCH  25  27
ATOM     27  N   UNL A   1      32.364  36.183  31.947  1.00  0.00     0.062 N 
ATOM     28  O   UNL A   1      32.509  37.308  32.445  1.00  0.00    -0.258 OA
ATOM     29  O   UNL A   1      31.656  35.287  32.431  1.00  0.00    -0.258 OA
ENDBRANCH  25  27
ENDBRANCH  18  21
ENDBRANCH  13  14
ENDBRANCH  11  12
ENDBRANCH   4   6
ENDBRANCH   3   4
ENDBRANCH   2   3
ENDBRANCH   1   2
BRANCH   1  30
ATOM     30  O   UNL A   1      35.223  22.520  24.651  1.00  0.00    -0.374 OA
BRANCH  30  31
ATOM     31  C   UNL A   1      36.432  22.365  23.892  1.00  0.00     0.202 C 
BRANCH  31  32
ATOM     32  C   UNL A   1      37.323  21.332  24.591  1.00  0.00     0.261 C 
BRANCH  32  33
ATOM     33  O   UNL A   1      37.690  21.865  25.871  1.00  0.00    -0.460 OA
BRANCH  33  34
ATOM     34  C   UNL A   1      38.995  21.687  26.193  1.00  0.00     0.338 C 
ATOM     35  O   UNL A   1      39.697  20.729  25.917  1.00  0.00    -0.246 OA
BRANCH  34  36
ATOM     36  C   UNL A   1      39.495  22.963  26.753  1.00  0.00     0.060 A 
ATOM     37  C   UNL A   1      38.830  24.153  26.422  1.00  0.00     0.016 A 
ATOM     38  C   UNL A   1      40.572  22.981  27.645  1.00  0.00     0.016 A 
ATOM     39  C   UNL A   1      39.270  25.370  26.943  1.00  0.00     0.010 A 
ATOM     40  C   UNL A   1      41.009  24.190  28.169  1.00  0.00     0.010 A 
ATOM     41  C   UNL A   1      40.387  25.390  27.785  1.00  0.00    -0.014 A 
BRANCH  41  42
ATOM     42  C   UNL A   1      41.103  26.643  28.093  1.00  0.00     0.031 A 
ATOM     43  C   UNL A   1      42.500  26.777  27.562  1.00  0.00     0.074 A 
ATOM     44  C   UNL A   1      40.585  27.553  28.932  1.00  0.00     0.049 A 
ATOM     45  N   UNL A   1      43.439  27.621  27.890  1.00  0.00    -0.248 NA
ATOM     46  C   UNL A   1      42.900  25.785  26.548  1.00  0.00     0.031 C 
ATOM     47  C   UNL A   1      39.240  27.512  29.498  1.00  0.00     0.029 A 
ATOM     48  N   UNL A   1      41.162  28.660  29.496  1.00  0.00    -0.354 N 
ATOM     49  C   UNL A   1      44.552  27.239  27.152  1.00  0.00     0.074 A 
ATOM     50  C   UNL A   1      44.178  26.077  26.378  1.00  0.00     0.031 C 
ATOM     51  C   UNL A   1      39.107  28.528  30.369  1.00  0.00     0.029 A 
ATOM     52  C   UNL A   1      40.372  29.256  30.447  1.00  0.00     0.049 A 
ATOM     53  H   UNL A   1      42.053  28.995  29.244  1.00  0.00     0.167 HD
ATOM     54  C   UNL A   1      45.779  27.808  27.128  1.00  0.00     0.037 A 
ATOM     55  C   UNL A   1      40.662  30.247  31.312  1.00  0.00     0.037 A 
ATOM     56  C   UNL A   1      46.131  28.962  27.910  1.00  0.00     0.049 A 
ATOM     57  C   UNL A   1      42.037  30.861  31.287  1.00  0.00     0.074 A 
ATOM     58  C   UNL A   1      47.323  29.659  27.934  1.00  0.00     0.029 A 
ATOM     59  N   UNL A   1      45.283  29.579  28.820  1.00  0.00    -0.354 N 
ATOM     60  N   UNL A   1      43.075  30.532  30.555  1.00  0.00    -0.248 NA
ATOM     61  C   UNL A   1      42.281  31.983  32.204  1.00  0.00     0.031 C 
ATOM     62  C   UNL A   1      47.214  30.670  28.895  1.00  0.00     0.029 A 
ATOM     63  C   UNL A   1      45.934  30.636  29.429  1.00  0.00     0.049 A 
ATOM     64  H   UNL A   1      44.356  29.304  29.003  1.00  0.00     0.167 HD
ATOM     65  C   UNL A   1      44.085  31.421  30.900  1.00  0.00     0.074 A 
ATOM     66  C   UNL A   1      43.534  32.304  31.907  1.00  0.00     0.031 C 
ATOM     67  C   UNL A   1      45.352  31.505  30.423  1.00  0.00     0.037 A 
BRANCH  54  68
ATOM     68  C   UNL A   1      46.818  27.158  26.263  1.00  0.00     0.057 A 
ATOM     69  C   UNL A   1      47.544  26.036  26.684  1.00  0.00     0.134 A 
ATOM     70  C   UNL A   1      47.119  27.683  24.999  1.00  0.00     0.134 A 
ATOM     71  F   UNL A   1      47.322  25.496  27.892  1.00  0.00    -0.206 F 
ATOM     72  C   UNL A   1      48.559  25.485  25.899  1.00  0.00     0.040 A 
ATOM     73  C   UNL A   1      48.110  27.122  24.192  1.00  0.00     0.040 A 
ATOM     74  F   UNL A   1      46.464  28.756  24.533  1.00  0.00    -0.206 F 
ATOM     75  C   UNL A   1      48.842  26.026  24.647  1.00  0.00     0.006 A 
ENDBRANCH  54  68
BRANCH  55  76
ATOM     76  C   UNL A   1      39.629  30.702  32.274  1.00  0.00     0.057 A 
ATOM     77  C   UNL A   1      39.420  30.028  33.481  1.00  0.00     0.134 A 
ATOM     78  C   UNL A   1      38.858  31.846  32.031  1.00  0.00     0.134 A 
ATOM     79  F   UNL A   1      40.115  28.916  33.762  1.00  0.00    -0.206 F 
ATOM     80  C   UNL A   1      38.482  30.473  34.414  1.00  0.00     0.040 A 
ATOM     81  C   UNL A   1      37.931  32.314  32.964  1.00  0.00     0.040 A 
ATOM     82  F   UNL A   1      39.016  32.541  30.895  1.00  0.00    -0.206 F 
ATOM     83  C   UNL A   1      37.740  31.626  34.160  1.00  0.00     0.006 A 
ENDBRANCH  55  76
BRANCH  67  84
ATOM     84  C   UNL A   1      46.217  32.615  30.945  1.00  0.00     0.057 A 
ATOM     85  C   UNL A   1      46.224  33.886  30.361  1.00  0.00     0.134 A 
ATOM     86  C   UNL A   1      46.988  32.424  32.099  1.00  0.00     0.134 A 
ATOM     87  F   UNL A   1      45.515  34.128  29.249  1.00  0.00    -0.206 F 
ATOM     88  C   UNL A   1      46.980  34.928  30.901  1.00  0.00     0.040 A 
ATOM     89  C   UNL A   1      47.726  33.465  32.663  1.00  0.00     0.040 A 
ATOM     90  F   UNL A   1      47.013  31.231  32.713  1.00  0.00    -0.206 F 
ATOM     91  C   UNL A   1      47.724  34.721  32.062  1.00  0.00     0.006 A 
ENDBRANCH  67  84
ENDBRANCH  41  42
ENDBRANCH  34  36
ENDBRANCH  33  34
ENDBRANCH  32  33
ENDBRANCH  31  32
ENDBRANCH  30  31
ENDBRANCH   1  30
TORSDOF 18
ENDMDL
MODEL 3
REMARK VINA RESULT:     -11.9      1.696      3.047
REMARK SMILES O=C(OCCOCCOC(=O)c1ccc(-c2c3nc(c(-c4c(F)cccc4F)c4ccc([nH]4)c(-c4c(F)cccc4F)c4nc(c(-c5c(F)cccc5F)c5ccc2[nH]5)C=C4)C=C3)cc1)c1ccc(/C=C/c2ccnc(-c3cccc([N+](=O)[O-])c3)[n+]2[O-])cc1
REMARK SMILES IDX 5 1 4 2 3 3 2 4 1 5 66 6 67 7 89 8 68 9 88 10 69 11 70 12
REMARK SMILES IDX 71 13 72 14 73 15 86 16 74 17 76 18 87 19 75 20 77 21 78 22
REMARK SMILES IDX 85 23 79 24 81 25 80 26 82 27 83 28 84 29 6 30 7 31 8 32
REMARK SMILES IDX 9 33 10 34 11 35 12 36 13 37 65 38 14 39 64 40 15 41 16 42
REMARK SMILES IDX 17 43 58 44 18 45 63 46 57 47 59 48 19 49 62 50 56 51 55 52
REMARK SMILES IDX 20 54 46 55 29 56 45 57 30 58 33 59 44 60 60 61 31 62 32 63
REMARK SMILES IDX 43 65 61 66 34 67 21 68 22 69 27 70 23 71 24 72 26 73 28 74
REMARK SMILES IDX 25 75 47 76 48 77 53 78 49 79 50 80 52 81 54 82 51 83 35 84
REMARK SMILES IDX 36 85 41 86 37 87 38 88 40 89 42 90 39 91
REMARK H PARENT 59 53 33 64
REMARK Flexibility Score: inf
ROOT
ATOM      1  C   UNL A   1      42.563  19.342  25.748  1.00  0.00     0.202 C 
ENDROOT
BRANCH   1   2
ATOM      2  C   UNL A   1      41.217  19.436  26.466  1.00  0.00     0.261 C 
BRANCH   2   3
ATOM      3  O   UNL A   1      40.977  20.789  26.904  1.00  0.00    -0.460 OA
BRANCH   3   4
ATOM      4  C   UNL A   1      40.606  21.823  26.107  1.00  0.00     0.338 C 
ATOM      5  O   UNL A   1      41.421  22.384  25.383  1.00  0.00    -0.246 OA
BRANCH   4   6
ATOM      6  C   UNL A   1      39.200  22.288  26.101  1.00  0.00     0.060 A 
ATOM      7  C   UNL A   1      38.856  23.584  26.479  1.00  0.00     0.016 A 
ATOM      8  C   UNL A   1      38.201  21.438  25.625  1.00  0.00     0.016 A 
ATOM      9  C   UNL A   1      37.533  24.003  26.499  1.00  0.00     0.009 A 
ATOM     10  C   UNL A   1      36.867  21.866  25.620  1.00  0.00     0.009 A 
ATOM     11  C   UNL A   1      36.519  23.143  26.090  1.00  0.00    -0.025 A 
BRANCH  11  12
ATOM     12  C   UNL A   1      35.113  23.553  26.124  1.00  0.00     0.012 C 
ATOM     13  C   UNL A   1      34.331  23.699  25.040  1.00  0.00     0.053 C 
BRANCH  13  14
ATOM     14  C   UNL A   1      32.950  24.177  25.149  1.00  0.00     0.134 A 
ATOM     15  C   UNL A   1      31.945  23.299  25.554  1.00  0.00     0.100 A 
ATOM     16  N   UNL A   1      32.654  25.513  24.858  1.00  0.00    -0.228 N 
ATOM     17  C   UNL A   1      30.679  23.809  25.715  1.00  0.00     0.259 A 
ATOM     18  C   UNL A   1      31.344  25.943  25.052  1.00  0.00     0.333 A 
ATOM     19  O   UNL A   1      33.561  26.317  24.434  1.00  0.00    -0.710 OA
ATOM     20  N   UNL A   1      30.363  25.099  25.497  1.00  0.00    -0.049 NA
BRANCH  18  21
ATOM     21  C   UNL A   1      31.021  27.348  24.830  1.00  0.00     0.076 A 
ATOM     22  C   UNL A   1      31.597  28.347  25.631  1.00  0.00     0.017 A 
ATOM     23  C   UNL A   1      30.216  27.733  23.743  1.00  0.00     0.102 A 
ATOM     24  C   UNL A   1      31.411  29.700  25.335  1.00  0.00     0.008 A 
ATOM     25  C   UNL A   1      30.033  29.088  23.449  1.00  0.00     0.270 A 
ATOM     26  C   UNL A   1      30.633  30.075  24.239  1.00  0.00     0.085 A 
BRANCH  25  27
ATOM     27  N   UNL A   1      29.225  29.471  22.286  1.00  0.00     0.062 N 
ATOM     28  O   UNL A   1      28.000  29.302  22.355  1.00  0.00    -0.258 OA
ATOM     29  O   UNL A   1      29.815  29.929  21.296  1.00  0.00    -0.258 OA
ENDBRANCH  25  27
ENDBRANCH  18  21
ENDBRANCH  13  14
ENDBRANCH  11  12
ENDBRANCH   4   6
ENDBRANCH   3   4
ENDBRANCH   2   3
ENDBRANCH   1   2
BRANCH   1  30
ATOM     30  O   UNL A   1      43.534  20.278  26.209  1.00  0.00    -0.374 OA
BRANCH  30  31
ATOM     31  C   UNL A   1      44.599  20.572  25.293  1.00  0.00     0.202 C 
BRANCH  31  32
ATOM     32  C   UNL A   1      45.348  21.813  25.791  1.00  0.00     0.261 C 
BRANCH  32  33
ATOM     33  O   UNL A   1      44.373  22.767  26.231  1.00  0.00    -0.460 OA
BRANCH  33  34
ATOM     34  C   UNL A   1      44.394  23.938  25.547  1.00  0.00     0.338 C 
ATOM     35  O   UNL A   1      44.723  24.107  24.385  1.00  0.00    -0.246 OA
BRANCH  34  36
ATOM     36  C   UNL A   1      43.733  24.960  26.390  1.00  0.00     0.060 A 
ATOM     37  C   UNL A   1      43.786  26.304  25.989  1.00  0.00     0.016 A 
ATOM     38  C   UNL A   1      43.015  24.592  27.533  1.00  0.00     0.016 A 
ATOM     39  C   UNL A   1      43.163  27.289  26.756  1.00  0.00     0.010 A 
ATOM     40  C   UNL A   1      42.391  25.571  28.295  1.00  0.00     0.010 A 
ATOM     41  C   UNL A   1      42.501  26.923  27.933  1.00  0.00    -0.014 A 
BRANCH  41  42
ATOM     42  C   UNL A   1      42.122  27.922  28.951  1.00  0.00     0.031 A 
ATOM     43  C   UNL A   1      42.870  27.886  30.251  1.00  0.00     0.074 A 
ATOM     44  C   UNL A   1      41.059  28.723  28.779  1.00  0.00     0.049 A 
ATOM     45  N   UNL A   1      42.583  28.445  31.394  1.00  0.00    -0.248 NA
ATOM     46  C   UNL A   1      44.094  27.065  30.265  1.00  0.00     0.031 C 
ATOM     47  C   UNL A   1      40.270  28.830  27.555  1.00  0.00     0.029 A 
ATOM     48  N   UNL A   1      40.432  29.557  29.668  1.00  0.00    -0.354 N 
ATOM     49  C   UNL A   1      43.567  28.013  32.273  1.00  0.00     0.074 A 
ATOM     50  C   UNL A   1      44.444  27.130  31.539  1.00  0.00     0.031 C 
ATOM     51  C   UNL A   1      39.230  29.652  27.784  1.00  0.00     0.029 A 
ATOM     52  C   UNL A   1      39.264  30.087  29.178  1.00  0.00     0.049 A 
ATOM     53  H   UNL A   1      40.783  29.755  30.565  1.00  0.00     0.167 HD
ATOM     54  C   UNL A   1      43.719  28.323  33.582  1.00  0.00     0.037 A 
ATOM     55  C   UNL A   1      38.312  30.803  29.807  1.00  0.00     0.037 A 
ATOM     56  C   UNL A   1      42.832  29.200  34.294  1.00  0.00     0.049 A 
ATOM     57  C   UNL A   1      38.485  31.128  31.267  1.00  0.00     0.074 A 
ATOM     58  C   UNL A   1      42.910  29.631  35.605  1.00  0.00     0.029 A 
ATOM     59  N   UNL A   1      41.690  29.771  33.748  1.00  0.00    -0.354 N 
ATOM     60  N   UNL A   1      39.441  30.760  32.087  1.00  0.00    -0.248 NA
ATOM     61  C   UNL A   1      37.453  31.968  31.889  1.00  0.00     0.031 C 
ATOM     62  C   UNL A   1      41.788  30.425  35.867  1.00  0.00     0.029 A 
ATOM     63  C   UNL A   1      41.041  30.532  34.702  1.00  0.00     0.049 A 
ATOM     64  H   UNL A   1      41.388  29.651  32.819  1.00  0.00     0.167 HD
ATOM     65  C   UNL A   1      39.143  31.345  33.312  1.00  0.00     0.074 A 
ATOM     66  C   UNL A   1      37.916  32.092  33.126  1.00  0.00     0.031 C 
ATOM     67  C   UNL A   1      39.824  31.275  34.482  1.00  0.00     0.037 A 
BRANCH  54  68
ATOM     68  C   UNL A   1      44.859  27.674  34.310  1.00  0.00     0.057 A 
ATOM     69  C   UNL A   1      44.732  26.427  34.935  1.00  0.00     0.134 A 
ATOM     70  C   UNL A   1      46.096  28.323  34.415  1.00  0.00     0.134 A 
ATOM     71  F   UNL A   1      43.567  25.761  34.893  1.00  0.00    -0.206 F 
ATOM     72  C   UNL A   1      45.778  25.867  35.672  1.00  0.00     0.040 A 
ATOM     73  C   UNL A   1      47.159  27.760  35.123  1.00  0.00     0.040 A 
ATOM     74  F   UNL A   1      46.289  29.521  33.842  1.00  0.00    -0.206 F 
ATOM     75  C   UNL A   1      46.997  26.533  35.764  1.00  0.00     0.006 A 
ENDBRANCH  54  68
BRANCH  55  76
ATOM     76  C   UNL A   1      37.113  31.244  29.053  1.00  0.00     0.057 A 
ATOM     77  C   UNL A   1      36.054  30.365  28.804  1.00  0.00     0.134 A 
ATOM     78  C   UNL A   1      36.978  32.564  28.603  1.00  0.00     0.134 A 
ATOM     79  F   UNL A   1      36.133  29.085  29.195  1.00  0.00    -0.206 F 
ATOM     80  C   UNL A   1      34.901  30.781  28.135  1.00  0.00     0.040 A 
ATOM     81  C   UNL A   1      35.822  32.998  27.951  1.00  0.00     0.040 A 
ATOM     82  F   UNL A   1      37.955  33.456  28.817  1.00  0.00    -0.206 F 
ATOM     83  C   UNL A   1      34.779  32.105  27.714  1.00  0.00     0.006 A 
ENDBRANCH  55  76
BRANCH  67  84
ATOM     84  C   UNL A   1      39.289  32.063  35.642  1.00  0.00     0.057 A 
ATOM     85  C   UNL A   1      39.614  33.410  35.836  1.00  0.00     0.134 A 
ATOM     86  C   UNL A   1      38.372  31.481  36.527  1.00  0.00     0.134 A 
ATOM     87  F   UNL A   1      40.493  34.021  35.028  1.00  0.00    -0.206 F 
ATOM     88  C   UNL A   1      39.053  34.150  36.878  1.00  0.00     0.040 A 
ATOM     89  C   UNL A   1      37.785  32.216  37.556  1.00  0.00     0.040 A 
ATOM     90  F   UNL A   1      38.011  30.196  36.387  1.00  0.00    -0.206 F 
ATOM     91  C   UNL A   1      38.127  33.555  37.735  1.00  0.00     0.006 A 
ENDBRANCH  67  84
ENDBRANCH  41  42
ENDBRANCH  34  36
ENDBRANCH  33  34
ENDBRANCH  32  33
ENDBRANCH  31  32
ENDBRANCH  30  31
ENDBRANCH   1  30
TORSDOF 18
ENDMDL
