MODEL 1
REMARK VINA RESULT:     -11.4      0.000      0.000
REMARK SMILES C/C(=N\[NH+]=C1\NC(=O)[C@H](CC(=O)OCCOCCOC(=O)c2ccc(-c3c4nc(c(-c5c(F)cccc5F)c5ccc([nH]5)c(-c5c(F)cccc5F)c5nc(c(-c6c(F)cccc6F)c6ccc3[nH]6)C=C5)C=C4)cc2)S1)c1ccc([N+](=O)[O-])cc1
REMARK SMILES IDX 15 1 14 2 13 3 11 4 12 5 10 6 9 7 4 8 5 9 6 11 76 12 7 13
REMARK SMILES IDX 8 15 3 16 1 17 2 18 77 19 78 20 85 21 79 22 84 23 80 24
REMARK SMILES IDX 81 25 82 26 83 27 16 28 17 29 18 30 19 31 20 32 21 33 22 34
REMARK SMILES IDX 23 35 75 36 24 37 74 38 25 39 26 40 27 41 68 42 28 43 73 44
REMARK SMILES IDX 67 45 69 46 29 47 72 48 66 49 65 50 30 52 56 53 39 54 55 55
REMARK SMILES IDX 40 56 43 57 54 58 70 59 41 60 42 61 53 63 71 64 44 65 31 66
REMARK SMILES IDX 32 67 37 68 33 69 34 70 36 71 38 72 35 73 57 74 58 75 63 76
REMARK SMILES IDX 59 77 60 78 62 79 64 80 61 81 45 82 46 83 51 84 47 85 48 86
REMARK SMILES IDX 50 87 52 88 49 89
REMARK H PARENT 4 10 6 14 69 51 43 62
REMARK Flexibility Score: inf
ROOT
ATOM      1  C   UNL A   1      46.578  19.641  24.761  1.00  0.00     0.202 C 
ENDROOT
BRANCH   1   2
ATOM      2  C   UNL A   1      46.001  18.611  25.735  1.00  0.00     0.261 C 
BRANCH   2   3
ATOM      3  O   UNL A   1      44.746  18.086  25.257  1.00  0.00    -0.463 OA
BRANCH   3   4
ATOM      4  C   UNL A   1      43.652  18.266  26.031  1.00  0.00     0.307 C 
ATOM      5  O   UNL A   1      43.370  17.610  27.023  1.00  0.00    -0.252 OA
BRANCH   4   6
ATOM      6  C   UNL A   1      42.790  19.385  25.503  1.00  0.00     0.150 C 
BRANCH   6   7
ATOM      7  C   UNL A   1      41.828  19.931  26.542  1.00  0.00     0.184 C 
ATOM      8  N   UNL A   1      38.814  22.355  26.521  1.00  0.00    -0.142 N 
ATOM      9  C   UNL A   1      39.900  21.661  26.457  1.00  0.00     0.337 C 
ATOM     10  H   UNL A   1      38.782  23.231  26.968  1.00  0.00     0.343 HD
ATOM     11  N   UNL A   1      41.046  22.154  26.971  1.00  0.00    -0.202 N 
ATOM     12  S   UNL A   1      40.146  20.065  25.822  1.00  0.00    -0.020 SA
ATOM     13  C   UNL A   1      42.141  21.346  27.015  1.00  0.00     0.322 C 
ATOM     14  H   UNL A   1      41.090  23.078  27.306  1.00  0.00     0.316 HD
ATOM     15  O   UNL A   1      43.212  21.730  27.463  1.00  0.00    -0.246 OA
BRANCH   8  16
ATOM     16  N   UNL A   1      37.694  21.792  25.922  1.00  0.00    -0.090 NA
ATOM     17  C   UNL A   1      36.613  24.033  26.151  1.00  0.00     0.071 C 
ATOM     18  C   UNL A   1      36.686  22.586  25.696  1.00  0.00     0.088 C 
BRANCH  18  19
ATOM     19  C   UNL A   1      35.492  22.015  24.992  1.00  0.00    -0.000 A 
ATOM     20  C   UNL A   1      35.176  20.659  25.176  1.00  0.00     0.017 A 
ATOM     21  C   UNL A   1      34.707  22.792  24.130  1.00  0.00     0.017 A 
ATOM     22  C   UNL A   1      34.091  20.082  24.510  1.00  0.00     0.086 A 
ATOM     23  C   UNL A   1      33.623  22.221  23.453  1.00  0.00     0.086 A 
ATOM     24  C   UNL A   1      33.320  20.867  23.645  1.00  0.00     0.269 A 
BRANCH  24  25
ATOM     25  N   UNL A   1      32.188  20.267  22.925  1.00  0.00     0.062 N 
ATOM     26  O   UNL A   1      31.670  20.926  22.014  1.00  0.00    -0.258 OA
ATOM     27  O   UNL A   1      31.820  19.137  23.275  1.00  0.00    -0.258 OA
ENDBRANCH  24  25
ENDBRANCH  18  19
ENDBRANCH   8  16
ENDBRANCH   6   7
ENDBRANCH   4   6
ENDBRANCH   3   4
ENDBRANCH   2   3
ENDBRANCH   1   2
BRANCH   1  28
ATOM     28  O   UNL A   1      45.617  20.538  24.201  1.00  0.00    -0.374 OA
BRANCH  28  29
ATOM     29  C   UNL A   1      45.563  21.837  24.788  1.00  0.00     0.202 C 
BRANCH  29  30
ATOM     30  C   UNL A   1      44.930  22.919  23.905  1.00  0.00     0.261 C 
BRANCH  30  31
ATOM     31  O   UNL A   1      44.062  23.772  24.673  1.00  0.00    -0.460 OA
BRANCH  31  32
ATOM     32  C   UNL A   1      44.632  24.925  25.088  1.00  0.00     0.338 C 
ATOM     33  O   UNL A   1      45.697  25.398  24.710  1.00  0.00    -0.246 OA
BRANCH  32  34
ATOM     34  C   UNL A   1      43.719  25.673  25.974  1.00  0.00     0.060 A 
ATOM     35  C   UNL A   1      44.062  27.001  26.258  1.00  0.00     0.016 A 
ATOM     36  C   UNL A   1      42.608  25.084  26.583  1.00  0.00     0.016 A 
ATOM     37  C   UNL A   1      43.341  27.720  27.206  1.00  0.00     0.010 A 
ATOM     38  C   UNL A   1      41.885  25.810  27.539  1.00  0.00     0.010 A 
ATOM     39  C   UNL A   1      42.277  27.115  27.888  1.00  0.00    -0.014 A 
BRANCH  39  40
ATOM     40  C   UNL A   1      41.709  27.807  29.072  1.00  0.00     0.031 A 
ATOM     41  C   UNL A   1      42.405  27.678  30.400  1.00  0.00     0.074 A 
ATOM     42  C   UNL A   1      40.640  28.615  28.951  1.00  0.00     0.049 A 
ATOM     43  N   UNL A   1      42.132  28.257  31.542  1.00  0.00    -0.248 NA
ATOM     44  C   UNL A   1      43.569  26.777  30.446  1.00  0.00     0.031 C 
ATOM     45  C   UNL A   1      39.895  28.851  27.717  1.00  0.00     0.029 A 
ATOM     46  N   UNL A   1      40.007  29.398  29.885  1.00  0.00    -0.354 N 
ATOM     47  C   UNL A   1      43.088  27.795  32.439  1.00  0.00     0.074 A 
ATOM     48  C   UNL A   1      43.925  26.858  31.719  1.00  0.00     0.031 C 
ATOM     49  C   UNL A   1      38.906  29.727  27.968  1.00  0.00     0.029 A 
ATOM     50  C   UNL A   1      38.939  30.099  29.381  1.00  0.00     0.049 A 
ATOM     51  H   UNL A   1      40.292  29.452  30.826  1.00  0.00     0.167 HD
ATOM     52  C   UNL A   1      43.267  28.133  33.738  1.00  0.00     0.037 A 
ATOM     53  C   UNL A   1      38.085  30.942  29.993  1.00  0.00     0.037 A 
ATOM     54  C   UNL A   1      42.442  29.067  34.457  1.00  0.00     0.049 A 
ATOM     55  C   UNL A   1      38.272  31.259  31.454  1.00  0.00     0.074 A 
ATOM     56  C   UNL A   1      42.557  29.486  35.772  1.00  0.00     0.029 A 
ATOM     57  N   UNL A   1      41.343  29.723  33.924  1.00  0.00    -0.354 N 
ATOM     58  N   UNL A   1      39.200  30.842  32.281  1.00  0.00    -0.248 NA
ATOM     59  C   UNL A   1      37.294  32.173  32.062  1.00  0.00     0.031 C 
ATOM     60  C   UNL A   1      41.500  30.361  36.046  1.00  0.00     0.029 A 
ATOM     61  C   UNL A   1      40.755  30.524  34.889  1.00  0.00     0.049 A 
ATOM     62  H   UNL A   1      41.026  29.631  32.995  1.00  0.00     0.167 HD
ATOM     63  C   UNL A   1      38.933  31.460  33.496  1.00  0.00     0.074 A 
ATOM     64  C   UNL A   1      37.768  32.296  33.293  1.00  0.00     0.031 C 
ATOM     65  C   UNL A   1      39.593  31.348  34.675  1.00  0.00     0.037 A 
BRANCH  52  66
ATOM     66  C   UNL A   1      44.395  27.469  34.471  1.00  0.00     0.057 A 
ATOM     67  C   UNL A   1      44.234  26.238  35.120  1.00  0.00     0.134 A 
ATOM     68  C   UNL A   1      45.667  28.056  34.507  1.00  0.00     0.134 A 
ATOM     69  F   UNL A   1      43.038  25.629  35.137  1.00  0.00    -0.206 F 
ATOM     70  C   UNL A   1      45.290  25.626  35.799  1.00  0.00     0.040 A 
ATOM     71  C   UNL A   1      46.736  27.443  35.161  1.00  0.00     0.040 A 
ATOM     72  F   UNL A   1      45.890  29.233  33.903  1.00  0.00    -0.206 F 
ATOM     73  C   UNL A   1      46.547  26.227  35.815  1.00  0.00     0.006 A 
ENDBRANCH  52  66
BRANCH  53  74
ATOM     74  C   UNL A   1      36.969  31.552  29.229  1.00  0.00     0.057 A 
ATOM     75  C   UNL A   1      37.036  32.873  28.770  1.00  0.00     0.134 A 
ATOM     76  C   UNL A   1      35.793  30.837  28.968  1.00  0.00     0.134 A 
ATOM     77  F   UNL A   1      38.125  33.617  29.012  1.00  0.00    -0.206 F 
ATOM     78  C   UNL A   1      35.968  33.467  28.095  1.00  0.00     0.040 A 
ATOM     79  C   UNL A   1      34.729  31.410  28.271  1.00  0.00     0.040 A 
ATOM     80  F   UNL A   1      35.666  29.567  29.383  1.00  0.00    -0.206 F 
ATOM     81  C   UNL A   1      34.812  32.732  27.839  1.00  0.00     0.006 A 
ENDBRANCH  53  74
BRANCH  65  82
ATOM     82  C   UNL A   1      39.084  32.165  35.827  1.00  0.00     0.057 A 
ATOM     83  C   UNL A   1      39.458  33.504  36.007  1.00  0.00     0.134 A 
ATOM     84  C   UNL A   1      38.195  31.613  36.758  1.00  0.00     0.134 A 
ATOM     85  F   UNL A   1      40.315  34.090  35.158  1.00  0.00    -0.206 F 
ATOM     86  C   UNL A   1      38.991  34.253  37.089  1.00  0.00     0.040 A 
ATOM     87  C   UNL A   1      37.700  32.361  37.829  1.00  0.00     0.040 A 
ATOM     88  F   UNL A   1      37.787  30.340  36.641  1.00  0.00    -0.206 F 
ATOM     89  C   UNL A   1      38.105  33.682  38.001  1.00  0.00     0.006 A 
ENDBRANCH  65  82
ENDBRANCH  39  40
ENDBRANCH  32  34
ENDBRANCH  31  32
ENDBRANCH  30  31
ENDBRANCH  29  30
ENDBRANCH  28  29
ENDBRANCH   1  28
TORSDOF 18
ENDMDL
MODEL 2
REMARK VINA RESULT:     -10.6      5.316     10.948
REMARK SMILES C/C(=N\[NH+]=C1\NC(=O)[C@H](CC(=O)OCCOCCOC(=O)c2ccc(-c3c4nc(c(-c5c(F)cccc5F)c5ccc([nH]5)c(-c5c(F)cccc5F)c5nc(c(-c6c(F)cccc6F)c6ccc3[nH]6)C=C5)C=C4)cc2)S1)c1ccc([N+](=O)[O-])cc1
REMARK SMILES IDX 15 1 14 2 13 3 11 4 12 5 10 6 9 7 4 8 5 9 6 11 76 12 7 13
REMARK SMILES IDX 8 15 3 16 1 17 2 18 77 19 78 20 85 21 79 22 84 23 80 24
REMARK SMILES IDX 81 25 82 26 83 27 16 28 17 29 18 30 19 31 20 32 21 33 22 34
REMARK SMILES IDX 23 35 75 36 24 37 74 38 25 39 26 40 27 41 68 42 28 43 73 44
REMARK SMILES IDX 67 45 69 46 29 47 72 48 66 49 65 50 30 52 56 53 39 54 55 55
REMARK SMILES IDX 40 56 43 57 54 58 70 59 41 60 42 61 53 63 71 64 44 65 31 66
REMARK SMILES IDX 32 67 37 68 33 69 34 70 36 71 38 72 35 73 57 74 58 75 63 76
REMARK SMILES IDX 59 77 60 78 62 79 64 80 61 81 45 82 46 83 51 84 47 85 48 86
REMARK SMILES IDX 50 87 52 88 49 89
REMARK H PARENT 4 10 6 14 69 51 43 62
REMARK Flexibility Score: inf
ROOT
ATOM      1  C   UNL A   1      33.930  31.954  27.740  1.00  0.00     0.202 C 
ENDROOT
BRANCH   1   2
ATOM      2  C   UNL A   1      33.904  30.521  27.204  1.00  0.00     0.261 C 
BRANCH   2   3
ATOM      3  O   UNL A   1      33.212  30.447  25.942  1.00  0.00    -0.463 OA
BRANCH   3   4
ATOM      4  C   UNL A   1      32.111  29.665  25.871  1.00  0.00     0.307 C 
ATOM      5  O   UNL A   1      31.611  29.059  26.808  1.00  0.00    -0.252 OA
BRANCH   4   6
ATOM      6  C   UNL A   1      31.570  29.611  24.464  1.00  0.00     0.150 C 
BRANCH   6   7
ATOM      7  C   UNL A   1      31.128  28.218  24.054  1.00  0.00     0.184 C 
ATOM      8  N   UNL A   1      32.629  25.350  21.938  1.00  0.00    -0.142 N 
ATOM      9  C   UNL A   1      32.153  26.399  22.519  1.00  0.00     0.337 C 
ATOM     10  H   UNL A   1      32.265  25.016  21.086  1.00  0.00     0.343 HD
ATOM     11  N   UNL A   1      31.161  27.101  21.936  1.00  0.00    -0.202 N 
ATOM     12  S   UNL A   1      32.569  27.083  24.060  1.00  0.00    -0.020 SA
ATOM     13  C   UNL A   1      30.584  28.119  22.634  1.00  0.00     0.322 C 
ATOM     14  H   UNL A   1      30.859  26.883  21.025  1.00  0.00     0.316 HD
ATOM     15  O   UNL A   1      29.683  28.798  22.163  1.00  0.00    -0.246 OA
BRANCH   8  16
ATOM     16  N   UNL A   1      33.683  24.718  22.586  1.00  0.00    -0.090 NA
ATOM     17  C   UNL A   1      32.225  22.693  22.697  1.00  0.00     0.071 C 
ATOM     18  C   UNL A   1      33.520  23.462  22.891  1.00  0.00     0.088 C 
BRANCH  18  19
ATOM     19  C   UNL A   1      34.669  22.744  23.531  1.00  0.00    -0.000 A 
ATOM     20  C   UNL A   1      35.978  23.175  23.260  1.00  0.00     0.017 A 
ATOM     21  C   UNL A   1      34.470  21.635  24.365  1.00  0.00     0.017 A 
ATOM     22  C   UNL A   1      37.077  22.510  23.812  1.00  0.00     0.086 A 
ATOM     23  C   UNL A   1      35.565  20.959  24.915  1.00  0.00     0.086 A 
ATOM     24  C   UNL A   1      36.865  21.398  24.635  1.00  0.00     0.269 A 
BRANCH  24  25
ATOM     25  N   UNL A   1      38.013  20.680  25.205  1.00  0.00     0.062 N 
ATOM     26  O   UNL A   1      38.088  19.461  25.005  1.00  0.00    -0.258 OA
ATOM     27  O   UNL A   1      38.837  21.339  25.854  1.00  0.00    -0.258 OA
ENDBRANCH  24  25
ENDBRANCH  18  19
ENDBRANCH   8  16
ENDBRANCH   6   7
ENDBRANCH   4   6
ENDBRANCH   3   4
ENDBRANCH   2   3
ENDBRANCH   1   2
BRANCH   1  28
ATOM     28  O   UNL A   1      35.185  32.624  27.596  1.00  0.00    -0.374 OA
BRANCH  28  29
ATOM     29  C   UNL A   1      35.862  32.943  28.809  1.00  0.00     0.202 C 
BRANCH  29  30
ATOM     30  C   UNL A   1      35.348  32.204  30.050  1.00  0.00     0.261 C 
BRANCH  30  31
ATOM     31  O   UNL A   1      35.648  30.798  29.976  1.00  0.00    -0.460 OA
BRANCH  31  32
ATOM     32  C   UNL A   1      36.469  30.347  30.951  1.00  0.00     0.338 C 
ATOM     33  O   UNL A   1      36.248  30.343  32.156  1.00  0.00    -0.246 OA
BRANCH  32  34
ATOM     34  C   UNL A   1      37.654  29.685  30.374  1.00  0.00     0.060 A 
ATOM     35  C   UNL A   1      38.561  29.114  31.277  1.00  0.00     0.016 A 
ATOM     36  C   UNL A   1      37.929  29.688  29.003  1.00  0.00     0.016 A 
ATOM     37  C   UNL A   1      39.776  28.612  30.822  1.00  0.00     0.010 A 
ATOM     38  C   UNL A   1      39.155  29.184  28.549  1.00  0.00     0.010 A 
ATOM     39  C   UNL A   1      40.103  28.687  29.461  1.00  0.00    -0.014 A 
BRANCH  39  40
ATOM     40  C   UNL A   1      41.499  28.396  29.051  1.00  0.00     0.031 A 
ATOM     41  C   UNL A   1      41.847  27.016  28.562  1.00  0.00     0.074 A 
ATOM     42  C   UNL A   1      42.428  29.370  29.025  1.00  0.00     0.049 A 
ATOM     43  N   UNL A   1      42.978  26.564  28.082  1.00  0.00    -0.248 NA
ATOM     44  C   UNL A   1      40.774  26.010  28.619  1.00  0.00     0.031 C 
ATOM     45  C   UNL A   1      42.212  30.753  29.441  1.00  0.00     0.029 A 
ATOM     46  N   UNL A   1      43.738  29.339  28.616  1.00  0.00    -0.354 N 
ATOM     47  C   UNL A   1      42.752  25.227  27.777  1.00  0.00     0.074 A 
ATOM     48  C   UNL A   1      41.389  24.929  28.163  1.00  0.00     0.031 C 
ATOM     49  C   UNL A   1      43.351  31.444  29.260  1.00  0.00     0.029 A 
ATOM     50  C   UNL A   1      44.378  30.548  28.732  1.00  0.00     0.049 A 
ATOM     51  H   UNL A   1      44.176  28.528  28.271  1.00  0.00     0.167 HD
ATOM     52  C   UNL A   1      43.595  24.331  27.210  1.00  0.00     0.037 A 
ATOM     53  C   UNL A   1      45.650  30.890  28.447  1.00  0.00     0.037 A 
ATOM     54  C   UNL A   1      44.949  24.622  26.820  1.00  0.00     0.049 A 
ATOM     55  C   UNL A   1      46.585  29.860  27.869  1.00  0.00     0.074 A 
ATOM     56  C   UNL A   1      45.874  23.783  26.221  1.00  0.00     0.029 A 
ATOM     57  N   UNL A   1      45.576  25.846  26.995  1.00  0.00    -0.354 N 
ATOM     58  N   UNL A   1      46.349  28.609  27.555  1.00  0.00    -0.248 NA
ATOM     59  C   UNL A   1      47.962  30.297  27.598  1.00  0.00     0.031 C 
ATOM     60  C   UNL A   1      47.074  24.488  26.077  1.00  0.00     0.029 A 
ATOM     61  C   UNL A   1      46.882  25.779  26.540  1.00  0.00     0.049 A 
ATOM     62  H   UNL A   1      45.154  26.646  27.387  1.00  0.00     0.167 HD
ATOM     63  C   UNL A   1      47.537  28.118  27.028  1.00  0.00     0.074 A 
ATOM     64  C   UNL A   1      48.487  29.212  27.047  1.00  0.00     0.031 C 
ATOM     65  C   UNL A   1      47.818  26.874  26.569  1.00  0.00     0.037 A 
BRANCH  52  66
ATOM     66  C   UNL A   1      43.076  22.939  26.995  1.00  0.00     0.057 A 
ATOM     67  C   UNL A   1      42.882  22.049  28.059  1.00  0.00     0.134 A 
ATOM     68  C   UNL A   1      42.742  22.493  25.710  1.00  0.00     0.134 A 
ATOM     69  F   UNL A   1      43.197  22.408  29.313  1.00  0.00    -0.206 F 
ATOM     70  C   UNL A   1      42.397  20.756  27.850  1.00  0.00     0.040 A 
ATOM     71  C   UNL A   1      42.232  21.213  25.491  1.00  0.00     0.040 A 
ATOM     72  F   UNL A   1      42.900  23.297  24.648  1.00  0.00    -0.206 F 
ATOM     73  C   UNL A   1      42.065  20.338  26.563  1.00  0.00     0.006 A 
ENDBRANCH  52  66
BRANCH  53  74
ATOM     74  C   UNL A   1      46.122  32.273  28.704  1.00  0.00     0.057 A 
ATOM     75  C   UNL A   1      46.052  33.262  27.716  1.00  0.00     0.134 A 
ATOM     76  C   UNL A   1      46.685  32.630  29.936  1.00  0.00     0.134 A 
ATOM     77  F   UNL A   1      45.548  32.973  26.507  1.00  0.00    -0.206 F 
ATOM     78  C   UNL A   1      46.541  34.551  27.936  1.00  0.00     0.040 A 
ATOM     79  C   UNL A   1      47.153  33.922  30.178  1.00  0.00     0.040 A 
ATOM     80  F   UNL A   1      46.782  31.727  30.924  1.00  0.00    -0.206 F 
ATOM     81  C   UNL A   1      47.089  34.885  29.173  1.00  0.00     0.006 A 
ENDBRANCH  53  74
BRANCH  65  82
ATOM     82  C   UNL A   1      49.199  26.638  26.029  1.00  0.00     0.057 A 
ATOM     83  C   UNL A   1      49.546  26.972  24.712  1.00  0.00     0.134 A 
ATOM     84  C   UNL A   1      50.200  26.086  26.839  1.00  0.00     0.134 A 
ATOM     85  F   UNL A   1      48.632  27.493  23.880  1.00  0.00    -0.206 F 
ATOM     86  C   UNL A   1      50.829  26.736  24.213  1.00  0.00     0.040 A 
ATOM     87  C   UNL A   1      51.494  25.871  26.359  1.00  0.00     0.040 A 
ATOM     88  F   UNL A   1      49.940  25.752  28.112  1.00  0.00    -0.206 F 
ATOM     89  C   UNL A   1      51.808  26.189  25.040  1.00  0.00     0.006 A 
ENDBRANCH  65  82
ENDBRANCH  39  40
ENDBRANCH  32  34
ENDBRANCH  31  32
ENDBRANCH  30  31
ENDBRANCH  29  30
ENDBRANCH  28  29
ENDBRANCH   1  28
TORSDOF 18
ENDMDL
MODEL 3
REMARK VINA RESULT:     -10.5      0.635      6.114
REMARK SMILES C/C(=N\[NH+]=C1\NC(=O)[C@H](CC(=O)OCCOCCOC(=O)c2ccc(-c3c4nc(c(-c5c(F)cccc5F)c5ccc([nH]5)c(-c5c(F)cccc5F)c5nc(c(-c6c(F)cccc6F)c6ccc3[nH]6)C=C5)C=C4)cc2)S1)c1ccc([N+](=O)[O-])cc1
REMARK SMILES IDX 15 1 14 2 13 3 11 4 12 5 10 6 9 7 4 8 5 9 6 11 76 12 7 13
REMARK SMILES IDX 8 15 3 16 1 17 2 18 77 19 78 20 85 21 79 22 84 23 80 24
REMARK SMILES IDX 81 25 82 26 83 27 16 28 17 29 18 30 19 31 20 32 21 33 22 34
REMARK SMILES IDX 23 35 75 36 24 37 74 38 25 39 26 40 27 41 68 42 28 43 73 44
REMARK SMILES IDX 67 45 69 46 29 47 72 48 66 49 65 50 30 52 56 53 39 54 55 55
REMARK SMILES IDX 40 56 43 57 54 58 70 59 41 60 42 61 53 63 71 64 44 65 31 66
REMARK SMILES IDX 32 67 37 68 33 69 34 70 36 71 38 72 35 73 57 74 58 75 63 76
REMARK SMILES IDX 59 77 60 78 62 79 64 80 61 81 45 82 46 83 51 84 47 85 48 86
REMARK SMILES IDX 50 87 52 88 49 89
REMARK H PARENT 4 10 6 14 69 51 43 62
REMARK Flexibility Score: inf
ROOT
ATOM      1  C   UNL A   1      46.376  19.675  24.792  1.00  0.00     0.202 C 
ENDROOT
BRANCH   1   2
ATOM      2  C   UNL A   1      45.824  18.559  25.681  1.00  0.00     0.261 C 
BRANCH   2   3
ATOM      3  O   UNL A   1      44.536  18.109  25.215  1.00  0.00    -0.463 OA
BRANCH   3   4
ATOM      4  C   UNL A   1      43.481  18.244  26.049  1.00  0.00     0.307 C 
ATOM      5  O   UNL A   1      43.338  17.658  27.112  1.00  0.00    -0.252 OA
BRANCH   4   6
ATOM      6  C   UNL A   1      42.466  19.212  25.492  1.00  0.00     0.150 C 
BRANCH   6   7
ATOM      7  C   UNL A   1      41.543  19.777  26.555  1.00  0.00     0.184 C 
ATOM      8  N   UNL A   1      38.802  22.504  26.675  1.00  0.00    -0.142 N 
ATOM      9  C   UNL A   1      39.810  21.705  26.575  1.00  0.00     0.337 C 
ATOM     10  H   UNL A   1      38.851  23.342  27.189  1.00  0.00     0.343 HD
ATOM     11  N   UNL A   1      40.989  22.032  27.143  1.00  0.00    -0.202 N 
ATOM     12  S   UNL A   1      39.902  20.144  25.821  1.00  0.00    -0.020 SA
ATOM     13  C   UNL A   1      41.992  21.110  27.142  1.00  0.00     0.322 C 
ATOM     14  H   UNL A   1      41.122  22.917  27.550  1.00  0.00     0.316 HD
ATOM     15  O   UNL A   1      43.086  21.343  27.636  1.00  0.00    -0.246 OA
BRANCH   8  16
ATOM     16  N   UNL A   1      37.644  22.111  26.016  1.00  0.00    -0.090 NA
ATOM     17  C   UNL A   1      36.980  24.519  26.032  1.00  0.00     0.071 C 
ATOM     18  C   UNL A   1      36.818  23.055  25.664  1.00  0.00     0.088 C 
BRANCH  18  19
ATOM     19  C   UNL A   1      35.593  22.660  24.895  1.00  0.00    -0.000 A 
ATOM     20  C   UNL A   1      35.038  23.572  23.983  1.00  0.00     0.017 A 
ATOM     21  C   UNL A   1      34.974  21.418  25.088  1.00  0.00     0.017 A 
ATOM     22  C   UNL A   1      33.877  23.253  23.272  1.00  0.00     0.086 A 
ATOM     23  C   UNL A   1      33.808  21.093  24.385  1.00  0.00     0.086 A 
ATOM     24  C   UNL A   1      33.263  22.013  23.480  1.00  0.00     0.269 A 
BRANCH  24  25
ATOM     25  N   UNL A   1      32.033  21.675  22.752  1.00  0.00     0.062 N 
ATOM     26  O   UNL A   1      31.047  22.407  22.913  1.00  0.00    -0.258 OA
ATOM     27  O   UNL A   1      32.055  20.675  22.020  1.00  0.00    -0.258 OA
ENDBRANCH  24  25
ENDBRANCH  18  19
ENDBRANCH   8  16
ENDBRANCH   6   7
ENDBRANCH   4   6
ENDBRANCH   3   4
ENDBRANCH   2   3
ENDBRANCH   1   2
BRANCH   1  28
ATOM     28  O   UNL A   1      45.388  20.559  24.258  1.00  0.00    -0.374 OA
BRANCH  28  29
ATOM     29  C   UNL A   1      45.090  21.709  25.047  1.00  0.00     0.202 C 
BRANCH  29  30
ATOM     30  C   UNL A   1      44.857  22.997  24.248  1.00  0.00     0.261 C 
BRANCH  30  31
ATOM     31  O   UNL A   1      43.998  23.902  24.965  1.00  0.00    -0.460 OA
BRANCH  31  32
ATOM     32  C   UNL A   1      44.556  25.100  25.249  1.00  0.00     0.338 C 
ATOM     33  O   UNL A   1      45.542  25.598  24.718  1.00  0.00    -0.246 OA
BRANCH  32  34
ATOM     34  C   UNL A   1      43.723  25.854  26.206  1.00  0.00     0.060 A 
ATOM     35  C   UNL A   1      43.886  27.245  26.226  1.00  0.00     0.016 A 
ATOM     36  C   UNL A   1      42.870  25.229  27.119  1.00  0.00     0.016 A 
ATOM     37  C   UNL A   1      43.256  28.008  27.204  1.00  0.00     0.010 A 
ATOM     38  C   UNL A   1      42.238  26.000  28.105  1.00  0.00     0.010 A 
ATOM     39  C   UNL A   1      42.465  27.385  28.180  1.00  0.00    -0.014 A 
BRANCH  39  40
ATOM     40  C   UNL A   1      42.034  28.182  29.355  1.00  0.00     0.031 A 
ATOM     41  C   UNL A   1      40.754  28.970  29.275  1.00  0.00     0.074 A 
ATOM     42  C   UNL A   1      42.721  28.135  30.511  1.00  0.00     0.049 A 
ATOM     43  N   UNL A   1      40.148  29.669  30.202  1.00  0.00    -0.248 NA
ATOM     44  C   UNL A   1      40.061  28.967  27.976  1.00  0.00     0.031 C 
ATOM     45  C   UNL A   1      43.956  27.386  30.729  1.00  0.00     0.029 A 
ATOM     46  N   UNL A   1      42.462  28.723  31.724  1.00  0.00    -0.354 N 
ATOM     47  C   UNL A   1      39.005  30.184  29.602  1.00  0.00     0.074 A 
ATOM     48  C   UNL A   1      39.021  29.751  28.221  1.00  0.00     0.031 C 
ATOM     49  C   UNL A   1      44.347  27.555  32.004  1.00  0.00     0.029 A 
ATOM     50  C   UNL A   1      43.399  28.436  32.685  1.00  0.00     0.049 A 
ATOM     51  H   UNL A   1      41.678  29.296  31.889  1.00  0.00     0.167 HD
ATOM     52  C   UNL A   1      38.021  30.934  30.153  1.00  0.00     0.037 A 
ATOM     53  C   UNL A   1      43.483  28.840  33.967  1.00  0.00     0.037 A 
ATOM     54  C   UNL A   1      37.997  31.364  31.526  1.00  0.00     0.049 A 
ATOM     55  C   UNL A   1      42.404  29.720  34.542  1.00  0.00     0.074 A 
ATOM     56  C   UNL A   1      37.032  32.111  32.180  1.00  0.00     0.029 A 
ATOM     57  N   UNL A   1      38.988  31.089  32.456  1.00  0.00    -0.354 N 
ATOM     58  N   UNL A   1      41.312  30.172  33.973  1.00  0.00    -0.248 NA
ATOM     59  C   UNL A   1      42.568  30.139  35.941  1.00  0.00     0.031 C 
ATOM     60  C   UNL A   1      37.463  32.327  33.494  1.00  0.00     0.029 A 
ATOM     61  C   UNL A   1      38.671  31.673  33.672  1.00  0.00     0.049 A 
ATOM     62  H   UNL A   1      39.798  30.557  32.279  1.00  0.00     0.167 HD
ATOM     63  C   UNL A   1      40.649  30.905  34.949  1.00  0.00     0.074 A 
ATOM     64  C   UNL A   1      41.452  30.820  36.152  1.00  0.00     0.031 C 
ATOM     65  C   UNL A   1      39.480  31.586  34.860  1.00  0.00     0.037 A 
BRANCH  52  66
ATOM     66  C   UNL A   1      36.893  31.353  29.256  1.00  0.00     0.057 A 
ATOM     67  C   UNL A   1      35.846  30.484  28.928  1.00  0.00     0.134 A 
ATOM     68  C   UNL A   1      36.842  32.653  28.735  1.00  0.00     0.134 A 
ATOM     69  F   UNL A   1      35.843  29.221  29.382  1.00  0.00    -0.206 F 
ATOM     70  C   UNL A   1      34.799  30.883  28.094  1.00  0.00     0.040 A 
ATOM     71  C   UNL A   1      35.788  33.071  27.921  1.00  0.00     0.040 A 
ATOM     72  F   UNL A   1      37.812  33.537  29.013  1.00  0.00    -0.206 F 
ATOM     73  C   UNL A   1      34.766  32.183  27.593  1.00  0.00     0.006 A 
ENDBRANCH  52  66
BRANCH  53  74
ATOM     74  C   UNL A   1      44.634  28.420  34.805  1.00  0.00     0.057 A 
ATOM     75  C   UNL A   1      44.585  27.254  35.578  1.00  0.00     0.134 A 
ATOM     76  C   UNL A   1      45.800  29.193  34.876  1.00  0.00     0.134 A 
ATOM     77  F   UNL A   1      43.485  26.487  35.572  1.00  0.00    -0.206 F 
ATOM     78  C   UNL A   1      45.645  26.881  36.406  1.00  0.00     0.040 A 
ATOM     79  C   UNL A   1      46.877  28.818  35.679  1.00  0.00     0.040 A 
ATOM     80  F   UNL A   1      45.908  30.322  34.160  1.00  0.00    -0.206 F 
ATOM     81  C   UNL A   1      46.798  27.662  36.454  1.00  0.00     0.006 A 
ENDBRANCH  53  74
BRANCH  65  82
ATOM     82  C   UNL A   1      38.990  32.272  36.102  1.00  0.00     0.057 A 
ATOM     83  C   UNL A   1      38.170  31.620  37.034  1.00  0.00     0.134 A 
ATOM     84  C   UNL A   1      39.355  33.595  36.380  1.00  0.00     0.134 A 
ATOM     85  F   UNL A   1      37.774  30.355  36.823  1.00  0.00    -0.206 F 
ATOM     86  C   UNL A   1      37.707  32.270  38.179  1.00  0.00     0.040 A 
ATOM     87  C   UNL A   1      38.920  34.247  37.536  1.00  0.00     0.040 A 
ATOM     88  F   UNL A   1      40.145  34.276  35.536  1.00  0.00    -0.206 F 
ATOM     89  C   UNL A   1      38.086  33.586  38.435  1.00  0.00     0.006 A 
ENDBRANCH  65  82
ENDBRANCH  39  40
ENDBRANCH  32  34
ENDBRANCH  31  32
ENDBRANCH  30  31
ENDBRANCH  29  30
ENDBRANCH  28  29
ENDBRANCH   1  28
TORSDOF 18
ENDMDL
