MODEL 1
REMARK VINA RESULT:     -10.9      0.000      0.000
REMARK SMILES O=C(CNC(=O)c1cccs1)N[C@@H]1C=C[C@H](C(=O)OCCOCCOC(=O)c2ccc(-c3c4nc(c(-c5c(F)cccc5F)c5ccc([nH]5)c(-c5c(F)cccc5F)c5nc(c(-c6c(F)cccc6F)c6ccc3[nH]6)C=C5)C=C4)cc2)C1
REMARK SMILES IDX 21 1 20 2 19 3 17 4 18 5 16 6 13 7 14 8 82 9 15 10 12 11
REMARK SMILES IDX 1 12 2 13 3 15 4 16 5 17 6 19 7 20 8 21 11 22 9 23 10 24
REMARK SMILES IDX 22 25 23 26 24 27 25 28 26 29 27 30 28 31 29 32 81 33 30 34
REMARK SMILES IDX 80 35 31 36 32 37 33 38 74 39 34 40 79 41 73 42 75 43 35 44
REMARK SMILES IDX 78 45 72 46 71 47 36 49 62 50 45 51 61 52 46 53 49 54 60 55
REMARK SMILES IDX 76 56 47 57 48 58 59 60 77 61 50 62 37 63 38 64 43 65 39 66
REMARK SMILES IDX 40 67 42 68 44 69 41 70 63 71 64 72 69 73 65 74 66 75 68 76
REMARK SMILES IDX 70 77 67 78 51 79 52 80 57 81 53 82 54 83 56 84 58 85 55 86
REMARK H PARENT 12 14 4 18 75 48 49 59
REMARK Flexibility Score: inf
ROOT
ATOM      1  C   UNL A   1      40.715  20.813  26.857  1.00  0.00     0.202 C 
ENDROOT
BRANCH   1   2
ATOM      2  C   UNL A   1      39.779  21.997  26.606  1.00  0.00     0.261 C 
BRANCH   2   3
ATOM      3  O   UNL A   1      38.899  21.711  25.501  1.00  0.00    -0.463 OA
BRANCH   3   4
ATOM      4  C   UNL A   1      37.703  22.358  25.485  1.00  0.00     0.312 C 
ATOM      5  O   UNL A   1      37.448  23.366  26.135  1.00  0.00    -0.252 OA
BRANCH   4   6
ATOM      6  C   UNL A   1      36.724  21.771  24.472  1.00  0.00     0.124 C 
ATOM      7  C   UNL A   1      34.422  22.152  23.701  1.00  0.00     0.106 C 
ATOM      8  C   UNL A   1      34.477  21.136  24.789  1.00  0.00    -0.006 C 
ATOM      9  C   UNL A   1      35.835  22.757  23.697  1.00  0.00     0.048 C 
ATOM     10  C   UNL A   1      35.731  20.894  25.181  1.00  0.00    -0.014 C 
BRANCH   7  11
ATOM     11  N   UNL A   1      33.389  23.112  23.999  1.00  0.00    -0.348 N 
ATOM     12  O   UNL A   1      31.832  22.126  22.641  1.00  0.00    -0.273 OA
ATOM     13  C   UNL A   1      32.135  23.009  23.441  1.00  0.00     0.239 C 
ATOM     14  H   UNL A   1      33.585  23.858  24.613  1.00  0.00     0.164 HD
BRANCH  13  15
ATOM     15  C   UNL A   1      31.174  24.164  23.723  1.00  0.00     0.216 C 
BRANCH  15  16
ATOM     16  N   UNL A   1      30.615  24.215  25.064  1.00  0.00    -0.342 N 
ATOM     17  C   UNL A   1      30.349  25.353  25.783  1.00  0.00     0.261 C 
ATOM     18  H   UNL A   1      30.408  23.355  25.495  1.00  0.00     0.164 HD
ATOM     19  O   UNL A   1      29.474  25.299  26.645  1.00  0.00    -0.268 OA
BRANCH  17  20
ATOM     20  C   UNL A   1      31.100  26.551  25.480  1.00  0.00     0.092 A 
ATOM     21  C   UNL A   1      30.701  27.646  24.741  1.00  0.00     0.025 A 
ATOM     22  S   UNL A   1      32.640  26.795  26.195  1.00  0.00    -0.139 S 
ATOM     23  C   UNL A   1      31.695  28.667  24.720  1.00  0.00     0.012 A 
ATOM     24  C   UNL A   1      32.798  28.333  25.473  1.00  0.00     0.065 A 
ENDBRANCH  17  20
ENDBRANCH  15  16
ENDBRANCH  13  15
ENDBRANCH   7  11
ENDBRANCH   4   6
ENDBRANCH   3   4
ENDBRANCH   2   3
ENDBRANCH   1   2
BRANCH   1  25
ATOM     25  O   UNL A   1      41.668  20.599  25.813  1.00  0.00    -0.374 OA
BRANCH  25  26
ATOM     26  C   UNL A   1      43.009  20.966  26.131  1.00  0.00     0.202 C 
BRANCH  26  27
ATOM     27  C   UNL A   1      43.729  21.768  25.042  1.00  0.00     0.261 C 
BRANCH  27  28
ATOM     28  O   UNL A   1      43.148  23.072  24.875  1.00  0.00    -0.460 OA
BRANCH  28  29
ATOM     29  C   UNL A   1      44.009  24.113  24.998  1.00  0.00     0.338 C 
ATOM     30  O   UNL A   1      44.990  24.354  24.315  1.00  0.00    -0.246 OA
BRANCH  29  31
ATOM     31  C   UNL A   1      43.489  25.030  26.031  1.00  0.00     0.060 A 
ATOM     32  C   UNL A   1      44.008  26.325  26.138  1.00  0.00     0.016 A 
ATOM     33  C   UNL A   1      42.482  24.613  26.891  1.00  0.00     0.016 A 
ATOM     34  C   UNL A   1      43.512  27.206  27.112  1.00  0.00     0.010 A 
ATOM     35  C   UNL A   1      41.968  25.506  27.831  1.00  0.00     0.010 A 
ATOM     36  C   UNL A   1      42.481  26.809  27.975  1.00  0.00    -0.014 A 
BRANCH  36  37
ATOM     37  C   UNL A   1      41.970  27.674  29.085  1.00  0.00     0.031 A 
ATOM     38  C   UNL A   1      42.565  27.528  30.469  1.00  0.00     0.074 A 
ATOM     39  C   UNL A   1      40.926  28.515  28.922  1.00  0.00     0.049 A 
ATOM     40  N   UNL A   1      42.174  28.050  31.607  1.00  0.00    -0.248 NA
ATOM     41  C   UNL A   1      43.734  26.641  30.593  1.00  0.00     0.031 C 
ATOM     42  C   UNL A   1      40.205  28.760  27.673  1.00  0.00     0.029 A 
ATOM     43  N   UNL A   1      40.256  29.292  29.842  1.00  0.00    -0.354 N 
ATOM     44  C   UNL A   1      43.028  27.530  32.573  1.00  0.00     0.074 A 
ATOM     45  C   UNL A   1      43.888  26.578  31.905  1.00  0.00     0.031 C 
ATOM     46  C   UNL A   1      39.172  29.589  27.913  1.00  0.00     0.029 A 
ATOM     47  C   UNL A   1      39.154  29.936  29.331  1.00  0.00     0.049 A 
ATOM     48  H   UNL A   1      40.540  29.377  30.781  1.00  0.00     0.167 HD
ATOM     49  C   UNL A   1      43.143  27.850  33.884  1.00  0.00     0.037 A 
ATOM     50  C   UNL A   1      38.229  30.712  29.931  1.00  0.00     0.037 A 
ATOM     51  C   UNL A   1      42.360  28.857  34.547  1.00  0.00     0.049 A 
ATOM     52  C   UNL A   1      38.357  31.050  31.394  1.00  0.00     0.074 A 
ATOM     53  C   UNL A   1      42.505  29.352  35.831  1.00  0.00     0.029 A 
ATOM     54  N   UNL A   1      41.293  29.528  33.975  1.00  0.00    -0.354 N 
ATOM     55  N   UNL A   1      39.249  30.643  32.262  1.00  0.00    -0.248 NA
ATOM     56  C   UNL A   1      37.366  31.986  31.951  1.00  0.00     0.031 C 
ATOM     57  C   UNL A   1      41.499  30.299  36.050  1.00  0.00     0.029 A 
ATOM     58  C   UNL A   1      40.756  30.420  34.888  1.00  0.00     0.049 A 
ATOM     59  H   UNL A   1      40.964  29.391  33.057  1.00  0.00     0.167 HD
ATOM     60  C   UNL A   1      38.971  31.326  33.442  1.00  0.00     0.074 A 
ATOM     61  C   UNL A   1      37.816  32.156  33.186  1.00  0.00     0.031 C 
ATOM     62  C   UNL A   1      39.630  31.278  34.625  1.00  0.00     0.037 A 
BRANCH  49  63
ATOM     63  C   UNL A   1      44.199  27.138  34.678  1.00  0.00     0.057 A 
ATOM     64  C   UNL A   1      43.922  25.952  35.373  1.00  0.00     0.134 A 
ATOM     65  C   UNL A   1      45.510  27.625  34.730  1.00  0.00     0.134 A 
ATOM     66  F   UNL A   1      42.684  25.434  35.368  1.00  0.00    -0.206 F 
ATOM     67  C   UNL A   1      44.899  25.302  36.127  1.00  0.00     0.040 A 
ATOM     68  C   UNL A   1      46.505  26.964  35.453  1.00  0.00     0.040 A 
ATOM     69  F   UNL A   1      45.848  28.746  34.076  1.00  0.00    -0.206 F 
ATOM     70  C   UNL A   1      46.197  25.806  36.164  1.00  0.00     0.006 A 
ENDBRANCH  49  63
BRANCH  50  71
ATOM     71  C   UNL A   1      37.100  31.274  29.147  1.00  0.00     0.057 A 
ATOM     72  C   UNL A   1      37.114  32.606  28.718  1.00  0.00     0.134 A 
ATOM     73  C   UNL A   1      35.959  30.515  28.862  1.00  0.00     0.134 A 
ATOM     74  F   UNL A   1      38.171  33.388  28.985  1.00  0.00    -0.206 F 
ATOM     75  C   UNL A   1      36.022  33.176  28.063  1.00  0.00     0.040 A 
ATOM     76  C   UNL A   1      34.867  31.066  28.189  1.00  0.00     0.040 A 
ATOM     77  F   UNL A   1      35.888  29.231  29.243  1.00  0.00    -0.206 F 
ATOM     78  C   UNL A   1      34.893  32.404  27.796  1.00  0.00     0.006 A 
ENDBRANCH  50  71
BRANCH  62  79
ATOM     79  C   UNL A   1      39.184  32.205  35.716  1.00  0.00     0.057 A 
ATOM     80  C   UNL A   1      38.297  31.804  36.723  1.00  0.00     0.134 A 
ATOM     81  C   UNL A   1      39.697  33.507  35.789  1.00  0.00     0.134 A 
ATOM     82  F   UNL A   1      37.758  30.575  36.704  1.00  0.00    -0.206 F 
ATOM     83  C   UNL A   1      37.924  32.670  37.752  1.00  0.00     0.040 A 
ATOM     84  C   UNL A   1      39.353  34.373  36.829  1.00  0.00     0.040 A 
ATOM     85  F   UNL A   1      40.558  33.954  34.862  1.00  0.00    -0.206 F 
ATOM     86  C   UNL A   1      38.460  33.956  37.812  1.00  0.00     0.006 A 
ENDBRANCH  62  79
ENDBRANCH  36  37
ENDBRANCH  29  31
ENDBRANCH  28  29
ENDBRANCH  27  28
ENDBRANCH  26  27
ENDBRANCH  25  26
ENDBRANCH   1  25
TORSDOF 18
ENDMDL
MODEL 2
REMARK VINA RESULT:     -10.7      1.096      1.862
REMARK SMILES O=C(CNC(=O)c1cccs1)N[C@@H]1C=C[C@H](C(=O)OCCOCCOC(=O)c2ccc(-c3c4nc(c(-c5c(F)cccc5F)c5ccc([nH]5)c(-c5c(F)cccc5F)c5nc(c(-c6c(F)cccc6F)c6ccc3[nH]6)C=C5)C=C4)cc2)C1
REMARK SMILES IDX 21 1 20 2 19 3 17 4 18 5 16 6 13 7 14 8 82 9 15 10 12 11
REMARK SMILES IDX 1 12 2 13 3 15 4 16 5 17 6 19 7 20 8 21 11 22 9 23 10 24
REMARK SMILES IDX 22 25 23 26 24 27 25 28 26 29 27 30 28 31 29 32 81 33 30 34
REMARK SMILES IDX 80 35 31 36 32 37 33 38 74 39 34 40 79 41 73 42 75 43 35 44
REMARK SMILES IDX 78 45 72 46 71 47 36 49 62 50 45 51 61 52 46 53 49 54 60 55
REMARK SMILES IDX 76 56 47 57 48 58 59 60 77 61 50 62 37 63 38 64 43 65 39 66
REMARK SMILES IDX 40 67 42 68 44 69 41 70 63 71 64 72 69 73 65 74 66 75 68 76
REMARK SMILES IDX 70 77 67 78 51 79 52 80 57 81 53 82 54 83 56 84 58 85 55 86
REMARK H PARENT 12 14 4 18 75 48 49 59
REMARK Flexibility Score: inf
ROOT
ATOM      1  C   UNL A   1      40.401  21.047  26.700  1.00  0.00     0.202 C 
ENDROOT
BRANCH   1   2
ATOM      2  C   UNL A   1      39.372  22.009  26.102  1.00  0.00     0.261 C 
BRANCH   2   3
ATOM      3  O   UNL A   1      38.193  21.287  25.694  1.00  0.00    -0.463 OA
BRANCH   3   4
ATOM      4  C   UNL A   1      37.209  22.008  25.095  1.00  0.00     0.312 C 
ATOM      5  O   UNL A   1      37.381  22.771  24.150  1.00  0.00    -0.252 OA
BRANCH   4   6
ATOM      6  C   UNL A   1      35.820  21.684  25.640  1.00  0.00     0.124 C 
ATOM      7  C   UNL A   1      33.491  22.377  25.276  1.00  0.00     0.106 C 
ATOM      8  C   UNL A   1      34.136  23.166  26.362  1.00  0.00    -0.006 C 
ATOM      9  C   UNL A   1      34.663  21.621  24.630  1.00  0.00     0.048 C 
ATOM     10  C   UNL A   1      35.388  22.763  26.593  1.00  0.00    -0.014 C 
BRANCH   7  11
ATOM     11  N   UNL A   1      32.820  23.275  24.369  1.00  0.00    -0.348 N 
ATOM     12  O   UNL A   1      30.731  22.833  25.194  1.00  0.00    -0.273 OA
ATOM     13  C   UNL A   1      31.456  23.449  24.414  1.00  0.00     0.239 C 
ATOM     14  H   UNL A   1      33.349  23.774  23.704  1.00  0.00     0.164 HD
BRANCH  13  15
ATOM     15  C   UNL A   1      30.850  24.317  23.312  1.00  0.00     0.216 C 
BRANCH  15  16
ATOM     16  N   UNL A   1      31.767  24.769  22.279  1.00  0.00    -0.342 N 
ATOM     17  C   UNL A   1      32.472  25.946  22.287  1.00  0.00     0.261 C 
ATOM     18  H   UNL A   1      31.894  24.176  21.504  1.00  0.00     0.164 HD
ATOM     19  O   UNL A   1      33.524  25.992  21.651  1.00  0.00    -0.268 OA
BRANCH  17  20
ATOM     20  C   UNL A   1      31.950  27.058  23.048  1.00  0.00     0.092 A 
ATOM     21  C   UNL A   1      32.457  27.615  24.205  1.00  0.00     0.025 A 
ATOM     22  S   UNL A   1      30.612  27.948  22.449  1.00  0.00    -0.139 S 
ATOM     23  C   UNL A   1      31.704  28.748  24.627  1.00  0.00     0.012 A 
ATOM     24  C   UNL A   1      30.674  29.038  23.760  1.00  0.00     0.065 A 
ENDBRANCH  17  20
ENDBRANCH  15  16
ENDBRANCH  13  15
ENDBRANCH   7  11
ENDBRANCH   4   6
ENDBRANCH   3   4
ENDBRANCH   2   3
ENDBRANCH   1   2
BRANCH   1  25
ATOM     25  O   UNL A   1      41.357  20.560  25.755  1.00  0.00    -0.374 OA
BRANCH  25  26
ATOM     26  C   UNL A   1      42.719  20.658  26.165  1.00  0.00     0.202 C 
BRANCH  26  27
ATOM     27  C   UNL A   1      43.602  21.519  25.256  1.00  0.00     0.261 C 
BRANCH  27  28
ATOM     28  O   UNL A   1      42.990  22.788  24.974  1.00  0.00    -0.460 OA
BRANCH  28  29
ATOM     29  C   UNL A   1      43.828  23.856  24.994  1.00  0.00     0.338 C 
ATOM     30  O   UNL A   1      44.749  24.094  24.231  1.00  0.00    -0.246 OA
BRANCH  29  31
ATOM     31  C   UNL A   1      43.359  24.798  26.028  1.00  0.00     0.060 A 
ATOM     32  C   UNL A   1      43.915  26.080  26.106  1.00  0.00     0.016 A 
ATOM     33  C   UNL A   1      42.363  24.418  26.917  1.00  0.00     0.016 A 
ATOM     34  C   UNL A   1      43.468  26.985  27.081  1.00  0.00     0.010 A 
ATOM     35  C   UNL A   1      41.898  25.336  27.860  1.00  0.00     0.010 A 
ATOM     36  C   UNL A   1      42.449  26.626  27.975  1.00  0.00    -0.014 A 
BRANCH  36  37
ATOM     37  C   UNL A   1      41.989  27.518  29.086  1.00  0.00     0.031 A 
ATOM     38  C   UNL A   1      42.634  27.389  30.450  1.00  0.00     0.074 A 
ATOM     39  C   UNL A   1      40.950  28.369  28.946  1.00  0.00     0.049 A 
ATOM     40  N   UNL A   1      42.292  27.937  31.591  1.00  0.00    -0.248 NA
ATOM     41  C   UNL A   1      43.796  26.491  30.547  1.00  0.00     0.031 C 
ATOM     42  C   UNL A   1      40.186  28.600  27.720  1.00  0.00     0.029 A 
ATOM     43  N   UNL A   1      40.324  29.170  29.876  1.00  0.00    -0.354 N 
ATOM     44  C   UNL A   1      43.175  27.423  32.535  1.00  0.00     0.074 A 
ATOM     45  C   UNL A   1      43.998  26.449  31.854  1.00  0.00     0.031 C 
ATOM     46  C   UNL A   1      39.173  29.445  27.983  1.00  0.00     0.029 A 
ATOM     47  C   UNL A   1      39.211  29.819  29.394  1.00  0.00     0.049 A 
ATOM     48  H   UNL A   1      40.643  29.268  30.802  1.00  0.00     0.167 HD
ATOM     49  C   UNL A   1      43.342  27.766  33.834  1.00  0.00     0.037 A 
ATOM     50  C   UNL A   1      38.318  30.617  30.013  1.00  0.00     0.037 A 
ATOM     51  C   UNL A   1      42.597  28.795  34.507  1.00  0.00     0.049 A 
ATOM     52  C   UNL A   1      38.505  30.980  31.464  1.00  0.00     0.074 A 
ATOM     53  C   UNL A   1      42.794  29.311  35.775  1.00  0.00     0.029 A 
ATOM     54  N   UNL A   1      41.517  29.468  33.963  1.00  0.00    -0.354 N 
ATOM     55  N   UNL A   1      39.424  30.577  32.306  1.00  0.00    -0.248 NA
ATOM     56  C   UNL A   1      37.547  31.937  32.039  1.00  0.00     0.031 C 
ATOM     57  C   UNL A   1      41.808  30.275  36.014  1.00  0.00     0.029 A 
ATOM     58  C   UNL A   1      41.024  30.384  34.878  1.00  0.00     0.049 A 
ATOM     59  H   UNL A   1      41.152  29.319  33.060  1.00  0.00     0.167 HD
ATOM     60  C   UNL A   1      39.198  31.285  33.482  1.00  0.00     0.074 A 
ATOM     61  C   UNL A   1      38.043  32.125  33.253  1.00  0.00     0.031 C 
ATOM     62  C   UNL A   1      39.900  31.250  34.641  1.00  0.00     0.037 A 
BRANCH  49  63
ATOM     63  C   UNL A   1      44.418  27.056  34.602  1.00  0.00     0.057 A 
ATOM     64  C   UNL A   1      44.162  25.868  35.301  1.00  0.00     0.134 A 
ATOM     65  C   UNL A   1      45.729  27.547  34.624  1.00  0.00     0.134 A 
ATOM     66  F   UNL A   1      42.925  25.346  35.324  1.00  0.00    -0.206 F 
ATOM     67  C   UNL A   1      45.157  25.219  36.031  1.00  0.00     0.040 A 
ATOM     68  C   UNL A   1      46.742  26.887  35.323  1.00  0.00     0.040 A 
ATOM     69  F   UNL A   1      46.049  28.669  33.964  1.00  0.00    -0.206 F 
ATOM     70  C   UNL A   1      46.455  25.727  36.038  1.00  0.00     0.006 A 
ENDBRANCH  49  63
BRANCH  50  71
ATOM     71  C   UNL A   1      37.167  31.178  29.261  1.00  0.00     0.057 A 
ATOM     72  C   UNL A   1      36.047  30.391  28.967  1.00  0.00     0.134 A 
ATOM     73  C   UNL A   1      37.185  32.488  28.769  1.00  0.00     0.134 A 
ATOM     74  F   UNL A   1      35.987  29.121  29.392  1.00  0.00    -0.206 F 
ATOM     75  C   UNL A   1      35.000  30.874  28.182  1.00  0.00     0.040 A 
ATOM     76  C   UNL A   1      36.134  32.991  27.999  1.00  0.00     0.040 A 
ATOM     77  F   UNL A   1      38.228  33.292  29.022  1.00  0.00    -0.206 F 
ATOM     78  C   UNL A   1      35.042  32.179  27.695  1.00  0.00     0.006 A 
ENDBRANCH  50  71
BRANCH  62  79
ATOM     79  C   UNL A   1      39.505  32.203  35.730  1.00  0.00     0.057 A 
ATOM     80  C   UNL A   1      40.036  33.496  35.821  1.00  0.00     0.134 A 
ATOM     81  C   UNL A   1      38.535  31.836  36.672  1.00  0.00     0.134 A 
ATOM     82  F   UNL A   1      40.980  33.906  34.960  1.00  0.00    -0.206 F 
ATOM     83  C   UNL A   1      39.627  34.382  36.819  1.00  0.00     0.040 A 
ATOM     84  C   UNL A   1      38.099  32.722  37.658  1.00  0.00     0.040 A 
ATOM     85  F   UNL A   1      37.979  30.615  36.637  1.00  0.00    -0.206 F 
ATOM     86  C   UNL A   1      38.649  33.999  37.736  1.00  0.00     0.006 A 
ENDBRANCH  62  79
ENDBRANCH  36  37
ENDBRANCH  29  31
ENDBRANCH  28  29
ENDBRANCH  27  28
ENDBRANCH  26  27
ENDBRANCH  25  26
ENDBRANCH   1  25
TORSDOF 18
ENDMDL
MODEL 3
REMARK VINA RESULT:     -10.6      2.060      3.610
REMARK SMILES O=C(CNC(=O)c1cccs1)N[C@@H]1C=C[C@H](C(=O)OCCOCCOC(=O)c2ccc(-c3c4nc(c(-c5c(F)cccc5F)c5ccc([nH]5)c(-c5c(F)cccc5F)c5nc(c(-c6c(F)cccc6F)c6ccc3[nH]6)C=C5)C=C4)cc2)C1
REMARK SMILES IDX 21 1 20 2 19 3 17 4 18 5 16 6 13 7 14 8 82 9 15 10 12 11
REMARK SMILES IDX 1 12 2 13 3 15 4 16 5 17 6 19 7 20 8 21 11 22 9 23 10 24
REMARK SMILES IDX 22 25 23 26 24 27 25 28 26 29 27 30 28 31 29 32 81 33 30 34
REMARK SMILES IDX 80 35 31 36 32 37 33 38 74 39 34 40 79 41 73 42 75 43 35 44
REMARK SMILES IDX 78 45 72 46 71 47 36 49 62 50 45 51 61 52 46 53 49 54 60 55
REMARK SMILES IDX 76 56 47 57 48 58 59 60 77 61 50 62 37 63 38 64 43 65 39 66
REMARK SMILES IDX 40 67 42 68 44 69 41 70 63 71 64 72 69 73 65 74 66 75 68 76
REMARK SMILES IDX 70 77 67 78 51 79 52 80 57 81 53 82 54 83 56 84 58 85 55 86
REMARK H PARENT 12 14 4 18 75 48 49 59
REMARK Flexibility Score: inf
ROOT
ATOM      1  C   UNL A   1      40.667  21.296  27.345  1.00  0.00     0.202 C 
ENDROOT
BRANCH   1   2
ATOM      2  C   UNL A   1      40.003  21.528  25.987  1.00  0.00     0.261 C 
BRANCH   2   3
ATOM      3  O   UNL A   1      38.612  21.862  26.162  1.00  0.00    -0.463 OA
BRANCH   3   4
ATOM      4  C   UNL A   1      38.327  23.149  26.492  1.00  0.00     0.312 C 
ATOM      5  O   UNL A   1      38.982  23.830  27.274  1.00  0.00    -0.252 OA
BRANCH   4   6
ATOM      6  C   UNL A   1      37.160  23.723  25.691  1.00  0.00     0.124 C 
ATOM      7  C   UNL A   1      35.124  22.921  24.573  1.00  0.00     0.106 C 
ATOM      8  C   UNL A   1      36.278  22.984  23.634  1.00  0.00    -0.006 C 
ATOM      9  C   UNL A   1      35.765  23.130  25.954  1.00  0.00     0.048 C 
ATOM     10  C   UNL A   1      37.376  23.460  24.227  1.00  0.00    -0.014 C 
BRANCH   7  11
ATOM     11  N   UNL A   1      34.466  21.645  24.435  1.00  0.00    -0.348 N 
ATOM     12  O   UNL A   1      32.354  22.528  24.480  1.00  0.00    -0.273 OA
ATOM     13  C   UNL A   1      33.095  21.550  24.381  1.00  0.00     0.239 C 
ATOM     14  H   UNL A   1      35.010  20.825  24.379  1.00  0.00     0.164 HD
BRANCH  13  15
ATOM     15  C   UNL A   1      32.516  20.136  24.376  1.00  0.00     0.216 C 
BRANCH  15  16
ATOM     16  N   UNL A   1      32.404  19.498  23.075  1.00  0.00    -0.342 N 
ATOM     17  C   UNL A   1      32.481  18.150  22.829  1.00  0.00     0.261 C 
ATOM     18  H   UNL A   1      32.259  20.086  22.299  1.00  0.00     0.164 HD
ATOM     19  O   UNL A   1      31.913  17.712  21.830  1.00  0.00    -0.268 OA
BRANCH  17  20
ATOM     20  C   UNL A   1      33.213  17.321  23.760  1.00  0.00     0.092 A 
ATOM     21  C   UNL A   1      34.528  16.907  23.685  1.00  0.00     0.025 A 
ATOM     22  S   UNL A   1      32.484  16.853  25.240  1.00  0.00    -0.139 S 
ATOM     23  C   UNL A   1      34.917  16.153  24.830  1.00  0.00     0.012 A 
ATOM     24  C   UNL A   1      33.900  16.051  25.754  1.00  0.00     0.065 A 
ENDBRANCH  17  20
ENDBRANCH  15  16
ENDBRANCH  13  15
ENDBRANCH   7  11
ENDBRANCH   4   6
ENDBRANCH   3   4
ENDBRANCH   2   3
ENDBRANCH   1   2
BRANCH   1  25
ATOM     25  O   UNL A   1      42.025  20.856  27.258  1.00  0.00    -0.374 OA
BRANCH  25  26
ATOM     26  C   UNL A   1      42.557  20.789  25.936  1.00  0.00     0.202 C 
BRANCH  26  27
ATOM     27  C   UNL A   1      43.616  21.849  25.617  1.00  0.00     0.261 C 
BRANCH  27  28
ATOM     28  O   UNL A   1      43.016  23.091  25.217  1.00  0.00    -0.460 OA
BRANCH  28  29
ATOM     29  C   UNL A   1      43.831  24.176  25.271  1.00  0.00     0.338 C 
ATOM     30  O   UNL A   1      44.720  24.479  24.493  1.00  0.00    -0.246 OA
BRANCH  29  31
ATOM     31  C   UNL A   1      43.378  25.046  26.373  1.00  0.00     0.060 A 
ATOM     32  C   UNL A   1      42.384  24.599  27.250  1.00  0.00     0.016 A 
ATOM     33  C   UNL A   1      43.939  26.304  26.544  1.00  0.00     0.016 A 
ATOM     34  C   UNL A   1      41.953  25.419  28.306  1.00  0.00     0.010 A 
ATOM     35  C   UNL A   1      43.533  27.098  27.618  1.00  0.00     0.010 A 
ATOM     36  C   UNL A   1      42.524  26.684  28.506  1.00  0.00    -0.014 A 
BRANCH  36  37
ATOM     37  C   UNL A   1      42.049  27.633  29.562  1.00  0.00     0.031 A 
ATOM     38  C   UNL A   1      42.669  27.573  30.941  1.00  0.00     0.074 A 
ATOM     39  C   UNL A   1      41.015  28.478  29.360  1.00  0.00     0.049 A 
ATOM     40  N   UNL A   1      42.310  28.180  32.047  1.00  0.00    -0.248 NA
ATOM     41  C   UNL A   1      43.826  26.678  31.105  1.00  0.00     0.031 C 
ATOM     42  C   UNL A   1      40.274  28.648  28.111  1.00  0.00     0.029 A 
ATOM     43  N   UNL A   1      40.377  29.328  30.237  1.00  0.00    -0.354 N 
ATOM     44  C   UNL A   1      43.175  27.714  33.031  1.00  0.00     0.074 A 
ATOM     45  C   UNL A   1      44.006  26.703  32.415  1.00  0.00     0.031 C 
ATOM     46  C   UNL A   1      39.259  29.509  28.312  1.00  0.00     0.029 A 
ATOM     47  C   UNL A   1      39.275  29.954  29.702  1.00  0.00     0.049 A 
ATOM     48  H   UNL A   1      40.680  29.474  31.161  1.00  0.00     0.167 HD
ATOM     49  C   UNL A   1      43.321  28.123  34.314  1.00  0.00     0.037 A 
ATOM     50  C   UNL A   1      38.374  30.786  30.264  1.00  0.00     0.037 A 
ATOM     51  C   UNL A   1      42.568  29.187  34.919  1.00  0.00     0.049 A 
ATOM     52  C   UNL A   1      38.537  31.223  31.697  1.00  0.00     0.074 A 
ATOM     53  C   UNL A   1      42.746  29.768  36.162  1.00  0.00     0.029 A 
ATOM     54  N   UNL A   1      41.500  29.835  34.322  1.00  0.00    -0.354 N 
ATOM     55  N   UNL A   1      39.440  30.863  32.574  1.00  0.00    -0.248 NA
ATOM     56  C   UNL A   1      37.573  32.212  32.205  1.00  0.00     0.031 C 
ATOM     57  C   UNL A   1      41.760  30.745  36.334  1.00  0.00     0.029 A 
ATOM     58  C   UNL A   1      40.996  30.798  35.180  1.00  0.00     0.049 A 
ATOM     59  H   UNL A   1      41.151  29.640  33.422  1.00  0.00     0.167 HD
ATOM     60  C   UNL A   1      39.197  31.631  33.708  1.00  0.00     0.074 A 
ATOM     61  C   UNL A   1      38.050  32.461  33.416  1.00  0.00     0.031 C 
ATOM     62  C   UNL A   1      39.879  31.654  34.879  1.00  0.00     0.037 A 
BRANCH  49  63
ATOM     63  C   UNL A   1      44.381  27.450  35.136  1.00  0.00     0.057 A 
ATOM     64  C   UNL A   1      45.701  27.921  35.162  1.00  0.00     0.134 A 
ATOM     65  C   UNL A   1      44.078  26.337  35.929  1.00  0.00     0.134 A 
ATOM     66  F   UNL A   1      46.060  28.981  34.421  1.00  0.00    -0.206 F 
ATOM     67  C   UNL A   1      46.691  27.284  35.911  1.00  0.00     0.040 A 
ATOM     68  C   UNL A   1      45.052  25.711  36.709  1.00  0.00     0.040 A 
ATOM     69  F   UNL A   1      42.831  25.844  35.964  1.00  0.00    -0.206 F 
ATOM     70  C   UNL A   1      46.365  26.177  36.692  1.00  0.00     0.006 A 
ENDBRANCH  49  63
BRANCH  50  71
ATOM     71  C   UNL A   1      37.239  31.311  29.464  1.00  0.00     0.057 A 
ATOM     72  C   UNL A   1      36.099  30.531  29.233  1.00  0.00     0.134 A 
ATOM     73  C   UNL A   1      37.289  32.575  28.865  1.00  0.00     0.134 A 
ATOM     74  F   UNL A   1      36.007  29.302  29.763  1.00  0.00    -0.206 F 
ATOM     75  C   UNL A   1      35.065  30.973  28.407  1.00  0.00     0.040 A 
ATOM     76  C   UNL A   1      36.253  33.037  28.052  1.00  0.00     0.040 A 
ATOM     77  F   UNL A   1      38.352  33.371  29.053  1.00  0.00    -0.206 F 
ATOM     78  C   UNL A   1      35.141  32.231  27.813  1.00  0.00     0.006 A 
ENDBRANCH  50  71
BRANCH  62  79
ATOM     79  C   UNL A   1      39.469  32.663  35.911  1.00  0.00     0.057 A 
ATOM     80  C   UNL A   1      38.506  32.385  36.888  1.00  0.00     0.134 A 
ATOM     81  C   UNL A   1      40.093  33.917  35.958  1.00  0.00     0.134 A 
ATOM     82  F   UNL A   1      37.860  31.208  36.891  1.00  0.00    -0.206 F 
ATOM     83  C   UNL A   1      38.167  33.323  37.864  1.00  0.00     0.040 A 
ATOM     84  C   UNL A   1      39.782  34.853  36.945  1.00  0.00     0.040 A 
ATOM     85  F   UNL A   1      41.031  34.246  35.056  1.00  0.00    -0.206 F 
ATOM     86  C   UNL A   1      38.812  34.558  37.900  1.00  0.00     0.006 A 
ENDBRANCH  62  79
ENDBRANCH  36  37
ENDBRANCH  29  31
ENDBRANCH  28  29
ENDBRANCH  27  28
ENDBRANCH  26  27
ENDBRANCH  25  26
ENDBRANCH   1  25
TORSDOF 18
ENDMDL
