MODEL 1
REMARK VINA RESULT:      -9.9      0.000      0.000
REMARK SMILES COC(CNS(=O)(=O)c1ccc(Cl)c(C(=O)OCCOCCOC(=O)c2ccc(-c3c4nc(c(-c5c(F)cccc5F)c5ccc([nH]5)c(-c5c(F)cccc5F)c5nc(c(-c6c(F)cccc6F)c6ccc3[nH]6)C=C5)C=C4)cc2)c1Cl)OC
REMARK SMILES IDX 18 1 17 2 15 3 16 4 14 5 9 6 10 7 80 8 11 9 81 10 12 11
REMARK SMILES IDX 13 12 6 13 7 14 8 15 5 16 4 18 3 19 2 20 1 21 82 22 83 23
REMARK SMILES IDX 19 24 20 25 21 26 22 27 23 28 24 29 25 30 26 31 27 32 79 33
REMARK SMILES IDX 28 34 78 35 29 36 30 37 31 38 72 39 32 40 77 41 71 42 73 43
REMARK SMILES IDX 33 44 76 45 70 46 69 47 34 49 60 50 43 51 59 52 44 53 47 54
REMARK SMILES IDX 58 55 74 56 45 57 46 58 57 60 75 61 48 62 35 63 36 64 41 65
REMARK SMILES IDX 37 66 38 67 40 68 42 69 39 70 61 71 62 72 67 73 63 74 64 75
REMARK SMILES IDX 66 76 68 77 65 78 49 79 50 80 55 81 51 82 52 83 54 84 56 85
REMARK SMILES IDX 53 86
REMARK H PARENT 5 17 73 48 47 59
REMARK Flexibility Score: inf
ROOT
ATOM      1  C   UNL A   1      33.375  29.837  26.017  1.00  0.00     0.261 C 
ENDROOT
BRANCH   1   2
ATOM      2  O   UNL A   1      32.574  29.643  24.846  1.00  0.00    -0.460 OA
BRANCH   2   3
ATOM      3  C   UNL A   1      32.998  28.675  24.004  1.00  0.00     0.341 C 
ATOM      4  O   UNL A   1      34.050  28.626  23.397  1.00  0.00    -0.246 OA
BRANCH   3   5
ATOM      5  C   UNL A   1      32.012  27.580  24.069  1.00  0.00     0.098 A 
ATOM      6  C   UNL A   1      31.301  25.439  24.972  1.00  0.00     0.102 A 
ATOM      7  C   UNL A   1      30.096  25.565  24.257  1.00  0.00     0.025 A 
ATOM      8  C   UNL A   1      32.276  26.444  24.872  1.00  0.00     0.077 A 
ATOM      9  C   UNL A   1      29.851  26.687  23.463  1.00  0.00     0.023 A 
ATOM     10  Cl  UNL A   1      33.766  26.380  25.757  1.00  0.00    -0.082 Cl
ATOM     11  C   UNL A   1      30.806  27.697  23.367  1.00  0.00     0.057 A 
ATOM     12  Cl  UNL A   1      30.439  29.049  22.357  1.00  0.00    -0.083 Cl
BRANCH   6  13
ATOM     13  S   UNL A   1      31.544  23.920  25.875  1.00  0.00     0.242 S 
ATOM     14  O   UNL A   1      30.551  22.943  25.508  1.00  0.00    -0.207 OA
ATOM     15  O   UNL A   1      31.725  24.280  27.268  1.00  0.00    -0.207 OA
BRANCH  13  16
ATOM     16  N   UNL A   1      33.062  23.374  25.393  1.00  0.00    -0.206 NA
ATOM     17  H   UNL A   1      33.733  24.105  25.629  1.00  0.00     0.141 HD
BRANCH  16  18
ATOM     18  C   UNL A   1      33.273  23.032  23.968  1.00  0.00     0.161 C 
BRANCH  18  19
ATOM     19  C   UNL A   1      34.411  23.812  23.251  1.00  0.00     0.263 C 
BRANCH  19  20
ATOM     20  O   UNL A   1      34.054  24.890  22.387  1.00  0.00    -0.355 OA
ATOM     21  C   UNL A   1      32.851  24.814  21.656  1.00  0.00     0.198 C 
ENDBRANCH  19  20
BRANCH  19  22
ATOM     22  O   UNL A   1      35.517  23.024  22.806  1.00  0.00    -0.355 OA
ATOM     23  C   UNL A   1      36.665  22.989  23.624  1.00  0.00     0.198 C 
ENDBRANCH  19  22
ENDBRANCH  18  19
ENDBRANCH  16  18
ENDBRANCH  13  16
ENDBRANCH   6  13
ENDBRANCH   3   5
ENDBRANCH   2   3
ENDBRANCH   1   2
BRANCH   1  24
ATOM     24  C   UNL A   1      32.492  30.291  27.183  1.00  0.00     0.202 C 
BRANCH  24  25
ATOM     25  O   UNL A   1      31.395  31.137  26.837  1.00  0.00    -0.374 OA
BRANCH  25  26
ATOM     26  C   UNL A   1      31.616  32.550  26.838  1.00  0.00     0.202 C 
BRANCH  26  27
ATOM     27  C   UNL A   1      32.824  33.059  27.636  1.00  0.00     0.261 C 
BRANCH  27  28
ATOM     28  O   UNL A   1      32.663  34.421  28.076  1.00  0.00    -0.460 OA
BRANCH  28  29
ATOM     29  C   UNL A   1      33.148  34.683  29.316  1.00  0.00     0.338 C 
ATOM     30  O   UNL A   1      32.597  35.295  30.215  1.00  0.00    -0.246 OA
BRANCH  29  31
ATOM     31  C   UNL A   1      34.423  33.971  29.516  1.00  0.00     0.060 A 
ATOM     32  C   UNL A   1      34.506  33.056  30.573  1.00  0.00     0.016 A 
ATOM     33  C   UNL A   1      35.544  34.263  28.738  1.00  0.00     0.016 A 
ATOM     34  C   UNL A   1      35.722  32.441  30.870  1.00  0.00     0.010 A 
ATOM     35  C   UNL A   1      36.766  33.655  29.045  1.00  0.00     0.010 A 
ATOM     36  C   UNL A   1      36.866  32.758  30.125  1.00  0.00    -0.014 A 
BRANCH  36  37
ATOM     37  C   UNL A   1      38.191  32.232  30.532  1.00  0.00     0.031 A 
ATOM     38  C   UNL A   1      38.695  30.953  29.926  1.00  0.00     0.074 A 
ATOM     39  C   UNL A   1      38.937  32.887  31.438  1.00  0.00     0.049 A 
ATOM     40  N   UNL A   1      39.779  30.274  30.200  1.00  0.00    -0.248 NA
ATOM     41  C   UNL A   1      37.861  30.357  28.870  1.00  0.00     0.031 C 
ATOM     42  C   UNL A   1      38.579  34.158  32.067  1.00  0.00     0.029 A 
ATOM     43  N   UNL A   1      40.147  32.563  31.998  1.00  0.00    -0.354 N 
ATOM     44  C   UNL A   1      39.757  29.170  29.358  1.00  0.00     0.074 A 
ATOM     45  C   UNL A   1      38.539  29.256  28.580  1.00  0.00     0.031 C 
ATOM     46  C   UNL A   1      39.542  34.499  32.939  1.00  0.00     0.029 A 
ATOM     47  C   UNL A   1      40.564  33.453  32.957  1.00  0.00     0.049 A 
ATOM     48  H   UNL A   1      40.667  31.769  31.736  1.00  0.00     0.167 HD
ATOM     49  C   UNL A   1      40.672  28.178  29.240  1.00  0.00     0.037 A 
ATOM     50  C   UNL A   1      41.632  33.412  33.777  1.00  0.00     0.037 A 
ATOM     51  C   UNL A   1      41.881  28.093  30.018  1.00  0.00     0.049 A 
ATOM     52  C   UNL A   1      42.589  32.254  33.687  1.00  0.00     0.074 A 
ATOM     53  C   UNL A   1      42.879  27.135  29.959  1.00  0.00     0.029 A 
ATOM     54  N   UNL A   1      42.250  28.995  31.004  1.00  0.00    -0.354 N 
ATOM     55  N   UNL A   1      42.571  31.224  32.875  1.00  0.00    -0.248 NA
ATOM     56  C   UNL A   1      43.716  32.251  34.633  1.00  0.00     0.031 C 
ATOM     57  C   UNL A   1      43.829  27.432  30.942  1.00  0.00     0.029 A 
ATOM     58  C   UNL A   1      43.447  28.601  31.580  1.00  0.00     0.049 A 
ATOM     59  H   UNL A   1      41.738  29.797  31.257  1.00  0.00     0.167 HD
ATOM     60  C   UNL A   1      43.692  30.468  33.193  1.00  0.00     0.074 A 
ATOM     61  C   UNL A   1      44.375  31.161  34.265  1.00  0.00     0.031 C 
ATOM     62  C   UNL A   1      44.119  29.304  32.644  1.00  0.00     0.037 A 
BRANCH  49  63
ATOM     63  C   UNL A   1      40.386  27.089  28.249  1.00  0.00     0.057 A 
ATOM     64  C   UNL A   1      40.954  27.086  26.969  1.00  0.00     0.134 A 
ATOM     65  C   UNL A   1      39.556  26.013  28.591  1.00  0.00     0.134 A 
ATOM     66  F   UNL A   1      41.746  28.094  26.575  1.00  0.00    -0.206 F 
ATOM     67  C   UNL A   1      40.688  26.063  26.057  1.00  0.00     0.040 A 
ATOM     68  C   UNL A   1      39.304  24.972  27.696  1.00  0.00     0.040 A 
ATOM     69  F   UNL A   1      38.985  25.952  29.804  1.00  0.00    -0.206 F 
ATOM     70  C   UNL A   1      39.867  24.999  26.422  1.00  0.00     0.006 A 
ENDBRANCH  49  63
BRANCH  50  71
ATOM     71  C   UNL A   1      41.846  34.493  34.771  1.00  0.00     0.057 A 
ATOM     72  C   UNL A   1      41.262  34.435  36.041  1.00  0.00     0.134 A 
ATOM     73  C   UNL A   1      42.623  35.618  34.468  1.00  0.00     0.134 A 
ATOM     74  F   UNL A   1      40.486  33.395  36.380  1.00  0.00    -0.206 F 
ATOM     75  C   UNL A   1      41.431  35.463  36.970  1.00  0.00     0.040 A 
ATOM     76  C   UNL A   1      42.821  36.641  35.396  1.00  0.00     0.040 A 
ATOM     77  F   UNL A   1      43.208  35.733  33.266  1.00  0.00    -0.206 F 
ATOM     78  C   UNL A   1      42.218  36.568  36.649  1.00  0.00     0.006 A 
ENDBRANCH  50  71
BRANCH  62  79
ATOM     79  C   UNL A   1      45.399  28.723  33.166  1.00  0.00     0.057 A 
ATOM     80  C   UNL A   1      46.645  29.088  32.644  1.00  0.00     0.134 A 
ATOM     81  C   UNL A   1      45.386  27.820  34.238  1.00  0.00     0.134 A 
ATOM     82  F   UNL A   1      46.726  29.938  31.609  1.00  0.00    -0.206 F 
ATOM     83  C   UNL A   1      47.834  28.565  33.158  1.00  0.00     0.040 A 
ATOM     84  C   UNL A   1      46.568  27.309  34.777  1.00  0.00     0.040 A 
ATOM     85  F   UNL A   1      44.227  27.434  34.790  1.00  0.00    -0.206 F 
ATOM     86  C   UNL A   1      47.797  27.679  34.233  1.00  0.00     0.006 A 
ENDBRANCH  62  79
ENDBRANCH  36  37
ENDBRANCH  29  31
ENDBRANCH  28  29
ENDBRANCH  27  28
ENDBRANCH  26  27
ENDBRANCH  25  26
ENDBRANCH  24  25
ENDBRANCH   1  24
TORSDOF 20
ENDMDL
MODEL 2
REMARK VINA RESULT:      -9.8      4.479      9.138
REMARK SMILES COC(CNS(=O)(=O)c1ccc(Cl)c(C(=O)OCCOCCOC(=O)c2ccc(-c3c4nc(c(-c5c(F)cccc5F)c5ccc([nH]5)c(-c5c(F)cccc5F)c5nc(c(-c6c(F)cccc6F)c6ccc3[nH]6)C=C5)C=C4)cc2)c1Cl)OC
REMARK SMILES IDX 18 1 17 2 15 3 16 4 14 5 9 6 10 7 80 8 11 9 81 10 12 11
REMARK SMILES IDX 13 12 6 13 7 14 8 15 5 16 4 18 3 19 2 20 1 21 82 22 83 23
REMARK SMILES IDX 19 24 20 25 21 26 22 27 23 28 24 29 25 30 26 31 27 32 79 33
REMARK SMILES IDX 28 34 78 35 29 36 30 37 31 38 72 39 32 40 77 41 71 42 73 43
REMARK SMILES IDX 33 44 76 45 70 46 69 47 34 49 60 50 43 51 59 52 44 53 47 54
REMARK SMILES IDX 58 55 74 56 45 57 46 58 57 60 75 61 48 62 35 63 36 64 41 65
REMARK SMILES IDX 37 66 38 67 40 68 42 69 39 70 61 71 62 72 67 73 63 74 64 75
REMARK SMILES IDX 66 76 68 77 65 78 49 79 50 80 55 81 51 82 52 83 54 84 56 85
REMARK SMILES IDX 53 86
REMARK H PARENT 5 17 73 48 47 59
REMARK Flexibility Score: inf
ROOT
ATOM      1  C   UNL A   1      37.320  23.206  25.419  1.00  0.00     0.261 C 
ENDROOT
BRANCH   1   2
ATOM      2  O   UNL A   1      35.928  22.918  25.595  1.00  0.00    -0.460 OA
BRANCH   2   3
ATOM      3  C   UNL A   1      35.152  23.101  24.503  1.00  0.00     0.341 C 
ATOM      4  O   UNL A   1      35.512  23.220  23.348  1.00  0.00    -0.246 OA
BRANCH   3   5
ATOM      5  C   UNL A   1      33.750  22.968  24.939  1.00  0.00     0.098 A 
ATOM      6  C   UNL A   1      31.649  23.988  25.613  1.00  0.00     0.102 A 
ATOM      7  C   UNL A   1      31.073  22.706  25.669  1.00  0.00     0.025 A 
ATOM      8  C   UNL A   1      33.001  24.126  25.258  1.00  0.00     0.077 A 
ATOM      9  C   UNL A   1      31.825  21.571  25.359  1.00  0.00     0.023 A 
ATOM     10  Cl  UNL A   1      33.770  25.676  25.125  1.00  0.00    -0.082 Cl
ATOM     11  C   UNL A   1      33.163  21.698  24.993  1.00  0.00     0.057 A 
ATOM     12  Cl  UNL A   1      34.033  20.250  24.635  1.00  0.00    -0.083 Cl
BRANCH   6  13
ATOM     13  S   UNL A   1      30.622  25.354  26.123  1.00  0.00     0.242 S 
ATOM     14  O   UNL A   1      31.406  26.356  26.800  1.00  0.00    -0.207 OA
ATOM     15  O   UNL A   1      29.455  24.789  26.769  1.00  0.00    -0.207 OA
BRANCH  13  16
ATOM     16  N   UNL A   1      30.024  25.998  24.687  1.00  0.00    -0.206 NA
ATOM     17  H   UNL A   1      30.229  25.326  23.948  1.00  0.00     0.141 HD
BRANCH  16  18
ATOM     18  C   UNL A   1      30.531  27.313  24.233  1.00  0.00     0.161 C 
BRANCH  18  19
ATOM     19  C   UNL A   1      30.812  27.436  22.709  1.00  0.00     0.263 C 
BRANCH  19  20
ATOM     20  O   UNL A   1      32.082  27.013  22.216  1.00  0.00    -0.355 OA
ATOM     21  C   UNL A   1      32.175  25.792  21.518  1.00  0.00     0.198 C 
ENDBRANCH  19  20
BRANCH  19  22
ATOM     22  O   UNL A   1      30.274  28.597  22.071  1.00  0.00    -0.355 OA
ATOM     23  C   UNL A   1      29.004  29.043  22.490  1.00  0.00     0.198 C 
ENDBRANCH  19  22
ENDBRANCH  18  19
ENDBRANCH  16  18
ENDBRANCH  13  16
ENDBRANCH   6  13
ENDBRANCH   3   5
ENDBRANCH   2   3
ENDBRANCH   1   2
BRANCH   1  24
ATOM     24  C   UNL A   1      38.148  21.942  25.662  1.00  0.00     0.202 C 
BRANCH  24  25
ATOM     25  O   UNL A   1      37.736  20.781  24.938  1.00  0.00    -0.374 OA
BRANCH  25  26
ATOM     26  C   UNL A   1      38.525  19.596  25.074  1.00  0.00     0.202 C 
BRANCH  26  27
ATOM     27  C   UNL A   1      39.713  19.664  26.042  1.00  0.00     0.261 C 
BRANCH  27  28
ATOM     28  O   UNL A   1      40.937  19.188  25.451  1.00  0.00    -0.460 OA
BRANCH  28  29
ATOM     29  C   UNL A   1      41.998  19.136  26.295  1.00  0.00     0.338 C 
ATOM     30  O   UNL A   1      42.551  18.141  26.731  1.00  0.00    -0.246 OA
BRANCH  29  31
ATOM     31  C   UNL A   1      42.532  20.492  26.514  1.00  0.00     0.060 A 
ATOM     32  C   UNL A   1      42.455  21.028  27.807  1.00  0.00     0.016 A 
ATOM     33  C   UNL A   1      43.016  21.259  25.454  1.00  0.00     0.016 A 
ATOM     34  C   UNL A   1      42.846  22.346  28.040  1.00  0.00     0.010 A 
ATOM     35  C   UNL A   1      43.396  22.585  25.688  1.00  0.00     0.010 A 
ATOM     36  C   UNL A   1      43.292  23.141  26.976  1.00  0.00    -0.014 A 
BRANCH  36  37
ATOM     37  C   UNL A   1      43.558  24.584  27.185  1.00  0.00     0.031 A 
ATOM     38  C   UNL A   1      44.938  25.125  26.934  1.00  0.00     0.074 A 
ATOM     39  C   UNL A   1      42.579  25.406  27.599  1.00  0.00     0.049 A 
ATOM     40  N   UNL A   1      45.408  26.329  27.134  1.00  0.00    -0.248 NA
ATOM     41  C   UNL A   1      45.921  24.177  26.385  1.00  0.00     0.031 C 
ATOM     42  C   UNL A   1      41.191  25.013  27.837  1.00  0.00     0.029 A 
ATOM     43  N   UNL A   1      42.609  26.743  27.908  1.00  0.00    -0.354 N 
ATOM     44  C   UNL A   1      46.740  26.285  26.743  1.00  0.00     0.074 A 
ATOM     45  C   UNL A   1      47.011  24.928  26.318  1.00  0.00     0.031 C 
ATOM     46  C   UNL A   1      40.504  26.083  28.270  1.00  0.00     0.029 A 
ATOM     47  C   UNL A   1      41.411  27.225  28.376  1.00  0.00     0.049 A 
ATOM     48  H   UNL A   1      43.411  27.303  27.804  1.00  0.00     0.167 HD
ATOM     49  C   UNL A   1      47.652  27.286  26.735  1.00  0.00     0.037 A 
ATOM     50  C   UNL A   1      41.092  28.440  28.863  1.00  0.00     0.037 A 
ATOM     51  C   UNL A   1      47.381  28.635  27.163  1.00  0.00     0.049 A 
ATOM     52  C   UNL A   1      42.146  29.512  28.925  1.00  0.00     0.074 A 
ATOM     53  C   UNL A   1      48.236  29.723  27.174  1.00  0.00     0.029 A 
ATOM     54  N   UNL A   1      46.165  29.075  27.662  1.00  0.00    -0.354 N 
ATOM     55  N   UNL A   1      43.398  29.467  28.536  1.00  0.00    -0.248 NA
ATOM     56  C   UNL A   1      41.744  30.806  29.498  1.00  0.00     0.031 C 
ATOM     57  C   UNL A   1      47.550  30.811  27.727  1.00  0.00     0.029 A 
ATOM     58  C   UNL A   1      46.255  30.411  28.013  1.00  0.00     0.049 A 
ATOM     59  H   UNL A   1      45.358  28.519  27.754  1.00  0.00     0.167 HD
ATOM     60  C   UNL A   1      43.922  30.728  28.792  1.00  0.00     0.074 A 
ATOM     61  C   UNL A   1      42.852  31.520  29.361  1.00  0.00     0.031 C 
ATOM     62  C   UNL A   1      45.179  31.189  28.573  1.00  0.00     0.037 A 
BRANCH  49  63
ATOM     63  C   UNL A   1      49.040  26.952  26.271  1.00  0.00     0.057 A 
ATOM     64  C   UNL A   1      49.422  27.081  24.930  1.00  0.00     0.134 A 
ATOM     65  C   UNL A   1      50.013  26.527  27.184  1.00  0.00     0.134 A 
ATOM     66  F   UNL A   1      48.534  27.471  24.005  1.00  0.00    -0.206 F 
ATOM     67  C   UNL A   1      50.718  26.777  24.510  1.00  0.00     0.040 A 
ATOM     68  C   UNL A   1      51.319  26.244  26.779  1.00  0.00     0.040 A 
ATOM     69  F   UNL A   1      49.714  26.388  28.485  1.00  0.00    -0.206 F 
ATOM     70  C   UNL A   1      51.673  26.363  25.437  1.00  0.00     0.006 A 
ENDBRANCH  49  63
BRANCH  50  71
ATOM     71  C   UNL A   1      39.715  28.706  29.351  1.00  0.00     0.057 A 
ATOM     72  C   UNL A   1      39.355  28.448  30.677  1.00  0.00     0.134 A 
ATOM     73  C   UNL A   1      38.725  29.205  28.496  1.00  0.00     0.134 A 
ATOM     74  F   UNL A   1      40.254  27.945  31.536  1.00  0.00    -0.206 F 
ATOM     75  C   UNL A   1      38.054  28.664  31.135  1.00  0.00     0.040 A 
ATOM     76  C   UNL A   1      37.426  29.449  28.947  1.00  0.00     0.040 A 
ATOM     77  F   UNL A   1      39.007  29.471  27.212  1.00  0.00    -0.206 F 
ATOM     78  C   UNL A   1      37.087  29.172  30.269  1.00  0.00     0.006 A 
ENDBRANCH  50  71
BRANCH  62  79
ATOM     79  C   UNL A   1      45.457  32.623  28.916  1.00  0.00     0.057 A 
ATOM     80  C   UNL A   1      46.008  32.995  30.148  1.00  0.00     0.134 A 
ATOM     81  C   UNL A   1      45.215  33.639  27.982  1.00  0.00     0.134 A 
ATOM     82  F   UNL A   1      46.252  32.072  31.091  1.00  0.00    -0.206 F 
ATOM     83  C   UNL A   1      46.293  34.329  30.447  1.00  0.00     0.040 A 
ATOM     84  C   UNL A   1      45.519  34.973  28.260  1.00  0.00     0.040 A 
ATOM     85  F   UNL A   1      44.695  33.350  26.781  1.00  0.00    -0.206 F 
ATOM     86  C   UNL A   1      46.056  35.321  29.497  1.00  0.00     0.006 A 
ENDBRANCH  62  79
ENDBRANCH  36  37
ENDBRANCH  29  31
ENDBRANCH  28  29
ENDBRANCH  27  28
ENDBRANCH  26  27
ENDBRANCH  25  26
ENDBRANCH  24  25
ENDBRANCH   1  24
TORSDOF 20
ENDMDL
MODEL 3
REMARK VINA RESULT:      -9.7      3.231      7.484
REMARK SMILES COC(CNS(=O)(=O)c1ccc(Cl)c(C(=O)OCCOCCOC(=O)c2ccc(-c3c4nc(c(-c5c(F)cccc5F)c5ccc([nH]5)c(-c5c(F)cccc5F)c5nc(c(-c6c(F)cccc6F)c6ccc3[nH]6)C=C5)C=C4)cc2)c1Cl)OC
REMARK SMILES IDX 18 1 17 2 15 3 16 4 14 5 9 6 10 7 80 8 11 9 81 10 12 11
REMARK SMILES IDX 13 12 6 13 7 14 8 15 5 16 4 18 3 19 2 20 1 21 82 22 83 23
REMARK SMILES IDX 19 24 20 25 21 26 22 27 23 28 24 29 25 30 26 31 27 32 79 33
REMARK SMILES IDX 28 34 78 35 29 36 30 37 31 38 72 39 32 40 77 41 71 42 73 43
REMARK SMILES IDX 33 44 76 45 70 46 69 47 34 49 60 50 43 51 59 52 44 53 47 54
REMARK SMILES IDX 58 55 74 56 45 57 46 58 57 60 75 61 48 62 35 63 36 64 41 65
REMARK SMILES IDX 37 66 38 67 40 68 42 69 39 70 61 71 62 72 67 73 63 74 64 75
REMARK SMILES IDX 66 76 68 77 65 78 49 79 50 80 55 81 51 82 52 83 54 84 56 85
REMARK SMILES IDX 53 86
REMARK H PARENT 5 17 73 48 47 59
REMARK Flexibility Score: inf
ROOT
ATOM      1  C   UNL A   1      33.151  28.072  23.227  1.00  0.00     0.261 C 
ENDROOT
BRANCH   1   2
ATOM      2  O   UNL A   1      33.437  26.820  23.862  1.00  0.00    -0.460 OA
BRANCH   2   3
ATOM      3  C   UNL A   1      33.350  25.730  23.068  1.00  0.00     0.341 C 
ATOM      4  O   UNL A   1      33.743  25.612  21.923  1.00  0.00    -0.246 OA
BRANCH   3   5
ATOM      5  C   UNL A   1      32.828  24.628  23.897  1.00  0.00     0.098 A 
ATOM      6  C   UNL A   1      33.217  22.699  25.323  1.00  0.00     0.102 A 
ATOM      7  C   UNL A   1      31.830  22.609  25.540  1.00  0.00     0.025 A 
ATOM      8  C   UNL A   1      33.726  23.706  24.487  1.00  0.00     0.077 A 
ATOM      9  C   UNL A   1      30.955  23.520  24.945  1.00  0.00     0.023 A 
ATOM     10  Cl  UNL A   1      35.426  23.908  24.208  1.00  0.00    -0.082 Cl
ATOM     11  C   UNL A   1      31.449  24.531  24.124  1.00  0.00     0.057 A 
ATOM     12  Cl  UNL A   1      30.306  25.614  23.414  1.00  0.00    -0.083 Cl
BRANCH   6  13
ATOM     13  S   UNL A   1      34.229  21.425  26.054  1.00  0.00     0.242 S 
ATOM     14  O   UNL A   1      34.633  21.797  27.387  1.00  0.00    -0.207 OA
ATOM     15  O   UNL A   1      35.229  21.061  25.070  1.00  0.00    -0.207 OA
BRANCH  13  16
ATOM     16  N   UNL A   1      33.226  20.076  26.137  1.00  0.00    -0.206 NA
ATOM     17  H   UNL A   1      33.744  19.345  26.626  1.00  0.00     0.141 HD
BRANCH  16  18
ATOM     18  C   UNL A   1      32.726  19.486  24.875  1.00  0.00     0.161 C 
BRANCH  18  19
ATOM     19  C   UNL A   1      32.911  17.948  24.732  1.00  0.00     0.263 C 
BRANCH  19  20
ATOM     20  O   UNL A   1      33.036  17.399  23.422  1.00  0.00    -0.355 OA
ATOM     21  C   UNL A   1      32.441  18.072  22.336  1.00  0.00     0.198 C 
ENDBRANCH  19  20
BRANCH  19  22
ATOM     22  O   UNL A   1      32.168  17.146  25.653  1.00  0.00    -0.355 OA
ATOM     23  C   UNL A   1      32.381  15.753  25.625  1.00  0.00     0.198 C 
ENDBRANCH  19  22
ENDBRANCH  18  19
ENDBRANCH  16  18
ENDBRANCH  13  16
ENDBRANCH   6  13
ENDBRANCH   3   5
ENDBRANCH   2   3
ENDBRANCH   1   2
BRANCH   1  24
ATOM     24  C   UNL A   1      31.952  28.738  23.907  1.00  0.00     0.202 C 
BRANCH  24  25
ATOM     25  O   UNL A   1      31.792  28.456  25.298  1.00  0.00    -0.374 OA
BRANCH  25  26
ATOM     26  C   UNL A   1      31.879  29.551  26.214  1.00  0.00     0.202 C 
BRANCH  26  27
ATOM     27  C   UNL A   1      33.275  30.138  26.459  1.00  0.00     0.261 C 
BRANCH  27  28
ATOM     28  O   UNL A   1      33.768  29.860  27.783  1.00  0.00    -0.460 OA
BRANCH  28  29
ATOM     29  C   UNL A   1      34.670  30.756  28.257  1.00  0.00     0.338 C 
ATOM     30  O   UNL A   1      34.453  31.886  28.663  1.00  0.00    -0.246 OA
BRANCH  29  31
ATOM     31  C   UNL A   1      35.994  30.119  28.378  1.00  0.00     0.060 A 
ATOM     32  C   UNL A   1      36.352  29.578  29.620  1.00  0.00     0.016 A 
ATOM     33  C   UNL A   1      36.903  30.133  27.320  1.00  0.00     0.016 A 
ATOM     34  C   UNL A   1      37.633  29.064  29.813  1.00  0.00     0.010 A 
ATOM     35  C   UNL A   1      38.192  29.629  27.520  1.00  0.00     0.010 A 
ATOM     36  C   UNL A   1      38.570  29.112  28.773  1.00  0.00    -0.014 A 
BRANCH  36  37
ATOM     37  C   UNL A   1      39.977  28.714  29.017  1.00  0.00     0.031 A 
ATOM     38  C   UNL A   1      40.924  29.699  29.645  1.00  0.00     0.074 A 
ATOM     39  C   UNL A   1      40.409  27.487  28.680  1.00  0.00     0.049 A 
ATOM     40  N   UNL A   1      42.208  29.590  29.868  1.00  0.00    -0.248 NA
ATOM     41  C   UNL A   1      40.343  30.980  30.075  1.00  0.00     0.031 C 
ATOM     42  C   UNL A   1      39.580  26.429  28.105  1.00  0.00     0.029 A 
ATOM     43  N   UNL A   1      41.660  26.929  28.760  1.00  0.00    -0.354 N 
ATOM     44  C   UNL A   1      42.592  30.787  30.458  1.00  0.00     0.074 A 
ATOM     45  C   UNL A   1      41.410  31.619  30.535  1.00  0.00     0.031 C 
ATOM     46  C   UNL A   1      40.349  25.353  27.868  1.00  0.00     0.029 A 
ATOM     47  C   UNL A   1      41.730  25.660  28.240  1.00  0.00     0.049 A 
ATOM     48  H   UNL A   1      42.434  27.394  29.152  1.00  0.00     0.167 HD
ATOM     49  C   UNL A   1      43.818  31.157  30.899  1.00  0.00     0.037 A 
ATOM     50  C   UNL A   1      42.791  24.852  28.058  1.00  0.00     0.037 A 
ATOM     51  C   UNL A   1      44.994  30.329  30.818  1.00  0.00     0.049 A 
ATOM     52  C   UNL A   1      44.159  25.319  28.477  1.00  0.00     0.074 A 
ATOM     53  C   UNL A   1      46.277  30.609  31.255  1.00  0.00     0.029 A 
ATOM     54  N   UNL A   1      45.031  29.064  30.253  1.00  0.00    -0.354 N 
ATOM     55  N   UNL A   1      44.510  26.445  29.052  1.00  0.00    -0.248 NA
ATOM     56  C   UNL A   1      45.281  24.403  28.220  1.00  0.00     0.031 C 
ATOM     57  C   UNL A   1      47.101  29.532  30.911  1.00  0.00     0.029 A 
ATOM     58  C   UNL A   1      46.320  28.561  30.304  1.00  0.00     0.049 A 
ATOM     59  H   UNL A   1      44.254  28.592  29.873  1.00  0.00     0.167 HD
ATOM     60  C   UNL A   1      45.882  26.361  29.246  1.00  0.00     0.074 A 
ATOM     61  C   UNL A   1      46.301  25.072  28.739  1.00  0.00     0.031 C 
ATOM     62  C   UNL A   1      46.722  27.272  29.800  1.00  0.00     0.037 A 
BRANCH  49  63
ATOM     63  C   UNL A   1      43.954  32.530  31.489  1.00  0.00     0.057 A 
ATOM     64  C   UNL A   1      43.808  32.763  32.862  1.00  0.00     0.134 A 
ATOM     65  C   UNL A   1      44.267  33.627  30.676  1.00  0.00     0.134 A 
ATOM     66  F   UNL A   1      43.495  31.758  33.693  1.00  0.00    -0.206 F 
ATOM     67  C   UNL A   1      43.945  34.043  33.402  1.00  0.00     0.040 A 
ATOM     68  C   UNL A   1      44.431  34.907  31.209  1.00  0.00     0.040 A 
ATOM     69  F   UNL A   1      44.427  33.471  29.353  1.00  0.00    -0.206 F 
ATOM     70  C   UNL A   1      44.265  35.118  32.576  1.00  0.00     0.006 A 
ENDBRANCH  49  63
BRANCH  50  71
ATOM     71  C   UNL A   1      42.610  23.519  27.429  1.00  0.00     0.057 A 
ATOM     72  C   UNL A   1      42.730  23.348  26.046  1.00  0.00     0.134 A 
ATOM     73  C   UNL A   1      42.292  22.390  28.194  1.00  0.00     0.134 A 
ATOM     74  F   UNL A   1      43.008  24.397  25.258  1.00  0.00    -0.206 F 
ATOM     75  C   UNL A   1      42.528  22.105  25.443  1.00  0.00     0.040 A 
ATOM     76  C   UNL A   1      42.111  21.137  27.608  1.00  0.00     0.040 A 
ATOM     77  F   UNL A   1      42.160  22.489  29.526  1.00  0.00    -0.206 F 
ATOM     78  C   UNL A   1      42.223  20.993  26.227  1.00  0.00     0.006 A 
ENDBRANCH  50  71
BRANCH  62  79
ATOM     79  C   UNL A   1      48.169  26.895  29.917  1.00  0.00     0.057 A 
ATOM     80  C   UNL A   1      49.108  27.254  28.943  1.00  0.00     0.134 A 
ATOM     81  C   UNL A   1      48.636  26.205  31.044  1.00  0.00     0.134 A 
ATOM     82  F   UNL A   1      48.723  27.904  27.834  1.00  0.00    -0.206 F 
ATOM     83  C   UNL A   1      50.459  26.926  29.076  1.00  0.00     0.040 A 
ATOM     84  C   UNL A   1      49.988  25.894  31.200  1.00  0.00     0.040 A 
ATOM     85  F   UNL A   1      47.791  25.839  32.017  1.00  0.00    -0.206 F 
ATOM     86  C   UNL A   1      50.903  26.251  30.211  1.00  0.00     0.006 A 
ENDBRANCH  62  79
ENDBRANCH  36  37
ENDBRANCH  29  31
ENDBRANCH  28  29
ENDBRANCH  27  28
ENDBRANCH  26  27
ENDBRANCH  25  26
ENDBRANCH  24  25
ENDBRANCH   1  24
TORSDOF 20
ENDMDL
