MODEL 1
REMARK VINA RESULT:     -10.5      0.000      0.000
REMARK SMILES Cc1nc(C[C@@H](C(=O)OCCOCCOC(=O)c2ccc(-c3c4nc(c(-c5c(F)cccc5F)c5ccc([nH]5)c(-c5c(F)cccc5F)c5nc(c(-c6c(F)cccc6F)c6ccc3[nH]6)C=C5)C=C4)cc2)[C@@H]2CCS(=O)(=O)C2)sc1C
REMARK SMILES IDX 12 1 11 2 10 3 9 4 7 5 8 6 6 7 5 8 4 9 1 10 2 11 3 12 80 13
REMARK SMILES IDX 79 14 81 15 72 16 73 17 78 18 74 19 75 20 76 21 77 22 13 23
REMARK SMILES IDX 14 24 15 25 16 26 17 27 18 28 19 29 71 30 20 31 70 32 21 33
REMARK SMILES IDX 22 34 23 35 64 36 24 37 69 38 63 39 65 40 25 41 68 42 62 43
REMARK SMILES IDX 61 44 26 46 52 47 35 48 51 49 36 50 39 51 50 52 66 53 37 54
REMARK SMILES IDX 38 55 49 57 67 58 40 59 27 60 28 61 33 62 29 63 30 64 32 65
REMARK SMILES IDX 34 66 31 67 53 68 54 69 59 70 55 71 56 72 58 73 60 74 57 75
REMARK SMILES IDX 41 76 42 77 47 78 43 79 44 80 46 81 48 82 45 83
REMARK H PARENT 65 45 39 56
REMARK Flexibility Score: inf
ROOT
ATOM      1  O   UNL A   1      32.030  28.054  25.164  1.00  0.00    -0.374 OA
ENDROOT
BRANCH   1   2
ATOM      2  C   UNL A   1      32.901  27.245  25.966  1.00  0.00     0.202 C 
BRANCH   2   3
ATOM      3  C   UNL A   1      33.753  26.250  25.171  1.00  0.00     0.261 C 
BRANCH   3   4
ATOM      4  O   UNL A   1      33.121  25.935  23.916  1.00  0.00    -0.463 OA
BRANCH   4   5
ATOM      5  C   UNL A   1      33.574  24.856  23.261  1.00  0.00     0.309 C 
ATOM      6  O   UNL A   1      33.462  24.725  22.051  1.00  0.00    -0.252 OA
BRANCH   5   7
ATOM      7  C   UNL A   1      34.187  23.774  24.154  1.00  0.00     0.110 C 
BRANCH   7   8
ATOM      8  C   UNL A   1      35.423  23.004  23.604  1.00  0.00     0.083 C 
BRANCH   8   9
ATOM      9  C   UNL A   1      36.595  22.860  24.535  1.00  0.00     0.094 A 
ATOM     10  C   UNL A   1      38.682  24.380  27.013  1.00  0.00     0.068 C 
ATOM     11  C   UNL A   1      38.141  23.420  26.021  1.00  0.00     0.051 A 
ATOM     12  N   UNL A   1      37.131  23.859  25.196  1.00  0.00    -0.246 NA
ATOM     13  C   UNL A   1      38.514  22.105  25.824  1.00  0.00     0.024 A 
ATOM     14  S   UNL A   1      37.441  21.370  24.701  1.00  0.00    -0.124 S 
ATOM     15  C   UNL A   1      39.624  21.347  26.461  1.00  0.00     0.058 C 
ENDBRANCH   8   9
ENDBRANCH   7   8
BRANCH   7  16
ATOM     16  C   UNL A   1      33.077  22.723  24.553  1.00  0.00     0.020 C 
ATOM     17  C   UNL A   1      32.952  22.390  26.064  1.00  0.00     0.021 C 
ATOM     18  C   UNL A   1      33.136  21.388  23.773  1.00  0.00     0.141 C 
ATOM     19  C   UNL A   1      33.658  21.075  26.378  1.00  0.00     0.137 C 
ATOM     20  S   UNL A   1      33.363  20.055  24.951  1.00  0.00     0.150 S 
ATOM     21  O   UNL A   1      34.549  19.293  24.626  1.00  0.00    -0.229 OA
ATOM     22  O   UNL A   1      32.078  19.408  25.139  1.00  0.00    -0.229 OA
ENDBRANCH   7  16
ENDBRANCH   5   7
ENDBRANCH   4   5
ENDBRANCH   3   4
ENDBRANCH   2   3
ENDBRANCH   1   2
BRANCH   1  23
ATOM     23  C   UNL A   1      32.459  29.400  24.975  1.00  0.00     0.202 C 
BRANCH  23  24
ATOM     24  C   UNL A   1      31.752  30.443  25.845  1.00  0.00     0.261 C 
BRANCH  24  25
ATOM     25  O   UNL A   1      32.373  30.535  27.134  1.00  0.00    -0.460 OA
BRANCH  25  26
ATOM     26  C   UNL A   1      33.111  31.653  27.320  1.00  0.00     0.338 C 
ATOM     27  O   UNL A   1      32.729  32.810  27.263  1.00  0.00    -0.246 OA
BRANCH  26  28
ATOM     28  C   UNL A   1      34.460  31.277  27.787  1.00  0.00     0.060 A 
ATOM     29  C   UNL A   1      34.700  29.919  28.027  1.00  0.00     0.016 A 
ATOM     30  C   UNL A   1      35.471  32.222  27.988  1.00  0.00     0.016 A 
ATOM     31  C   UNL A   1      35.936  29.501  28.515  1.00  0.00     0.010 A 
ATOM     32  C   UNL A   1      36.711  31.803  28.478  1.00  0.00     0.010 A 
ATOM     33  C   UNL A   1      36.938  30.445  28.774  1.00  0.00    -0.014 A 
BRANCH  33  34
ATOM     34  C   UNL A   1      38.151  30.038  29.522  1.00  0.00     0.031 A 
ATOM     35  C   UNL A   1      38.346  30.584  30.910  1.00  0.00     0.074 A 
ATOM     36  C   UNL A   1      39.046  29.180  28.998  1.00  0.00     0.049 A 
ATOM     37  N   UNL A   1      39.333  30.394  31.745  1.00  0.00    -0.248 NA
ATOM     38  C   UNL A   1      37.285  31.467  31.421  1.00  0.00     0.031 C 
ATOM     39  C   UNL A   1      38.949  28.546  27.685  1.00  0.00     0.029 A 
ATOM     40  N   UNL A   1      40.223  28.701  29.515  1.00  0.00    -0.354 N 
ATOM     41  C   UNL A   1      39.012  31.132  32.876  1.00  0.00     0.074 A 
ATOM     42  C   UNL A   1      37.767  31.814  32.603  1.00  0.00     0.031 C 
ATOM     43  C   UNL A   1      40.037  27.781  27.486  1.00  0.00     0.029 A 
ATOM     44  C   UNL A   1      40.907  27.874  28.656  1.00  0.00     0.049 A 
ATOM     45  H   UNL A   1      40.548  28.928  30.416  1.00  0.00     0.167 HD
ATOM     46  C   UNL A   1      39.682  31.218  34.049  1.00  0.00     0.037 A 
ATOM     47  C   UNL A   1      42.101  27.269  28.800  1.00  0.00     0.037 A 
ATOM     48  C   UNL A   1      40.911  30.529  34.328  1.00  0.00     0.049 A 
ATOM     49  C   UNL A   1      42.860  27.430  30.092  1.00  0.00     0.074 A 
ATOM     50  C   UNL A   1      41.654  30.531  35.496  1.00  0.00     0.029 A 
ATOM     51  N   UNL A   1      41.579  29.714  33.428  1.00  0.00    -0.354 N 
ATOM     52  N   UNL A   1      42.526  28.098  31.170  1.00  0.00    -0.248 NA
ATOM     53  C   UNL A   1      44.153  26.739  30.193  1.00  0.00     0.031 C 
ATOM     54  C   UNL A   1      42.795  29.749  35.286  1.00  0.00     0.029 A 
ATOM     55  C   UNL A   1      42.737  29.224  34.005  1.00  0.00     0.049 A 
ATOM     56  H   UNL A   1      41.273  29.513  32.513  1.00  0.00     0.167 HD
ATOM     57  C   UNL A   1      43.545  27.876  32.088  1.00  0.00     0.074 A 
ATOM     58  C   UNL A   1      44.507  27.007  31.443  1.00  0.00     0.031 C 
ATOM     59  C   UNL A   1      43.673  28.345  33.353  1.00  0.00     0.037 A 
BRANCH  46  60
ATOM     60  C   UNL A   1      39.096  32.099  35.110  1.00  0.00     0.057 A 
ATOM     61  C   UNL A   1      39.256  33.490  35.087  1.00  0.00     0.134 A 
ATOM     62  C   UNL A   1      38.346  31.550  36.158  1.00  0.00     0.134 A 
ATOM     63  F   UNL A   1      39.980  34.075  34.120  1.00  0.00    -0.206 F 
ATOM     64  C   UNL A   1      38.712  34.304  36.082  1.00  0.00     0.040 A 
ATOM     65  C   UNL A   1      37.775  32.355  37.144  1.00  0.00     0.040 A 
ATOM     66  F   UNL A   1      38.155  30.225  36.238  1.00  0.00    -0.206 F 
ATOM     67  C   UNL A   1      37.963  33.736  37.111  1.00  0.00     0.006 A 
ENDBRANCH  46  60
BRANCH  47  68
ATOM     68  C   UNL A   1      42.663  26.444  27.700  1.00  0.00     0.057 A 
ATOM     69  C   UNL A   1      43.423  27.021  26.675  1.00  0.00     0.134 A 
ATOM     70  C   UNL A   1      42.415  25.069  27.621  1.00  0.00     0.134 A 
ATOM     71  F   UNL A   1      43.676  28.338  26.683  1.00  0.00    -0.206 F 
ATOM     72  C   UNL A   1      43.892  26.267  25.598  1.00  0.00     0.040 A 
ATOM     73  C   UNL A   1      42.898  24.297  26.562  1.00  0.00     0.040 A 
ATOM     74  F   UNL A   1      41.696  24.454  28.573  1.00  0.00    -0.206 F 
ATOM     75  C   UNL A   1      43.630  24.899  25.541  1.00  0.00     0.006 A 
ENDBRANCH  47  68
BRANCH  59  76
ATOM     76  C   UNL A   1      44.867  27.893  34.141  1.00  0.00     0.057 A 
ATOM     77  C   UNL A   1      46.056  28.631  34.172  1.00  0.00     0.134 A 
ATOM     78  C   UNL A   1      44.803  26.734  34.925  1.00  0.00     0.134 A 
ATOM     79  F   UNL A   1      46.184  29.745  33.435  1.00  0.00    -0.206 F 
ATOM     80  C   UNL A   1      47.148  28.220  34.938  1.00  0.00     0.040 A 
ATOM     81  C   UNL A   1      45.878  26.327  35.716  1.00  0.00     0.040 A 
ATOM     82  F   UNL A   1      43.688  25.987  34.948  1.00  0.00    -0.206 F 
ATOM     83  C   UNL A   1      47.057  27.070  35.720  1.00  0.00     0.006 A 
ENDBRANCH  59  76
ENDBRANCH  33  34
ENDBRANCH  26  28
ENDBRANCH  25  26
ENDBRANCH  24  25
ENDBRANCH  23  24
ENDBRANCH   1  23
TORSDOF 17
ENDMDL
MODEL 2
REMARK VINA RESULT:     -10.4      2.167      3.461
REMARK SMILES Cc1nc(C[C@@H](C(=O)OCCOCCOC(=O)c2ccc(-c3c4nc(c(-c5c(F)cccc5F)c5ccc([nH]5)c(-c5c(F)cccc5F)c5nc(c(-c6c(F)cccc6F)c6ccc3[nH]6)C=C5)C=C4)cc2)[C@@H]2CCS(=O)(=O)C2)sc1C
REMARK SMILES IDX 12 1 11 2 10 3 9 4 7 5 8 6 6 7 5 8 4 9 1 10 2 11 3 12 80 13
REMARK SMILES IDX 79 14 81 15 72 16 73 17 78 18 74 19 75 20 76 21 77 22 13 23
REMARK SMILES IDX 14 24 15 25 16 26 17 27 18 28 19 29 71 30 20 31 70 32 21 33
REMARK SMILES IDX 22 34 23 35 64 36 24 37 69 38 63 39 65 40 25 41 68 42 62 43
REMARK SMILES IDX 61 44 26 46 52 47 35 48 51 49 36 50 39 51 50 52 66 53 37 54
REMARK SMILES IDX 38 55 49 57 67 58 40 59 27 60 28 61 33 62 29 63 30 64 32 65
REMARK SMILES IDX 34 66 31 67 53 68 54 69 59 70 55 71 56 72 58 73 60 74 57 75
REMARK SMILES IDX 41 76 42 77 47 78 43 79 44 80 46 81 48 82 45 83
REMARK H PARENT 65 45 39 56
REMARK Flexibility Score: inf
ROOT
ATOM      1  O   UNL A   1      32.305  30.875  26.255  1.00  0.00    -0.374 OA
ENDROOT
BRANCH   1   2
ATOM      2  C   UNL A   1      33.179  30.146  27.128  1.00  0.00     0.202 C 
BRANCH   2   3
ATOM      3  C   UNL A   1      32.980  28.627  27.100  1.00  0.00     0.261 C 
BRANCH   3   4
ATOM      4  O   UNL A   1      32.197  28.243  25.954  1.00  0.00    -0.463 OA
BRANCH   4   5
ATOM      5  C   UNL A   1      31.581  27.053  26.009  1.00  0.00     0.309 C 
ATOM      6  O   UNL A   1      30.819  26.746  26.915  1.00  0.00    -0.252 OA
BRANCH   5   7
ATOM      7  C   UNL A   1      31.955  26.085  24.883  1.00  0.00     0.110 C 
BRANCH   7   8
ATOM      8  C   UNL A   1      33.466  25.778  24.671  1.00  0.00     0.083 C 
BRANCH   8   9
ATOM      9  C   UNL A   1      33.945  24.419  25.104  1.00  0.00     0.094 A 
ATOM     10  C   UNL A   1      33.999  21.917  27.661  1.00  0.00     0.068 C 
ATOM     11  C   UNL A   1      34.287  22.665  26.414  1.00  0.00     0.051 A 
ATOM     12  N   UNL A   1      33.824  23.958  26.327  1.00  0.00    -0.246 NA
ATOM     13  C   UNL A   1      34.958  22.218  25.293  1.00  0.00     0.024 A 
ATOM     14  S   UNL A   1      34.838  23.396  24.049  1.00  0.00    -0.124 S 
ATOM     15  C   UNL A   1      35.667  20.926  25.087  1.00  0.00     0.058 C 
ENDBRANCH   8   9
ENDBRANCH   7   8
BRANCH   7  16
ATOM     16  C   UNL A   1      31.350  26.599  23.518  1.00  0.00     0.020 C 
ATOM     17  C   UNL A   1      32.307  27.402  22.597  1.00  0.00     0.021 C 
ATOM     18  C   UNL A   1      30.033  27.401  23.652  1.00  0.00     0.141 C 
ATOM     19  C   UNL A   1      32.053  28.899  22.742  1.00  0.00     0.137 C 
ATOM     20  S   UNL A   1      30.295  29.037  22.966  1.00  0.00     0.150 S 
ATOM     21  O   UNL A   1      29.993  30.050  23.953  1.00  0.00    -0.229 OA
ATOM     22  O   UNL A   1      29.691  29.065  21.647  1.00  0.00    -0.229 OA
ENDBRANCH   7  16
ENDBRANCH   5   7
ENDBRANCH   4   5
ENDBRANCH   3   4
ENDBRANCH   2   3
ENDBRANCH   1   2
BRANCH   1  23
ATOM     23  C   UNL A   1      31.532  31.894  26.885  1.00  0.00     0.202 C 
BRANCH  23  24
ATOM     24  C   UNL A   1      32.171  33.285  26.906  1.00  0.00     0.261 C 
BRANCH  24  25
ATOM     25  O   UNL A   1      32.247  33.788  28.246  1.00  0.00    -0.460 OA
BRANCH  25  26
ATOM     26  C   UNL A   1      33.313  34.584  28.485  1.00  0.00     0.338 C 
ATOM     27  O   UNL A   1      33.325  35.801  28.570  1.00  0.00    -0.246 OA
BRANCH  26  28
ATOM     28  C   UNL A   1      34.485  33.748  28.811  1.00  0.00     0.060 A 
ATOM     29  C   UNL A   1      34.252  32.572  29.537  1.00  0.00     0.016 A 
ATOM     30  C   UNL A   1      35.782  34.095  28.423  1.00  0.00     0.016 A 
ATOM     31  C   UNL A   1      35.318  31.763  29.919  1.00  0.00     0.010 A 
ATOM     32  C   UNL A   1      36.852  33.282  28.808  1.00  0.00     0.010 A 
ATOM     33  C   UNL A   1      36.627  32.129  29.585  1.00  0.00    -0.014 A 
BRANCH  33  34
ATOM     34  C   UNL A   1      37.769  31.411  30.200  1.00  0.00     0.031 A 
ATOM     35  C   UNL A   1      38.103  31.707  31.636  1.00  0.00     0.074 A 
ATOM     36  C   UNL A   1      38.476  30.494  29.514  1.00  0.00     0.049 A 
ATOM     37  N   UNL A   1      39.065  31.228  32.379  1.00  0.00    -0.248 NA
ATOM     38  C   UNL A   1      37.238  32.680  32.322  1.00  0.00     0.031 C 
ATOM     39  C   UNL A   1      38.224  30.084  28.134  1.00  0.00     0.029 A 
ATOM     40  N   UNL A   1      39.562  29.745  29.892  1.00  0.00    -0.354 N 
ATOM     41  C   UNL A   1      38.919  31.839  33.618  1.00  0.00     0.074 A 
ATOM     42  C   UNL A   1      37.811  32.761  33.512  1.00  0.00     0.031 C 
ATOM     43  C   UNL A   1      39.147  29.176  27.770  1.00  0.00     0.029 A 
ATOM     44  C   UNL A   1      40.056  28.945  28.891  1.00  0.00     0.049 A 
ATOM     45  H   UNL A   1      39.951  29.779  30.796  1.00  0.00     0.167 HD
ATOM     46  C   UNL A   1      39.630  31.635  34.752  1.00  0.00     0.037 A 
ATOM     47  C   UNL A   1      41.124  28.124  28.883  1.00  0.00     0.037 A 
ATOM     48  C   UNL A   1      40.720  30.707  34.864  1.00  0.00     0.049 A 
ATOM     49  C   UNL A   1      41.939  27.960  30.139  1.00  0.00     0.074 A 
ATOM     50  C   UNL A   1      41.487  30.409  35.977  1.00  0.00     0.029 A 
ATOM     51  N   UNL A   1      41.200  29.927  33.824  1.00  0.00    -0.354 N 
ATOM     52  N   UNL A   1      41.766  28.514  31.316  1.00  0.00    -0.248 NA
ATOM     53  C   UNL A   1      43.087  27.045  30.072  1.00  0.00     0.031 C 
ATOM     54  C   UNL A   1      42.460  29.478  35.597  1.00  0.00     0.029 A 
ATOM     55  C   UNL A   1      42.267  29.163  34.262  1.00  0.00     0.049 A 
ATOM     56  H   UNL A   1      40.835  29.917  32.909  1.00  0.00     0.167 HD
ATOM     57  C   UNL A   1      42.756  27.985  32.136  1.00  0.00     0.074 A 
ATOM     58  C   UNL A   1      43.522  27.063  31.324  1.00  0.00     0.031 C 
ATOM     59  C   UNL A   1      43.006  28.235  33.444  1.00  0.00     0.037 A 
BRANCH  46  60
ATOM     60  C   UNL A   1      39.247  32.442  35.955  1.00  0.00     0.057 A 
ATOM     61  C   UNL A   1      38.337  31.963  36.906  1.00  0.00     0.134 A 
ATOM     62  C   UNL A   1      39.808  33.706  36.173  1.00  0.00     0.134 A 
ATOM     63  F   UNL A   1      37.750  30.767  36.744  1.00  0.00    -0.206 F 
ATOM     64  C   UNL A   1      37.980  32.723  38.021  1.00  0.00     0.040 A 
ATOM     65  C   UNL A   1      39.479  34.464  37.298  1.00  0.00     0.040 A 
ATOM     66  F   UNL A   1      40.685  34.222  35.300  1.00  0.00    -0.206 F 
ATOM     67  C   UNL A   1      38.558  33.975  38.222  1.00  0.00     0.006 A 
ENDBRANCH  46  60
BRANCH  47  68
ATOM     68  C   UNL A   1      41.491  27.381  27.650  1.00  0.00     0.057 A 
ATOM     69  C   UNL A   1      42.282  27.971  26.656  1.00  0.00     0.134 A 
ATOM     70  C   UNL A   1      41.023  26.083  27.415  1.00  0.00     0.134 A 
ATOM     71  F   UNL A   1      42.741  29.221  26.813  1.00  0.00    -0.206 F 
ATOM     72  C   UNL A   1      42.570  27.308  25.462  1.00  0.00     0.040 A 
ATOM     73  C   UNL A   1      41.323  25.400  26.235  1.00  0.00     0.040 A 
ATOM     74  F   UNL A   1      40.264  25.461  28.330  1.00  0.00    -0.206 F 
ATOM     75  C   UNL A   1      42.091  26.016  25.250  1.00  0.00     0.006 A 
ENDBRANCH  47  68
BRANCH  59  76
ATOM     76  C   UNL A   1      44.122  27.472  34.094  1.00  0.00     0.057 A 
ATOM     77  C   UNL A   1      45.417  27.993  34.194  1.00  0.00     0.134 A 
ATOM     78  C   UNL A   1      43.880  26.221  34.677  1.00  0.00     0.134 A 
ATOM     79  F   UNL A   1      45.715  29.182  33.646  1.00  0.00    -0.206 F 
ATOM     80  C   UNL A   1      46.438  27.290  34.833  1.00  0.00     0.040 A 
ATOM     81  C   UNL A   1      44.886  25.519  35.342  1.00  0.00     0.040 A 
ATOM     82  F   UNL A   1      42.658  25.669  34.625  1.00  0.00    -0.206 F 
ATOM     83  C   UNL A   1      46.171  26.052  35.417  1.00  0.00     0.006 A 
ENDBRANCH  59  76
ENDBRANCH  33  34
ENDBRANCH  26  28
ENDBRANCH  25  26
ENDBRANCH  24  25
ENDBRANCH  23  24
ENDBRANCH   1  23
TORSDOF 17
ENDMDL
MODEL 3
REMARK VINA RESULT:     -10.4      3.971      9.030
REMARK SMILES Cc1nc(C[C@@H](C(=O)OCCOCCOC(=O)c2ccc(-c3c4nc(c(-c5c(F)cccc5F)c5ccc([nH]5)c(-c5c(F)cccc5F)c5nc(c(-c6c(F)cccc6F)c6ccc3[nH]6)C=C5)C=C4)cc2)[C@@H]2CCS(=O)(=O)C2)sc1C
REMARK SMILES IDX 12 1 11 2 10 3 9 4 7 5 8 6 6 7 5 8 4 9 1 10 2 11 3 12 80 13
REMARK SMILES IDX 79 14 81 15 72 16 73 17 78 18 74 19 75 20 76 21 77 22 13 23
REMARK SMILES IDX 14 24 15 25 16 26 17 27 18 28 19 29 71 30 20 31 70 32 21 33
REMARK SMILES IDX 22 34 23 35 64 36 24 37 69 38 63 39 65 40 25 41 68 42 62 43
REMARK SMILES IDX 61 44 26 46 52 47 35 48 51 49 36 50 39 51 50 52 66 53 37 54
REMARK SMILES IDX 38 55 49 57 67 58 40 59 27 60 28 61 33 62 29 63 30 64 32 65
REMARK SMILES IDX 34 66 31 67 53 68 54 69 59 70 55 71 56 72 58 73 60 74 57 75
REMARK SMILES IDX 41 76 42 77 47 78 43 79 44 80 46 81 48 82 45 83
REMARK H PARENT 65 45 39 56
REMARK Flexibility Score: inf
ROOT
ATOM      1  O   UNL A   1      35.064  21.426  25.709  1.00  0.00    -0.374 OA
ENDROOT
BRANCH   1   2
ATOM      2  C   UNL A   1      33.784  21.722  25.135  1.00  0.00     0.202 C 
BRANCH   2   3
ATOM      3  C   UNL A   1      32.884  22.599  26.010  1.00  0.00     0.261 C 
BRANCH   3   4
ATOM      4  O   UNL A   1      32.796  23.930  25.466  1.00  0.00    -0.463 OA
BRANCH   4   5
ATOM      5  C   UNL A   1      32.168  24.851  26.211  1.00  0.00     0.309 C 
ATOM      6  O   UNL A   1      31.414  24.556  27.127  1.00  0.00    -0.252 OA
BRANCH   5   7
ATOM      7  C   UNL A   1      32.419  26.300  25.785  1.00  0.00     0.110 C 
BRANCH   7   8
ATOM      8  C   UNL A   1      31.833  27.426  26.686  1.00  0.00     0.083 C 
BRANCH   8   9
ATOM      9  C   UNL A   1      32.739  28.588  26.987  1.00  0.00     0.094 A 
ATOM     10  C   UNL A   1      36.074  29.730  27.599  1.00  0.00     0.068 C 
ATOM     11  C   UNL A   1      34.599  29.694  27.467  1.00  0.00     0.051 A 
ATOM     12  N   UNL A   1      34.002  28.463  27.318  1.00  0.00    -0.246 NA
ATOM     13  C   UNL A   1      33.722  30.762  27.453  1.00  0.00     0.024 A 
ATOM     14  S   UNL A   1      32.146  30.201  27.065  1.00  0.00    -0.124 S 
ATOM     15  C   UNL A   1      34.009  32.204  27.686  1.00  0.00     0.058 C 
ENDBRANCH   8   9
ENDBRANCH   7   8
BRANCH   7  16
ATOM     16  C   UNL A   1      31.901  26.518  24.308  1.00  0.00     0.020 C 
ATOM     17  C   UNL A   1      32.865  27.251  23.338  1.00  0.00     0.021 C 
ATOM     18  C   UNL A   1      30.512  27.191  24.200  1.00  0.00     0.141 C 
ATOM     19  C   UNL A   1      32.469  28.717  23.202  1.00  0.00     0.137 C 
ATOM     20  S   UNL A   1      30.692  28.710  23.263  1.00  0.00     0.150 S 
ATOM     21  O   UNL A   1      30.212  29.836  24.034  1.00  0.00    -0.229 OA
ATOM     22  O   UNL A   1      30.213  28.458  21.917  1.00  0.00    -0.229 OA
ENDBRANCH   7  16
ENDBRANCH   5   7
ENDBRANCH   4   5
ENDBRANCH   3   4
ENDBRANCH   2   3
ENDBRANCH   1   2
BRANCH   1  23
ATOM     23  C   UNL A   1      35.785  20.374  25.072  1.00  0.00     0.202 C 
BRANCH  23  24
ATOM     24  C   UNL A   1      37.269  20.653  24.821  1.00  0.00     0.261 C 
BRANCH  24  25
ATOM     25  O   UNL A   1      37.767  21.626  25.748  1.00  0.00    -0.460 OA
BRANCH  25  26
ATOM     26  C   UNL A   1      39.050  21.432  26.128  1.00  0.00     0.338 C 
ATOM     27  O   UNL A   1      39.740  20.446  25.927  1.00  0.00    -0.246 OA
BRANCH  26  28
ATOM     28  C   UNL A   1      39.588  22.684  26.694  1.00  0.00     0.060 A 
ATOM     29  C   UNL A   1      38.991  23.882  26.283  1.00  0.00     0.016 A 
ATOM     30  C   UNL A   1      40.649  22.697  27.604  1.00  0.00     0.016 A 
ATOM     31  C   UNL A   1      39.482  25.102  26.741  1.00  0.00     0.010 A 
ATOM     32  C   UNL A   1      41.142  23.921  28.064  1.00  0.00     0.010 A 
ATOM     33  C   UNL A   1      40.581  25.130  27.609  1.00  0.00    -0.014 A 
BRANCH  33  34
ATOM     34  C   UNL A   1      41.255  26.419  27.895  1.00  0.00     0.031 A 
ATOM     35  C   UNL A   1      42.671  26.600  27.421  1.00  0.00     0.074 A 
ATOM     36  C   UNL A   1      40.620  27.419  28.533  1.00  0.00     0.049 A 
ATOM     37  N   UNL A   1      43.472  27.621  27.573  1.00  0.00    -0.248 NA
ATOM     38  C   UNL A   1      43.262  25.474  26.680  1.00  0.00     0.031 C 
ATOM     39  C   UNL A   1      39.237  27.386  29.002  1.00  0.00     0.029 A 
ATOM     40  N   UNL A   1      41.068  28.662  28.903  1.00  0.00    -0.354 N 
ATOM     41  C   UNL A   1      44.658  27.260  26.948  1.00  0.00     0.074 A 
ATOM     42  C   UNL A   1      44.492  25.909  26.460  1.00  0.00     0.031 C 
ATOM     43  C   UNL A   1      38.955  28.546  29.622  1.00  0.00     0.029 A 
ATOM     44  C   UNL A   1      40.140  29.400  29.597  1.00  0.00     0.049 A 
ATOM     45  H   UNL A   1      41.971  28.994  28.692  1.00  0.00     0.167 HD
ATOM     46  C   UNL A   1      45.781  27.996  26.773  1.00  0.00     0.037 A 
ATOM     47  C   UNL A   1      40.242  30.623  30.151  1.00  0.00     0.037 A 
ATOM     48  C   UNL A   1      45.943  29.344  27.243  1.00  0.00     0.049 A 
ATOM     49  C   UNL A   1      41.524  31.399  29.999  1.00  0.00     0.074 A 
ATOM     50  C   UNL A   1      47.033  30.183  27.093  1.00  0.00     0.029 A 
ATOM     51  N   UNL A   1      44.986  30.050  27.954  1.00  0.00    -0.354 N 
ATOM     52  N   UNL A   1      42.625  31.062  29.370  1.00  0.00    -0.248 NA
ATOM     53  C   UNL A   1      41.572  32.731  30.618  1.00  0.00     0.031 C 
ATOM     54  C   UNL A   1      46.750  31.384  27.753  1.00  0.00     0.029 A 
ATOM     55  C   UNL A   1      45.468  31.308  28.271  1.00  0.00     0.049 A 
ATOM     56  H   UNL A   1      44.095  29.707  28.198  1.00  0.00     0.167 HD
ATOM     57  C   UNL A   1      43.478  32.153  29.485  1.00  0.00     0.074 A 
ATOM     58  C   UNL A   1      42.766  33.164  30.238  1.00  0.00     0.031 C 
ATOM     59  C   UNL A   1      44.736  32.308  29.005  1.00  0.00     0.037 A 
BRANCH  46  60
ATOM     60  C   UNL A   1      46.921  27.345  26.051  1.00  0.00     0.057 A 
ATOM     61  C   UNL A   1      47.062  27.437  24.660  1.00  0.00     0.134 A 
ATOM     62  C   UNL A   1      47.899  26.634  26.756  1.00  0.00     0.134 A 
ATOM     63  F   UNL A   1      46.147  28.088  23.925  1.00  0.00    -0.206 F 
ATOM     64  C   UNL A   1      48.123  26.823  23.992  1.00  0.00     0.040 A 
ATOM     65  C   UNL A   1      48.979  26.038  26.103  1.00  0.00     0.040 A 
ATOM     66  F   UNL A   1      47.823  26.509  28.089  1.00  0.00    -0.206 F 
ATOM     67  C   UNL A   1      49.089  26.127  24.716  1.00  0.00     0.006 A 
ENDBRANCH  46  60
BRANCH  47  68
ATOM     68  C   UNL A   1      39.098  31.206  30.900  1.00  0.00     0.057 A 
ATOM     69  C   UNL A   1      38.975  31.035  32.284  1.00  0.00     0.134 A 
ATOM     70  C   UNL A   1      38.080  31.906  30.244  1.00  0.00     0.134 A 
ATOM     71  F   UNL A   1      39.908  30.354  32.965  1.00  0.00    -0.206 F 
ATOM     72  C   UNL A   1      37.867  31.515  32.984  1.00  0.00     0.040 A 
ATOM     73  C   UNL A   1      36.977  32.413  30.935  1.00  0.00     0.040 A 
ATOM     74  F   UNL A   1      38.140  32.108  28.919  1.00  0.00    -0.206 F 
ATOM     75  C   UNL A   1      36.864  32.209  32.309  1.00  0.00     0.006 A 
ENDBRANCH  47  68
BRANCH  59  76
ATOM     76  C   UNL A   1      45.408  33.629  29.238  1.00  0.00     0.057 A 
ATOM     77  C   UNL A   1      46.231  33.857  30.347  1.00  0.00     0.134 A 
ATOM     78  C   UNL A   1      45.274  34.667  28.306  1.00  0.00     0.134 A 
ATOM     79  F   UNL A   1      46.391  32.907  31.281  1.00  0.00    -0.206 F 
ATOM     80  C   UNL A   1      46.880  35.078  30.534  1.00  0.00     0.040 A 
ATOM     81  C   UNL A   1      45.939  35.883  28.468  1.00  0.00     0.040 A 
ATOM     82  F   UNL A   1      44.509  34.510  27.215  1.00  0.00    -0.206 F 
ATOM     83  C   UNL A   1      46.742  36.092  29.587  1.00  0.00     0.006 A 
ENDBRANCH  59  76
ENDBRANCH  33  34
ENDBRANCH  26  28
ENDBRANCH  25  26
ENDBRANCH  24  25
ENDBRANCH  23  24
ENDBRANCH   1  23
TORSDOF 17
ENDMDL
