MODEL 1
REMARK VINA RESULT:     -11.1      0.000      0.000
REMARK SMILES COC(=O)[C@H]1CCN(C(=O)N2C[C@@H](C)[C@@H](C(=O)OCCOCCOC(=O)c3ccc(-c4c5nc(c(-c6c(F)cccc6F)c6ccc([nH]6)c(-c6c(F)cccc6F)c6nc(c(-c7c(F)cccc7F)c7ccc4[nH]7)C=C6)C=C5)cc3)C2)C1
REMARK SMILES IDX 20 1 19 2 18 3 16 4 17 5 15 6 11 7 12 8 81 9 13 10 14 11
REMARK SMILES IDX 9 12 10 13 8 14 5 15 6 16 82 17 7 18 3 19 4 20 2 21 1 22
REMARK SMILES IDX 21 23 22 24 23 25 24 26 25 27 26 28 27 29 28 30 80 31 29 32
REMARK SMILES IDX 79 33 30 34 31 35 32 36 73 37 33 38 78 39 72 40 74 41 34 42
REMARK SMILES IDX 77 43 71 44 70 45 35 47 61 48 44 49 60 50 45 51 48 52 59 53
REMARK SMILES IDX 75 54 46 55 47 56 58 58 76 59 49 60 36 61 37 62 42 63 38 64
REMARK SMILES IDX 39 65 41 66 43 67 40 68 62 69 63 70 68 71 64 72 65 73 67 74
REMARK SMILES IDX 69 75 66 76 50 77 51 78 56 79 52 80 53 81 55 82 57 83 54 84
REMARK H PARENT 74 46 48 57
REMARK Flexibility Score: inf
ROOT
ATOM      1  C   UNL A   1      39.379  22.117  26.298  1.00  0.00     0.202 C 
ENDROOT
BRANCH   1   2
ATOM      2  C   UNL A   1      38.017  21.753  25.706  1.00  0.00     0.261 C 
BRANCH   2   3
ATOM      3  O   UNL A   1      37.242  22.943  25.446  1.00  0.00    -0.463 OA
BRANCH   3   4
ATOM      4  C   UNL A   1      36.501  22.928  24.314  1.00  0.00     0.311 C 
ATOM      5  O   UNL A   1      36.957  22.683  23.204  1.00  0.00    -0.252 OA
BRANCH   4   6
ATOM      6  C   UNL A   1      35.053  23.335  24.534  1.00  0.00     0.123 C 
ATOM      7  N   UNL A   1      33.490  24.102  22.902  1.00  0.00    -0.323 N 
ATOM      8  C   UNL A   1      33.343  22.665  22.945  1.00  0.00     0.125 C 
ATOM      9  C   UNL A   1      34.743  24.470  23.528  1.00  0.00     0.137 C 
ATOM     10  C   UNL A   1      33.853  22.358  24.346  1.00  0.00     0.021 C 
ATOM     11  C   UNL A   1      33.985  20.877  24.645  1.00  0.00     0.010 C 
BRANCH   7  12
ATOM     12  C   UNL A   1      32.838  24.969  22.069  1.00  0.00     0.320 C 
ATOM     13  O   UNL A   1      33.250  25.196  20.932  1.00  0.00    -0.248 OA
BRANCH  12  14
ATOM     14  N   UNL A   1      31.749  25.628  22.581  1.00  0.00    -0.324 N 
ATOM     15  C   UNL A   1      30.467  27.474  23.345  1.00  0.00     0.120 C 
ATOM     16  C   UNL A   1      29.710  26.162  23.561  1.00  0.00     0.039 C 
ATOM     17  C   UNL A   1      31.644  27.078  22.459  1.00  0.00     0.136 C 
ATOM     18  C   UNL A   1      30.835  25.150  23.604  1.00  0.00     0.122 C 
BRANCH  15  19
ATOM     19  C   UNL A   1      29.625  28.539  22.696  1.00  0.00     0.310 C 
ATOM     20  O   UNL A   1      29.906  29.129  21.663  1.00  0.00    -0.252 OA
BRANCH  19  21
ATOM     21  O   UNL A   1      28.488  28.731  23.422  1.00  0.00    -0.469 OA
ATOM     22  C   UNL A   1      27.573  29.652  22.827  1.00  0.00     0.282 C 
ENDBRANCH  19  21
ENDBRANCH  15  19
ENDBRANCH  12  14
ENDBRANCH   7  12
ENDBRANCH   4   6
ENDBRANCH   3   4
ENDBRANCH   2   3
ENDBRANCH   1   2
BRANCH   1  23
ATOM     23  O   UNL A   1      40.507  21.427  25.761  1.00  0.00    -0.374 OA
BRANCH  23  24
ATOM     24  C   UNL A   1      41.626  21.254  26.628  1.00  0.00     0.202 C 
BRANCH  24  25
ATOM     25  C   UNL A   1      42.943  21.906  26.183  1.00  0.00     0.261 C 
BRANCH  25  26
ATOM     26  O   UNL A   1      42.773  22.746  25.026  1.00  0.00    -0.460 OA
BRANCH  26  27
ATOM     27  C   UNL A   1      43.540  23.861  25.019  1.00  0.00     0.338 C 
ATOM     28  O   UNL A   1      44.492  24.095  24.289  1.00  0.00    -0.246 OA
BRANCH  27  29
ATOM     29  C   UNL A   1      42.951  24.889  25.900  1.00  0.00     0.060 A 
ATOM     30  C   UNL A   1      43.834  25.803  26.491  1.00  0.00     0.016 A 
ATOM     31  C   UNL A   1      41.584  24.946  26.183  1.00  0.00     0.016 A 
ATOM     32  C   UNL A   1      43.366  26.736  27.413  1.00  0.00     0.010 A 
ATOM     33  C   UNL A   1      41.116  25.882  27.114  1.00  0.00     0.010 A 
ATOM     34  C   UNL A   1      42.009  26.754  27.762  1.00  0.00    -0.014 A 
BRANCH  34  35
ATOM     35  C   UNL A   1      41.567  27.581  28.913  1.00  0.00     0.031 A 
ATOM     36  C   UNL A   1      42.325  27.491  30.211  1.00  0.00     0.074 A 
ATOM     37  C   UNL A   1      40.541  28.442  28.793  1.00  0.00     0.049 A 
ATOM     38  N   UNL A   1      42.107  28.109  31.345  1.00  0.00    -0.248 NA
ATOM     39  C   UNL A   1      43.481  26.581  30.234  1.00  0.00     0.031 C 
ATOM     40  C   UNL A   1      39.758  28.659  27.577  1.00  0.00     0.029 A 
ATOM     41  N   UNL A   1      39.981  29.295  29.711  1.00  0.00    -0.354 N 
ATOM     42  C   UNL A   1      43.095  27.660  32.213  1.00  0.00     0.074 A 
ATOM     43  C   UNL A   1      43.888  26.691  31.489  1.00  0.00     0.031 C 
ATOM     44  C   UNL A   1      38.815  29.584  27.826  1.00  0.00     0.029 A 
ATOM     45  C   UNL A   1      38.906  29.999  29.225  1.00  0.00     0.049 A 
ATOM     46  H   UNL A   1      40.319  29.395  30.631  1.00  0.00     0.167 HD
ATOM     47  C   UNL A   1      43.328  28.032  33.495  1.00  0.00     0.037 A 
ATOM     48  C   UNL A   1      38.077  30.861  29.845  1.00  0.00     0.037 A 
ATOM     49  C   UNL A   1      42.541  28.997  34.214  1.00  0.00     0.049 A 
ATOM     50  C   UNL A   1      38.305  31.192  31.297  1.00  0.00     0.074 A 
ATOM     51  C   UNL A   1      42.708  29.452  35.512  1.00  0.00     0.029 A 
ATOM     52  N   UNL A   1      41.430  29.652  33.702  1.00  0.00    -0.354 N 
ATOM     53  N   UNL A   1      39.254  30.781  32.103  1.00  0.00    -0.248 NA
ATOM     54  C   UNL A   1      37.344  32.112  31.927  1.00  0.00     0.031 C 
ATOM     55  C   UNL A   1      41.664  30.337  35.803  1.00  0.00     0.029 A 
ATOM     56  C   UNL A   1      40.884  30.482  34.667  1.00  0.00     0.049 A 
ATOM     57  H   UNL A   1      41.083  29.543  32.788  1.00  0.00     0.167 HD
ATOM     58  C   UNL A   1      39.025  31.412  33.319  1.00  0.00     0.074 A 
ATOM     59  C   UNL A   1      37.854  32.245  33.143  1.00  0.00     0.031 C 
ATOM     60  C   UNL A   1      39.721  31.313  34.478  1.00  0.00     0.037 A 
BRANCH  47  61
ATOM     61  C   UNL A   1      44.470  27.370  34.212  1.00  0.00     0.057 A 
ATOM     62  C   UNL A   1      44.358  26.086  34.764  1.00  0.00     0.134 A 
ATOM     63  C   UNL A   1      45.711  28.011  34.320  1.00  0.00     0.134 A 
ATOM     64  F   UNL A   1      43.193  25.422  34.708  1.00  0.00    -0.206 F 
ATOM     65  C   UNL A   1      45.431  25.475  35.415  1.00  0.00     0.040 A 
ATOM     66  C   UNL A   1      46.799  27.399  34.943  1.00  0.00     0.040 A 
ATOM     67  F   UNL A   1      45.890  29.239  33.809  1.00  0.00    -0.206 F 
ATOM     68  C   UNL A   1      46.658  26.129  35.499  1.00  0.00     0.006 A 
ENDBRANCH  47  61
BRANCH  48  69
ATOM     69  C   UNL A   1      36.940  31.465  29.103  1.00  0.00     0.057 A 
ATOM     70  C   UNL A   1      36.981  32.795  28.666  1.00  0.00     0.134 A 
ATOM     71  C   UNL A   1      35.775  30.737  28.838  1.00  0.00     0.134 A 
ATOM     72  F   UNL A   1      38.060  33.553  28.910  1.00  0.00    -0.206 F 
ATOM     73  C   UNL A   1      35.898  33.383  28.010  1.00  0.00     0.040 A 
ATOM     74  C   UNL A   1      34.695  31.303  28.158  1.00  0.00     0.040 A 
ATOM     75  F   UNL A   1      35.670  29.459  29.230  1.00  0.00    -0.206 F 
ATOM     76  C   UNL A   1      34.753  32.634  27.750  1.00  0.00     0.006 A 
ENDBRANCH  48  69
BRANCH  60  77
ATOM     77  C   UNL A   1      39.264  32.151  35.637  1.00  0.00     0.057 A 
ATOM     78  C   UNL A   1      39.661  33.485  35.791  1.00  0.00     0.134 A 
ATOM     79  C   UNL A   1      38.376  31.629  36.588  1.00  0.00     0.134 A 
ATOM     80  F   UNL A   1      40.519  34.045  34.924  1.00  0.00    -0.206 F 
ATOM     81  C   UNL A   1      39.210  34.263  36.860  1.00  0.00     0.040 A 
ATOM     82  C   UNL A   1      37.895  32.405  37.643  1.00  0.00     0.040 A 
ATOM     83  F   UNL A   1      37.946  30.361  36.494  1.00  0.00    -0.206 F 
ATOM     84  C   UNL A   1      38.317  33.725  37.786  1.00  0.00     0.006 A 
ENDBRANCH  60  77
ENDBRANCH  34  35
ENDBRANCH  27  29
ENDBRANCH  26  27
ENDBRANCH  25  26
ENDBRANCH  24  25
ENDBRANCH  23  24
ENDBRANCH   1  23
TORSDOF 18
ENDMDL
MODEL 2
REMARK VINA RESULT:     -11.1      2.717      8.252
REMARK SMILES COC(=O)[C@H]1CCN(C(=O)N2C[C@@H](C)[C@@H](C(=O)OCCOCCOC(=O)c3ccc(-c4c5nc(c(-c6c(F)cccc6F)c6ccc([nH]6)c(-c6c(F)cccc6F)c6nc(c(-c7c(F)cccc7F)c7ccc4[nH]7)C=C6)C=C5)cc3)C2)C1
REMARK SMILES IDX 20 1 19 2 18 3 16 4 17 5 15 6 11 7 12 8 81 9 13 10 14 11
REMARK SMILES IDX 9 12 10 13 8 14 5 15 6 16 82 17 7 18 3 19 4 20 2 21 1 22
REMARK SMILES IDX 21 23 22 24 23 25 24 26 25 27 26 28 27 29 28 30 80 31 29 32
REMARK SMILES IDX 79 33 30 34 31 35 32 36 73 37 33 38 78 39 72 40 74 41 34 42
REMARK SMILES IDX 77 43 71 44 70 45 35 47 61 48 44 49 60 50 45 51 48 52 59 53
REMARK SMILES IDX 75 54 46 55 47 56 58 58 76 59 49 60 36 61 37 62 42 63 38 64
REMARK SMILES IDX 39 65 41 66 43 67 40 68 62 69 63 70 68 71 64 72 65 73 67 74
REMARK SMILES IDX 69 75 66 76 50 77 51 78 56 79 52 80 53 81 55 82 57 83 54 84
REMARK H PARENT 74 46 48 57
REMARK Flexibility Score: inf
ROOT
ATOM      1  C   UNL A   1      33.220  29.424  26.998  1.00  0.00     0.202 C 
ENDROOT
BRANCH   1   2
ATOM      2  C   UNL A   1      31.828  28.806  27.139  1.00  0.00     0.261 C 
BRANCH   2   3
ATOM      3  O   UNL A   1      31.398  28.233  25.886  1.00  0.00    -0.463 OA
BRANCH   3   4
ATOM      4  C   UNL A   1      31.808  26.966  25.647  1.00  0.00     0.311 C 
ATOM      5  O   UNL A   1      32.212  26.204  26.518  1.00  0.00    -0.252 OA
BRANCH   4   6
ATOM      6  C   UNL A   1      31.806  26.597  24.173  1.00  0.00     0.123 C 
ATOM      7  N   UNL A   1      32.304  24.477  23.198  1.00  0.00    -0.323 N 
ATOM      8  C   UNL A   1      30.881  24.472  23.446  1.00  0.00     0.125 C 
ATOM      9  C   UNL A   1      32.918  25.540  23.968  1.00  0.00     0.137 C 
ATOM     10  C   UNL A   1      30.578  25.965  23.452  1.00  0.00     0.021 C 
ATOM     11  C   UNL A   1      29.159  26.307  23.861  1.00  0.00     0.010 C 
BRANCH   7  12
ATOM     12  C   UNL A   1      33.053  23.446  22.700  1.00  0.00     0.320 C 
ATOM     13  O   UNL A   1      33.535  23.494  21.568  1.00  0.00    -0.248 OA
BRANCH  12  14
ATOM     14  N   UNL A   1      33.179  22.328  23.485  1.00  0.00    -0.324 N 
ATOM     15  C   UNL A   1      32.515  20.312  24.547  1.00  0.00     0.120 C 
ATOM     16  C   UNL A   1      33.922  20.719  24.988  1.00  0.00     0.039 C 
ATOM     17  C   UNL A   1      32.215  21.240  23.374  1.00  0.00     0.136 C 
ATOM     18  C   UNL A   1      33.918  22.210  24.730  1.00  0.00     0.122 C 
BRANCH  15  19
ATOM     19  C   UNL A   1      32.420  18.866  24.143  1.00  0.00     0.310 C 
ATOM     20  O   UNL A   1      32.549  18.442  23.004  1.00  0.00    -0.252 OA
BRANCH  19  21
ATOM     21  O   UNL A   1      32.191  18.095  25.243  1.00  0.00    -0.469 OA
ATOM     22  C   UNL A   1      32.724  16.774  25.142  1.00  0.00     0.282 C 
ENDBRANCH  19  21
ENDBRANCH  15  19
ENDBRANCH  12  14
ENDBRANCH   7  12
ENDBRANCH   4   6
ENDBRANCH   3   4
ENDBRANCH   2   3
ENDBRANCH   1   2
BRANCH   1  23
ATOM     23  O   UNL A   1      33.268  30.836  26.793  1.00  0.00    -0.374 OA
BRANCH  23  24
ATOM     24  C   UNL A   1      32.032  31.539  26.879  1.00  0.00     0.202 C 
BRANCH  24  25
ATOM     25  C   UNL A   1      32.119  33.071  26.941  1.00  0.00     0.261 C 
BRANCH  25  26
ATOM     26  O   UNL A   1      32.322  33.552  28.283  1.00  0.00    -0.460 OA
BRANCH  26  27
ATOM     27  C   UNL A   1      33.416  34.334  28.444  1.00  0.00     0.338 C 
ATOM     28  O   UNL A   1      33.445  35.554  28.504  1.00  0.00    -0.246 OA
BRANCH  27  29
ATOM     29  C   UNL A   1      34.598  33.501  28.743  1.00  0.00     0.060 A 
ATOM     30  C   UNL A   1      34.382  32.336  29.493  1.00  0.00     0.016 A 
ATOM     31  C   UNL A   1      35.889  33.854  28.345  1.00  0.00     0.016 A 
ATOM     32  C   UNL A   1      35.460  31.555  29.901  1.00  0.00     0.010 A 
ATOM     33  C   UNL A   1      36.972  33.069  28.760  1.00  0.00     0.010 A 
ATOM     34  C   UNL A   1      36.766  31.939  29.573  1.00  0.00    -0.014 A 
BRANCH  34  35
ATOM     35  C   UNL A   1      37.910  31.241  30.211  1.00  0.00     0.031 A 
ATOM     36  C   UNL A   1      38.232  31.533  31.652  1.00  0.00     0.074 A 
ATOM     37  C   UNL A   1      38.622  30.319  29.537  1.00  0.00     0.049 A 
ATOM     38  N   UNL A   1      39.190  31.051  32.404  1.00  0.00    -0.248 NA
ATOM     39  C   UNL A   1      37.357  32.497  32.338  1.00  0.00     0.031 C 
ATOM     40  C   UNL A   1      38.381  29.911  28.154  1.00  0.00     0.029 A 
ATOM     41  N   UNL A   1      39.696  29.560  29.931  1.00  0.00    -0.354 N 
ATOM     42  C   UNL A   1      39.035  31.656  33.646  1.00  0.00     0.074 A 
ATOM     43  C   UNL A   1      37.916  32.567  33.536  1.00  0.00     0.031 C 
ATOM     44  C   UNL A   1      39.284  28.976  27.813  1.00  0.00     0.029 A 
ATOM     45  C   UNL A   1      40.187  28.746  28.940  1.00  0.00     0.049 A 
ATOM     46  H   UNL A   1      40.077  29.594  30.838  1.00  0.00     0.167 HD
ATOM     47  C   UNL A   1      39.751  31.461  34.779  1.00  0.00     0.037 A 
ATOM     48  C   UNL A   1      41.256  27.926  28.935  1.00  0.00     0.037 A 
ATOM     49  C   UNL A   1      40.862  30.553  34.888  1.00  0.00     0.049 A 
ATOM     50  C   UNL A   1      42.090  27.791  30.183  1.00  0.00     0.074 A 
ATOM     51  C   UNL A   1      41.642  30.274  35.998  1.00  0.00     0.029 A 
ATOM     52  N   UNL A   1      41.359  29.782  33.847  1.00  0.00    -0.354 N 
ATOM     53  N   UNL A   1      41.922  28.350  31.358  1.00  0.00    -0.248 NA
ATOM     54  C   UNL A   1      43.265  26.909  30.104  1.00  0.00     0.031 C 
ATOM     55  C   UNL A   1      42.646  29.380  35.613  1.00  0.00     0.029 A 
ATOM     56  C   UNL A   1      42.454  29.053  34.281  1.00  0.00     0.049 A 
ATOM     57  H   UNL A   1      40.988  29.758  32.936  1.00  0.00     0.167 HD
ATOM     58  C   UNL A   1      42.945  27.864  32.163  1.00  0.00     0.074 A 
ATOM     59  C   UNL A   1      43.723  26.956  31.347  1.00  0.00     0.031 C 
ATOM     60  C   UNL A   1      43.217  28.145  33.461  1.00  0.00     0.037 A 
BRANCH  47  61
ATOM     61  C   UNL A   1      39.370  32.266  35.988  1.00  0.00     0.057 A 
ATOM     62  C   UNL A   1      39.926  33.527  36.247  1.00  0.00     0.134 A 
ATOM     63  C   UNL A   1      38.405  31.791  36.885  1.00  0.00     0.134 A 
ATOM     64  F   UNL A   1      40.865  34.035  35.436  1.00  0.00    -0.206 F 
ATOM     65  C   UNL A   1      39.552  34.272  37.367  1.00  0.00     0.040 A 
ATOM     66  C   UNL A   1      38.002  32.540  37.991  1.00  0.00     0.040 A 
ATOM     67  F   UNL A   1      37.827  30.595  36.693  1.00  0.00    -0.206 F 
ATOM     68  C   UNL A   1      38.582  33.783  38.238  1.00  0.00     0.006 A 
ENDBRANCH  47  61
BRANCH  48  69
ATOM     69  C   UNL A   1      41.614  27.174  27.705  1.00  0.00     0.057 A 
ATOM     70  C   UNL A   1      42.399  27.755  26.700  1.00  0.00     0.134 A 
ATOM     71  C   UNL A   1      41.158  25.869  27.490  1.00  0.00     0.134 A 
ATOM     72  F   UNL A   1      42.846  29.012  26.835  1.00  0.00    -0.206 F 
ATOM     73  C   UNL A   1      42.700  27.071  25.521  1.00  0.00     0.040 A 
ATOM     74  C   UNL A   1      41.475  25.163  26.329  1.00  0.00     0.040 A 
ATOM     75  F   UNL A   1      40.402  25.254  28.411  1.00  0.00    -0.206 F 
ATOM     76  C   UNL A   1      42.242  25.769  25.335  1.00  0.00     0.006 A 
ENDBRANCH  48  69
BRANCH  60  77
ATOM     77  C   UNL A   1      44.378  27.435  34.097  1.00  0.00     0.057 A 
ATOM     78  C   UNL A   1      45.657  28.003  34.149  1.00  0.00     0.134 A 
ATOM     79  C   UNL A   1      44.202  26.185  34.706  1.00  0.00     0.134 A 
ATOM     80  F   UNL A   1      45.898  29.192  33.576  1.00  0.00    -0.206 F 
ATOM     81  C   UNL A   1      46.724  27.344  34.764  1.00  0.00     0.040 A 
ATOM     82  C   UNL A   1      45.252  25.530  35.349  1.00  0.00     0.040 A 
ATOM     83  F   UNL A   1      43.000  25.589  34.702  1.00  0.00    -0.206 F 
ATOM     84  C   UNL A   1      46.521  26.107  35.374  1.00  0.00     0.006 A 
ENDBRANCH  60  77
ENDBRANCH  34  35
ENDBRANCH  27  29
ENDBRANCH  26  27
ENDBRANCH  25  26
ENDBRANCH  24  25
ENDBRANCH  23  24
ENDBRANCH   1  23
TORSDOF 18
ENDMDL
MODEL 3
REMARK VINA RESULT:     -11.1      3.707      5.990
REMARK SMILES COC(=O)[C@H]1CCN(C(=O)N2C[C@@H](C)[C@@H](C(=O)OCCOCCOC(=O)c3ccc(-c4c5nc(c(-c6c(F)cccc6F)c6ccc([nH]6)c(-c6c(F)cccc6F)c6nc(c(-c7c(F)cccc7F)c7ccc4[nH]7)C=C6)C=C5)cc3)C2)C1
REMARK SMILES IDX 20 1 19 2 18 3 16 4 17 5 15 6 11 7 12 8 81 9 13 10 14 11
REMARK SMILES IDX 9 12 10 13 8 14 5 15 6 16 82 17 7 18 3 19 4 20 2 21 1 22
REMARK SMILES IDX 21 23 22 24 23 25 24 26 25 27 26 28 27 29 28 30 80 31 29 32
REMARK SMILES IDX 79 33 30 34 31 35 32 36 73 37 33 38 78 39 72 40 74 41 34 42
REMARK SMILES IDX 77 43 71 44 70 45 35 47 61 48 44 49 60 50 45 51 48 52 59 53
REMARK SMILES IDX 75 54 46 55 47 56 58 58 76 59 49 60 36 61 37 62 42 63 38 64
REMARK SMILES IDX 39 65 41 66 43 67 40 68 62 69 63 70 68 71 64 72 65 73 67 74
REMARK SMILES IDX 69 75 66 76 50 77 51 78 56 79 52 80 53 81 55 82 57 83 54 84
REMARK H PARENT 74 46 48 57
REMARK Flexibility Score: inf
ROOT
ATOM      1  C   UNL A   1      35.907  22.032  24.378  1.00  0.00     0.202 C 
ENDROOT
BRANCH   1   2
ATOM      2  C   UNL A   1      34.926  21.445  25.394  1.00  0.00     0.261 C 
BRANCH   2   3
ATOM      3  O   UNL A   1      33.700  22.206  25.413  1.00  0.00    -0.463 OA
BRANCH   3   4
ATOM      4  C   UNL A   1      32.611  21.582  24.908  1.00  0.00     0.311 C 
ATOM      5  O   UNL A   1      32.426  20.372  24.974  1.00  0.00    -0.252 OA
BRANCH   4   6
ATOM      6  C   UNL A   1      31.669  22.515  24.164  1.00  0.00     0.123 C 
ATOM      7  N   UNL A   1      31.092  24.759  24.730  1.00  0.00    -0.323 N 
ATOM      8  C   UNL A   1      32.249  24.854  23.870  1.00  0.00     0.125 C 
ATOM      9  C   UNL A   1      30.978  23.403  25.227  1.00  0.00     0.137 C 
ATOM     10  C   UNL A   1      32.151  23.544  23.099  1.00  0.00     0.021 C 
ATOM     11  C   UNL A   1      33.345  23.260  22.209  1.00  0.00     0.010 C 
BRANCH   7  12
ATOM     12  C   UNL A   1      30.443  25.793  25.349  1.00  0.00     0.320 C 
ATOM     13  O   UNL A   1      29.869  25.635  26.426  1.00  0.00    -0.248 OA
BRANCH  12  14
ATOM     14  N   UNL A   1      30.398  26.991  24.682  1.00  0.00    -0.324 N 
ATOM     15  C   UNL A   1      29.939  28.488  22.898  1.00  0.00     0.120 C 
ATOM     16  C   UNL A   1      30.686  29.202  24.026  1.00  0.00     0.039 C 
ATOM     17  C   UNL A   1      29.545  27.146  23.510  1.00  0.00     0.136 C 
ATOM     18  C   UNL A   1      31.387  28.054  24.720  1.00  0.00     0.122 C 
BRANCH  15  19
ATOM     19  C   UNL A   1      28.733  29.248  22.417  1.00  0.00     0.310 C 
ATOM     20  O   UNL A   1      27.624  29.211  22.931  1.00  0.00    -0.252 OA
BRANCH  19  21
ATOM     21  O   UNL A   1      29.068  30.004  21.335  1.00  0.00    -0.469 OA
ATOM     22  C   UNL A   1      28.051  30.925  20.938  1.00  0.00     0.282 C 
ENDBRANCH  19  21
ENDBRANCH  15  19
ENDBRANCH  12  14
ENDBRANCH   7  12
ENDBRANCH   4   6
ENDBRANCH   3   4
ENDBRANCH   2   3
ENDBRANCH   1   2
BRANCH   1  23
ATOM     23  O   UNL A   1      37.174  21.382  24.274  1.00  0.00    -0.374 OA
BRANCH  23  24
ATOM     24  C   UNL A   1      37.346  20.186  25.031  1.00  0.00     0.202 C 
BRANCH  24  25
ATOM     25  C   UNL A   1      38.754  19.573  25.032  1.00  0.00     0.261 C 
BRANCH  25  26
ATOM     26  O   UNL A   1      39.366  19.614  26.335  1.00  0.00    -0.460 OA
BRANCH  26  27
ATOM     27  C   UNL A   1      40.688  19.906  26.329  1.00  0.00     0.338 C 
ATOM     28  O   UNL A   1      41.585  19.245  25.827  1.00  0.00    -0.246 OA
BRANCH  27  29
ATOM     29  C   UNL A   1      40.911  21.268  26.855  1.00  0.00     0.060 A 
ATOM     30  C   UNL A   1      40.273  22.321  26.185  1.00  0.00     0.016 A 
ATOM     31  C   UNL A   1      41.748  21.528  27.942  1.00  0.00     0.016 A 
ATOM     32  C   UNL A   1      40.516  23.640  26.559  1.00  0.00     0.010 A 
ATOM     33  C   UNL A   1      41.995  22.856  28.314  1.00  0.00     0.010 A 
ATOM     34  C   UNL A   1      41.412  23.918  27.600  1.00  0.00    -0.014 A 
BRANCH  34  35
ATOM     35  C   UNL A   1      41.846  25.319  27.828  1.00  0.00     0.031 A 
ATOM     36  C   UNL A   1      43.190  25.761  27.312  1.00  0.00     0.074 A 
ATOM     37  C   UNL A   1      41.038  26.204  28.438  1.00  0.00     0.049 A 
ATOM     38  N   UNL A   1      43.775  26.928  27.409  1.00  0.00    -0.248 NA
ATOM     39  C   UNL A   1      43.979  24.751  26.589  1.00  0.00     0.031 C 
ATOM     40  C   UNL A   1      39.695  25.915  28.940  1.00  0.00     0.029 A 
ATOM     41  N   UNL A   1      41.232  27.529  28.739  1.00  0.00    -0.354 N 
ATOM     42  C   UNL A   1      44.999  26.791  26.766  1.00  0.00     0.074 A 
ATOM     43  C   UNL A   1      45.090  25.419  26.315  1.00  0.00     0.031 C 
ATOM     44  C   UNL A   1      39.186  27.031  29.491  1.00  0.00     0.029 A 
ATOM     45  C   UNL A   1      40.179  28.101  29.411  1.00  0.00     0.049 A 
ATOM     46  H   UNL A   1      42.048  28.024  28.495  1.00  0.00     0.167 HD
ATOM     47  C   UNL A   1      45.956  27.727  26.558  1.00  0.00     0.037 A 
ATOM     48  C   UNL A   1      40.042  29.340  29.923  1.00  0.00     0.037 A 
ATOM     49  C   UNL A   1      45.865  29.092  27.004  1.00  0.00     0.049 A 
ATOM     50  C   UNL A   1      41.158  30.338  29.753  1.00  0.00     0.074 A 
ATOM     51  C   UNL A   1      46.776  30.119  26.827  1.00  0.00     0.029 A 
ATOM     52  N   UNL A   1      44.803  29.619  27.724  1.00  0.00    -0.354 N 
ATOM     53  N   UNL A   1      42.301  30.206  29.125  1.00  0.00    -0.248 NA
ATOM     54  C   UNL A   1      40.963  31.662  30.366  1.00  0.00     0.031 C 
ATOM     55  C   UNL A   1      46.293  31.251  27.490  1.00  0.00     0.029 A 
ATOM     56  C   UNL A   1      45.052  30.948  28.026  1.00  0.00     0.049 A 
ATOM     57  H   UNL A   1      43.994  29.123  27.981  1.00  0.00     0.167 HD
ATOM     58  C   UNL A   1      42.945  31.432  29.238  1.00  0.00     0.074 A 
ATOM     59  C   UNL A   1      42.060  32.301  29.985  1.00  0.00     0.031 C 
ATOM     60  C   UNL A   1      44.160  31.806  28.765  1.00  0.00     0.037 A 
BRANCH  47  61
ATOM     61  C   UNL A   1      47.201  27.297  25.835  1.00  0.00     0.057 A 
ATOM     62  C   UNL A   1      48.267  26.673  26.497  1.00  0.00     0.134 A 
ATOM     63  C   UNL A   1      47.318  27.476  24.451  1.00  0.00     0.134 A 
ATOM     64  F   UNL A   1      48.226  26.483  27.824  1.00  0.00    -0.206 F 
ATOM     65  C   UNL A   1      49.413  26.265  25.811  1.00  0.00     0.040 A 
ATOM     66  C   UNL A   1      48.445  27.045  23.750  1.00  0.00     0.040 A 
ATOM     67  F   UNL A   1      46.332  28.060  23.753  1.00  0.00    -0.206 F 
ATOM     68  C   UNL A   1      49.501  26.443  24.433  1.00  0.00     0.006 A 
ENDBRANCH  47  61
BRANCH  48  69
ATOM     69  C   UNL A   1      38.806  29.709  30.660  1.00  0.00     0.057 A 
ATOM     70  C   UNL A   1      37.735  30.341  30.014  1.00  0.00     0.134 A 
ATOM     71  C   UNL A   1      38.676  29.466  32.031  1.00  0.00     0.134 A 
ATOM     72  F   UNL A   1      37.808  30.624  28.706  1.00  0.00    -0.206 F 
ATOM     73  C   UNL A   1      36.590  30.733  30.711  1.00  0.00     0.040 A 
ATOM     74  C   UNL A   1      37.526  29.825  32.735  1.00  0.00     0.040 A 
ATOM     75  F   UNL A   1      39.664  28.864  32.710  1.00  0.00    -0.206 F 
ATOM     76  C   UNL A   1      36.481  30.470  32.074  1.00  0.00     0.006 A 
ENDBRANCH  48  69
BRANCH  60  77
ATOM     77  C   UNL A   1      44.591  33.225  29.004  1.00  0.00     0.057 A 
ATOM     78  C   UNL A   1      44.281  34.256  28.110  1.00  0.00     0.134 A 
ATOM     79  C   UNL A   1      45.286  33.571  30.171  1.00  0.00     0.134 A 
ATOM     80  F   UNL A   1      43.627  33.993  26.967  1.00  0.00    -0.206 F 
ATOM     81  C   UNL A   1      44.666  35.576  28.354  1.00  0.00     0.040 A 
ATOM     82  C   UNL A   1      45.651  34.890  30.441  1.00  0.00     0.040 A 
ATOM     83  F   UNL A   1      45.606  32.633  31.077  1.00  0.00    -0.206 F 
ATOM     84  C   UNL A   1      45.347  35.897  29.528  1.00  0.00     0.006 A 
ENDBRANCH  60  77
ENDBRANCH  34  35
ENDBRANCH  27  29
ENDBRANCH  26  27
ENDBRANCH  25  26
ENDBRANCH  24  25
ENDBRANCH  23  24
ENDBRANCH   1  23
TORSDOF 18
ENDMDL
