MODEL 1
REMARK VINA RESULT:      -9.5      0.000      0.000
REMARK SMILES C[C@@H](CO)CS[C@@H](C)C[C@@](C)([NH3+])C(=O)OCCOCCOC(=O)c1ccc(-c2c3nc(c(-c4c(F)cccc4F)c4ccc([nH]4)c(-c4c(F)cccc4F)c4nc(c(-c5c(F)cccc5F)c5ccc2[nH]5)C=C4)C=C3)cc1
REMARK SMILES IDX 16 1 15 2 13 3 14 4 10 5 11 6 9 7 7 8 8 9 6 10 5 11 2 12
REMARK SMILES IDX 1 13 3 14 4 15 12 17 17 21 18 22 19 23 20 24 21 25 22 26
REMARK SMILES IDX 23 27 24 28 25 29 77 30 26 31 76 32 27 33 28 34 29 35 70 36
REMARK SMILES IDX 30 37 75 38 69 39 71 40 31 41 74 42 68 43 67 44 32 46 58 47
REMARK SMILES IDX 41 48 57 49 42 50 45 51 56 52 72 53 43 54 44 55 55 57 73 58
REMARK SMILES IDX 46 59 33 60 34 61 39 62 35 63 36 64 38 65 40 66 37 67 59 68
REMARK SMILES IDX 60 69 65 70 61 71 62 72 64 73 66 74 63 75 47 76 48 77 53 78
REMARK SMILES IDX 49 79 50 80 52 81 54 82 51 83
REMARK H PARENT 4 16 12 18 12 19 12 20 71 45 45 56
REMARK Flexibility Score: inf
ROOT
ATOM      1  C   UNL A   1      39.732  21.399  26.818  1.00  0.00     0.261 C 
ENDROOT
BRANCH   1   2
ATOM      2  O   UNL A   1      39.068  21.986  25.692  1.00  0.00    -0.459 OA
BRANCH   2   3
ATOM      3  C   UNL A   1      37.915  21.379  25.299  1.00  0.00     0.367 C 
ATOM      4  O   UNL A   1      37.848  20.222  24.899  1.00  0.00    -0.245 OA
BRANCH   3   5
ATOM      5  C   UNL A   1      36.708  22.354  25.339  1.00  0.00     0.191 C 
ATOM      6  C   UNL A   1      37.326  23.764  25.311  1.00  0.00     0.092 C 
BRANCH   5   7
ATOM      7  C   UNL A   1      35.654  22.173  24.204  1.00  0.00     0.094 C 
BRANCH   7   8
ATOM      8  C   UNL A   1      34.165  21.856  24.504  1.00  0.00     0.050 C 
ATOM      9  C   UNL A   1      33.961  20.341  24.579  1.00  0.00     0.019 C 
BRANCH   8  10
ATOM     10  S   UNL A   1      32.915  22.707  23.441  1.00  0.00    -0.158 SA
BRANCH  10  11
ATOM     11  C   UNL A   1      33.723  24.170  22.682  1.00  0.00     0.075 C 
BRANCH  11  12
ATOM     12  C   UNL A   1      33.267  25.508  23.290  1.00  0.00     0.021 C 
ATOM     13  C   UNL A   1      34.017  25.843  24.577  1.00  0.00     0.011 C 
BRANCH  12  14
ATOM     14  C   UNL A   1      33.408  26.657  22.284  1.00  0.00     0.160 C 
BRANCH  14  15
ATOM     15  O   UNL A   1      33.309  26.194  20.946  1.00  0.00    -0.396 OA
ATOM     16  H   UNL A   1      34.199  26.042  20.590  1.00  0.00     0.210 HD
ENDBRANCH  14  15
ENDBRANCH  12  14
ENDBRANCH  11  12
ENDBRANCH  10  11
ENDBRANCH   8  10
ENDBRANCH   7   8
ENDBRANCH   5   7
BRANCH   5  17
ATOM     17  N   UNL A   1      35.961  22.279  26.636  1.00  0.00    -0.344 N 
ATOM     18  H   UNL A   1      36.358  21.538  27.215  1.00  0.00     0.345 HD
ATOM     19  H   UNL A   1      34.978  22.076  26.452  1.00  0.00     0.345 HD
ATOM     20  H   UNL A   1      36.037  23.171  27.126  1.00  0.00     0.345 HD
ENDBRANCH   5  17
ENDBRANCH   3   5
ENDBRANCH   2   3
ENDBRANCH   1   2
BRANCH   1  21
ATOM     21  C   UNL A   1      40.949  20.595  26.343  1.00  0.00     0.202 C 
BRANCH  21  22
ATOM     22  O   UNL A   1      41.863  21.302  25.500  1.00  0.00    -0.374 OA
BRANCH  22  23
ATOM     23  C   UNL A   1      43.244  21.028  25.766  1.00  0.00     0.202 C 
BRANCH  23  24
ATOM     24  C   UNL A   1      44.160  21.999  25.022  1.00  0.00     0.261 C 
BRANCH  24  25
ATOM     25  O   UNL A   1      43.444  23.234  24.863  1.00  0.00    -0.460 OA
BRANCH  25  26
ATOM     26  C   UNL A   1      44.182  24.333  25.137  1.00  0.00     0.338 C 
ATOM     27  O   UNL A   1      45.210  24.683  24.580  1.00  0.00    -0.246 OA
BRANCH  26  28
ATOM     28  C   UNL A   1      43.432  25.181  26.093  1.00  0.00     0.060 A 
ATOM     29  C   UNL A   1      43.809  26.526  26.194  1.00  0.00     0.016 A 
ATOM     30  C   UNL A   1      42.348  24.696  26.837  1.00  0.00     0.016 A 
ATOM     31  C   UNL A   1      43.147  27.373  27.076  1.00  0.00     0.010 A 
ATOM     32  C   UNL A   1      41.683  25.545  27.721  1.00  0.00     0.010 A 
ATOM     33  C   UNL A   1      42.109  26.875  27.872  1.00  0.00    -0.014 A 
BRANCH  33  34
ATOM     34  C   UNL A   1      41.612  27.685  29.005  1.00  0.00     0.031 A 
ATOM     35  C   UNL A   1      42.343  27.591  30.313  1.00  0.00     0.074 A 
ATOM     36  C   UNL A   1      40.561  28.508  28.860  1.00  0.00     0.049 A 
ATOM     37  N   UNL A   1      42.094  28.188  31.450  1.00  0.00    -0.248 NA
ATOM     38  C   UNL A   1      43.513  26.697  30.346  1.00  0.00     0.031 C 
ATOM     39  C   UNL A   1      39.799  28.702  27.628  1.00  0.00     0.029 A 
ATOM     40  N   UNL A   1      39.951  29.335  29.768  1.00  0.00    -0.354 N 
ATOM     41  C   UNL A   1      43.072  27.740  32.328  1.00  0.00     0.074 A 
ATOM     42  C   UNL A   1      43.895  26.795  31.609  1.00  0.00     0.031 C 
ATOM     43  C   UNL A   1      38.815  29.588  27.859  1.00  0.00     0.029 A 
ATOM     44  C   UNL A   1      38.862  30.001  29.261  1.00  0.00     0.049 A 
ATOM     45  H   UNL A   1      40.264  29.441  30.696  1.00  0.00     0.167 HD
ATOM     46  C   UNL A   1      43.272  28.097  33.618  1.00  0.00     0.037 A 
ATOM     47  C   UNL A   1      37.998  30.834  29.871  1.00  0.00     0.037 A 
ATOM     48  C   UNL A   1      42.448  29.038  34.326  1.00  0.00     0.049 A 
ATOM     49  C   UNL A   1      38.204  31.167  31.325  1.00  0.00     0.074 A 
ATOM     50  C   UNL A   1      42.572  29.484  35.629  1.00  0.00     0.029 A 
ATOM     51  N   UNL A   1      41.339  29.672  33.787  1.00  0.00    -0.354 N 
ATOM     52  N   UNL A   1      39.149  30.764  32.141  1.00  0.00    -0.248 NA
ATOM     53  C   UNL A   1      37.226  32.075  31.943  1.00  0.00     0.031 C 
ATOM     54  C   UNL A   1      41.508  30.351  35.894  1.00  0.00     0.029 A 
ATOM     55  C   UNL A   1      40.752  30.487  34.740  1.00  0.00     0.049 A 
ATOM     56  H   UNL A   1      41.016  29.561  32.864  1.00  0.00     0.167 HD
ATOM     57  C   UNL A   1      38.898  31.389  33.357  1.00  0.00     0.074 A 
ATOM     58  C   UNL A   1      37.718  32.208  33.167  1.00  0.00     0.031 C 
ATOM     59  C   UNL A   1      39.581  31.298  34.525  1.00  0.00     0.037 A 
BRANCH  46  60
ATOM     60  C   UNL A   1      44.408  27.442  34.346  1.00  0.00     0.057 A 
ATOM     61  C   UNL A   1      45.686  28.017  34.399  1.00  0.00     0.134 A 
ATOM     62  C   UNL A   1      44.218  26.227  35.016  1.00  0.00     0.134 A 
ATOM     63  F   UNL A   1      45.940  29.168  33.761  1.00  0.00    -0.206 F 
ATOM     64  C   UNL A   1      46.738  27.394  35.074  1.00  0.00     0.040 A 
ATOM     65  C   UNL A   1      45.255  25.609  35.716  1.00  0.00     0.040 A 
ATOM     66  F   UNL A   1      43.021  25.622  35.003  1.00  0.00    -0.206 F 
ATOM     67  C   UNL A   1      46.522  26.190  35.741  1.00  0.00     0.006 A 
ENDBRANCH  46  60
BRANCH  47  68
ATOM     68  C   UNL A   1      36.854  31.404  29.116  1.00  0.00     0.057 A 
ATOM     69  C   UNL A   1      36.858  32.734  28.679  1.00  0.00     0.134 A 
ATOM     70  C   UNL A   1      35.718  30.637  28.830  1.00  0.00     0.134 A 
ATOM     71  F   UNL A   1      37.907  33.527  28.942  1.00  0.00    -0.206 F 
ATOM     72  C   UNL A   1      35.768  33.286  28.003  1.00  0.00     0.040 A 
ATOM     73  C   UNL A   1      34.631  31.168  28.133  1.00  0.00     0.040 A 
ATOM     74  F   UNL A   1      35.650  29.355  29.218  1.00  0.00    -0.206 F 
ATOM     75  C   UNL A   1      34.652  32.500  27.723  1.00  0.00     0.006 A 
ENDBRANCH  47  68
BRANCH  59  76
ATOM     76  C   UNL A   1      39.091  32.128  35.675  1.00  0.00     0.057 A 
ATOM     77  C   UNL A   1      38.258  31.600  36.669  1.00  0.00     0.134 A 
ATOM     78  C   UNL A   1      39.499  33.462  35.814  1.00  0.00     0.134 A 
ATOM     79  F   UNL A   1      37.823  30.333  36.590  1.00  0.00    -0.206 F 
ATOM     80  C   UNL A   1      37.830  32.376  37.748  1.00  0.00     0.040 A 
ATOM     81  C   UNL A   1      39.100  34.238  36.902  1.00  0.00     0.040 A 
ATOM     82  F   UNL A   1      40.307  34.025  34.902  1.00  0.00    -0.206 F 
ATOM     83  C   UNL A   1      38.257  33.696  37.869  1.00  0.00     0.006 A 
ENDBRANCH  59  76
ENDBRANCH  33  34
ENDBRANCH  26  28
ENDBRANCH  25  26
ENDBRANCH  24  25
ENDBRANCH  23  24
ENDBRANCH  22  23
ENDBRANCH  21  22
ENDBRANCH   1  21
TORSDOF 22
ENDMDL
MODEL 2
REMARK VINA RESULT:      -9.3      1.373      2.613
REMARK SMILES C[C@@H](CO)CS[C@@H](C)C[C@@](C)([NH3+])C(=O)OCCOCCOC(=O)c1ccc(-c2c3nc(c(-c4c(F)cccc4F)c4ccc([nH]4)c(-c4c(F)cccc4F)c4nc(c(-c5c(F)cccc5F)c5ccc2[nH]5)C=C4)C=C3)cc1
REMARK SMILES IDX 16 1 15 2 13 3 14 4 10 5 11 6 9 7 7 8 8 9 6 10 5 11 2 12
REMARK SMILES IDX 1 13 3 14 4 15 12 17 17 21 18 22 19 23 20 24 21 25 22 26
REMARK SMILES IDX 23 27 24 28 25 29 77 30 26 31 76 32 27 33 28 34 29 35 70 36
REMARK SMILES IDX 30 37 75 38 69 39 71 40 31 41 74 42 68 43 67 44 32 46 58 47
REMARK SMILES IDX 41 48 57 49 42 50 45 51 56 52 72 53 43 54 44 55 55 57 73 58
REMARK SMILES IDX 46 59 33 60 34 61 39 62 35 63 36 64 38 65 40 66 37 67 59 68
REMARK SMILES IDX 60 69 65 70 61 71 62 72 64 73 66 74 63 75 47 76 48 77 53 78
REMARK SMILES IDX 49 79 50 80 52 81 54 82 51 83
REMARK H PARENT 4 16 12 18 12 19 12 20 71 45 45 56
REMARK Flexibility Score: inf
ROOT
ATOM      1  C   UNL A   1      39.093  22.258  26.206  1.00  0.00     0.261 C 
ENDROOT
BRANCH   1   2
ATOM      2  O   UNL A   1      38.290  22.080  25.032  1.00  0.00    -0.459 OA
BRANCH   2   3
ATOM      3  C   UNL A   1      37.291  21.161  25.130  1.00  0.00     0.367 C 
ATOM      4  O   UNL A   1      37.458  19.950  25.040  1.00  0.00    -0.245 OA
BRANCH   3   5
ATOM      5  C   UNL A   1      35.901  21.836  25.284  1.00  0.00     0.191 C 
ATOM      6  C   UNL A   1      35.723  22.690  24.015  1.00  0.00     0.092 C 
BRANCH   5   7
ATOM      7  C   UNL A   1      34.697  20.866  25.489  1.00  0.00     0.094 C 
BRANCH   7   8
ATOM      8  C   UNL A   1      33.420  20.940  24.611  1.00  0.00     0.050 C 
ATOM      9  C   UNL A   1      32.277  21.575  25.408  1.00  0.00     0.019 C 
BRANCH   8  10
ATOM     10  S   UNL A   1      32.926  19.382  23.748  1.00  0.00    -0.158 SA
BRANCH  10  11
ATOM     11  C   UNL A   1      34.184  18.102  24.132  1.00  0.00     0.075 C 
BRANCH  11  12
ATOM     12  C   UNL A   1      33.583  16.792  24.670  1.00  0.00     0.021 C 
ATOM     13  C   UNL A   1      34.635  15.899  25.325  1.00  0.00     0.011 C 
BRANCH  12  14
ATOM     14  C   UNL A   1      32.438  17.063  25.653  1.00  0.00     0.160 C 
BRANCH  14  15
ATOM     15  O   UNL A   1      32.817  17.999  26.650  1.00  0.00    -0.396 OA
ATOM     16  H   UNL A   1      33.665  17.731  27.039  1.00  0.00     0.210 HD
ENDBRANCH  14  15
ENDBRANCH  12  14
ENDBRANCH  11  12
ENDBRANCH  10  11
ENDBRANCH   8  10
ENDBRANCH   7   8
ENDBRANCH   5   7
BRANCH   5  17
ATOM     17  N   UNL A   1      35.868  22.811  26.422  1.00  0.00    -0.344 N 
ATOM     18  H   UNL A   1      35.361  22.401  27.207  1.00  0.00     0.345 HD
ATOM     19  H   UNL A   1      35.397  23.666  26.123  1.00  0.00     0.345 HD
ATOM     20  H   UNL A   1      36.821  23.032  26.710  1.00  0.00     0.345 HD
ENDBRANCH   5  17
ENDBRANCH   3   5
ENDBRANCH   2   3
ENDBRANCH   1   2
BRANCH   1  21
ATOM     21  C   UNL A   1      40.065  21.081  26.354  1.00  0.00     0.202 C 
BRANCH  21  22
ATOM     22  O   UNL A   1      41.243  21.150  25.545  1.00  0.00    -0.374 OA
BRANCH  22  23
ATOM     23  C   UNL A   1      42.466  21.228  26.288  1.00  0.00     0.202 C 
BRANCH  23  24
ATOM     24  C   UNL A   1      43.583  21.864  25.461  1.00  0.00     0.261 C 
BRANCH  24  25
ATOM     25  O   UNL A   1      43.067  23.084  24.905  1.00  0.00    -0.460 OA
BRANCH  25  26
ATOM     26  C   UNL A   1      43.859  24.160  25.118  1.00  0.00     0.338 C 
ATOM     27  O   UNL A   1      44.883  24.445  24.518  1.00  0.00    -0.246 OA
BRANCH  26  28
ATOM     28  C   UNL A   1      43.175  25.071  26.064  1.00  0.00     0.060 A 
ATOM     29  C   UNL A   1      43.756  26.327  26.281  1.00  0.00     0.016 A 
ATOM     30  C   UNL A   1      41.967  24.737  26.689  1.00  0.00     0.016 A 
ATOM     31  C   UNL A   1      43.165  27.228  27.161  1.00  0.00     0.010 A 
ATOM     32  C   UNL A   1      41.373  25.640  27.571  1.00  0.00     0.010 A 
ATOM     33  C   UNL A   1      41.994  26.870  27.840  1.00  0.00    -0.014 A 
BRANCH  33  34
ATOM     34  C   UNL A   1      41.538  27.694  28.980  1.00  0.00     0.031 A 
ATOM     35  C   UNL A   1      42.293  27.587  30.274  1.00  0.00     0.074 A 
ATOM     36  C   UNL A   1      40.502  28.539  28.855  1.00  0.00     0.049 A 
ATOM     37  N   UNL A   1      42.081  28.192  31.413  1.00  0.00    -0.248 NA
ATOM     38  C   UNL A   1      43.444  26.668  30.286  1.00  0.00     0.031 C 
ATOM     39  C   UNL A   1      39.719  28.746  27.637  1.00  0.00     0.029 A 
ATOM     40  N   UNL A   1      39.928  29.381  29.772  1.00  0.00    -0.354 N 
ATOM     41  C   UNL A   1      43.067  27.726  32.273  1.00  0.00     0.074 A 
ATOM     42  C   UNL A   1      43.854  26.762  31.540  1.00  0.00     0.031 C 
ATOM     43  C   UNL A   1      38.760  29.654  27.886  1.00  0.00     0.029 A 
ATOM     44  C   UNL A   1      38.844  30.069  29.286  1.00  0.00     0.049 A 
ATOM     45  H   UNL A   1      40.263  29.483  30.693  1.00  0.00     0.167 HD
ATOM     46  C   UNL A   1      43.300  28.081  33.558  1.00  0.00     0.037 A 
ATOM     47  C   UNL A   1      38.011  30.922  29.910  1.00  0.00     0.037 A 
ATOM     48  C   UNL A   1      42.511  29.042  34.280  1.00  0.00     0.049 A 
ATOM     49  C   UNL A   1      38.254  31.254  31.359  1.00  0.00     0.074 A 
ATOM     50  C   UNL A   1      42.671  29.488  35.578  1.00  0.00     0.029 A 
ATOM     51  N   UNL A   1      41.405  29.699  33.762  1.00  0.00    -0.354 N 
ATOM     52  N   UNL A   1      39.206  30.833  32.157  1.00  0.00    -0.248 NA
ATOM     53  C   UNL A   1      37.308  32.184  31.994  1.00  0.00     0.031 C 
ATOM     54  C   UNL A   1      41.631  30.378  35.862  1.00  0.00     0.029 A 
ATOM     55  C   UNL A   1      40.856  30.528  34.724  1.00  0.00     0.049 A 
ATOM     56  H   UNL A   1      41.061  29.592  32.845  1.00  0.00     0.167 HD
ATOM     57  C   UNL A   1      38.994  31.466  33.376  1.00  0.00     0.074 A 
ATOM     58  C   UNL A   1      37.827  32.310  33.207  1.00  0.00     0.031 C 
ATOM     59  C   UNL A   1      39.698  31.363  34.530  1.00  0.00     0.037 A 
BRANCH  46  60
ATOM     60  C   UNL A   1      44.437  27.404  34.264  1.00  0.00     0.057 A 
ATOM     61  C   UNL A   1      45.729  27.947  34.282  1.00  0.00     0.134 A 
ATOM     62  C   UNL A   1      44.232  26.200  34.949  1.00  0.00     0.134 A 
ATOM     63  F   UNL A   1      45.997  29.087  33.629  1.00  0.00    -0.206 F 
ATOM     64  C   UNL A   1      46.780  27.304  34.938  1.00  0.00     0.040 A 
ATOM     65  C   UNL A   1      45.270  25.561  35.629  1.00  0.00     0.040 A 
ATOM     66  F   UNL A   1      43.020  25.625  34.969  1.00  0.00    -0.206 F 
ATOM     67  C   UNL A   1      46.551  26.110  35.620  1.00  0.00     0.006 A 
ENDBRANCH  46  60
BRANCH  47  68
ATOM     68  C   UNL A   1      36.863  31.515  29.177  1.00  0.00     0.057 A 
ATOM     69  C   UNL A   1      35.705  30.774  28.916  1.00  0.00     0.134 A 
ATOM     70  C   UNL A   1      36.907  32.831  28.701  1.00  0.00     0.134 A 
ATOM     71  F   UNL A   1      35.611  29.501  29.325  1.00  0.00    -0.206 F 
ATOM     72  C   UNL A   1      34.639  31.314  28.193  1.00  0.00     0.040 A 
ATOM     73  C   UNL A   1      35.839  33.392  27.998  1.00  0.00     0.040 A 
ATOM     74  F   UNL A   1      37.988  33.595  28.918  1.00  0.00    -0.206 F 
ATOM     75  C   UNL A   1      34.703  32.629  27.736  1.00  0.00     0.006 A 
ENDBRANCH  47  68
BRANCH  59  76
ATOM     76  C   UNL A   1      39.249  32.207  35.688  1.00  0.00     0.057 A 
ATOM     77  C   UNL A   1      38.372  31.719  36.664  1.00  0.00     0.134 A 
ATOM     78  C   UNL A   1      39.742  33.509  35.851  1.00  0.00     0.134 A 
ATOM     79  F   UNL A   1      37.856  30.485  36.560  1.00  0.00    -0.206 F 
ATOM     80  C   UNL A   1      37.982  32.506  37.750  1.00  0.00     0.040 A 
ATOM     81  C   UNL A   1      39.382  34.293  36.947  1.00  0.00     0.040 A 
ATOM     82  F   UNL A   1      40.596  34.030  34.958  1.00  0.00    -0.206 F 
ATOM     83  C   UNL A   1      38.493  33.793  37.896  1.00  0.00     0.006 A 
ENDBRANCH  59  76
ENDBRANCH  33  34
ENDBRANCH  26  28
ENDBRANCH  25  26
ENDBRANCH  24  25
ENDBRANCH  23  24
ENDBRANCH  22  23
ENDBRANCH  21  22
ENDBRANCH   1  21
TORSDOF 22
ENDMDL
MODEL 3
REMARK VINA RESULT:      -9.0      1.411      6.841
REMARK SMILES C[C@@H](CO)CS[C@@H](C)C[C@@](C)([NH3+])C(=O)OCCOCCOC(=O)c1ccc(-c2c3nc(c(-c4c(F)cccc4F)c4ccc([nH]4)c(-c4c(F)cccc4F)c4nc(c(-c5c(F)cccc5F)c5ccc2[nH]5)C=C4)C=C3)cc1
REMARK SMILES IDX 16 1 15 2 13 3 14 4 10 5 11 6 9 7 7 8 8 9 6 10 5 11 2 12
REMARK SMILES IDX 1 13 3 14 4 15 12 17 17 21 18 22 19 23 20 24 21 25 22 26
REMARK SMILES IDX 23 27 24 28 25 29 77 30 26 31 76 32 27 33 28 34 29 35 70 36
REMARK SMILES IDX 30 37 75 38 69 39 71 40 31 41 74 42 68 43 67 44 32 46 58 47
REMARK SMILES IDX 41 48 57 49 42 50 45 51 56 52 72 53 43 54 44 55 55 57 73 58
REMARK SMILES IDX 46 59 33 60 34 61 39 62 35 63 36 64 38 65 40 66 37 67 59 68
REMARK SMILES IDX 60 69 65 70 61 71 62 72 64 73 66 74 63 75 47 76 48 77 53 78
REMARK SMILES IDX 49 79 50 80 52 81 54 82 51 83
REMARK H PARENT 4 16 12 18 12 19 12 20 71 45 45 56
REMARK Flexibility Score: inf
ROOT
ATOM      1  C   UNL A   1      40.164  22.262  26.496  1.00  0.00     0.261 C 
ENDROOT
BRANCH   1   2
ATOM      2  O   UNL A   1      38.919  21.818  25.942  1.00  0.00    -0.459 OA
BRANCH   2   3
ATOM      3  C   UNL A   1      37.971  22.780  25.766  1.00  0.00     0.367 C 
ATOM      4  O   UNL A   1      37.944  23.841  26.380  1.00  0.00    -0.245 OA
BRANCH   3   5
ATOM      5  C   UNL A   1      36.882  22.335  24.754  1.00  0.00     0.191 C 
ATOM      6  C   UNL A   1      37.003  20.801  24.677  1.00  0.00     0.092 C 
BRANCH   5   7
ATOM      7  C   UNL A   1      35.424  22.772  25.093  1.00  0.00     0.094 C 
BRANCH   7   8
ATOM      8  C   UNL A   1      34.188  21.975  24.601  1.00  0.00     0.050 C 
ATOM      9  C   UNL A   1      33.041  22.938  24.283  1.00  0.00     0.019 C 
BRANCH   8  10
ATOM     10  S   UNL A   1      33.665  20.542  25.645  1.00  0.00    -0.158 SA
BRANCH  10  11
ATOM     11  C   UNL A   1      32.481  19.536  24.668  1.00  0.00     0.075 C 
BRANCH  11  12
ATOM     12  C   UNL A   1      32.962  18.098  24.411  1.00  0.00     0.021 C 
ATOM     13  C   UNL A   1      34.486  18.000  24.352  1.00  0.00     0.011 C 
BRANCH  12  14
ATOM     14  C   UNL A   1      32.413  17.127  25.463  1.00  0.00     0.160 C 
BRANCH  14  15
ATOM     15  O   UNL A   1      32.198  15.834  24.918  1.00  0.00    -0.396 OA
ATOM     16  H   UNL A   1      31.894  15.235  25.618  1.00  0.00     0.210 HD
ENDBRANCH  14  15
ENDBRANCH  12  14
ENDBRANCH  11  12
ENDBRANCH  10  11
ENDBRANCH   8  10
ENDBRANCH   7   8
ENDBRANCH   5   7
BRANCH   5  17
ATOM     17  N   UNL A   1      37.165  22.821  23.365  1.00  0.00    -0.344 N 
ATOM     18  H   UNL A   1      37.974  23.443  23.381  1.00  0.00     0.345 HD
ATOM     19  H   UNL A   1      36.354  23.328  23.010  1.00  0.00     0.345 HD
ATOM     20  H   UNL A   1      37.360  22.024  22.758  1.00  0.00     0.345 HD
ENDBRANCH   5  17
ENDBRANCH   3   5
ENDBRANCH   2   3
ENDBRANCH   1   2
BRANCH   1  21
ATOM     21  C   UNL A   1      41.093  21.062  26.718  1.00  0.00     0.202 C 
BRANCH  21  22
ATOM     22  O   UNL A   1      42.134  20.902  25.750  1.00  0.00    -0.374 OA
BRANCH  22  23
ATOM     23  C   UNL A   1      43.324  21.646  26.036  1.00  0.00     0.202 C 
BRANCH  23  24
ATOM     24  C   UNL A   1      43.767  22.477  24.831  1.00  0.00     0.261 C 
BRANCH  24  25
ATOM     25  O   UNL A   1      43.119  23.755  24.927  1.00  0.00    -0.460 OA
BRANCH  25  26
ATOM     26  C   UNL A   1      43.947  24.762  25.289  1.00  0.00     0.338 C 
ATOM     27  O   UNL A   1      44.991  25.083  24.746  1.00  0.00    -0.246 OA
BRANCH  26  28
ATOM     28  C   UNL A   1      43.280  25.568  26.339  1.00  0.00     0.060 A 
ATOM     29  C   UNL A   1      43.695  26.897  26.490  1.00  0.00     0.016 A 
ATOM     30  C   UNL A   1      42.236  25.062  27.125  1.00  0.00     0.016 A 
ATOM     31  C   UNL A   1      43.112  27.705  27.460  1.00  0.00     0.010 A 
ATOM     32  C   UNL A   1      41.649  25.872  28.097  1.00  0.00     0.010 A 
ATOM     33  C   UNL A   1      42.116  27.182  28.294  1.00  0.00    -0.014 A 
BRANCH  33  34
ATOM     34  C   UNL A   1      41.713  27.936  29.501  1.00  0.00     0.031 A 
ATOM     35  C   UNL A   1      40.500  28.816  29.410  1.00  0.00     0.074 A 
ATOM     36  C   UNL A   1      42.390  27.812  30.654  1.00  0.00     0.049 A 
ATOM     37  N   UNL A   1      39.958  29.582  30.320  1.00  0.00    -0.248 NA
ATOM     38  C   UNL A   1      39.803  28.838  28.112  1.00  0.00     0.031 C 
ATOM     39  C   UNL A   1      43.561  26.962  30.863  1.00  0.00     0.029 A 
ATOM     40  N   UNL A   1      42.186  28.410  31.871  1.00  0.00    -0.354 N 
ATOM     41  C   UNL A   1      38.864  30.176  29.705  1.00  0.00     0.074 A 
ATOM     42  C   UNL A   1      38.837  29.714  28.337  1.00  0.00     0.031 C 
ATOM     43  C   UNL A   1      43.977  27.100  32.134  1.00  0.00     0.029 A 
ATOM     44  C   UNL A   1      43.119  28.067  32.817  1.00  0.00     0.049 A 
ATOM     45  H   UNL A   1      41.439  29.028  32.049  1.00  0.00     0.167 HD
ATOM     46  C   UNL A   1      37.954  31.023  30.240  1.00  0.00     0.037 A 
ATOM     47  C   UNL A   1      43.268  28.502  34.083  1.00  0.00     0.037 A 
ATOM     48  C   UNL A   1      37.989  31.479  31.604  1.00  0.00     0.049 A 
ATOM     49  C   UNL A   1      42.279  29.494  34.636  1.00  0.00     0.074 A 
ATOM     50  C   UNL A   1      37.107  32.323  32.253  1.00  0.00     0.029 A 
ATOM     51  N   UNL A   1      38.964  31.130  32.524  1.00  0.00    -0.354 N 
ATOM     52  N   UNL A   1      41.229  30.027  34.059  1.00  0.00    -0.248 NA
ATOM     53  C   UNL A   1      42.493  29.942  36.021  1.00  0.00     0.031 C 
ATOM     54  C   UNL A   1      37.578  32.525  33.554  1.00  0.00     0.029 A 
ATOM     55  C   UNL A   1      38.722  31.763  33.731  1.00  0.00     0.049 A 
ATOM     56  H   UNL A   1      39.718  30.521  32.347  1.00  0.00     0.167 HD
ATOM     57  C   UNL A   1      40.641  30.848  35.014  1.00  0.00     0.074 A 
ATOM     58  C   UNL A   1      41.447  30.732  36.213  1.00  0.00     0.031 C 
ATOM     59  C   UNL A   1      39.536  31.627  34.912  1.00  0.00     0.037 A 
BRANCH  46  60
ATOM     60  C   UNL A   1      36.869  31.529  29.338  1.00  0.00     0.057 A 
ATOM     61  C   UNL A   1      36.892  32.824  28.801  1.00  0.00     0.134 A 
ATOM     62  C   UNL A   1      35.793  30.704  28.988  1.00  0.00     0.134 A 
ATOM     63  F   UNL A   1      37.883  33.671  29.113  1.00  0.00    -0.206 F 
ATOM     64  C   UNL A   1      35.872  33.286  27.967  1.00  0.00     0.040 A 
ATOM     65  C   UNL A   1      34.781  31.146  28.134  1.00  0.00     0.040 A 
ATOM     66  F   UNL A   1      35.708  29.454  29.468  1.00  0.00    -0.206 F 
ATOM     67  C   UNL A   1      34.816  32.443  27.626  1.00  0.00     0.006 A 
ENDBRANCH  46  60
BRANCH  47  68
ATOM     68  C   UNL A   1      44.399  28.013  34.911  1.00  0.00     0.057 A 
ATOM     69  C   UNL A   1      44.282  26.862  35.698  1.00  0.00     0.134 A 
ATOM     70  C   UNL A   1      45.620  28.699  34.950  1.00  0.00     0.134 A 
ATOM     71  F   UNL A   1      43.131  26.175  35.722  1.00  0.00    -0.206 F 
ATOM     72  C   UNL A   1      45.330  26.421  36.509  1.00  0.00     0.040 A 
ATOM     73  C   UNL A   1      46.684  28.255  35.737  1.00  0.00     0.040 A 
ATOM     74  F   UNL A   1      45.797  29.809  34.218  1.00  0.00    -0.206 F 
ATOM     75  C   UNL A   1      46.538  27.116  36.525  1.00  0.00     0.006 A 
ENDBRANCH  47  68
BRANCH  59  76
ATOM     76  C   UNL A   1      39.112  32.385  36.137  1.00  0.00     0.057 A 
ATOM     77  C   UNL A   1      39.513  33.706  36.366  1.00  0.00     0.134 A 
ATOM     78  C   UNL A   1      38.253  31.796  37.075  1.00  0.00     0.134 A 
ATOM     79  F   UNL A   1      40.343  34.323  35.512  1.00  0.00    -0.206 F 
ATOM     80  C   UNL A   1      39.092  34.409  37.497  1.00  0.00     0.040 A 
ATOM     81  C   UNL A   1      37.803  32.498  38.193  1.00  0.00     0.040 A 
ATOM     82  F   UNL A   1      37.823  30.537  36.908  1.00  0.00    -0.206 F 
ATOM     83  C   UNL A   1      38.229  33.806  38.410  1.00  0.00     0.006 A 
ENDBRANCH  59  76
ENDBRANCH  33  34
ENDBRANCH  26  28
ENDBRANCH  25  26
ENDBRANCH  24  25
ENDBRANCH  23  24
ENDBRANCH  22  23
ENDBRANCH  21  22
ENDBRANCH   1  21
TORSDOF 22
ENDMDL
