MODEL 1
REMARK VINA RESULT:     -11.3      0.000      0.000
REMARK SMILES O=C(OCCOCCOC(=O)c1cccc(S(=O)(=O)NC[C@@H]2COc3ccccc3O2)c1)c1ccc(-c2c3nc(c(-c4c(F)cccc4F)c4ccc([nH]4)c(-c4c(F)cccc4F)c4nc(c(-c5c(F)cccc5F)c5ccc2[nH]5)C=C4)C=C3)cc1
REMARK SMILES IDX 7 1 6 2 5 3 4 4 3 5 2 6 1 7 33 8 34 9 86 10 35 11 85 12
REMARK SMILES IDX 36 13 37 14 38 15 79 16 39 17 84 18 78 19 80 20 40 21 83 22
REMARK SMILES IDX 77 23 76 24 41 26 67 27 50 28 66 29 51 30 54 31 65 32 81 33
REMARK SMILES IDX 52 34 53 35 64 37 82 38 55 39 42 40 43 41 48 42 44 43 45 44
REMARK SMILES IDX 47 45 49 46 46 47 68 48 69 49 74 50 70 51 71 52 73 53 75 54
REMARK SMILES IDX 72 55 56 56 57 57 62 58 58 59 59 60 61 61 63 62 60 63 8 64
REMARK SMILES IDX 9 65 10 66 11 67 12 68 13 69 32 70 14 71 16 72 15 73 17 74
REMARK SMILES IDX 18 75 19 76 20 77 21 79 22 80 23 81 31 82 24 83 30 84 25 85
REMARK SMILES IDX 29 86 26 87 28 88 27 89
REMARK H PARENT 80 25 54 36 20 78
REMARK Flexibility Score: inf
ROOT
ATOM      1  C   UNL A   1      34.634  32.934  27.923  1.00  0.00     0.202 C 
ENDROOT
BRANCH   1   2
ATOM      2  O   UNL A   1      35.130  33.431  29.165  1.00  0.00    -0.374 OA
BRANCH   2   3
ATOM      3  C   UNL A   1      34.176  34.081  30.002  1.00  0.00     0.202 C 
BRANCH   3   4
ATOM      4  C   UNL A   1      34.525  33.876  31.475  1.00  0.00     0.261 C 
BRANCH   4   5
ATOM      5  O   UNL A   1      34.832  32.495  31.730  1.00  0.00    -0.460 OA
BRANCH   5   6
ATOM      6  C   UNL A   1      35.934  31.964  32.304  1.00  0.00     0.338 C 
ATOM      7  O   UNL A   1      35.971  31.919  33.535  1.00  0.00    -0.246 OA
BRANCH   6   8
ATOM      8  C   UNL A   1      37.103  31.376  31.565  1.00  0.00     0.060 A 
ATOM      9  C   UNL A   1      37.319  31.411  30.184  1.00  0.00     0.016 A 
ATOM     10  C   UNL A   1      38.123  30.828  32.366  1.00  0.00     0.016 A 
ATOM     11  C   UNL A   1      38.509  30.960  29.618  1.00  0.00     0.010 A 
ATOM     12  C   UNL A   1      39.316  30.358  31.808  1.00  0.00     0.010 A 
ATOM     13  C   UNL A   1      39.511  30.436  30.427  1.00  0.00    -0.014 A 
BRANCH  13  14
ATOM     14  C   UNL A   1      40.728  29.910  29.790  1.00  0.00     0.031 A 
ATOM     15  C   UNL A   1      41.903  30.820  29.638  1.00  0.00     0.074 A 
ATOM     16  C   UNL A   1      40.785  28.614  29.440  1.00  0.00     0.049 A 
ATOM     17  N   UNL A   1      43.053  30.593  29.066  1.00  0.00    -0.248 NA
ATOM     18  C   UNL A   1      41.770  32.165  30.223  1.00  0.00     0.031 C 
ATOM     19  C   UNL A   1      39.717  27.635  29.653  1.00  0.00     0.029 A 
ATOM     20  N   UNL A   1      41.784  27.897  28.838  1.00  0.00    -0.354 N 
ATOM     21  C   UNL A   1      43.776  31.769  29.207  1.00  0.00     0.074 A 
ATOM     22  C   UNL A   1      42.942  32.706  29.926  1.00  0.00     0.031 C 
ATOM     23  C   UNL A   1      40.118  26.443  29.180  1.00  0.00     0.029 A 
ATOM     24  C   UNL A   1      41.444  26.589  28.589  1.00  0.00     0.049 A 
ATOM     25  H   UNL A   1      42.660  28.281  28.607  1.00  0.00     0.167 HD
ATOM     26  C   UNL A   1      45.021  32.037  28.756  1.00  0.00     0.037 A 
ATOM     27  C   UNL A   1      42.123  25.639  27.920  1.00  0.00     0.037 A 
ATOM     28  C   UNL A   1      45.824  31.092  28.031  1.00  0.00     0.049 A 
ATOM     29  C   UNL A   1      43.464  25.998  27.341  1.00  0.00     0.074 A 
ATOM     30  C   UNL A   1      47.087  31.257  27.497  1.00  0.00     0.029 A 
ATOM     31  N   UNL A   1      45.424  29.796  27.733  1.00  0.00    -0.354 N 
ATOM     32  N   UNL A   1      44.137  27.120  27.452  1.00  0.00    -0.248 NA
ATOM     33  C   UNL A   1      44.131  24.975  26.523  1.00  0.00     0.031 C 
ATOM     34  C   UNL A   1      47.435  30.072  26.839  1.00  0.00     0.029 A 
ATOM     35  C   UNL A   1      46.400  29.161  26.991  1.00  0.00     0.049 A 
ATOM     36  H   UNL A   1      44.569  29.391  28.010  1.00  0.00     0.167 HD
ATOM     37  C   UNL A   1      45.299  26.943  26.716  1.00  0.00     0.074 A 
ATOM     38  C   UNL A   1      45.255  25.593  26.188  1.00  0.00     0.031 C 
ATOM     39  C   UNL A   1      46.308  27.817  26.480  1.00  0.00     0.037 A 
BRANCH  26  40
ATOM     40  C   UNL A   1      45.541  33.421  28.977  1.00  0.00     0.057 A 
ATOM     41  C   UNL A   1      45.271  34.467  28.086  1.00  0.00     0.134 A 
ATOM     42  C   UNL A   1      46.337  33.707  30.093  1.00  0.00     0.134 A 
ATOM     43  F   UNL A   1      44.538  34.249  26.983  1.00  0.00    -0.206 F 
ATOM     44  C   UNL A   1      45.788  35.748  28.291  1.00  0.00     0.040 A 
ATOM     45  C   UNL A   1      46.847  34.986  30.316  1.00  0.00     0.040 A 
ATOM     46  F   UNL A   1      46.641  32.744  30.975  1.00  0.00    -0.206 F 
ATOM     47  C   UNL A   1      46.576  36.011  29.411  1.00  0.00     0.006 A 
ENDBRANCH  26  40
BRANCH  27  48
ATOM     48  C   UNL A   1      41.521  24.300  27.693  1.00  0.00     0.057 A 
ATOM     49  C   UNL A   1      40.502  24.105  26.754  1.00  0.00     0.134 A 
ATOM     50  C   UNL A   1      41.934  23.184  28.433  1.00  0.00     0.134 A 
ATOM     51  F   UNL A   1      40.044  25.136  26.030  1.00  0.00    -0.206 F 
ATOM     52  C   UNL A   1      39.907  22.853  26.569  1.00  0.00     0.040 A 
ATOM     53  C   UNL A   1      41.366  21.923  28.241  1.00  0.00     0.040 A 
ATOM     54  F   UNL A   1      42.902  23.302  29.354  1.00  0.00    -0.206 F 
ATOM     55  C   UNL A   1      40.343  21.757  27.311  1.00  0.00     0.006 A 
ENDBRANCH  27  48
BRANCH  39  56
ATOM     56  C   UNL A   1      47.424  27.338  25.606  1.00  0.00     0.057 A 
ATOM     57  C   UNL A   1      47.414  27.572  24.226  1.00  0.00     0.134 A 
ATOM     58  C   UNL A   1      48.538  26.691  26.154  1.00  0.00     0.134 A 
ATOM     59  F   UNL A   1      46.365  28.175  23.646  1.00  0.00    -0.206 F 
ATOM     60  C   UNL A   1      48.475  27.169  23.416  1.00  0.00     0.040 A 
ATOM     61  C   UNL A   1      49.613  26.301  25.356  1.00  0.00     0.040 A 
ATOM     62  F   UNL A   1      48.604  26.447  27.471  1.00  0.00    -0.206 F 
ATOM     63  C   UNL A   1      49.581  26.539  23.982  1.00  0.00     0.006 A 
ENDBRANCH  39  56
ENDBRANCH  13  14
ENDBRANCH   6   8
ENDBRANCH   5   6
ENDBRANCH   4   5
ENDBRANCH   3   4
ENDBRANCH   2   3
ENDBRANCH   1   2
BRANCH   1  64
ATOM     64  C   UNL A   1      33.942  31.600  28.163  1.00  0.00     0.261 C 
BRANCH  64  65
ATOM     65  O   UNL A   1      33.544  31.048  26.900  1.00  0.00    -0.460 OA
BRANCH  65  66
ATOM     66  C   UNL A   1      32.216  31.083  26.626  1.00  0.00     0.338 C 
ATOM     67  O   UNL A   1      31.469  32.045  26.664  1.00  0.00    -0.246 OA
BRANCH  66  68
ATOM     68  C   UNL A   1      31.764  29.719  26.279  1.00  0.00     0.061 A 
ATOM     69  C   UNL A   1      31.804  28.702  27.234  1.00  0.00     0.016 A 
ATOM     70  C   UNL A   1      31.439  29.419  24.958  1.00  0.00     0.037 A 
ATOM     71  C   UNL A   1      31.560  27.381  26.848  1.00  0.00     0.002 A 
ATOM     72  C   UNL A   1      31.360  28.096  24.550  1.00  0.00     0.083 A 
ATOM     73  C   UNL A   1      31.382  27.068  25.496  1.00  0.00     0.022 A 
BRANCH  72  74
ATOM     74  S   UNL A   1      31.442  27.721  22.816  1.00  0.00     0.240 S 
ATOM     75  O   UNL A   1      30.182  28.106  22.229  1.00  0.00    -0.207 OA
ATOM     76  O   UNL A   1      32.715  28.219  22.348  1.00  0.00    -0.207 OA
BRANCH  74  77
ATOM     77  N   UNL A   1      31.563  26.024  22.755  1.00  0.00    -0.207 NA
ATOM     78  H   UNL A   1      30.653  25.674  22.453  1.00  0.00     0.141 HD
BRANCH  77  79
ATOM     79  C   UNL A   1      32.586  25.378  21.876  1.00  0.00     0.147 C 
BRANCH  79  80
ATOM     80  C   UNL A   1      32.904  23.914  22.228  1.00  0.00     0.226 C 
ATOM     81  C   UNL A   1      32.226  23.435  23.516  1.00  0.00     0.276 C 
ATOM     82  O   UNL A   1      34.331  23.720  22.267  1.00  0.00    -0.482 OA
ATOM     83  O   UNL A   1      32.794  24.008  24.692  1.00  0.00    -0.486 OA
ATOM     84  C   UNL A   1      34.875  23.633  23.520  1.00  0.00     0.161 A 
ATOM     85  C   UNL A   1      34.138  23.770  24.697  1.00  0.00     0.161 A 
ATOM     86  C   UNL A   1      36.242  23.382  23.595  1.00  0.00     0.050 A 
ATOM     87  C   UNL A   1      34.755  23.670  25.942  1.00  0.00     0.050 A 
ATOM     88  C   UNL A   1      36.864  23.262  24.841  1.00  0.00     0.004 A 
ATOM     89  C   UNL A   1      36.120  23.405  26.014  1.00  0.00     0.004 A 
ENDBRANCH  79  80
ENDBRANCH  77  79
ENDBRANCH  74  77
ENDBRANCH  72  74
ENDBRANCH  66  68
ENDBRANCH  65  66
ENDBRANCH  64  65
ENDBRANCH   1  64
TORSDOF 18
ENDMDL
MODEL 2
REMARK VINA RESULT:     -11.2      4.722      7.485
REMARK SMILES O=C(OCCOCCOC(=O)c1cccc(S(=O)(=O)NC[C@@H]2COc3ccccc3O2)c1)c1ccc(-c2c3nc(c(-c4c(F)cccc4F)c4ccc([nH]4)c(-c4c(F)cccc4F)c4nc(c(-c5c(F)cccc5F)c5ccc2[nH]5)C=C4)C=C3)cc1
REMARK SMILES IDX 7 1 6 2 5 3 4 4 3 5 2 6 1 7 33 8 34 9 86 10 35 11 85 12
REMARK SMILES IDX 36 13 37 14 38 15 79 16 39 17 84 18 78 19 80 20 40 21 83 22
REMARK SMILES IDX 77 23 76 24 41 26 67 27 50 28 66 29 51 30 54 31 65 32 81 33
REMARK SMILES IDX 52 34 53 35 64 37 82 38 55 39 42 40 43 41 48 42 44 43 45 44
REMARK SMILES IDX 47 45 49 46 46 47 68 48 69 49 74 50 70 51 71 52 73 53 75 54
REMARK SMILES IDX 72 55 56 56 57 57 62 58 58 59 59 60 61 61 63 62 60 63 8 64
REMARK SMILES IDX 9 65 10 66 11 67 12 68 13 69 32 70 14 71 16 72 15 73 17 74
REMARK SMILES IDX 18 75 19 76 20 77 21 79 22 80 23 81 31 82 24 83 30 84 25 85
REMARK SMILES IDX 29 86 26 87 28 88 27 89
REMARK H PARENT 80 25 54 36 20 78
REMARK Flexibility Score: inf
ROOT
ATOM      1  C   UNL A   1      34.593  33.100  27.970  1.00  0.00     0.202 C 
ENDROOT
BRANCH   1   2
ATOM      2  O   UNL A   1      34.216  34.008  29.003  1.00  0.00    -0.374 OA
BRANCH   2   3
ATOM      3  C   UNL A   1      32.948  34.642  28.843  1.00  0.00     0.202 C 
BRANCH   3   4
ATOM      4  C   UNL A   1      32.983  36.063  29.402  1.00  0.00     0.261 C 
BRANCH   4   5
ATOM      5  O   UNL A   1      32.170  36.156  30.583  1.00  0.00    -0.460 OA
BRANCH   5   6
ATOM      6  C   UNL A   1      32.536  36.020  31.878  1.00  0.00     0.338 C 
ATOM      7  O   UNL A   1      31.847  36.586  32.728  1.00  0.00    -0.246 OA
BRANCH   6   8
ATOM      8  C   UNL A   1      33.688  35.193  32.373  1.00  0.00     0.060 A 
ATOM      9  C   UNL A   1      33.617  33.919  32.945  1.00  0.00     0.016 A 
ATOM     10  C   UNL A   1      34.971  35.726  32.139  1.00  0.00     0.016 A 
ATOM     11  C   UNL A   1      34.761  33.183  33.237  1.00  0.00     0.010 A 
ATOM     12  C   UNL A   1      36.128  35.002  32.444  1.00  0.00     0.010 A 
ATOM     13  C   UNL A   1      36.019  33.720  32.986  1.00  0.00    -0.014 A 
BRANCH  13  14
ATOM     14  C   UNL A   1      37.207  32.941  33.367  1.00  0.00     0.031 A 
ATOM     15  C   UNL A   1      37.840  33.209  34.693  1.00  0.00     0.074 A 
ATOM     16  C   UNL A   1      37.641  31.958  32.560  1.00  0.00     0.049 A 
ATOM     17  N   UNL A   1      38.915  32.685  35.215  1.00  0.00    -0.248 NA
ATOM     18  C   UNL A   1      37.160  34.190  35.557  1.00  0.00     0.031 C 
ATOM     19  C   UNL A   1      37.013  31.563  31.297  1.00  0.00     0.029 A 
ATOM     20  N   UNL A   1      38.707  31.108  32.686  1.00  0.00    -0.354 N 
ATOM     21  C   UNL A   1      39.052  33.283  36.459  1.00  0.00     0.074 A 
ATOM     22  C   UNL A   1      37.947  34.201  36.623  1.00  0.00     0.031 C 
ATOM     23  C   UNL A   1      37.713  30.551  30.760  1.00  0.00     0.029 A 
ATOM     24  C   UNL A   1      38.861  30.263  31.613  1.00  0.00     0.049 A 
ATOM     25  H   UNL A   1      39.304  31.102  33.468  1.00  0.00     0.167 HD
ATOM     26  C   UNL A   1      40.029  33.086  37.372  1.00  0.00     0.037 A 
ATOM     27  C   UNL A   1      39.848  29.388  31.345  1.00  0.00     0.037 A 
ATOM     28  C   UNL A   1      41.124  32.178  37.179  1.00  0.00     0.049 A 
ATOM     29  C   UNL A   1      40.976  29.264  32.333  1.00  0.00     0.074 A 
ATOM     30  C   UNL A   1      42.191  31.915  38.016  1.00  0.00     0.029 A 
ATOM     31  N   UNL A   1      41.290  31.386  36.050  1.00  0.00    -0.354 N 
ATOM     32  N   UNL A   1      41.119  29.850  33.499  1.00  0.00    -0.248 NA
ATOM     33  C   UNL A   1      42.092  28.385  31.961  1.00  0.00     0.031 C 
ATOM     34  C   UNL A   1      43.026  30.994  37.376  1.00  0.00     0.029 A 
ATOM     35  C   UNL A   1      42.461  30.660  36.152  1.00  0.00     0.049 A 
ATOM     36  H   UNL A   1      40.666  31.349  35.289  1.00  0.00     0.167 HD
ATOM     37  C   UNL A   1      42.339  29.417  33.997  1.00  0.00     0.074 A 
ATOM     38  C   UNL A   1      42.882  28.494  33.020  1.00  0.00     0.031 C 
ATOM     39  C   UNL A   1      42.967  29.758  35.149  1.00  0.00     0.037 A 
BRANCH  26  40
ATOM     40  C   UNL A   1      39.981  33.923  38.610  1.00  0.00     0.057 A 
ATOM     41  C   UNL A   1      40.687  35.127  38.722  1.00  0.00     0.134 A 
ATOM     42  C   UNL A   1      39.227  33.506  39.714  1.00  0.00     0.134 A 
ATOM     43  F   UNL A   1      41.450  35.564  37.708  1.00  0.00    -0.206 F 
ATOM     44  C   UNL A   1      40.655  35.882  39.896  1.00  0.00     0.040 A 
ATOM     45  C   UNL A   1      39.177  34.259  40.888  1.00  0.00     0.040 A 
ATOM     46  F   UNL A   1      38.540  32.356  39.673  1.00  0.00    -0.206 F 
ATOM     47  C   UNL A   1      39.895  35.450  40.982  1.00  0.00     0.006 A 
ENDBRANCH  26  40
BRANCH  27  48
ATOM     48  C   UNL A   1      39.858  28.628  30.068  1.00  0.00     0.057 A 
ATOM     49  C   UNL A   1      40.513  29.115  28.932  1.00  0.00     0.134 A 
ATOM     50  C   UNL A   1      39.184  27.405  29.947  1.00  0.00     0.134 A 
ATOM     51  F   UNL A   1      41.155  30.292  28.975  1.00  0.00    -0.206 F 
ATOM     52  C   UNL A   1      40.488  28.421  27.719  1.00  0.00     0.040 A 
ATOM     53  C   UNL A   1      39.172  26.689  28.748  1.00  0.00     0.040 A 
ATOM     54  F   UNL A   1      38.531  26.884  30.995  1.00  0.00    -0.206 F 
ATOM     55  C   UNL A   1      39.820  27.201  27.627  1.00  0.00     0.006 A 
ENDBRANCH  27  48
BRANCH  39  56
ATOM     56  C   UNL A   1      44.307  29.142  35.394  1.00  0.00     0.057 A 
ATOM     57  C   UNL A   1      45.485  29.792  35.005  1.00  0.00     0.134 A 
ATOM     58  C   UNL A   1      44.424  27.923  36.071  1.00  0.00     0.134 A 
ATOM     59  F   UNL A   1      45.431  30.956  34.340  1.00  0.00    -0.206 F 
ATOM     60  C   UNL A   1      46.738  29.242  35.274  1.00  0.00     0.040 A 
ATOM     61  C   UNL A   1      45.672  27.374  36.363  1.00  0.00     0.040 A 
ATOM     62  F   UNL A   1      43.330  27.260  36.474  1.00  0.00    -0.206 F 
ATOM     63  C   UNL A   1      46.833  28.034  35.962  1.00  0.00     0.006 A 
ENDBRANCH  39  56
ENDBRANCH  13  14
ENDBRANCH   6   8
ENDBRANCH   5   6
ENDBRANCH   4   5
ENDBRANCH   3   4
ENDBRANCH   2   3
ENDBRANCH   1   2
BRANCH   1  64
ATOM     64  C   UNL A   1      34.244  31.683  28.403  1.00  0.00     0.261 C 
BRANCH  64  65
ATOM     65  O   UNL A   1      34.105  30.860  27.236  1.00  0.00    -0.460 OA
BRANCH  65  66
ATOM     66  C   UNL A   1      34.660  29.624  27.308  1.00  0.00     0.338 C 
ATOM     67  O   UNL A   1      35.785  29.329  27.671  1.00  0.00    -0.246 OA
BRANCH  66  68
ATOM     68  C   UNL A   1      33.672  28.629  26.840  1.00  0.00     0.061 A 
ATOM     69  C   UNL A   1      32.334  28.737  27.220  1.00  0.00     0.016 A 
ATOM     70  C   UNL A   1      34.108  27.505  26.143  1.00  0.00     0.037 A 
ATOM     71  C   UNL A   1      31.448  27.694  26.935  1.00  0.00     0.002 A 
ATOM     72  C   UNL A   1      33.270  26.409  26.008  1.00  0.00     0.083 A 
ATOM     73  C   UNL A   1      31.924  26.507  26.368  1.00  0.00     0.022 A 
BRANCH  72  74
ATOM     74  S   UNL A   1      33.970  24.835  25.575  1.00  0.00     0.240 S 
ATOM     75  O   UNL A   1      35.322  24.809  26.075  1.00  0.00    -0.207 OA
ATOM     76  O   UNL A   1      32.983  23.838  25.920  1.00  0.00    -0.207 OA
BRANCH  74  77
ATOM     77  N   UNL A   1      34.030  24.851  23.873  1.00  0.00    -0.207 NA
ATOM     78  H   UNL A   1      34.878  24.354  23.603  1.00  0.00     0.141 HD
BRANCH  77  79
ATOM     79  C   UNL A   1      32.911  24.257  23.079  1.00  0.00     0.147 C 
BRANCH  79  80
ATOM     80  C   UNL A   1      32.339  25.178  21.986  1.00  0.00     0.226 C 
ATOM     81  C   UNL A   1      33.262  26.347  21.628  1.00  0.00     0.276 C 
ATOM     82  O   UNL A   1      31.023  25.627  22.366  1.00  0.00    -0.482 OA
ATOM     83  O   UNL A   1      33.329  27.338  22.651  1.00  0.00    -0.486 OA
ATOM     84  C   UNL A   1      30.953  26.919  22.811  1.00  0.00     0.161 A 
ATOM     85  C   UNL A   1      32.063  27.752  22.951  1.00  0.00     0.161 A 
ATOM     86  C   UNL A   1      29.688  27.407  23.125  1.00  0.00     0.050 A 
ATOM     87  C   UNL A   1      31.921  29.060  23.411  1.00  0.00     0.050 A 
ATOM     88  C   UNL A   1      29.536  28.723  23.570  1.00  0.00     0.004 A 
ATOM     89  C   UNL A   1      30.653  29.550  23.712  1.00  0.00     0.004 A 
ENDBRANCH  79  80
ENDBRANCH  77  79
ENDBRANCH  74  77
ENDBRANCH  72  74
ENDBRANCH  66  68
ENDBRANCH  65  66
ENDBRANCH  64  65
ENDBRANCH   1  64
TORSDOF 18
ENDMDL
MODEL 3
REMARK VINA RESULT:     -11.2      1.335      2.241
REMARK SMILES O=C(OCCOCCOC(=O)c1cccc(S(=O)(=O)NC[C@@H]2COc3ccccc3O2)c1)c1ccc(-c2c3nc(c(-c4c(F)cccc4F)c4ccc([nH]4)c(-c4c(F)cccc4F)c4nc(c(-c5c(F)cccc5F)c5ccc2[nH]5)C=C4)C=C3)cc1
REMARK SMILES IDX 7 1 6 2 5 3 4 4 3 5 2 6 1 7 33 8 34 9 86 10 35 11 85 12
REMARK SMILES IDX 36 13 37 14 38 15 79 16 39 17 84 18 78 19 80 20 40 21 83 22
REMARK SMILES IDX 77 23 76 24 41 26 67 27 50 28 66 29 51 30 54 31 65 32 81 33
REMARK SMILES IDX 52 34 53 35 64 37 82 38 55 39 42 40 43 41 48 42 44 43 45 44
REMARK SMILES IDX 47 45 49 46 46 47 68 48 69 49 74 50 70 51 71 52 73 53 75 54
REMARK SMILES IDX 72 55 56 56 57 57 62 58 58 59 59 60 61 61 63 62 60 63 8 64
REMARK SMILES IDX 9 65 10 66 11 67 12 68 13 69 32 70 14 71 16 72 15 73 17 74
REMARK SMILES IDX 18 75 19 76 20 77 21 79 22 80 23 81 31 82 24 83 30 84 25 85
REMARK SMILES IDX 29 86 26 87 28 88 27 89
REMARK H PARENT 80 25 54 36 20 78
REMARK Flexibility Score: inf
ROOT
ATOM      1  C   UNL A   1      34.139  31.069  28.058  1.00  0.00     0.202 C 
ENDROOT
BRANCH   1   2
ATOM      2  O   UNL A   1      33.581  32.382  28.053  1.00  0.00    -0.374 OA
BRANCH   2   3
ATOM      3  C   UNL A   1      34.427  33.421  28.540  1.00  0.00     0.202 C 
BRANCH   3   4
ATOM      4  C   UNL A   1      34.171  33.673  30.025  1.00  0.00     0.261 C 
BRANCH   4   5
ATOM      5  O   UNL A   1      34.435  32.484  30.788  1.00  0.00    -0.460 OA
BRANCH   5   6
ATOM      6  C   UNL A   1      35.476  32.217  31.608  1.00  0.00     0.338 C 
ATOM      7  O   UNL A   1      35.301  32.366  32.819  1.00  0.00    -0.246 OA
BRANCH   6   8
ATOM      8  C   UNL A   1      36.819  31.705  31.171  1.00  0.00     0.060 A 
ATOM      9  C   UNL A   1      37.771  31.069  31.974  1.00  0.00     0.016 A 
ATOM     10  C   UNL A   1      37.090  31.792  29.791  1.00  0.00     0.016 A 
ATOM     11  C   UNL A   1      38.924  30.506  31.434  1.00  0.00     0.010 A 
ATOM     12  C   UNL A   1      38.252  31.244  29.240  1.00  0.00     0.010 A 
ATOM     13  C   UNL A   1      39.167  30.588  30.067  1.00  0.00    -0.014 A 
BRANCH  13  14
ATOM     14  C   UNL A   1      40.426  30.039  29.541  1.00  0.00     0.031 A 
ATOM     15  C   UNL A   1      41.618  30.936  29.464  1.00  0.00     0.074 A 
ATOM     16  C   UNL A   1      40.498  28.735  29.224  1.00  0.00     0.049 A 
ATOM     17  N   UNL A   1      42.808  30.687  28.992  1.00  0.00    -0.248 NA
ATOM     18  C   UNL A   1      41.452  32.295  30.009  1.00  0.00     0.031 C 
ATOM     19  C   UNL A   1      39.407  27.770  29.371  1.00  0.00     0.029 A 
ATOM     20  N   UNL A   1      41.535  27.998  28.720  1.00  0.00    -0.354 N 
ATOM     21  C   UNL A   1      43.528  31.860  29.165  1.00  0.00     0.074 A 
ATOM     22  C   UNL A   1      42.649  32.820  29.795  1.00  0.00     0.031 C 
ATOM     23  C   UNL A   1      39.833  26.565  28.957  1.00  0.00     0.029 A 
ATOM     24  C   UNL A   1      41.203  26.687  28.471  1.00  0.00     0.049 A 
ATOM     25  H   UNL A   1      42.431  28.369  28.552  1.00  0.00     0.167 HD
ATOM     26  C   UNL A   1      44.809  32.108  28.809  1.00  0.00     0.037 A 
ATOM     27  C   UNL A   1      41.924  25.717  27.879  1.00  0.00     0.037 A 
ATOM     28  C   UNL A   1      45.657  31.142  28.171  1.00  0.00     0.049 A 
ATOM     29  C   UNL A   1      43.311  26.053  27.402  1.00  0.00     0.074 A 
ATOM     30  C   UNL A   1      46.961  31.285  27.737  1.00  0.00     0.029 A 
ATOM     31  N   UNL A   1      45.269  29.843  27.870  1.00  0.00    -0.354 N 
ATOM     32  N   UNL A   1      43.983  27.172  27.543  1.00  0.00    -0.248 NA
ATOM     33  C   UNL A   1      44.030  25.007  26.662  1.00  0.00     0.031 C 
ATOM     34  C   UNL A   1      47.349  30.083  27.134  1.00  0.00     0.029 A 
ATOM     35  C   UNL A   1      46.296  29.183  27.221  1.00  0.00     0.049 A 
ATOM     36  H   UNL A   1      44.392  29.451  28.085  1.00  0.00     0.167 HD
ATOM     37  C   UNL A   1      45.198  26.969  26.906  1.00  0.00     0.074 A 
ATOM     38  C   UNL A   1      45.184  25.608  26.405  1.00  0.00     0.031 C 
ATOM     39  C   UNL A   1      46.232  27.829  26.734  1.00  0.00     0.037 A 
BRANCH  26  40
ATOM     40  C   UNL A   1      45.322  33.493  29.042  1.00  0.00     0.057 A 
ATOM     41  C   UNL A   1      45.997  33.848  30.216  1.00  0.00     0.134 A 
ATOM     42  C   UNL A   1      45.122  34.491  28.081  1.00  0.00     0.134 A 
ATOM     43  F   UNL A   1      46.194  32.942  31.187  1.00  0.00    -0.206 F 
ATOM     44  C   UNL A   1      46.445  35.153  30.432  1.00  0.00     0.040 A 
ATOM     45  C   UNL A   1      45.577  35.795  28.278  1.00  0.00     0.040 A 
ATOM     46  F   UNL A   1      44.471  34.216  26.941  1.00  0.00    -0.206 F 
ATOM     47  C   UNL A   1      46.238  36.130  29.458  1.00  0.00     0.006 A 
ENDBRANCH  26  40
BRANCH  27  48
ATOM     48  C   UNL A   1      41.329  24.378  27.633  1.00  0.00     0.057 A 
ATOM     49  C   UNL A   1      40.342  24.183  26.660  1.00  0.00     0.134 A 
ATOM     50  C   UNL A   1      41.717  23.263  28.387  1.00  0.00     0.134 A 
ATOM     51  F   UNL A   1      39.909  25.215  25.922  1.00  0.00    -0.206 F 
ATOM     52  C   UNL A   1      39.753  22.932  26.457  1.00  0.00     0.040 A 
ATOM     53  C   UNL A   1      41.155  22.002  28.177  1.00  0.00     0.040 A 
ATOM     54  F   UNL A   1      42.654  23.381  29.339  1.00  0.00    -0.206 F 
ATOM     55  C   UNL A   1      40.163  21.836  27.214  1.00  0.00     0.006 A 
ENDBRANCH  27  48
BRANCH  39  56
ATOM     56  C   UNL A   1      47.409  27.323  25.962  1.00  0.00     0.057 A 
ATOM     57  C   UNL A   1      48.469  26.671  26.604  1.00  0.00     0.134 A 
ATOM     58  C   UNL A   1      47.458  27.438  24.569  1.00  0.00     0.134 A 
ATOM     59  F   UNL A   1      48.482  26.545  27.939  1.00  0.00    -0.206 F 
ATOM     60  C   UNL A   1      49.545  26.156  25.882  1.00  0.00     0.040 A 
ATOM     61  C   UNL A   1      48.519  26.910  23.835  1.00  0.00     0.040 A 
ATOM     62  F   UNL A   1      46.467  28.048  23.901  1.00  0.00    -0.206 F 
ATOM     63  C   UNL A   1      49.568  26.268  24.493  1.00  0.00     0.006 A 
ENDBRANCH  39  56
ENDBRANCH  13  14
ENDBRANCH   6   8
ENDBRANCH   5   6
ENDBRANCH   4   5
ENDBRANCH   3   4
ENDBRANCH   2   3
ENDBRANCH   1   2
BRANCH   1  64
ATOM     64  C   UNL A   1      33.949  30.444  26.684  1.00  0.00     0.261 C 
BRANCH  64  65
ATOM     65  O   UNL A   1      32.783  29.607  26.710  1.00  0.00    -0.460 OA
BRANCH  65  66
ATOM     66  C   UNL A   1      31.774  29.965  25.876  1.00  0.00     0.338 C 
ATOM     67  O   UNL A   1      31.260  31.062  25.753  1.00  0.00    -0.246 OA
BRANCH  66  68
ATOM     68  C   UNL A   1      31.342  28.775  25.112  1.00  0.00     0.061 A 
ATOM     69  C   UNL A   1      30.653  28.927  23.908  1.00  0.00     0.016 A 
ATOM     70  C   UNL A   1      31.492  27.509  25.671  1.00  0.00     0.037 A 
ATOM     71  C   UNL A   1      30.082  27.810  23.292  1.00  0.00     0.002 A 
ATOM     72  C   UNL A   1      30.789  26.435  25.148  1.00  0.00     0.083 A 
ATOM     73  C   UNL A   1      30.110  26.567  23.934  1.00  0.00     0.022 A 
BRANCH  72  74
ATOM     74  S   UNL A   1      30.592  24.970  26.132  1.00  0.00     0.240 S 
ATOM     75  O   UNL A   1      31.756  24.854  26.975  1.00  0.00    -0.207 OA
ATOM     76  O   UNL A   1      29.243  25.002  26.649  1.00  0.00    -0.207 OA
BRANCH  74  77
ATOM     77  N   UNL A   1      30.620  23.695  25.005  1.00  0.00    -0.207 NA
ATOM     78  H   UNL A   1      31.012  24.072  24.142  1.00  0.00     0.141 HD
BRANCH  77  79
ATOM     79  C   UNL A   1      31.376  22.441  25.310  1.00  0.00     0.147 C 
BRANCH  79  80
ATOM     80  C   UNL A   1      32.066  21.794  24.096  1.00  0.00     0.226 C 
ATOM     81  C   UNL A   1      32.537  20.360  24.355  1.00  0.00     0.276 C 
ATOM     82  O   UNL A   1      33.140  22.639  23.638  1.00  0.00    -0.482 OA
ATOM     83  O   UNL A   1      33.659  20.289  25.230  1.00  0.00    -0.486 OA
ATOM     84  C   UNL A   1      34.398  22.214  23.968  1.00  0.00     0.161 A 
ATOM     85  C   UNL A   1      34.657  21.079  24.737  1.00  0.00     0.161 A 
ATOM     86  C   UNL A   1      35.463  22.971  23.487  1.00  0.00     0.050 A 
ATOM     87  C   UNL A   1      35.964  20.702  25.037  1.00  0.00     0.050 A 
ATOM     88  C   UNL A   1      36.777  22.589  23.769  1.00  0.00     0.004 A 
ATOM     89  C   UNL A   1      37.028  21.454  24.543  1.00  0.00     0.004 A 
ENDBRANCH  79  80
ENDBRANCH  77  79
ENDBRANCH  74  77
ENDBRANCH  72  74
ENDBRANCH  66  68
ENDBRANCH  65  66
ENDBRANCH  64  65
ENDBRANCH   1  64
TORSDOF 18
ENDMDL
