MODEL 1
REMARK VINA RESULT:     -12.6      0.000      0.000
REMARK SMILES Cc1cc(C)n(C)c(=O)c1C(=O)[NH+]1CCC2(CC1)C[NH2+][C@@H](C(=O)OCCOCCOC(=O)c1ccc(-c3c4nc(c(-c5c(F)cccc5F)c5ccc([nH]5)c(-c5c(F)cccc5F)c5nc(c(-c6c(F)cccc6F)c6ccc3[nH]6)C=C5)C=C4)cc1)C2
REMARK SMILES IDX 27 1 26 2 25 3 24 4 22 5 23 6 21 7 13 8 14 9 18 10 15 12
REMARK SMILES IDX 17 13 16 14 19 15 87 16 20 17 11 20 12 21 10 22 1 23 2 24
REMARK SMILES IDX 3 25 4 26 8 27 5 28 6 29 9 30 7 31 28 32 29 33 30 34 31 35
REMARK SMILES IDX 32 36 33 37 34 38 86 39 35 40 85 41 36 42 37 43 38 44 79 45
REMARK SMILES IDX 39 46 84 47 78 48 80 49 40 50 83 51 77 52 76 53 41 55 67 56
REMARK SMILES IDX 50 57 66 58 51 59 54 60 65 61 81 62 52 63 53 64 64 66 82 67
REMARK SMILES IDX 55 68 42 69 43 70 48 71 44 72 45 73 47 74 49 75 46 76 68 77
REMARK SMILES IDX 69 78 74 79 70 80 71 81 73 82 75 83 72 84 56 85 57 86 62 87
REMARK SMILES IDX 58 88 59 89 61 90 63 91 60 92
REMARK H PARENT 13 11 20 18 20 19 80 54 54 65
REMARK Flexibility Score: inf
ROOT
ATOM      1  O   UNL A   1      42.568  20.970  27.120  1.00  0.00    -0.374 OA
ENDROOT
BRANCH   1   2
ATOM      2  C   UNL A   1      41.199  21.291  27.369  1.00  0.00     0.202 C 
BRANCH   2   3
ATOM      3  C   UNL A   1      40.173  20.709  26.395  1.00  0.00     0.261 C 
BRANCH   3   4
ATOM      4  O   UNL A   1      39.169  21.686  26.078  1.00  0.00    -0.459 OA
BRANCH   4   5
ATOM      5  C   UNL A   1      38.054  21.207  25.469  1.00  0.00     0.364 C 
ATOM      6  O   UNL A   1      37.950  20.093  24.964  1.00  0.00    -0.245 OA
BRANCH   5   7
ATOM      7  C   UNL A   1      36.908  22.216  25.450  1.00  0.00     0.294 C 
ATOM      8  N   UNL A   1      33.039  24.550  22.753  1.00  0.00    -0.267 N 
ATOM      9  C   UNL A   1      34.374  25.077  22.985  1.00  0.00     0.271 C 
ATOM     10  C   UNL A   1      33.006  23.105  22.591  1.00  0.00     0.271 C 
ATOM     11  H   UNL A   1      32.544  24.933  23.513  1.00  0.00     0.357 HD
ATOM     12  C   UNL A   1      34.809  24.627  24.372  1.00  0.00     0.075 C 
ATOM     13  C   UNL A   1      33.677  22.353  23.756  1.00  0.00     0.075 C 
ATOM     14  C   UNL A   1      34.823  23.084  24.531  1.00  0.00     0.036 C 
ATOM     15  C   UNL A   1      34.751  22.748  26.049  1.00  0.00     0.268 C 
ATOM     16  C   UNL A   1      36.215  22.524  24.122  1.00  0.00     0.090 C 
ATOM     17  N   UNL A   1      35.785  21.746  26.276  1.00  0.00    -0.334 N 
ATOM     18  H   UNL A   1      35.471  20.823  25.974  1.00  0.00     0.347 HD
ATOM     19  H   UNL A   1      36.032  21.645  27.261  1.00  0.00     0.347 HD
BRANCH   8  20
ATOM     20  C   UNL A   1      31.978  25.450  22.712  1.00  0.00     0.350 C 
ATOM     21  O   UNL A   1      31.397  25.692  21.650  1.00  0.00    -0.225 OA
BRANCH  20  22
ATOM     22  C   UNL A   1      31.589  26.262  23.912  1.00  0.00     0.147 A 
ATOM     23  C   UNL A   1      30.798  24.248  25.275  1.00  0.00     0.045 C 
ATOM     24  C   UNL A   1      31.119  25.693  25.044  1.00  0.00    -0.027 A 
ATOM     25  C   UNL A   1      31.016  26.465  26.265  1.00  0.00     0.026 A 
ATOM     26  C   UNL A   1      31.595  27.666  26.392  1.00  0.00     0.018 A 
ATOM     27  C   UNL A   1      32.082  27.689  23.992  1.00  0.00     0.267 A 
ATOM     28  C   UNL A   1      31.594  28.326  27.745  1.00  0.00     0.064 C 
ATOM     29  N   UNL A   1      32.176  28.262  25.276  1.00  0.00    -0.315 N 
ATOM     30  O   UNL A   1      32.390  28.299  22.969  1.00  0.00    -0.268 OA
ATOM     31  C   UNL A   1      32.887  29.527  25.403  1.00  0.00     0.153 C 
ENDBRANCH  20  22
ENDBRANCH   8  20
ENDBRANCH   5   7
ENDBRANCH   4   5
ENDBRANCH   3   4
ENDBRANCH   2   3
ENDBRANCH   1   2
BRANCH   1  32
ATOM     32  C   UNL A   1      42.974  20.819  25.761  1.00  0.00     0.202 C 
BRANCH  32  33
ATOM     33  C   UNL A   1      43.902  21.898  25.185  1.00  0.00     0.261 C 
BRANCH  33  34
ATOM     34  O   UNL A   1      43.194  23.098  24.823  1.00  0.00    -0.460 OA
BRANCH  34  35
ATOM     35  C   UNL A   1      43.882  24.244  25.034  1.00  0.00     0.338 C 
ATOM     36  O   UNL A   1      44.914  24.604  24.479  1.00  0.00    -0.246 OA
BRANCH  35  37
ATOM     37  C   UNL A   1      43.121  25.139  25.919  1.00  0.00     0.060 A 
ATOM     38  C   UNL A   1      43.610  26.442  26.092  1.00  0.00     0.016 A 
ATOM     39  C   UNL A   1      42.013  24.693  26.642  1.00  0.00     0.016 A 
ATOM     40  C   UNL A   1      43.019  27.290  27.023  1.00  0.00     0.010 A 
ATOM     41  C   UNL A   1      41.429  25.542  27.587  1.00  0.00     0.010 A 
ATOM     42  C   UNL A   1      41.953  26.830  27.808  1.00  0.00    -0.014 A 
BRANCH  42  43
ATOM     43  C   UNL A   1      41.508  27.643  28.964  1.00  0.00     0.031 A 
ATOM     44  C   UNL A   1      42.270  27.550  30.256  1.00  0.00     0.074 A 
ATOM     45  C   UNL A   1      40.475  28.495  28.848  1.00  0.00     0.049 A 
ATOM     46  N   UNL A   1      42.066  28.178  31.386  1.00  0.00    -0.248 NA
ATOM     47  C   UNL A   1      43.417  26.628  30.275  1.00  0.00     0.031 C 
ATOM     48  C   UNL A   1      39.689  28.708  27.636  1.00  0.00     0.029 A 
ATOM     49  N   UNL A   1      39.914  29.343  29.770  1.00  0.00    -0.354 N 
ATOM     50  C   UNL A   1      43.058  27.727  32.248  1.00  0.00     0.074 A 
ATOM     51  C   UNL A   1      43.841  26.751  31.525  1.00  0.00     0.031 C 
ATOM     52  C   UNL A   1      38.743  29.629  27.888  1.00  0.00     0.029 A 
ATOM     53  C   UNL A   1      38.841  30.048  29.286  1.00  0.00     0.049 A 
ATOM     54  H   UNL A   1      40.250  29.438  30.691  1.00  0.00     0.167 HD
ATOM     55  C   UNL A   1      43.299  28.104  33.526  1.00  0.00     0.037 A 
ATOM     56  C   UNL A   1      38.022  30.921  29.904  1.00  0.00     0.037 A 
ATOM     57  C   UNL A   1      42.520  29.077  34.244  1.00  0.00     0.049 A 
ATOM     58  C   UNL A   1      38.261  31.268  31.348  1.00  0.00     0.074 A 
ATOM     59  C   UNL A   1      42.702  29.544  35.534  1.00  0.00     0.029 A 
ATOM     60  N   UNL A   1      41.404  29.726  33.737  1.00  0.00    -0.354 N 
ATOM     61  N   UNL A   1      39.214  30.855  32.149  1.00  0.00    -0.248 NA
ATOM     62  C   UNL A   1      37.313  32.200  31.976  1.00  0.00     0.031 C 
ATOM     63  C   UNL A   1      41.666  30.435  35.826  1.00  0.00     0.029 A 
ATOM     64  C   UNL A   1      40.867  30.563  34.701  1.00  0.00     0.049 A 
ATOM     65  H   UNL A   1      41.046  29.608  32.827  1.00  0.00     0.167 HD
ATOM     66  C   UNL A   1      38.991  31.487  33.367  1.00  0.00     0.074 A 
ATOM     67  C   UNL A   1      37.820  32.321  33.197  1.00  0.00     0.031 C 
ATOM     68  C   UNL A   1      39.695  31.382  34.521  1.00  0.00     0.037 A 
BRANCH  55  69
ATOM     69  C   UNL A   1      44.442  27.443  34.238  1.00  0.00     0.057 A 
ATOM     70  C   UNL A   1      45.730  27.991  34.236  1.00  0.00     0.134 A 
ATOM     71  C   UNL A   1      44.239  26.264  34.966  1.00  0.00     0.134 A 
ATOM     72  F   UNL A   1      45.993  29.110  33.547  1.00  0.00    -0.206 F 
ATOM     73  C   UNL A   1      46.783  27.378  34.920  1.00  0.00     0.040 A 
ATOM     74  C   UNL A   1      45.277  25.656  35.673  1.00  0.00     0.040 A 
ATOM     75  F   UNL A   1      43.028  25.689  35.012  1.00  0.00    -0.206 F 
ATOM     76  C   UNL A   1      46.555  26.211  35.647  1.00  0.00     0.006 A 
ENDBRANCH  55  69
BRANCH  56  77
ATOM     77  C   UNL A   1      36.897  31.525  29.149  1.00  0.00     0.057 A 
ATOM     78  C   UNL A   1      35.722  30.808  28.901  1.00  0.00     0.134 A 
ATOM     79  C   UNL A   1      36.960  32.844  28.683  1.00  0.00     0.134 A 
ATOM     80  F   UNL A   1      35.612  29.533  29.303  1.00  0.00    -0.206 F 
ATOM     81  C   UNL A   1      34.648  31.382  28.219  1.00  0.00     0.040 A 
ATOM     82  C   UNL A   1      35.885  33.437  28.019  1.00  0.00     0.040 A 
ATOM     83  F   UNL A   1      38.060  33.584  28.889  1.00  0.00    -0.206 F 
ATOM     84  C   UNL A   1      34.724  32.704  27.785  1.00  0.00     0.006 A 
ENDBRANCH  56  77
BRANCH  68  85
ATOM     85  C   UNL A   1      39.228  32.190  35.697  1.00  0.00     0.057 A 
ATOM     86  C   UNL A   1      39.620  33.522  35.875  1.00  0.00     0.134 A 
ATOM     87  C   UNL A   1      38.313  31.656  36.615  1.00  0.00     0.134 A 
ATOM     88  F   UNL A   1      40.500  34.090  35.037  1.00  0.00    -0.206 F 
ATOM     89  C   UNL A   1      39.125  34.293  36.929  1.00  0.00     0.040 A 
ATOM     90  C   UNL A   1      37.792  32.424  37.657  1.00  0.00     0.040 A 
ATOM     91  F   UNL A   1      37.889  30.389  36.495  1.00  0.00    -0.206 F 
ATOM     92  C   UNL A   1      38.201  33.747  37.817  1.00  0.00     0.006 A 
ENDBRANCH  68  85
ENDBRANCH  42  43
ENDBRANCH  35  37
ENDBRANCH  34  35
ENDBRANCH  33  34
ENDBRANCH  32  33
ENDBRANCH   1  32
TORSDOF 16
ENDMDL
MODEL 2
REMARK VINA RESULT:     -12.5      1.251      2.045
REMARK SMILES Cc1cc(C)n(C)c(=O)c1C(=O)[NH+]1CCC2(CC1)C[NH2+][C@@H](C(=O)OCCOCCOC(=O)c1ccc(-c3c4nc(c(-c5c(F)cccc5F)c5ccc([nH]5)c(-c5c(F)cccc5F)c5nc(c(-c6c(F)cccc6F)c6ccc3[nH]6)C=C5)C=C4)cc1)C2
REMARK SMILES IDX 27 1 26 2 25 3 24 4 22 5 23 6 21 7 13 8 14 9 18 10 15 12
REMARK SMILES IDX 17 13 16 14 19 15 87 16 20 17 11 20 12 21 10 22 1 23 2 24
REMARK SMILES IDX 3 25 4 26 8 27 5 28 6 29 9 30 7 31 28 32 29 33 30 34 31 35
REMARK SMILES IDX 32 36 33 37 34 38 86 39 35 40 85 41 36 42 37 43 38 44 79 45
REMARK SMILES IDX 39 46 84 47 78 48 80 49 40 50 83 51 77 52 76 53 41 55 67 56
REMARK SMILES IDX 50 57 66 58 51 59 54 60 65 61 81 62 52 63 53 64 64 66 82 67
REMARK SMILES IDX 55 68 42 69 43 70 48 71 44 72 45 73 47 74 49 75 46 76 68 77
REMARK SMILES IDX 69 78 74 79 70 80 71 81 73 82 75 83 72 84 56 85 57 86 62 87
REMARK SMILES IDX 58 88 59 89 61 90 63 91 60 92
REMARK H PARENT 13 11 20 18 20 19 80 54 54 65
REMARK Flexibility Score: inf
ROOT
ATOM      1  O   UNL A   1      43.155  20.147  24.954  1.00  0.00    -0.374 OA
ENDROOT
BRANCH   1   2
ATOM      2  C   UNL A   1      42.825  19.077  25.841  1.00  0.00     0.202 C 
BRANCH   2   3
ATOM      3  C   UNL A   1      41.634  19.305  26.773  1.00  0.00     0.261 C 
BRANCH   3   4
ATOM      4  O   UNL A   1      40.704  20.227  26.184  1.00  0.00    -0.459 OA
BRANCH   4   5
ATOM      5  C   UNL A   1      40.534  21.398  26.850  1.00  0.00     0.364 C 
ATOM      6  O   UNL A   1      41.140  21.725  27.866  1.00  0.00    -0.245 OA
BRANCH   5   7
ATOM      7  C   UNL A   1      39.473  22.294  26.215  1.00  0.00     0.294 C 
ATOM      8  N   UNL A   1      34.679  22.754  24.095  1.00  0.00    -0.267 N 
ATOM      9  C   UNL A   1      35.935  22.611  23.377  1.00  0.00     0.271 C 
ATOM     10  C   UNL A   1      34.640  22.014  25.347  1.00  0.00     0.271 C 
ATOM     11  H   UNL A   1      34.593  23.733  24.145  1.00  0.00     0.357 HD
ATOM     12  C   UNL A   1      37.004  23.346  24.172  1.00  0.00     0.075 C 
ATOM     13  C   UNL A   1      35.824  22.342  26.277  1.00  0.00     0.075 C 
ATOM     14  C   UNL A   1      37.165  22.801  25.616  1.00  0.00     0.036 C 
ATOM     15  C   UNL A   1      37.848  23.901  26.480  1.00  0.00     0.268 C 
ATOM     16  C   UNL A   1      38.214  21.653  25.632  1.00  0.00     0.090 C 
ATOM     17  N   UNL A   1      38.910  23.220  27.210  1.00  0.00    -0.334 N 
ATOM     18  H   UNL A   1      38.533  22.710  28.010  1.00  0.00     0.347 HD
ATOM     19  H   UNL A   1      39.604  23.862  27.593  1.00  0.00     0.347 HD
BRANCH   8  20
ATOM     20  C   UNL A   1      33.688  23.550  23.530  1.00  0.00     0.350 C 
ATOM     21  O   UNL A   1      32.741  23.044  22.920  1.00  0.00    -0.225 OA
BRANCH  20  22
ATOM     22  C   UNL A   1      33.796  25.047  23.514  1.00  0.00     0.147 A 
ATOM     23  C   UNL A   1      32.924  25.290  21.122  1.00  0.00     0.045 C 
ATOM     24  C   UNL A   1      33.402  25.785  22.453  1.00  0.00    -0.027 A 
ATOM     25  C   UNL A   1      33.259  27.221  22.571  1.00  0.00     0.026 A 
ATOM     26  C   UNL A   1      33.268  27.837  23.761  1.00  0.00     0.018 A 
ATOM     27  C   UNL A   1      33.990  25.758  24.834  1.00  0.00     0.267 A 
ATOM     28  C   UNL A   1      32.938  29.305  23.814  1.00  0.00     0.064 C 
ATOM     29  N   UNL A   1      33.579  27.104  24.902  1.00  0.00    -0.315 N 
ATOM     30  O   UNL A   1      34.478  25.164  25.794  1.00  0.00    -0.268 OA
ATOM     31  C   UNL A   1      33.512  27.726  26.218  1.00  0.00     0.153 C 
ENDBRANCH  20  22
ENDBRANCH   8  20
ENDBRANCH   5   7
ENDBRANCH   4   5
ENDBRANCH   3   4
ENDBRANCH   2   3
ENDBRANCH   1   2
BRANCH   1  32
ATOM     32  C   UNL A   1      44.476  20.678  25.024  1.00  0.00     0.202 C 
BRANCH  32  33
ATOM     33  C   UNL A   1      44.652  22.023  25.744  1.00  0.00     0.261 C 
BRANCH  33  34
ATOM     34  O   UNL A   1      43.790  23.048  25.216  1.00  0.00    -0.460 OA
BRANCH  34  35
ATOM     35  C   UNL A   1      44.310  24.297  25.254  1.00  0.00     0.338 C 
ATOM     36  O   UNL A   1      45.232  24.739  24.579  1.00  0.00    -0.246 OA
BRANCH  35  37
ATOM     37  C   UNL A   1      43.489  25.164  26.113  1.00  0.00     0.060 A 
ATOM     38  C   UNL A   1      43.910  26.490  26.280  1.00  0.00     0.016 A 
ATOM     39  C   UNL A   1      42.389  24.672  26.819  1.00  0.00     0.016 A 
ATOM     40  C   UNL A   1      43.259  27.319  27.188  1.00  0.00     0.010 A 
ATOM     41  C   UNL A   1      41.745  25.503  27.742  1.00  0.00     0.010 A 
ATOM     42  C   UNL A   1      42.201  26.817  27.958  1.00  0.00    -0.014 A 
BRANCH  42  43
ATOM     43  C   UNL A   1      41.694  27.620  29.094  1.00  0.00     0.031 A 
ATOM     44  C   UNL A   1      42.422  27.564  30.408  1.00  0.00     0.074 A 
ATOM     45  C   UNL A   1      40.634  28.433  28.943  1.00  0.00     0.049 A 
ATOM     46  N   UNL A   1      42.163  28.191  31.527  1.00  0.00    -0.248 NA
ATOM     47  C   UNL A   1      43.601  26.686  30.466  1.00  0.00     0.031 C 
ATOM     48  C   UNL A   1      39.875  28.609  27.707  1.00  0.00     0.029 A 
ATOM     49  N   UNL A   1      40.016  29.266  29.842  1.00  0.00    -0.354 N 
ATOM     50  C   UNL A   1      43.145  27.783  32.420  1.00  0.00     0.074 A 
ATOM     51  C   UNL A   1      43.985  26.832  31.727  1.00  0.00     0.031 C 
ATOM     52  C   UNL A   1      38.889  29.495  27.926  1.00  0.00     0.029 A 
ATOM     53  C   UNL A   1      38.932  29.927  29.323  1.00  0.00     0.049 A 
ATOM     54  H   UNL A   1      40.322  29.379  30.771  1.00  0.00     0.167 HD
ATOM     55  C   UNL A   1      43.336  28.177  33.702  1.00  0.00     0.037 A 
ATOM     56  C   UNL A   1      38.064  30.773  29.911  1.00  0.00     0.037 A 
ATOM     57  C   UNL A   1      42.502  29.126  34.390  1.00  0.00     0.049 A 
ATOM     58  C   UNL A   1      38.249  31.138  31.358  1.00  0.00     0.074 A 
ATOM     59  C   UNL A   1      42.630  29.607  35.680  1.00  0.00     0.029 A 
ATOM     60  N   UNL A   1      41.377  29.729  33.847  1.00  0.00    -0.354 N 
ATOM     61  N   UNL A   1      39.194  30.766  32.189  1.00  0.00    -0.248 NA
ATOM     62  C   UNL A   1      37.250  32.039  31.952  1.00  0.00     0.031 C 
ATOM     63  C   UNL A   1      41.553  30.461  35.937  1.00  0.00     0.029 A 
ATOM     64  C   UNL A   1      40.783  30.552  34.789  1.00  0.00     0.049 A 
ATOM     65  H   UNL A   1      41.050  29.592  32.928  1.00  0.00     0.167 HD
ATOM     66  C   UNL A   1      38.913  31.397  33.395  1.00  0.00     0.074 A 
ATOM     67  C   UNL A   1      37.717  32.186  33.186  1.00  0.00     0.031 C 
ATOM     68  C   UNL A   1      39.587  31.326  34.569  1.00  0.00     0.037 A 
BRANCH  55  69
ATOM     69  C   UNL A   1      44.482  27.563  34.451  1.00  0.00     0.057 A 
ATOM     70  C   UNL A   1      45.746  28.165  34.491  1.00  0.00     0.134 A 
ATOM     71  C   UNL A   1      44.305  26.376  35.171  1.00  0.00     0.134 A 
ATOM     72  F   UNL A   1      45.983  29.296  33.811  1.00  0.00    -0.206 F 
ATOM     73  C   UNL A   1      46.800  27.596  35.209  1.00  0.00     0.040 A 
ATOM     74  C   UNL A   1      45.344  25.811  35.912  1.00  0.00     0.040 A 
ATOM     75  F   UNL A   1      43.118  25.751  35.177  1.00  0.00    -0.206 F 
ATOM     76  C   UNL A   1      46.598  26.420  35.928  1.00  0.00     0.006 A 
ENDBRANCH  55  69
BRANCH  56  77
ATOM     77  C   UNL A   1      36.939  31.330  29.119  1.00  0.00     0.057 A 
ATOM     78  C   UNL A   1      35.815  30.557  28.814  1.00  0.00     0.134 A 
ATOM     79  C   UNL A   1      36.951  32.659  28.676  1.00  0.00     0.134 A 
ATOM     80  F   UNL A   1      35.756  29.272  29.193  1.00  0.00    -0.206 F 
ATOM     81  C   UNL A   1      34.739  31.085  28.098  1.00  0.00     0.040 A 
ATOM     82  C   UNL A   1      35.874  33.205  27.978  1.00  0.00     0.040 A 
ATOM     83  F   UNL A   1      38.002  33.450  28.936  1.00  0.00    -0.206 F 
ATOM     84  C   UNL A   1      34.763  32.417  27.686  1.00  0.00     0.006 A 
ENDBRANCH  56  77
BRANCH  68  85
ATOM     85  C   UNL A   1      39.058  32.124  35.726  1.00  0.00     0.057 A 
ATOM     86  C   UNL A   1      38.233  31.548  36.699  1.00  0.00     0.134 A 
ATOM     87  C   UNL A   1      39.444  33.458  35.912  1.00  0.00     0.134 A 
ATOM     88  F   UNL A   1      37.819  30.277  36.574  1.00  0.00    -0.206 F 
ATOM     89  C   UNL A   1      37.803  32.271  37.813  1.00  0.00     0.040 A 
ATOM     90  C   UNL A   1      39.042  34.185  37.034  1.00  0.00     0.040 A 
ATOM     91  F   UNL A   1      40.242  34.067  35.023  1.00  0.00    -0.206 F 
ATOM     92  C   UNL A   1      38.217  33.591  37.987  1.00  0.00     0.006 A 
ENDBRANCH  68  85
ENDBRANCH  42  43
ENDBRANCH  35  37
ENDBRANCH  34  35
ENDBRANCH  33  34
ENDBRANCH  32  33
ENDBRANCH   1  32
TORSDOF 16
ENDMDL
MODEL 3
REMARK VINA RESULT:     -12.4      1.161      6.249
REMARK SMILES Cc1cc(C)n(C)c(=O)c1C(=O)[NH+]1CCC2(CC1)C[NH2+][C@@H](C(=O)OCCOCCOC(=O)c1ccc(-c3c4nc(c(-c5c(F)cccc5F)c5ccc([nH]5)c(-c5c(F)cccc5F)c5nc(c(-c6c(F)cccc6F)c6ccc3[nH]6)C=C5)C=C4)cc1)C2
REMARK SMILES IDX 27 1 26 2 25 3 24 4 22 5 23 6 21 7 13 8 14 9 18 10 15 12
REMARK SMILES IDX 17 13 16 14 19 15 87 16 20 17 11 20 12 21 10 22 1 23 2 24
REMARK SMILES IDX 3 25 4 26 8 27 5 28 6 29 9 30 7 31 28 32 29 33 30 34 31 35
REMARK SMILES IDX 32 36 33 37 34 38 86 39 35 40 85 41 36 42 37 43 38 44 79 45
REMARK SMILES IDX 39 46 84 47 78 48 80 49 40 50 83 51 77 52 76 53 41 55 67 56
REMARK SMILES IDX 50 57 66 58 51 59 54 60 65 61 81 62 52 63 53 64 64 66 82 67
REMARK SMILES IDX 55 68 42 69 43 70 48 71 44 72 45 73 47 74 49 75 46 76 68 77
REMARK SMILES IDX 69 78 74 79 70 80 71 81 73 82 75 83 72 84 56 85 57 86 62 87
REMARK SMILES IDX 58 88 59 89 61 90 63 91 60 92
REMARK H PARENT 13 11 20 18 20 19 80 54 54 65
REMARK Flexibility Score: inf
ROOT
ATOM      1  O   UNL A   1      43.783  19.948  24.596  1.00  0.00    -0.374 OA
ENDROOT
BRANCH   1   2
ATOM      2  C   UNL A   1      43.627  18.829  25.470  1.00  0.00     0.202 C 
BRANCH   2   3
ATOM      3  C   UNL A   1      42.451  18.883  26.446  1.00  0.00     0.261 C 
BRANCH   3   4
ATOM      4  O   UNL A   1      41.272  19.369  25.787  1.00  0.00    -0.459 OA
BRANCH   4   5
ATOM      5  C   UNL A   1      40.726  20.496  26.311  1.00  0.00     0.364 C 
ATOM      6  O   UNL A   1      41.352  21.377  26.893  1.00  0.00    -0.245 OA
BRANCH   5   7
ATOM      7  C   UNL A   1      39.212  20.566  26.125  1.00  0.00     0.294 C 
ATOM      8  N   UNL A   1      35.004  23.347  24.626  1.00  0.00    -0.267 N 
ATOM      9  C   UNL A   1      35.493  23.178  25.985  1.00  0.00     0.271 C 
ATOM     10  C   UNL A   1      36.065  23.405  23.632  1.00  0.00     0.271 C 
ATOM     11  H   UNL A   1      34.359  22.607  24.558  1.00  0.00     0.357 HD
ATOM     12  C   UNL A   1      36.062  21.772  26.096  1.00  0.00     0.075 C 
ATOM     13  C   UNL A   1      37.025  22.203  23.705  1.00  0.00     0.075 C 
ATOM     14  C   UNL A   1      37.214  21.504  25.091  1.00  0.00     0.036 C 
ATOM     15  C   UNL A   1      37.355  19.965  24.908  1.00  0.00     0.268 C 
ATOM     16  C   UNL A   1      38.575  21.898  25.731  1.00  0.00     0.090 C 
ATOM     17  N   UNL A   1      38.780  19.686  25.027  1.00  0.00    -0.334 N 
ATOM     18  H   UNL A   1      39.270  19.916  24.162  1.00  0.00     0.347 HD
ATOM     19  H   UNL A   1      38.980  18.702  25.204  1.00  0.00     0.347 HD
BRANCH   8  20
ATOM     20  C   UNL A   1      33.629  23.432  24.430  1.00  0.00     0.350 C 
ATOM     21  O   UNL A   1      32.993  22.468  23.992  1.00  0.00    -0.225 OA
BRANCH  20  22
ATOM     22  C   UNL A   1      32.888  24.725  24.605  1.00  0.00     0.147 A 
ATOM     23  C   UNL A   1      31.896  24.087  26.875  1.00  0.00     0.045 C 
ATOM     24  C   UNL A   1      32.175  24.999  25.720  1.00  0.00    -0.027 A 
ATOM     25  C   UNL A   1      31.707  26.345  25.978  1.00  0.00     0.026 A 
ATOM     26  C   UNL A   1      32.155  27.395  25.277  1.00  0.00     0.018 A 
ATOM     27  C   UNL A   1      33.252  25.878  23.699  1.00  0.00     0.267 A 
ATOM     28  C   UNL A   1      31.757  28.778  25.719  1.00  0.00     0.064 C 
ATOM     29  N   UNL A   1      32.969  27.176  24.171  1.00  0.00    -0.315 N 
ATOM     30  O   UNL A   1      33.778  25.669  22.607  1.00  0.00    -0.268 OA
ATOM     31  C   UNL A   1      33.541  28.301  23.442  1.00  0.00     0.153 C 
ENDBRANCH  20  22
ENDBRANCH   8  20
ENDBRANCH   5   7
ENDBRANCH   4   5
ENDBRANCH   3   4
ENDBRANCH   2   3
ENDBRANCH   1   2
BRANCH   1  32
ATOM     32  C   UNL A   1      44.242  21.171  25.166  1.00  0.00     0.202 C 
BRANCH  32  33
ATOM     33  C   UNL A   1      44.134  22.432  24.296  1.00  0.00     0.261 C 
BRANCH  33  34
ATOM     34  O   UNL A   1      43.340  23.461  24.914  1.00  0.00    -0.460 OA
BRANCH  34  35
ATOM     35  C   UNL A   1      44.011  24.606  25.182  1.00  0.00     0.338 C 
ATOM     36  O   UNL A   1      45.020  25.024  24.626  1.00  0.00    -0.246 OA
BRANCH  35  37
ATOM     37  C   UNL A   1      43.256  25.426  26.143  1.00  0.00     0.060 A 
ATOM     38  C   UNL A   1      43.646  26.764  26.294  1.00  0.00     0.016 A 
ATOM     39  C   UNL A   1      42.256  24.880  26.950  1.00  0.00     0.016 A 
ATOM     40  C   UNL A   1      43.068  27.550  27.285  1.00  0.00     0.010 A 
ATOM     41  C   UNL A   1      41.686  25.669  27.955  1.00  0.00     0.010 A 
ATOM     42  C   UNL A   1      42.116  26.994  28.151  1.00  0.00    -0.014 A 
BRANCH  42  43
ATOM     43  C   UNL A   1      41.705  27.757  29.353  1.00  0.00     0.031 A 
ATOM     44  C   UNL A   1      40.501  28.652  29.271  1.00  0.00     0.074 A 
ATOM     45  C   UNL A   1      42.362  27.612  30.517  1.00  0.00     0.049 A 
ATOM     46  N   UNL A   1      39.957  29.397  30.198  1.00  0.00    -0.248 NA
ATOM     47  C   UNL A   1      39.815  28.709  27.970  1.00  0.00     0.031 C 
ATOM     48  C   UNL A   1      43.513  26.740  30.733  1.00  0.00     0.029 A 
ATOM     49  N   UNL A   1      42.146  28.197  31.739  1.00  0.00    -0.354 N 
ATOM     50  C   UNL A   1      38.868  30.012  29.594  1.00  0.00     0.074 A 
ATOM     51  C   UNL A   1      38.846  29.580  28.214  1.00  0.00     0.031 C 
ATOM     52  C   UNL A   1      43.906  26.849  32.013  1.00  0.00     0.029 A 
ATOM     53  C   UNL A   1      43.051  27.818  32.697  1.00  0.00     0.049 A 
ATOM     54  H   UNL A   1      41.411  28.830  31.912  1.00  0.00     0.167 HD
ATOM     55  C   UNL A   1      37.962  30.854  30.145  1.00  0.00     0.037 A 
ATOM     56  C   UNL A   1      43.182  28.217  33.977  1.00  0.00     0.037 A 
ATOM     57  C   UNL A   1      37.984  31.281  31.518  1.00  0.00     0.049 A 
ATOM     58  C   UNL A   1      42.210  29.212  34.548  1.00  0.00     0.074 A 
ATOM     59  C   UNL A   1      37.094  32.112  32.175  1.00  0.00     0.029 A 
ATOM     60  N   UNL A   1      38.952  30.920  32.443  1.00  0.00    -0.354 N 
ATOM     61  N   UNL A   1      41.170  29.771  33.977  1.00  0.00    -0.248 NA
ATOM     62  C   UNL A   1      42.427  29.634  35.940  1.00  0.00     0.031 C 
ATOM     63  C   UNL A   1      37.552  32.295  33.483  1.00  0.00     0.029 A 
ATOM     64  C   UNL A   1      38.700  31.538  33.656  1.00  0.00     0.049 A 
ATOM     65  H   UNL A   1      39.707  30.313  32.263  1.00  0.00     0.167 HD
ATOM     66  C   UNL A   1      40.600  30.596  34.940  1.00  0.00     0.074 A 
ATOM     67  C   UNL A   1      41.403  30.455  36.137  1.00  0.00     0.031 C 
ATOM     68  C   UNL A   1      39.512  31.396  34.838  1.00  0.00     0.037 A 
BRANCH  55  69
ATOM     69  C   UNL A   1      36.880  31.386  29.252  1.00  0.00     0.057 A 
ATOM     70  C   UNL A   1      35.780  30.605  28.877  1.00  0.00     0.134 A 
ATOM     71  C   UNL A   1      36.923  32.709  28.794  1.00  0.00     0.134 A 
ATOM     72  F   UNL A   1      35.687  29.326  29.271  1.00  0.00    -0.206 F 
ATOM     73  C   UNL A   1      34.768  31.117  28.062  1.00  0.00     0.040 A 
ATOM     74  C   UNL A   1      35.905  33.239  28.000  1.00  0.00     0.040 A 
ATOM     75  F   UNL A   1      37.947  33.511  29.120  1.00  0.00    -0.206 F 
ATOM     76  C   UNL A   1      34.825  32.439  27.628  1.00  0.00     0.006 A 
ENDBRANCH  55  69
BRANCH  56  77
ATOM     77  C   UNL A   1      44.287  27.667  34.802  1.00  0.00     0.057 A 
ATOM     78  C   UNL A   1      45.534  28.297  34.856  1.00  0.00     0.134 A 
ATOM     79  C   UNL A   1      44.110  26.515  35.579  1.00  0.00     0.134 A 
ATOM     80  F   UNL A   1      45.770  29.391  34.117  1.00  0.00    -0.206 F 
ATOM     81  C   UNL A   1      46.567  27.803  35.655  1.00  0.00     0.040 A 
ATOM     82  C   UNL A   1      45.127  26.023  36.399  1.00  0.00     0.040 A 
ATOM     83  F   UNL A   1      42.936  25.866  35.569  1.00  0.00    -0.206 F 
ATOM     84  C   UNL A   1      46.360  26.668  36.437  1.00  0.00     0.006 A 
ENDBRANCH  56  77
BRANCH  68  85
ATOM     85  C   UNL A   1      39.111  32.186  36.051  1.00  0.00     0.057 A 
ATOM     86  C   UNL A   1      39.533  33.507  36.239  1.00  0.00     0.134 A 
ATOM     87  C   UNL A   1      38.229  31.647  36.997  1.00  0.00     0.134 A 
ATOM     88  F   UNL A   1      40.385  34.079  35.375  1.00  0.00    -0.206 F 
ATOM     89  C   UNL A   1      39.099  34.263  37.330  1.00  0.00     0.040 A 
ATOM     90  C   UNL A   1      37.768  32.400  38.078  1.00  0.00     0.040 A 
ATOM     91  F   UNL A   1      37.778  30.390  36.870  1.00  0.00    -0.206 F 
ATOM     92  C   UNL A   1      38.205  33.712  38.247  1.00  0.00     0.006 A 
ENDBRANCH  68  85
ENDBRANCH  42  43
ENDBRANCH  35  37
ENDBRANCH  34  35
ENDBRANCH  33  34
ENDBRANCH  32  33
ENDBRANCH   1  32
TORSDOF 16
ENDMDL
