MODEL 1
REMARK VINA RESULT:     -11.6      0.000      0.000
REMARK SMILES Nc1c(Cl)ccc2c1C=C(C(=O)OCCOCCOC(=O)c1ccc(-c3c4nc(c(-c5c(F)cccc5F)c5ccc([nH]5)c(-c5c(F)cccc5F)c5nc(c(-c6c(F)cccc6F)c6ccc3[nH]6)C=C5)C=C4)cc1)[C@@H](C(F)(F)F)O2
REMARK SMILES IDX 17 1 16 2 15 3 14 4 13 5 11 6 12 7 10 8 2 9 3 10 8 11 4 12
REMARK SMILES IDX 5 13 7 14 9 15 6 16 81 17 76 18 1 19 77 22 78 23 79 24 80 25
REMARK SMILES IDX 18 26 19 27 20 28 21 29 22 30 23 31 75 32 24 33 74 34 25 35
REMARK SMILES IDX 26 36 27 37 68 38 28 39 73 40 67 41 69 42 29 43 72 44 66 45
REMARK SMILES IDX 65 46 30 48 56 49 39 50 55 51 40 52 43 53 54 54 70 55 41 56
REMARK SMILES IDX 42 57 53 59 71 60 44 61 31 62 32 63 37 64 33 65 34 66 36 67
REMARK SMILES IDX 38 68 35 69 57 70 58 71 63 72 59 73 60 74 62 75 64 76 61 77
REMARK SMILES IDX 45 78 46 79 51 80 47 81 48 82 50 83 52 84 49 85
REMARK H PARENT 1 20 1 21 69 47 43 58
REMARK Flexibility Score: inf
ROOT
ATOM      1  C   UNL A   1      31.767  30.677  25.996  1.00  0.00     0.202 C 
ENDROOT
BRANCH   1   2
ATOM      2  O   UNL A   1      32.295  29.494  26.602  1.00  0.00    -0.374 OA
BRANCH   2   3
ATOM      3  C   UNL A   1      33.524  28.982  26.091  1.00  0.00     0.202 C 
BRANCH   3   4
ATOM      4  C   UNL A   1      33.571  27.476  25.818  1.00  0.00     0.261 C 
BRANCH   4   5
ATOM      5  O   UNL A   1      33.494  27.189  24.413  1.00  0.00    -0.460 OA
BRANCH   5   6
ATOM      6  C   UNL A   1      32.708  26.133  24.099  1.00  0.00     0.338 C 
ATOM      7  O   UNL A   1      33.022  24.952  24.125  1.00  0.00    -0.246 OA
BRANCH   6   8
ATOM      8  C   UNL A   1      31.335  26.595  23.827  1.00  0.00     0.088 C 
ATOM      9  C   UNL A   1      29.744  29.475  22.109  1.00  0.00     0.061 A 
ATOM     10  C   UNL A   1      28.460  30.061  22.095  1.00  0.00     0.064 A 
ATOM     11  C   UNL A   1      29.918  28.275  22.838  1.00  0.00     0.042 A 
ATOM     12  Cl  UNL A   1      28.192  31.582  21.307  1.00  0.00    -0.082 Cl
ATOM     13  C   UNL A   1      27.368  29.436  22.696  1.00  0.00     0.026 A 
ATOM     14  C   UNL A   1      28.808  27.635  23.410  1.00  0.00     0.130 A 
ATOM     15  C   UNL A   1      31.237  27.697  23.072  1.00  0.00     0.029 C 
ATOM     16  C   UNL A   1      27.539  28.209  23.332  1.00  0.00     0.049 A 
ATOM     17  O   UNL A   1      28.864  26.434  24.064  1.00  0.00    -0.475 OA
ATOM     18  C   UNL A   1      30.158  25.866  24.403  1.00  0.00     0.316 C 
BRANCH   9  19
ATOM     19  N   UNL A   1      30.825  30.145  21.522  1.00  0.00    -0.397 N 
ATOM     20  H   UNL A   1      30.978  31.098  21.718  1.00  0.00     0.156 HD
ATOM     21  H   UNL A   1      31.431  29.664  20.913  1.00  0.00     0.156 HD
ENDBRANCH   9  19
BRANCH  18  22
ATOM     22  C   UNL A   1      30.239  25.730  25.931  1.00  0.00     0.430 C 
ATOM     23  F   UNL A   1      30.612  26.899  26.507  1.00  0.00    -0.167 F 
ATOM     24  F   UNL A   1      29.041  25.402  26.470  1.00  0.00    -0.167 F 
ATOM     25  F   UNL A   1      31.129  24.787  26.312  1.00  0.00    -0.167 F 
ENDBRANCH  18  22
ENDBRANCH   6   8
ENDBRANCH   5   6
ENDBRANCH   4   5
ENDBRANCH   3   4
ENDBRANCH   2   3
ENDBRANCH   1   2
BRANCH   1  26
ATOM     26  C   UNL A   1      31.571  31.893  26.909  1.00  0.00     0.261 C 
BRANCH  26  27
ATOM     27  O   UNL A   1      32.544  32.923  26.641  1.00  0.00    -0.460 OA
BRANCH  27  28
ATOM     28  C   UNL A   1      33.042  33.539  27.739  1.00  0.00     0.338 C 
ATOM     29  O   UNL A   1      32.504  34.395  28.424  1.00  0.00    -0.246 OA
BRANCH  28  30
ATOM     30  C   UNL A   1      34.311  32.905  28.127  1.00  0.00     0.060 A 
ATOM     31  C   UNL A   1      34.277  31.575  28.565  1.00  0.00     0.016 A 
ATOM     32  C   UNL A   1      35.496  33.643  28.174  1.00  0.00     0.016 A 
ATOM     33  C   UNL A   1      35.425  30.985  29.089  1.00  0.00     0.010 A 
ATOM     34  C   UNL A   1      36.641  33.056  28.718  1.00  0.00     0.010 A 
ATOM     35  C   UNL A   1      36.600  31.738  29.209  1.00  0.00    -0.014 A 
BRANCH  35  36
ATOM     36  C   UNL A   1      37.728  31.203  30.004  1.00  0.00     0.031 A 
ATOM     37  C   UNL A   1      38.672  30.229  29.354  1.00  0.00     0.074 A 
ATOM     38  C   UNL A   1      37.924  31.596  31.273  1.00  0.00     0.049 A 
ATOM     39  N   UNL A   1      39.716  29.622  29.858  1.00  0.00    -0.248 NA
ATOM     40  C   UNL A   1      38.402  29.897  27.946  1.00  0.00     0.031 C 
ATOM     41  C   UNL A   1      37.102  32.564  31.995  1.00  0.00     0.029 A 
ATOM     42  N   UNL A   1      38.879  31.217  32.181  1.00  0.00    -0.354 N 
ATOM     43  C   UNL A   1      40.232  28.846  28.828  1.00  0.00     0.074 A 
ATOM     44  C   UNL A   1      39.368  29.031  27.682  1.00  0.00     0.031 C 
ATOM     45  C   UNL A   1      37.580  32.692  33.245  1.00  0.00     0.029 A 
ATOM     46  C   UNL A   1      38.724  31.798  33.414  1.00  0.00     0.049 A 
ATOM     47  H   UNL A   1      39.606  30.588  31.968  1.00  0.00     0.167 HD
ATOM     48  C   UNL A   1      41.334  28.057  28.834  1.00  0.00     0.037 A 
ATOM     49  C   UNL A   1      39.417  31.609  34.553  1.00  0.00     0.037 A 
ATOM     50  C   UNL A   1      42.178  27.854  29.980  1.00  0.00     0.049 A 
ATOM     51  C   UNL A   1      40.576  30.648  34.562  1.00  0.00     0.074 A 
ATOM     52  C   UNL A   1      43.321  27.082  30.088  1.00  0.00     0.029 A 
ATOM     53  N   UNL A   1      41.959  28.420  31.228  1.00  0.00    -0.354 N 
ATOM     54  N   UNL A   1      41.077  29.943  33.575  1.00  0.00    -0.248 NA
ATOM     55  C   UNL A   1      41.266  30.456  35.846  1.00  0.00     0.031 C 
ATOM     56  C   UNL A   1      43.767  27.143  31.413  1.00  0.00     0.029 A 
ATOM     57  C   UNL A   1      42.928  27.990  32.119  1.00  0.00     0.049 A 
ATOM     58  H   UNL A   1      41.223  29.036  31.447  1.00  0.00     0.167 HD
ATOM     59  C   UNL A   1      42.153  29.248  34.112  1.00  0.00     0.074 A 
ATOM     60  C   UNL A   1      42.240  29.625  35.507  1.00  0.00     0.031 C 
ATOM     61  C   UNL A   1      42.996  28.375  33.506  1.00  0.00     0.037 A 
BRANCH  48  62
ATOM     62  C   UNL A   1      41.663  27.337  27.561  1.00  0.00     0.057 A 
ATOM     63  C   UNL A   1      42.398  27.969  26.550  1.00  0.00     0.134 A 
ATOM     64  C   UNL A   1      41.250  26.018  27.332  1.00  0.00     0.134 A 
ATOM     65  F   UNL A   1      42.823  29.232  26.704  1.00  0.00    -0.206 F 
ATOM     66  C   UNL A   1      42.711  27.313  25.358  1.00  0.00     0.040 A 
ATOM     67  C   UNL A   1      41.577  25.343  26.154  1.00  0.00     0.040 A 
ATOM     68  F   UNL A   1      40.559  25.350  28.269  1.00  0.00    -0.206 F 
ATOM     69  C   UNL A   1      42.308  25.994  25.161  1.00  0.00     0.006 A 
ENDBRANCH  48  62
BRANCH  49  70
ATOM     70  C   UNL A   1      39.031  32.329  35.791  1.00  0.00     0.057 A 
ATOM     71  C   UNL A   1      39.430  33.652  36.019  1.00  0.00     0.134 A 
ATOM     72  C   UNL A   1      38.217  31.724  36.757  1.00  0.00     0.134 A 
ATOM     73  F   UNL A   1      40.208  34.287  35.130  1.00  0.00    -0.206 F 
ATOM     74  C   UNL A   1      39.038  34.346  37.163  1.00  0.00     0.040 A 
ATOM     75  C   UNL A   1      37.798  32.414  37.895  1.00  0.00     0.040 A 
ATOM     76  F   UNL A   1      37.782  30.469  36.580  1.00  0.00    -0.206 F 
ATOM     77  C   UNL A   1      38.211  33.729  38.101  1.00  0.00     0.006 A 
ENDBRANCH  49  70
BRANCH  61  78
ATOM     78  C   UNL A   1      44.097  27.795  34.345  1.00  0.00     0.057 A 
ATOM     79  C   UNL A   1      43.917  26.579  35.018  1.00  0.00     0.134 A 
ATOM     80  C   UNL A   1      45.328  28.445  34.500  1.00  0.00     0.134 A 
ATOM     81  F   UNL A   1      42.758  25.911  34.919  1.00  0.00    -0.206 F 
ATOM     82  C   UNL A   1      44.922  26.031  35.814  1.00  0.00     0.040 A 
ATOM     83  C   UNL A   1      46.352  27.891  35.272  1.00  0.00     0.040 A 
ATOM     84  F   UNL A   1      45.569  29.603  33.868  1.00  0.00    -0.206 F 
ATOM     85  C   UNL A   1      46.148  26.683  35.936  1.00  0.00     0.006 A 
ENDBRANCH  61  78
ENDBRANCH  35  36
ENDBRANCH  28  30
ENDBRANCH  27  28
ENDBRANCH  26  27
ENDBRANCH   1  26
TORSDOF 16
ENDMDL
MODEL 2
REMARK VINA RESULT:     -11.6      5.346      9.722
REMARK SMILES Nc1c(Cl)ccc2c1C=C(C(=O)OCCOCCOC(=O)c1ccc(-c3c4nc(c(-c5c(F)cccc5F)c5ccc([nH]5)c(-c5c(F)cccc5F)c5nc(c(-c6c(F)cccc6F)c6ccc3[nH]6)C=C5)C=C4)cc1)[C@@H](C(F)(F)F)O2
REMARK SMILES IDX 17 1 16 2 15 3 14 4 13 5 11 6 12 7 10 8 2 9 3 10 8 11 4 12
REMARK SMILES IDX 5 13 7 14 9 15 6 16 81 17 76 18 1 19 77 22 78 23 79 24 80 25
REMARK SMILES IDX 18 26 19 27 20 28 21 29 22 30 23 31 75 32 24 33 74 34 25 35
REMARK SMILES IDX 26 36 27 37 68 38 28 39 73 40 67 41 69 42 29 43 72 44 66 45
REMARK SMILES IDX 65 46 30 48 56 49 39 50 55 51 40 52 43 53 54 54 70 55 41 56
REMARK SMILES IDX 42 57 53 59 71 60 44 61 31 62 32 63 37 64 33 65 34 66 36 67
REMARK SMILES IDX 38 68 35 69 57 70 58 71 63 72 59 73 60 74 62 75 64 76 61 77
REMARK SMILES IDX 45 78 46 79 51 80 47 81 48 82 50 83 52 84 49 85
REMARK H PARENT 1 20 1 21 69 47 43 58
REMARK Flexibility Score: inf
ROOT
ATOM      1  C   UNL A   1      35.879  20.730  25.333  1.00  0.00     0.202 C 
ENDROOT
BRANCH   1   2
ATOM      2  O   UNL A   1      35.716  22.149  25.271  1.00  0.00    -0.374 OA
BRANCH   2   3
ATOM      3  C   UNL A   1      35.437  22.837  26.488  1.00  0.00     0.202 C 
BRANCH   3   4
ATOM      4  C   UNL A   1      34.023  23.405  26.639  1.00  0.00     0.261 C 
BRANCH   4   5
ATOM      5  O   UNL A   1      33.461  23.772  25.368  1.00  0.00    -0.460 OA
BRANCH   5   6
ATOM      6  C   UNL A   1      32.182  23.368  25.184  1.00  0.00     0.338 C 
ATOM      7  O   UNL A   1      31.169  23.975  25.498  1.00  0.00    -0.246 OA
BRANCH   6   8
ATOM      8  C   UNL A   1      32.161  22.108  24.418  1.00  0.00     0.088 C 
ATOM      9  C   UNL A   1      32.686  18.503  25.130  1.00  0.00     0.061 A 
ATOM     10  C   UNL A   1      32.946  17.348  24.362  1.00  0.00     0.064 A 
ATOM     11  C   UNL A   1      32.430  19.714  24.443  1.00  0.00     0.042 A 
ATOM     12  Cl  UNL A   1      33.365  15.853  25.132  1.00  0.00    -0.082 Cl
ATOM     13  C   UNL A   1      32.860  17.365  22.970  1.00  0.00     0.026 A 
ATOM     14  C   UNL A   1      32.311  19.715  23.045  1.00  0.00     0.130 A 
ATOM     15  C   UNL A   1      32.339  20.993  25.138  1.00  0.00     0.029 C 
ATOM     16  C   UNL A   1      32.517  18.545  22.314  1.00  0.00     0.049 A 
ATOM     17  O   UNL A   1      31.988  20.816  22.300  1.00  0.00    -0.475 OA
ATOM     18  C   UNL A   1      31.979  22.126  22.930  1.00  0.00     0.316 C 
BRANCH   9  19
ATOM     19  N   UNL A   1      32.811  18.459  26.525  1.00  0.00    -0.397 N 
ATOM     20  H   UNL A   1      33.697  18.329  26.935  1.00  0.00     0.156 HD
ATOM     21  H   UNL A   1      32.013  18.556  27.094  1.00  0.00     0.156 HD
ENDBRANCH   9  19
BRANCH  18  22
ATOM     22  C   UNL A   1      33.016  23.009  22.219  1.00  0.00     0.430 C 
ATOM     23  F   UNL A   1      33.065  22.735  20.892  1.00  0.00    -0.167 F 
ATOM     24  F   UNL A   1      32.713  24.324  22.328  1.00  0.00    -0.167 F 
ATOM     25  F   UNL A   1      34.260  22.835  22.717  1.00  0.00    -0.167 F 
ENDBRANCH  18  22
ENDBRANCH   6   8
ENDBRANCH   5   6
ENDBRANCH   4   5
ENDBRANCH   3   4
ENDBRANCH   2   3
ENDBRANCH   1   2
BRANCH   1  26
ATOM     26  C   UNL A   1      37.268  20.178  24.995  1.00  0.00     0.261 C 
BRANCH  26  27
ATOM     27  O   UNL A   1      38.286  21.192  25.104  1.00  0.00    -0.460 OA
BRANCH  27  28
ATOM     28  C   UNL A   1      39.265  20.927  26.001  1.00  0.00     0.338 C 
ATOM     29  O   UNL A   1      39.823  19.859  26.203  1.00  0.00    -0.246 OA
BRANCH  28  30
ATOM     30  C   UNL A   1      39.718  22.179  26.624  1.00  0.00     0.060 A 
ATOM     31  C   UNL A   1      39.184  23.383  26.148  1.00  0.00     0.016 A 
ATOM     32  C   UNL A   1      40.738  22.177  27.577  1.00  0.00     0.016 A 
ATOM     33  C   UNL A   1      39.696  24.598  26.598  1.00  0.00     0.010 A 
ATOM     34  C   UNL A   1      41.264  23.396  28.013  1.00  0.00     0.010 A 
ATOM     35  C   UNL A   1      40.768  24.608  27.499  1.00  0.00    -0.014 A 
BRANCH  35  36
ATOM     36  C   UNL A   1      41.481  25.878  27.766  1.00  0.00     0.031 A 
ATOM     37  C   UNL A   1      40.767  26.961  28.527  1.00  0.00     0.074 A 
ATOM     38  C   UNL A   1      42.748  26.055  27.360  1.00  0.00     0.049 A 
ATOM     39  N   UNL A   1      41.186  28.155  28.862  1.00  0.00    -0.248 NA
ATOM     40  C   UNL A   1      39.398  26.655  28.970  1.00  0.00     0.031 C 
ATOM     41  C   UNL A   1      43.556  25.065  26.652  1.00  0.00     0.029 A 
ATOM     42  N   UNL A   1      43.575  27.142  27.482  1.00  0.00    -0.354 N 
ATOM     43  C   UNL A   1      40.137  28.737  29.564  1.00  0.00     0.074 A 
ATOM     44  C   UNL A   1      39.051  27.781  29.575  1.00  0.00     0.031 C 
ATOM     45  C   UNL A   1      44.763  25.597  26.387  1.00  0.00     0.029 A 
ATOM     46  C   UNL A   1      44.800  26.970  26.887  1.00  0.00     0.049 A 
ATOM     47  H   UNL A   1      43.316  27.967  27.954  1.00  0.00     0.167 HD
ATOM     48  C   UNL A   1      40.087  29.955  30.153  1.00  0.00     0.037 A 
ATOM     49  C   UNL A   1      45.822  27.834  26.745  1.00  0.00     0.037 A 
ATOM     50  C   UNL A   1      41.158  30.916  30.119  1.00  0.00     0.049 A 
ATOM     51  C   UNL A   1      45.703  29.221  27.321  1.00  0.00     0.074 A 
ATOM     52  C   UNL A   1      41.211  32.174  30.692  1.00  0.00     0.029 A 
ATOM     53  N   UNL A   1      42.364  30.725  29.461  1.00  0.00    -0.354 N 
ATOM     54  N   UNL A   1      44.721  29.751  28.011  1.00  0.00    -0.248 NA
ATOM     55  C   UNL A   1      46.837  30.129  27.096  1.00  0.00     0.031 C 
ATOM     56  C   UNL A   1      42.430  32.764  30.339  1.00  0.00     0.029 A 
ATOM     57  C   UNL A   1      43.156  31.854  29.587  1.00  0.00     0.049 A 
ATOM     58  H   UNL A   1      42.620  29.908  28.976  1.00  0.00     0.167 HD
ATOM     59  C   UNL A   1      45.129  31.042  28.323  1.00  0.00     0.074 A 
ATOM     60  C   UNL A   1      46.453  31.209  27.760  1.00  0.00     0.031 C 
ATOM     61  C   UNL A   1      44.471  32.004  29.016  1.00  0.00     0.037 A 
BRANCH  48  62
ATOM     62  C   UNL A   1      38.816  30.320  30.859  1.00  0.00     0.057 A 
ATOM     63  C   UNL A   1      37.787  30.988  30.182  1.00  0.00     0.134 A 
ATOM     64  C   UNL A   1      38.609  30.014  32.210  1.00  0.00     0.134 A 
ATOM     65  F   UNL A   1      37.921  31.311  28.887  1.00  0.00    -0.206 F 
ATOM     66  C   UNL A   1      36.598  31.337  30.825  1.00  0.00     0.040 A 
ATOM     67  C   UNL A   1      37.415  30.338  32.858  1.00  0.00     0.040 A 
ATOM     68  F   UNL A   1      39.548  29.360  32.910  1.00  0.00    -0.206 F 
ATOM     69  C   UNL A   1      36.407  31.004  32.164  1.00  0.00     0.006 A 
ENDBRANCH  48  62
BRANCH  49  70
ATOM     70  C   UNL A   1      47.047  27.430  26.013  1.00  0.00     0.057 A 
ATOM     71  C   UNL A   1      48.148  26.881  26.683  1.00  0.00     0.134 A 
ATOM     72  C   UNL A   1      47.129  27.542  24.620  1.00  0.00     0.134 A 
ATOM     73  F   UNL A   1      48.129  26.745  28.017  1.00  0.00    -0.206 F 
ATOM     74  C   UNL A   1      49.287  26.463  25.996  1.00  0.00     0.040 A 
ATOM     75  C   UNL A   1      48.253  27.106  23.917  1.00  0.00     0.040 A 
ATOM     76  F   UNL A   1      46.096  28.034  23.922  1.00  0.00    -0.206 F 
ATOM     77  C   UNL A   1      49.338  26.568  24.607  1.00  0.00     0.006 A 
ENDBRANCH  49  70
BRANCH  61  78
ATOM     78  C   UNL A   1      45.185  33.307  29.223  1.00  0.00     0.057 A 
ATOM     79  C   UNL A   1      45.026  34.361  28.314  1.00  0.00     0.134 A 
ATOM     80  C   UNL A   1      46.042  33.515  30.312  1.00  0.00     0.134 A 
ATOM     81  F   UNL A   1      44.226  34.224  27.245  1.00  0.00    -0.206 F 
ATOM     82  C   UNL A   1      45.692  35.575  28.481  1.00  0.00     0.040 A 
ATOM     83  C   UNL A   1      46.693  34.735  30.504  1.00  0.00     0.040 A 
ATOM     84  F   UNL A   1      46.224  32.551  31.227  1.00  0.00    -0.206 F 
ATOM     85  C   UNL A   1      46.522  35.767  29.584  1.00  0.00     0.006 A 
ENDBRANCH  61  78
ENDBRANCH  35  36
ENDBRANCH  28  30
ENDBRANCH  27  28
ENDBRANCH  26  27
ENDBRANCH   1  26
TORSDOF 16
ENDMDL
MODEL 3
REMARK VINA RESULT:     -11.5      5.315      8.007
REMARK SMILES Nc1c(Cl)ccc2c1C=C(C(=O)OCCOCCOC(=O)c1ccc(-c3c4nc(c(-c5c(F)cccc5F)c5ccc([nH]5)c(-c5c(F)cccc5F)c5nc(c(-c6c(F)cccc6F)c6ccc3[nH]6)C=C5)C=C4)cc1)[C@@H](C(F)(F)F)O2
REMARK SMILES IDX 17 1 16 2 15 3 14 4 13 5 11 6 12 7 10 8 2 9 3 10 8 11 4 12
REMARK SMILES IDX 5 13 7 14 9 15 6 16 81 17 76 18 1 19 77 22 78 23 79 24 80 25
REMARK SMILES IDX 18 26 19 27 20 28 21 29 22 30 23 31 75 32 24 33 74 34 25 35
REMARK SMILES IDX 26 36 27 37 68 38 28 39 73 40 67 41 69 42 29 43 72 44 66 45
REMARK SMILES IDX 65 46 30 48 56 49 39 50 55 51 40 52 43 53 54 54 70 55 41 56
REMARK SMILES IDX 42 57 53 59 71 60 44 61 31 62 32 63 37 64 33 65 34 66 36 67
REMARK SMILES IDX 38 68 35 69 57 70 58 71 63 72 59 73 60 74 62 75 64 76 61 77
REMARK SMILES IDX 45 78 46 79 51 80 47 81 48 82 50 83 52 84 49 85
REMARK H PARENT 1 20 1 21 69 47 43 58
REMARK Flexibility Score: inf
ROOT
ATOM      1  C   UNL A   1      35.884  20.880  25.282  1.00  0.00     0.202 C 
ENDROOT
BRANCH   1   2
ATOM      2  O   UNL A   1      35.735  22.303  25.264  1.00  0.00    -0.374 OA
BRANCH   2   3
ATOM      3  C   UNL A   1      35.408  22.949  26.492  1.00  0.00     0.202 C 
BRANCH   3   4
ATOM      4  C   UNL A   1      33.976  23.472  26.625  1.00  0.00     0.261 C 
BRANCH   4   5
ATOM      5  O   UNL A   1      33.390  23.747  25.343  1.00  0.00    -0.460 OA
BRANCH   5   6
ATOM      6  C   UNL A   1      32.121  23.300  25.199  1.00  0.00     0.338 C 
ATOM      7  O   UNL A   1      31.099  23.870  25.550  1.00  0.00    -0.246 OA
BRANCH   6   8
ATOM      8  C   UNL A   1      32.118  22.046  24.424  1.00  0.00     0.088 C 
ATOM      9  C   UNL A   1      32.743  18.450  25.101  1.00  0.00     0.061 A 
ATOM     10  C   UNL A   1      33.018  17.307  24.321  1.00  0.00     0.064 A 
ATOM     11  C   UNL A   1      32.445  19.658  24.427  1.00  0.00     0.042 A 
ATOM     12  Cl  UNL A   1      33.487  15.817  25.073  1.00  0.00    -0.082 Cl
ATOM     13  C   UNL A   1      32.908  17.331  22.931  1.00  0.00     0.026 A 
ATOM     14  C   UNL A   1      32.303  19.666  23.032  1.00  0.00     0.130 A 
ATOM     15  C   UNL A   1      32.336  20.931  25.133  1.00  0.00     0.029 C 
ATOM     16  C   UNL A   1      32.525  18.506  22.289  1.00  0.00     0.049 A 
ATOM     17  O   UNL A   1      31.940  20.763  22.300  1.00  0.00    -0.475 OA
ATOM     18  C   UNL A   1      31.909  22.068  22.939  1.00  0.00     0.316 C 
BRANCH   9  19
ATOM     19  N   UNL A   1      32.893  18.400  26.494  1.00  0.00    -0.397 N 
ATOM     20  H   UNL A   1      33.600  17.842  26.892  1.00  0.00     0.156 HD
ATOM     21  H   UNL A   1      32.291  18.921  27.073  1.00  0.00     0.156 HD
ENDBRANCH   9  19
BRANCH  18  22
ATOM     22  C   UNL A   1      32.912  22.982  22.217  1.00  0.00     0.430 C 
ATOM     23  F   UNL A   1      32.606  24.289  22.406  1.00  0.00    -0.167 F 
ATOM     24  F   UNL A   1      34.172  22.811  22.684  1.00  0.00    -0.167 F 
ATOM     25  F   UNL A   1      32.938  22.758  20.885  1.00  0.00    -0.167 F 
ENDBRANCH  18  22
ENDBRANCH   6   8
ENDBRANCH   5   6
ENDBRANCH   4   5
ENDBRANCH   3   4
ENDBRANCH   2   3
ENDBRANCH   1   2
BRANCH   1  26
ATOM     26  C   UNL A   1      37.284  20.328  24.992  1.00  0.00     0.261 C 
BRANCH  26  27
ATOM     27  O   UNL A   1      38.293  21.353  25.093  1.00  0.00    -0.460 OA
BRANCH  27  28
ATOM     28  C   UNL A   1      39.260  21.117  26.011  1.00  0.00     0.338 C 
ATOM     29  O   UNL A   1      39.851  20.068  26.220  1.00  0.00    -0.246 OA
BRANCH  28  30
ATOM     30  C   UNL A   1      39.652  22.381  26.652  1.00  0.00     0.060 A 
ATOM     31  C   UNL A   1      39.020  23.558  26.231  1.00  0.00     0.016 A 
ATOM     32  C   UNL A   1      40.707  22.423  27.565  1.00  0.00     0.016 A 
ATOM     33  C   UNL A   1      39.467  24.792  26.696  1.00  0.00     0.010 A 
ATOM     34  C   UNL A   1      41.167  23.663  28.015  1.00  0.00     0.010 A 
ATOM     35  C   UNL A   1      40.571  24.852  27.555  1.00  0.00    -0.014 A 
BRANCH  35  36
ATOM     36  C   UNL A   1      41.207  26.160  27.831  1.00  0.00     0.031 A 
ATOM     37  C   UNL A   1      42.615  26.393  27.359  1.00  0.00     0.074 A 
ATOM     38  C   UNL A   1      40.535  27.132  28.469  1.00  0.00     0.049 A 
ATOM     39  N   UNL A   1      43.375  27.450  27.500  1.00  0.00    -0.248 NA
ATOM     40  C   UNL A   1      43.251  25.286  26.628  1.00  0.00     0.031 C 
ATOM     41  C   UNL A   1      39.154  27.038  28.938  1.00  0.00     0.029 A 
ATOM     42  N   UNL A   1      40.934  28.390  28.839  1.00  0.00    -0.354 N 
ATOM     43  C   UNL A   1      44.571  27.139  26.866  1.00  0.00     0.074 A 
ATOM     44  C   UNL A   1      44.452  25.784  26.373  1.00  0.00     0.031 C 
ATOM     45  C   UNL A   1      38.823  28.189  29.549  1.00  0.00     0.029 A 
ATOM     46  C   UNL A   1      39.977  29.087  29.534  1.00  0.00     0.049 A 
ATOM     47  H   UNL A   1      41.821  28.760  28.625  1.00  0.00     0.167 HD
ATOM     48  C   UNL A   1      45.669  27.916  26.704  1.00  0.00     0.037 A 
ATOM     49  C   UNL A   1      40.039  30.302  30.109  1.00  0.00     0.037 A 
ATOM     50  C   UNL A   1      45.798  29.253  27.217  1.00  0.00     0.049 A 
ATOM     51  C   UNL A   1      41.307  31.107  30.003  1.00  0.00     0.074 A 
ATOM     52  C   UNL A   1      46.864  30.127  27.100  1.00  0.00     0.029 A 
ATOM     53  N   UNL A   1      44.826  29.906  27.962  1.00  0.00    -0.354 N 
ATOM     54  N   UNL A   1      42.423  30.818  29.375  1.00  0.00    -0.248 NA
ATOM     55  C   UNL A   1      41.324  32.408  30.687  1.00  0.00     0.031 C 
ATOM     56  C   UNL A   1      46.556  31.291  27.814  1.00  0.00     0.029 A 
ATOM     57  C   UNL A   1      45.280  31.160  28.336  1.00  0.00     0.049 A 
ATOM     58  H   UNL A   1      43.944  29.533  28.190  1.00  0.00     0.167 HD
ATOM     59  C   UNL A   1      43.260  31.910  29.566  1.00  0.00     0.074 A 
ATOM     60  C   UNL A   1      42.520  32.871  30.357  1.00  0.00     0.031 C 
ATOM     61  C   UNL A   1      44.529  32.102  29.127  1.00  0.00     0.037 A 
BRANCH  48  62
ATOM     62  C   UNL A   1      46.825  27.316  25.961  1.00  0.00     0.057 A 
ATOM     63  C   UNL A   1      47.817  26.597  26.640  1.00  0.00     0.134 A 
ATOM     64  C   UNL A   1      46.961  27.454  24.573  1.00  0.00     0.134 A 
ATOM     65  F   UNL A   1      47.748  26.429  27.969  1.00  0.00    -0.206 F 
ATOM     66  C   UNL A   1      48.901  26.034  25.964  1.00  0.00     0.040 A 
ATOM     67  C   UNL A   1      48.028  26.876  23.883  1.00  0.00     0.040 A 
ATOM     68  F   UNL A   1      46.035  28.116  23.862  1.00  0.00    -0.206 F 
ATOM     69  C   UNL A   1      49.004  26.166  24.580  1.00  0.00     0.006 A 
ENDBRANCH  48  62
BRANCH  49  70
ATOM     70  C   UNL A   1      38.873  30.836  30.856  1.00  0.00     0.057 A 
ATOM     71  C   UNL A   1      37.897  31.615  30.222  1.00  0.00     0.134 A 
ATOM     72  C   UNL A   1      38.686  30.543  32.212  1.00  0.00     0.134 A 
ATOM     73  F   UNL A   1      38.018  31.928  28.924  1.00  0.00    -0.206 F 
ATOM     74  C   UNL A   1      36.780  32.087  30.911  1.00  0.00     0.040 A 
ATOM     75  C   UNL A   1      37.561  30.989  32.907  1.00  0.00     0.040 A 
ATOM     76  F   UNL A   1      39.573  29.779  32.865  1.00  0.00    -0.206 F 
ATOM     77  C   UNL A   1      36.605  31.767  32.256  1.00  0.00     0.006 A 
ENDBRANCH  49  70
BRANCH  61  78
ATOM     78  C   UNL A   1      45.179  33.410  29.470  1.00  0.00     0.057 A 
ATOM     79  C   UNL A   1      45.929  33.548  30.646  1.00  0.00     0.134 A 
ATOM     80  C   UNL A   1      45.053  34.536  28.646  1.00  0.00     0.134 A 
ATOM     81  F   UNL A   1      46.081  32.511  31.482  1.00  0.00    -0.206 F 
ATOM     82  C   UNL A   1      46.529  34.759  30.990  1.00  0.00     0.040 A 
ATOM     83  C   UNL A   1      45.672  35.746  28.967  1.00  0.00     0.040 A 
ATOM     84  F   UNL A   1      44.363  34.465  27.499  1.00  0.00    -0.206 F 
ATOM     85  C   UNL A   1      46.409  35.861  30.144  1.00  0.00     0.006 A 
ENDBRANCH  61  78
ENDBRANCH  35  36
ENDBRANCH  28  30
ENDBRANCH  27  28
ENDBRANCH  26  27
ENDBRANCH   1  26
TORSDOF 16
ENDMDL
