MODEL 1
REMARK VINA RESULT:     -10.6      0.000      0.000
REMARK SMILES C[C@H](Nc1cccc(F)c1C(=O)OCCOCCOC(=O)c1ccc(-c2c3nc(c(-c4c(F)cccc4F)c4ccc([nH]4)c(-c4c(F)cccc4F)c4nc(c(-c5c(F)cccc5F)c5ccc2[nH]5)C=C4)C=C3)cc1)c1nccs1
REMARK SMILES IDX 15 1 14 2 13 3 11 4 12 5 10 6 4 7 5 8 6 9 8 10 7 11 9 12
REMARK SMILES IDX 3 13 2 15 1 16 76 17 77 18 80 19 78 20 79 21 16 22 17 23
REMARK SMILES IDX 18 24 19 25 20 26 21 27 22 28 23 29 75 30 24 31 74 32 25 33
REMARK SMILES IDX 26 34 27 35 68 36 28 37 73 38 67 39 69 40 29 41 72 42 66 43
REMARK SMILES IDX 65 44 30 46 56 47 39 48 55 49 40 50 43 51 54 52 70 53 41 54
REMARK SMILES IDX 42 55 53 57 71 58 44 59 31 60 32 61 37 62 33 63 34 64 36 65
REMARK SMILES IDX 38 66 35 67 57 68 58 69 63 70 59 71 60 72 62 73 64 74 61 75
REMARK SMILES IDX 45 76 46 77 51 78 47 79 48 80 50 81 52 82 49 83
REMARK H PARENT 3 14 69 45 43 56
REMARK Flexibility Score: inf
ROOT
ATOM      1  C   UNL A   1      32.999  30.461  26.861  1.00  0.00     0.202 C 
ENDROOT
BRANCH   1   2
ATOM      2  C   UNL A   1      33.003  28.952  27.123  1.00  0.00     0.261 C 
BRANCH   2   3
ATOM      3  O   UNL A   1      33.222  28.215  25.910  1.00  0.00    -0.460 OA
BRANCH   3   4
ATOM      4  C   UNL A   1      32.178  27.452  25.512  1.00  0.00     0.343 C 
ATOM      5  O   UNL A   1      31.072  27.400  26.038  1.00  0.00    -0.246 OA
BRANCH   4   6
ATOM      6  C   UNL A   1      32.483  26.811  24.226  1.00  0.00     0.118 A 
ATOM      7  C   UNL A   1      31.782  27.185  23.055  1.00  0.00     0.052 A 
ATOM      8  C   UNL A   1      32.049  26.461  21.886  1.00  0.00     0.027 A 
ATOM      9  C   UNL A   1      32.994  25.427  21.870  1.00  0.00     0.005 A 
ATOM     10  C   UNL A   1      33.435  25.793  24.203  1.00  0.00     0.139 A 
ATOM     11  C   UNL A   1      33.696  25.100  23.028  1.00  0.00     0.040 A 
ATOM     12  F   UNL A   1      34.100  25.448  25.316  1.00  0.00    -0.206 F 
BRANCH   7  13
ATOM     13  N   UNL A   1      30.865  28.220  23.067  1.00  0.00    -0.375 N 
ATOM     14  H   UNL A   1      31.191  29.073  23.434  1.00  0.00     0.161 HD
BRANCH  13  15
ATOM     15  C   UNL A   1      29.463  28.220  22.602  1.00  0.00     0.135 C 
ATOM     16  C   UNL A   1      28.495  27.456  23.509  1.00  0.00     0.039 C 
BRANCH  15  17
ATOM     17  C   UNL A   1      28.981  29.651  22.344  1.00  0.00     0.115 A 
ATOM     18  N   UNL A   1      28.535  30.075  21.175  1.00  0.00    -0.247 NA
ATOM     19  S   UNL A   1      29.151  30.882  23.545  1.00  0.00    -0.125 S 
ATOM     20  C   UNL A   1      28.366  31.446  21.205  1.00  0.00     0.123 A 
ATOM     21  C   UNL A   1      28.669  32.058  22.401  1.00  0.00     0.087 A 
ENDBRANCH  15  17
ENDBRANCH  13  15
ENDBRANCH   7  13
ENDBRANCH   4   6
ENDBRANCH   3   4
ENDBRANCH   2   3
ENDBRANCH   1   2
BRANCH   1  22
ATOM     22  O   UNL A   1      31.859  30.999  26.193  1.00  0.00    -0.374 OA
BRANCH  22  23
ATOM     23  C   UNL A   1      31.284  32.198  26.713  1.00  0.00     0.202 C 
BRANCH  23  24
ATOM     24  C   UNL A   1      32.209  33.403  26.924  1.00  0.00     0.261 C 
BRANCH  24  25
ATOM     25  O   UNL A   1      32.240  33.852  28.290  1.00  0.00    -0.460 OA
BRANCH  25  26
ATOM     26  C   UNL A   1      33.303  34.627  28.605  1.00  0.00     0.338 C 
ATOM     27  O   UNL A   1      33.310  35.834  28.810  1.00  0.00    -0.246 OA
BRANCH  26  28
ATOM     28  C   UNL A   1      34.485  33.786  28.861  1.00  0.00     0.060 A 
ATOM     29  C   UNL A   1      34.272  32.539  29.464  1.00  0.00     0.016 A 
ATOM     30  C   UNL A   1      35.780  34.236  28.593  1.00  0.00     0.016 A 
ATOM     31  C   UNL A   1      35.357  31.758  29.849  1.00  0.00     0.010 A 
ATOM     32  C   UNL A   1      36.868  33.453  28.991  1.00  0.00     0.010 A 
ATOM     33  C   UNL A   1      36.661  32.230  29.653  1.00  0.00    -0.014 A 
BRANCH  33  34
ATOM     34  C   UNL A   1      37.792  31.507  30.283  1.00  0.00     0.031 A 
ATOM     35  C   UNL A   1      38.108  31.767  31.730  1.00  0.00     0.074 A 
ATOM     36  C   UNL A   1      38.489  30.590  29.591  1.00  0.00     0.049 A 
ATOM     37  N   UNL A   1      39.042  31.243  32.481  1.00  0.00    -0.248 NA
ATOM     38  C   UNL A   1      37.254  32.745  32.424  1.00  0.00     0.031 C 
ATOM     39  C   UNL A   1      38.244  30.219  28.199  1.00  0.00     0.029 A 
ATOM     40  N   UNL A   1      39.542  29.798  29.973  1.00  0.00    -0.354 N 
ATOM     41  C   UNL A   1      38.888  31.825  33.733  1.00  0.00     0.074 A 
ATOM     42  C   UNL A   1      37.796  32.768  33.633  1.00  0.00     0.031 C 
ATOM     43  C   UNL A   1      39.123  29.267  27.843  1.00  0.00     0.029 A 
ATOM     44  C   UNL A   1      40.008  28.983  28.971  1.00  0.00     0.049 A 
ATOM     45  H   UNL A   1      39.928  29.813  30.878  1.00  0.00     0.167 HD
ATOM     46  C   UNL A   1      39.587  31.585  34.867  1.00  0.00     0.037 A 
ATOM     47  C   UNL A   1      41.037  28.114  28.964  1.00  0.00     0.037 A 
ATOM     48  C   UNL A   1      40.672  30.645  34.963  1.00  0.00     0.049 A 
ATOM     49  C   UNL A   1      41.845  27.914  30.218  1.00  0.00     0.074 A 
ATOM     50  C   UNL A   1      41.441  30.329  36.070  1.00  0.00     0.029 A 
ATOM     51  N   UNL A   1      41.144  29.871  33.913  1.00  0.00    -0.354 N 
ATOM     52  N   UNL A   1      41.690  28.466  31.397  1.00  0.00    -0.248 NA
ATOM     53  C   UNL A   1      42.968  26.967  30.143  1.00  0.00     0.031 C 
ATOM     54  C   UNL A   1      42.409  29.400  35.678  1.00  0.00     0.029 A 
ATOM     55  C   UNL A   1      42.206  29.094  34.342  1.00  0.00     0.049 A 
ATOM     56  H   UNL A   1      40.777  29.874  32.999  1.00  0.00     0.167 HD
ATOM     57  C   UNL A   1      42.673  27.915  32.210  1.00  0.00     0.074 A 
ATOM     58  C   UNL A   1      43.417  26.980  31.391  1.00  0.00     0.031 C 
ATOM     59  C   UNL A   1      42.932  28.160  33.519  1.00  0.00     0.037 A 
BRANCH  46  60
ATOM     60  C   UNL A   1      39.210  32.359  36.095  1.00  0.00     0.057 A 
ATOM     61  C   UNL A   1      38.293  31.835  37.015  1.00  0.00     0.134 A 
ATOM     62  C   UNL A   1      39.709  33.645  36.340  1.00  0.00     0.134 A 
ATOM     63  F   UNL A   1      37.774  30.611  36.839  1.00  0.00    -0.206 F 
ATOM     64  C   UNL A   1      37.877  32.567  38.129  1.00  0.00     0.040 A 
ATOM     65  C   UNL A   1      39.320  34.376  37.463  1.00  0.00     0.040 A 
ATOM     66  F   UNL A   1      40.601  34.198  35.504  1.00  0.00    -0.206 F 
ATOM     67  C   UNL A   1      38.393  33.841  38.357  1.00  0.00     0.006 A 
ENDBRANCH  46  60
BRANCH  47  68
ATOM     68  C   UNL A   1      41.348  27.356  27.727  1.00  0.00     0.057 A 
ATOM     69  C   UNL A   1      42.157  27.902  26.722  1.00  0.00     0.134 A 
ATOM     70  C   UNL A   1      40.824  26.078  27.508  1.00  0.00     0.134 A 
ATOM     71  F   UNL A   1      42.690  29.125  26.870  1.00  0.00    -0.206 F 
ATOM     72  C   UNL A   1      42.418  27.212  25.537  1.00  0.00     0.040 A 
ATOM     73  C   UNL A   1      41.095  25.367  26.338  1.00  0.00     0.040 A 
ATOM     74  F   UNL A   1      40.059  25.493  28.443  1.00  0.00    -0.206 F 
ATOM     75  C   UNL A   1      41.887  25.938  25.344  1.00  0.00     0.006 A 
ENDBRANCH  47  68
BRANCH  59  76
ATOM     76  C   UNL A   1      44.043  27.385  34.167  1.00  0.00     0.057 A 
ATOM     77  C   UNL A   1      43.786  26.152  34.779  1.00  0.00     0.134 A 
ATOM     78  C   UNL A   1      45.344  27.894  34.259  1.00  0.00     0.134 A 
ATOM     79  F   UNL A   1      42.556  25.614  34.739  1.00  0.00    -0.206 F 
ATOM     80  C   UNL A   1      44.779  25.458  35.471  1.00  0.00     0.040 A 
ATOM     81  C   UNL A   1      46.353  27.196  34.926  1.00  0.00     0.040 A 
ATOM     82  F   UNL A   1      45.659  29.066  33.688  1.00  0.00    -0.206 F 
ATOM     83  C   UNL A   1      46.068  25.979  35.544  1.00  0.00     0.006 A 
ENDBRANCH  59  76
ENDBRANCH  33  34
ENDBRANCH  26  28
ENDBRANCH  25  26
ENDBRANCH  24  25
ENDBRANCH  23  24
ENDBRANCH  22  23
ENDBRANCH   1  22
TORSDOF 17
ENDMDL
MODEL 2
REMARK VINA RESULT:     -10.3      1.370      2.117
REMARK SMILES C[C@H](Nc1cccc(F)c1C(=O)OCCOCCOC(=O)c1ccc(-c2c3nc(c(-c4c(F)cccc4F)c4ccc([nH]4)c(-c4c(F)cccc4F)c4nc(c(-c5c(F)cccc5F)c5ccc2[nH]5)C=C4)C=C3)cc1)c1nccs1
REMARK SMILES IDX 15 1 14 2 13 3 11 4 12 5 10 6 4 7 5 8 6 9 8 10 7 11 9 12
REMARK SMILES IDX 3 13 2 15 1 16 76 17 77 18 80 19 78 20 79 21 16 22 17 23
REMARK SMILES IDX 18 24 19 25 20 26 21 27 22 28 23 29 75 30 24 31 74 32 25 33
REMARK SMILES IDX 26 34 27 35 68 36 28 37 73 38 67 39 69 40 29 41 72 42 66 43
REMARK SMILES IDX 65 44 30 46 56 47 39 48 55 49 40 50 43 51 54 52 70 53 41 54
REMARK SMILES IDX 42 55 53 57 71 58 44 59 31 60 32 61 37 62 33 63 34 64 36 65
REMARK SMILES IDX 38 66 35 67 57 68 58 69 63 70 59 71 60 72 62 73 64 74 61 75
REMARK SMILES IDX 45 76 46 77 51 78 47 79 48 80 50 81 52 82 49 83
REMARK H PARENT 3 14 69 45 43 56
REMARK Flexibility Score: inf
ROOT
ATOM      1  C   UNL A   1      33.228  30.279  27.111  1.00  0.00     0.202 C 
ENDROOT
BRANCH   1   2
ATOM      2  C   UNL A   1      33.432  28.763  27.200  1.00  0.00     0.261 C 
BRANCH   2   3
ATOM      3  O   UNL A   1      32.763  28.086  26.125  1.00  0.00    -0.460 OA
BRANCH   3   4
ATOM      4  C   UNL A   1      31.719  27.312  26.503  1.00  0.00     0.343 C 
ATOM      5  O   UNL A   1      31.035  27.453  27.511  1.00  0.00    -0.246 OA
BRANCH   4   6
ATOM      6  C   UNL A   1      31.380  26.364  25.433  1.00  0.00     0.118 A 
ATOM      7  C   UNL A   1      30.489  26.739  24.400  1.00  0.00     0.052 A 
ATOM      8  C   UNL A   1      30.129  25.753  23.472  1.00  0.00     0.027 A 
ATOM      9  C   UNL A   1      30.652  24.456  23.547  1.00  0.00     0.005 A 
ATOM     10  C   UNL A   1      31.912  25.078  25.496  1.00  0.00     0.139 A 
ATOM     11  C   UNL A   1      31.554  24.121  24.555  1.00  0.00     0.040 A 
ATOM     12  F   UNL A   1      32.761  24.731  26.475  1.00  0.00    -0.206 F 
BRANCH   7  13
ATOM     13  N   UNL A   1      29.989  28.025  24.314  1.00  0.00    -0.375 N 
ATOM     14  H   UNL A   1      29.121  28.175  24.754  1.00  0.00     0.161 HD
BRANCH  13  15
ATOM     15  C   UNL A   1      30.580  29.205  23.651  1.00  0.00     0.135 C 
ATOM     16  C   UNL A   1      31.800  28.898  22.778  1.00  0.00     0.039 C 
BRANCH  15  17
ATOM     17  C   UNL A   1      29.510  29.977  22.871  1.00  0.00     0.115 A 
ATOM     18  N   UNL A   1      29.167  29.699  21.626  1.00  0.00    -0.247 NA
ATOM     19  S   UNL A   1      28.786  31.405  23.521  1.00  0.00    -0.125 S 
ATOM     20  C   UNL A   1      28.332  30.685  21.137  1.00  0.00     0.123 A 
ATOM     21  C   UNL A   1      28.029  31.700  22.016  1.00  0.00     0.087 A 
ENDBRANCH  15  17
ENDBRANCH  13  15
ENDBRANCH   7  13
ENDBRANCH   4   6
ENDBRANCH   3   4
ENDBRANCH   2   3
ENDBRANCH   1   2
BRANCH   1  22
ATOM     22  O   UNL A   1      31.892  30.742  26.919  1.00  0.00    -0.374 OA
BRANCH  22  23
ATOM     23  C   UNL A   1      31.698  32.130  26.648  1.00  0.00     0.202 C 
BRANCH  23  24
ATOM     24  C   UNL A   1      32.703  33.123  27.245  1.00  0.00     0.261 C 
BRANCH  24  25
ATOM     25  O   UNL A   1      32.169  33.855  28.362  1.00  0.00    -0.460 OA
BRANCH  25  26
ATOM     26  C   UNL A   1      32.903  34.929  28.736  1.00  0.00     0.338 C 
ATOM     27  O   UNL A   1      32.607  36.111  28.614  1.00  0.00    -0.246 OA
BRANCH  26  28
ATOM     28  C   UNL A   1      34.081  34.494  29.505  1.00  0.00     0.060 A 
ATOM     29  C   UNL A   1      35.331  34.580  28.878  1.00  0.00     0.016 A 
ATOM     30  C   UNL A   1      33.962  33.939  30.781  1.00  0.00     0.016 A 
ATOM     31  C   UNL A   1      36.461  34.064  29.503  1.00  0.00     0.010 A 
ATOM     32  C   UNL A   1      35.098  33.412  31.403  1.00  0.00     0.010 A 
ATOM     33  C   UNL A   1      36.344  33.439  30.751  1.00  0.00    -0.014 A 
BRANCH  33  34
ATOM     34  C   UNL A   1      37.499  32.684  31.291  1.00  0.00     0.031 A 
ATOM     35  C   UNL A   1      38.061  33.071  32.631  1.00  0.00     0.074 A 
ATOM     36  C   UNL A   1      38.002  31.631  30.623  1.00  0.00     0.049 A 
ATOM     37  N   UNL A   1      39.058  32.545  33.294  1.00  0.00    -0.248 NA
ATOM     38  C   UNL A   1      37.409  34.199  33.315  1.00  0.00     0.031 C 
ATOM     39  C   UNL A   1      37.511  31.133  29.340  1.00  0.00     0.029 A 
ATOM     40  N   UNL A   1      39.037  30.788  30.941  1.00  0.00    -0.354 N 
ATOM     41  C   UNL A   1      39.152  33.275  34.473  1.00  0.00     0.074 A 
ATOM     42  C   UNL A   1      38.137  34.303  34.418  1.00  0.00     0.031 C 
ATOM     43  C   UNL A   1      38.243  30.066  28.980  1.00  0.00     0.029 A 
ATOM     44  C   UNL A   1      39.270  29.824  29.991  1.00  0.00     0.049 A 
ATOM     45  H   UNL A   1      39.562  30.866  31.770  1.00  0.00     0.167 HD
ATOM     46  C   UNL A   1      40.002  33.096  35.511  1.00  0.00     0.037 A 
ATOM     47  C   UNL A   1      40.213  28.863  29.940  1.00  0.00     0.037 A 
ATOM     48  C   UNL A   1      41.010  32.070  35.562  1.00  0.00     0.049 A 
ATOM     49  C   UNL A   1      41.192  28.726  31.076  1.00  0.00     0.074 A 
ATOM     50  C   UNL A   1      41.918  31.806  36.573  1.00  0.00     0.029 A 
ATOM     51  N   UNL A   1      41.246  31.142  34.559  1.00  0.00    -0.354 N 
ATOM     52  N   UNL A   1      41.271  29.419  32.185  1.00  0.00    -0.248 NA
ATOM     53  C   UNL A   1      42.210  27.672  30.953  1.00  0.00     0.031 C 
ATOM     54  C   UNL A   1      42.734  30.749  36.161  1.00  0.00     0.029 A 
ATOM     55  C   UNL A   1      42.298  30.317  34.919  1.00  0.00     0.049 A 
ATOM     56  H   UNL A   1      40.740  31.079  33.716  1.00  0.00     0.167 HD
ATOM     57  C   UNL A   1      42.324  28.868  32.906  1.00  0.00     0.074 A 
ATOM     58  C   UNL A   1      42.851  27.779  32.109  1.00  0.00     0.031 C 
ATOM     59  C   UNL A   1      42.807  29.231  34.121  1.00  0.00     0.037 A 
BRANCH  46  60
ATOM     60  C   UNL A   1      39.887  34.035  36.675  1.00  0.00     0.057 A 
ATOM     61  C   UNL A   1      39.084  33.713  37.776  1.00  0.00     0.134 A 
ATOM     62  C   UNL A   1      40.527  35.282  36.683  1.00  0.00     0.134 A 
ATOM     63  F   UNL A   1      38.442  32.537  37.830  1.00  0.00    -0.206 F 
ATOM     64  C   UNL A   1      38.910  34.602  38.838  1.00  0.00     0.040 A 
ATOM     65  C   UNL A   1      40.380  36.169  37.751  1.00  0.00     0.040 A 
ATOM     66  F   UNL A   1      41.321  35.645  35.665  1.00  0.00    -0.206 F 
ATOM     67  C   UNL A   1      39.562  35.833  38.828  1.00  0.00     0.006 A 
ENDBRANCH  46  60
BRANCH  47  68
ATOM     68  C   UNL A   1      40.262  27.946  28.775  1.00  0.00     0.057 A 
ATOM     69  C   UNL A   1      39.609  26.706  28.796  1.00  0.00     0.134 A 
ATOM     70  C   UNL A   1      40.982  28.276  27.622  1.00  0.00     0.134 A 
ATOM     71  F   UNL A   1      38.903  26.330  29.873  1.00  0.00    -0.206 F 
ATOM     72  C   UNL A   1      39.687  25.820  27.720  1.00  0.00     0.040 A 
ATOM     73  C   UNL A   1      41.049  27.409  26.530  1.00  0.00     0.040 A 
ATOM     74  F   UNL A   1      41.610  29.457  27.534  1.00  0.00    -0.206 F 
ATOM     75  C   UNL A   1      40.408  26.173  26.581  1.00  0.00     0.006 A 
ENDBRANCH  47  68
BRANCH  59  76
ATOM     76  C   UNL A   1      43.941  28.428  34.689  1.00  0.00     0.057 A 
ATOM     77  C   UNL A   1      45.268  28.808  34.451  1.00  0.00     0.134 A 
ATOM     78  C   UNL A   1      43.726  27.240  35.398  1.00  0.00     0.134 A 
ATOM     79  F   UNL A   1      45.544  29.930  33.766  1.00  0.00    -0.206 F 
ATOM     80  C   UNL A   1      46.341  28.029  34.886  1.00  0.00     0.040 A 
ATOM     81  C   UNL A   1      44.791  26.465  35.861  1.00  0.00     0.040 A 
ATOM     82  F   UNL A   1      42.480  26.825  35.666  1.00  0.00    -0.206 F 
ATOM     83  C   UNL A   1      46.103  26.854  35.595  1.00  0.00     0.006 A 
ENDBRANCH  59  76
ENDBRANCH  33  34
ENDBRANCH  26  28
ENDBRANCH  25  26
ENDBRANCH  24  25
ENDBRANCH  23  24
ENDBRANCH  22  23
ENDBRANCH   1  22
TORSDOF 17
ENDMDL
MODEL 3
REMARK VINA RESULT:     -10.2      5.595     10.453
REMARK SMILES C[C@H](Nc1cccc(F)c1C(=O)OCCOCCOC(=O)c1ccc(-c2c3nc(c(-c4c(F)cccc4F)c4ccc([nH]4)c(-c4c(F)cccc4F)c4nc(c(-c5c(F)cccc5F)c5ccc2[nH]5)C=C4)C=C3)cc1)c1nccs1
REMARK SMILES IDX 15 1 14 2 13 3 11 4 12 5 10 6 4 7 5 8 6 9 8 10 7 11 9 12
REMARK SMILES IDX 3 13 2 15 1 16 76 17 77 18 80 19 78 20 79 21 16 22 17 23
REMARK SMILES IDX 18 24 19 25 20 26 21 27 22 28 23 29 75 30 24 31 74 32 25 33
REMARK SMILES IDX 26 34 27 35 68 36 28 37 73 38 67 39 69 40 29 41 72 42 66 43
REMARK SMILES IDX 65 44 30 46 56 47 39 48 55 49 40 50 43 51 54 52 70 53 41 54
REMARK SMILES IDX 42 55 53 57 71 58 44 59 31 60 32 61 37 62 33 63 34 64 36 65
REMARK SMILES IDX 38 66 35 67 57 68 58 69 63 70 59 71 60 72 62 73 64 74 61 75
REMARK SMILES IDX 45 76 46 77 51 78 47 79 48 80 50 81 52 82 49 83
REMARK H PARENT 3 14 69 45 43 56
REMARK Flexibility Score: inf
ROOT
ATOM      1  C   UNL A   1      37.926  23.270  26.079  1.00  0.00     0.202 C 
ENDROOT
BRANCH   1   2
ATOM      2  C   UNL A   1      36.856  23.348  24.986  1.00  0.00     0.261 C 
BRANCH   2   3
ATOM      3  O   UNL A   1      35.578  23.703  25.536  1.00  0.00    -0.460 OA
BRANCH   3   4
ATOM      4  C   UNL A   1      34.568  23.756  24.637  1.00  0.00     0.343 C 
ATOM      5  O   UNL A   1      34.661  23.595  23.425  1.00  0.00    -0.246 OA
BRANCH   4   6
ATOM      6  C   UNL A   1      33.277  23.854  25.333  1.00  0.00     0.118 A 
ATOM      7  C   UNL A   1      32.457  22.710  25.484  1.00  0.00     0.052 A 
ATOM      8  C   UNL A   1      31.196  22.896  26.064  1.00  0.00     0.027 A 
ATOM      9  C   UNL A   1      30.774  24.158  26.504  1.00  0.00     0.005 A 
ATOM     10  C   UNL A   1      32.862  25.104  25.787  1.00  0.00     0.139 A 
ATOM     11  C   UNL A   1      31.614  25.262  26.374  1.00  0.00     0.040 A 
ATOM     12  F   UNL A   1      33.648  26.183  25.646  1.00  0.00    -0.206 F 
BRANCH   7  13
ATOM     13  N   UNL A   1      32.882  21.462  25.069  1.00  0.00    -0.375 N 
ATOM     14  H   UNL A   1      33.693  21.120  25.510  1.00  0.00     0.161 HD
BRANCH  13  15
ATOM     15  C   UNL A   1      32.284  20.571  24.054  1.00  0.00     0.135 C 
ATOM     16  C   UNL A   1      32.156  21.193  22.661  1.00  0.00     0.039 C 
BRANCH  15  17
ATOM     17  C   UNL A   1      33.029  19.233  24.006  1.00  0.00     0.115 A 
ATOM     18  N   UNL A   1      34.159  18.999  24.649  1.00  0.00    -0.247 NA
ATOM     19  S   UNL A   1      32.523  17.966  22.946  1.00  0.00    -0.125 S 
ATOM     20  C   UNL A   1      34.683  17.783  24.252  1.00  0.00     0.123 A 
ATOM     21  C   UNL A   1      33.943  17.090  23.321  1.00  0.00     0.087 A 
ENDBRANCH  15  17
ENDBRANCH  13  15
ENDBRANCH   7  13
ENDBRANCH   4   6
ENDBRANCH   3   4
ENDBRANCH   2   3
ENDBRANCH   1   2
BRANCH   1  22
ATOM     22  O   UNL A   1      38.729  22.092  26.115  1.00  0.00    -0.374 OA
BRANCH  22  23
ATOM     23  C   UNL A   1      38.281  20.954  25.379  1.00  0.00     0.202 C 
BRANCH  23  24
ATOM     24  C   UNL A   1      39.108  19.666  25.478  1.00  0.00     0.261 C 
BRANCH  24  25
ATOM     25  O   UNL A   1      40.004  19.662  26.604  1.00  0.00    -0.460 OA
BRANCH  25  26
ATOM     26  C   UNL A   1      41.315  19.595  26.281  1.00  0.00     0.338 C 
ATOM     27  O   UNL A   1      41.904  18.662  25.749  1.00  0.00    -0.246 OA
BRANCH  26  28
ATOM     28  C   UNL A   1      41.956  20.904  26.490  1.00  0.00     0.060 A 
ATOM     29  C   UNL A   1      42.257  21.273  27.808  1.00  0.00     0.016 A 
ATOM     30  C   UNL A   1      42.187  21.787  25.433  1.00  0.00     0.016 A 
ATOM     31  C   UNL A   1      42.741  22.548  28.081  1.00  0.00     0.010 A 
ATOM     32  C   UNL A   1      42.665  23.072  25.711  1.00  0.00     0.010 A 
ATOM     33  C   UNL A   1      42.908  23.469  27.038  1.00  0.00    -0.014 A 
BRANCH  33  34
ATOM     34  C   UNL A   1      43.188  24.887  27.366  1.00  0.00     0.031 A 
ATOM     35  C   UNL A   1      44.560  25.441  27.093  1.00  0.00     0.074 A 
ATOM     36  C   UNL A   1      42.218  25.685  27.845  1.00  0.00     0.049 A 
ATOM     37  N   UNL A   1      45.020  26.648  27.293  1.00  0.00    -0.248 NA
ATOM     38  C   UNL A   1      45.541  24.509  26.514  1.00  0.00     0.031 C 
ATOM     39  C   UNL A   1      40.840  25.273  28.105  1.00  0.00     0.029 A 
ATOM     40  N   UNL A   1      42.247  27.012  28.191  1.00  0.00    -0.354 N 
ATOM     41  C   UNL A   1      46.341  26.623  26.864  1.00  0.00     0.074 A 
ATOM     42  C   UNL A   1      46.620  25.273  26.426  1.00  0.00     0.031 C 
ATOM     43  C   UNL A   1      40.152  26.330  28.567  1.00  0.00     0.029 A 
ATOM     44  C   UNL A   1      41.047  27.482  28.663  1.00  0.00     0.049 A 
ATOM     45  H   UNL A   1      43.051  27.573  28.109  1.00  0.00     0.167 HD
ATOM     46  C   UNL A   1      47.236  27.638  26.826  1.00  0.00     0.037 A 
ATOM     47  C   UNL A   1      40.712  28.702  29.127  1.00  0.00     0.037 A 
ATOM     48  C   UNL A   1      46.954  28.980  27.261  1.00  0.00     0.049 A 
ATOM     49  C   UNL A   1      41.744  29.797  29.141  1.00  0.00     0.074 A 
ATOM     50  C   UNL A   1      47.795  30.080  27.260  1.00  0.00     0.029 A 
ATOM     51  N   UNL A   1      45.739  29.406  27.776  1.00  0.00    -0.354 N 
ATOM     52  N   UNL A   1      42.988  29.764  28.731  1.00  0.00    -0.248 NA
ATOM     53  C   UNL A   1      41.324  31.100  29.678  1.00  0.00     0.031 C 
ATOM     54  C   UNL A   1      47.104  31.158  27.819  1.00  0.00     0.029 A 
ATOM     55  C   UNL A   1      45.815  30.746  28.115  1.00  0.00     0.049 A 
ATOM     56  H   UNL A   1      44.940  28.839  27.885  1.00  0.00     0.167 HD
ATOM     57  C   UNL A   1      43.491  31.044  28.931  1.00  0.00     0.074 A 
ATOM     58  C   UNL A   1      42.416  31.832  29.496  1.00  0.00     0.031 C 
ATOM     59  C   UNL A   1      44.733  31.522  28.667  1.00  0.00     0.037 A 
BRANCH  46  60
ATOM     60  C   UNL A   1      48.611  27.335  26.308  1.00  0.00     0.057 A 
ATOM     61  C   UNL A   1      49.650  27.010  27.190  1.00  0.00     0.134 A 
ATOM     62  C   UNL A   1      48.922  27.420  24.945  1.00  0.00     0.134 A 
ATOM     63  F   UNL A   1      49.420  26.914  28.507  1.00  0.00    -0.206 F 
ATOM     64  C   UNL A   1      50.951  26.791  26.735  1.00  0.00     0.040 A 
ATOM     65  C   UNL A   1      50.214  27.180  24.476  1.00  0.00     0.040 A 
ATOM     66  F   UNL A   1      47.969  27.715  24.047  1.00  0.00    -0.206 F 
ATOM     67  C   UNL A   1      51.236  26.874  25.373  1.00  0.00     0.006 A 
ENDBRANCH  46  60
BRANCH  47  68
ATOM     68  C   UNL A   1      39.328  28.950  29.603  1.00  0.00     0.057 A 
ATOM     69  C   UNL A   1      38.968  28.738  30.940  1.00  0.00     0.134 A 
ATOM     70  C   UNL A   1      38.327  29.383  28.727  1.00  0.00     0.134 A 
ATOM     71  F   UNL A   1      39.882  28.322  31.830  1.00  0.00    -0.206 F 
ATOM     72  C   UNL A   1      37.659  28.928  31.384  1.00  0.00     0.040 A 
ATOM     73  C   UNL A   1      37.019  29.599  29.162  1.00  0.00     0.040 A 
ATOM     74  F   UNL A   1      38.615  29.624  27.439  1.00  0.00    -0.206 F 
ATOM     75  C   UNL A   1      36.679  29.363  30.493  1.00  0.00     0.006 A 
ENDBRANCH  47  68
BRANCH  59  76
ATOM     76  C   UNL A   1      44.997  32.973  28.949  1.00  0.00     0.057 A 
ATOM     77  C   UNL A   1      44.758  33.942  27.967  1.00  0.00     0.134 A 
ATOM     78  C   UNL A   1      45.563  33.401  30.156  1.00  0.00     0.134 A 
ATOM     79  F   UNL A   1      44.229  33.596  26.782  1.00  0.00    -0.206 F 
ATOM     80  C   UNL A   1      45.084  35.284  28.169  1.00  0.00     0.040 A 
ATOM     81  C   UNL A   1      45.869  34.745  30.380  1.00  0.00     0.040 A 
ATOM     82  F   UNL A   1      45.809  32.525  31.141  1.00  0.00    -0.206 F 
ATOM     83  C   UNL A   1      45.639  35.689  29.380  1.00  0.00     0.006 A 
ENDBRANCH  59  76
ENDBRANCH  33  34
ENDBRANCH  26  28
ENDBRANCH  25  26
ENDBRANCH  24  25
ENDBRANCH  23  24
ENDBRANCH  22  23
ENDBRANCH   1  22
TORSDOF 17
ENDMDL
