MODEL 1
REMARK VINA RESULT:      -9.2      0.000      0.000
REMARK SMILES CC(C)CSc1cc2c(cc1Cl)C=C(C(=O)OCCOCCOC(=O)c1ccc(-c3c4nc(c(-c5c(F)cccc5F)c5ccc([nH]5)c(-c5c(F)cccc5F)c5nc(c(-c6c(F)cccc6F)c6ccc3[nH]6)C=C5)C=C4)cc1)[C@@H](C(F)(F)F)O2
REMARK SMILES IDX 19 1 18 2 17 3 15 4 16 5 14 6 6 7 7 8 11 9 8 10 10 11 12 12
REMARK SMILES IDX 9 13 85 14 13 15 80 16 5 17 4 18 2 19 1 20 3 21 81 22 82 23
REMARK SMILES IDX 83 24 84 25 20 26 21 27 22 28 23 29 24 30 25 31 26 32 27 33
REMARK SMILES IDX 79 34 28 35 78 36 29 37 30 38 31 39 72 40 32 41 77 42 71 43
REMARK SMILES IDX 73 44 33 45 76 46 70 47 69 48 34 50 60 51 43 52 59 53 44 54
REMARK SMILES IDX 47 55 58 56 74 57 45 58 46 59 57 61 75 62 48 63 35 64 36 65
REMARK SMILES IDX 41 66 37 67 38 68 40 69 42 70 39 71 61 72 62 73 67 74 63 75
REMARK SMILES IDX 64 76 66 77 68 78 65 79 49 80 50 81 55 82 51 83 52 84 54 85
REMARK SMILES IDX 56 86 53 87
REMARK H PARENT 73 49 47 60
REMARK Flexibility Score: inf
ROOT
ATOM      1  C   UNL A   1      46.116  20.605  24.846  1.00  0.00     0.202 C 
ENDROOT
BRANCH   1   2
ATOM      2  C   UNL A   1      45.629  21.860  25.577  1.00  0.00     0.261 C 
BRANCH   2   3
ATOM      3  O   UNL A   1      46.678  22.825  25.746  1.00  0.00    -0.460 OA
BRANCH   3   4
ATOM      4  C   UNL A   1      46.657  23.840  24.850  1.00  0.00     0.338 C 
ATOM      5  O   UNL A   1      46.798  23.755  23.642  1.00  0.00    -0.246 OA
BRANCH   4   6
ATOM      6  C   UNL A   1      46.290  25.097  25.532  1.00  0.00     0.087 C 
ATOM      7  C   UNL A   1      43.969  29.394  26.676  1.00  0.00     0.030 A 
ATOM      8  C   UNL A   1      45.247  28.864  26.933  1.00  0.00     0.063 A 
ATOM      9  C   UNL A   1      42.985  28.534  26.161  1.00  0.00     0.055 A 
ATOM     10  C   UNL A   1      45.576  27.560  26.560  1.00  0.00     0.129 A 
ATOM     11  C   UNL A   1      43.324  27.236  25.764  1.00  0.00     0.033 A 
ATOM     12  Cl  UNL A   1      41.322  28.973  26.002  1.00  0.00    -0.083 Cl
ATOM     13  C   UNL A   1      44.628  26.764  25.925  1.00  0.00     0.019 A 
ATOM     14  O   UNL A   1      46.851  27.153  26.830  1.00  0.00    -0.475 OA
ATOM     15  C   UNL A   1      45.018  25.481  25.376  1.00  0.00     0.027 C 
ATOM     16  C   UNL A   1      47.313  25.869  26.316  1.00  0.00     0.316 C 
BRANCH   7  17
ATOM     17  S   UNL A   1      43.772  31.137  27.036  1.00  0.00    -0.124 SA
BRANCH  17  18
ATOM     18  C   UNL A   1      45.352  31.890  26.467  1.00  0.00     0.078 C 
BRANCH  18  19
ATOM     19  C   UNL A   1      45.341  33.363  26.013  1.00  0.00    -0.007 C 
ATOM     20  C   UNL A   1      44.011  34.085  26.227  1.00  0.00     0.008 C 
ATOM     21  C   UNL A   1      46.431  34.119  26.787  1.00  0.00     0.008 C 
ENDBRANCH  18  19
ENDBRANCH  17  18
ENDBRANCH   7  17
BRANCH  16  22
ATOM     22  C   UNL A   1      48.607  26.119  25.526  1.00  0.00     0.430 C 
ATOM     23  F   UNL A   1      49.528  25.157  25.778  1.00  0.00    -0.167 F 
ATOM     24  F   UNL A   1      48.395  26.109  24.190  1.00  0.00    -0.167 F 
ATOM     25  F   UNL A   1      49.167  27.309  25.839  1.00  0.00    -0.167 F 
ENDBRANCH  16  22
ENDBRANCH   4   6
ENDBRANCH   3   4
ENDBRANCH   2   3
ENDBRANCH   1   2
BRANCH   1  26
ATOM     26  O   UNL A   1      45.133  19.662  24.428  1.00  0.00    -0.374 OA
BRANCH  26  27
ATOM     27  C   UNL A   1      44.754  18.626  25.329  1.00  0.00     0.202 C 
BRANCH  27  28
ATOM     28  C   UNL A   1      43.301  18.584  25.823  1.00  0.00     0.261 C 
BRANCH  28  29
ATOM     29  O   UNL A   1      42.446  19.518  25.147  1.00  0.00    -0.460 OA
BRANCH  29  30
ATOM     30  C   UNL A   1      41.416  19.987  25.894  1.00  0.00     0.338 C 
ATOM     31  O   UNL A   1      40.360  19.421  26.135  1.00  0.00    -0.246 OA
BRANCH  30  32
ATOM     32  C   UNL A   1      41.816  21.244  26.551  1.00  0.00     0.060 A 
ATOM     33  C   UNL A   1      42.097  22.391  25.807  1.00  0.00     0.016 A 
ATOM     34  C   UNL A   1      41.869  21.275  27.951  1.00  0.00     0.016 A 
ATOM     35  C   UNL A   1      42.408  23.577  26.472  1.00  0.00     0.010 A 
ATOM     36  C   UNL A   1      42.169  22.465  28.614  1.00  0.00     0.010 A 
ATOM     37  C   UNL A   1      42.425  23.630  27.879  1.00  0.00    -0.014 A 
BRANCH  37  38
ATOM     38  C   UNL A   1      42.614  24.936  28.560  1.00  0.00     0.031 A 
ATOM     39  C   UNL A   1      43.946  25.345  29.112  1.00  0.00     0.074 A 
ATOM     40  C   UNL A   1      41.560  25.768  28.657  1.00  0.00     0.049 A 
ATOM     41  N   UNL A   1      44.312  26.502  29.607  1.00  0.00    -0.248 NA
ATOM     42  C   UNL A   1      45.004  24.325  29.118  1.00  0.00     0.031 C 
ATOM     43  C   UNL A   1      40.202  25.463  28.203  1.00  0.00     0.029 A 
ATOM     44  N   UNL A   1      41.469  27.046  29.148  1.00  0.00    -0.354 N 
ATOM     45  C   UNL A   1      45.647  26.360  29.957  1.00  0.00     0.074 A 
ATOM     46  C   UNL A   1      46.009  24.984  29.679  1.00  0.00     0.031 C 
ATOM     47  C   UNL A   1      39.424  26.540  28.392  1.00  0.00     0.029 A 
ATOM     48  C   UNL A   1      40.220  27.600  29.004  1.00  0.00     0.049 A 
ATOM     49  H   UNL A   1      42.225  27.520  29.563  1.00  0.00     0.167 HD
ATOM     50  C   UNL A   1      46.500  27.296  30.442  1.00  0.00     0.037 A 
ATOM     51  C   UNL A   1      39.772  28.829  29.319  1.00  0.00     0.037 A 
ATOM     52  C   UNL A   1      46.127  28.654  30.752  1.00  0.00     0.049 A 
ATOM     53  C   UNL A   1      40.727  29.830  29.907  1.00  0.00     0.074 A 
ATOM     54  C   UNL A   1      46.921  29.683  31.228  1.00  0.00     0.029 A 
ATOM     55  N   UNL A   1      44.843  29.168  30.635  1.00  0.00    -0.354 N 
ATOM     56  N   UNL A   1      42.010  29.712  30.147  1.00  0.00    -0.248 NA
ATOM     57  C   UNL A   1      40.168  31.143  30.256  1.00  0.00     0.031 C 
ATOM     58  C   UNL A   1      46.109  30.800  31.452  1.00  0.00     0.029 A 
ATOM     59  C   UNL A   1      44.819  30.490  31.055  1.00  0.00     0.049 A 
ATOM     60  H   UNL A   1      44.063  28.668  30.302  1.00  0.00     0.167 HD
ATOM     61  C   UNL A   1      42.419  30.945  30.641  1.00  0.00     0.074 A 
ATOM     62  C   UNL A   1      41.250  31.800  30.646  1.00  0.00     0.031 C 
ATOM     63  C   UNL A   1      43.651  31.334  31.055  1.00  0.00     0.037 A 
BRANCH  50  64
ATOM     64  C   UNL A   1      47.924  26.874  30.672  1.00  0.00     0.057 A 
ATOM     65  C   UNL A   1      48.936  27.227  29.772  1.00  0.00     0.134 A 
ATOM     66  C   UNL A   1      48.290  26.096  31.781  1.00  0.00     0.134 A 
ATOM     67  F   UNL A   1      48.656  27.961  28.685  1.00  0.00    -0.206 F 
ATOM     68  C   UNL A   1      50.260  26.829  29.968  1.00  0.00     0.040 A 
ATOM     69  C   UNL A   1      49.616  25.717  32.002  1.00  0.00     0.040 A 
ATOM     70  F   UNL A   1      47.371  25.727  32.687  1.00  0.00    -0.206 F 
ATOM     71  C   UNL A   1      50.604  26.079  31.092  1.00  0.00     0.006 A 
ENDBRANCH  50  64
BRANCH  51  72
ATOM     72  C   UNL A   1      38.356  29.200  29.064  1.00  0.00     0.057 A 
ATOM     73  C   UNL A   1      37.398  29.165  30.084  1.00  0.00     0.134 A 
ATOM     74  C   UNL A   1      37.940  29.648  27.804  1.00  0.00     0.134 A 
ATOM     75  F   UNL A   1      37.731  28.738  31.311  1.00  0.00    -0.206 F 
ATOM     76  C   UNL A   1      36.081  29.568  29.864  1.00  0.00     0.040 A 
ATOM     77  C   UNL A   1      36.633  30.083  27.578  1.00  0.00     0.040 A 
ATOM     78  F   UNL A   1      38.814  29.720  26.790  1.00  0.00    -0.206 F 
ATOM     79  C   UNL A   1      35.698  30.042  28.610  1.00  0.00     0.006 A 
ENDBRANCH  51  72
BRANCH  63  80
ATOM     80  C   UNL A   1      43.799  32.762  31.503  1.00  0.00     0.057 A 
ATOM     81  C   UNL A   1      44.243  33.745  30.609  1.00  0.00     0.134 A 
ATOM     82  C   UNL A   1      43.500  33.169  32.811  1.00  0.00     0.134 A 
ATOM     83  F   UNL A   1      44.556  33.425  29.345  1.00  0.00    -0.206 F 
ATOM     84  C   UNL A   1      44.376  35.080  30.995  1.00  0.00     0.040 A 
ATOM     85  C   UNL A   1      43.595  34.508  33.199  1.00  0.00     0.040 A 
ATOM     86  F   UNL A   1      43.055  32.284  33.715  1.00  0.00    -0.206 F 
ATOM     87  C   UNL A   1      44.040  35.467  32.290  1.00  0.00     0.006 A 
ENDBRANCH  63  80
ENDBRANCH  37  38
ENDBRANCH  30  32
ENDBRANCH  29  30
ENDBRANCH  28  29
ENDBRANCH  27  28
ENDBRANCH  26  27
ENDBRANCH   1  26
TORSDOF 18
ENDMDL
MODEL 2
REMARK VINA RESULT:      -8.5      5.603     11.478
REMARK SMILES CC(C)CSc1cc2c(cc1Cl)C=C(C(=O)OCCOCCOC(=O)c1ccc(-c3c4nc(c(-c5c(F)cccc5F)c5ccc([nH]5)c(-c5c(F)cccc5F)c5nc(c(-c6c(F)cccc6F)c6ccc3[nH]6)C=C5)C=C4)cc1)[C@@H](C(F)(F)F)O2
REMARK SMILES IDX 19 1 18 2 17 3 15 4 16 5 14 6 6 7 7 8 11 9 8 10 10 11 12 12
REMARK SMILES IDX 9 13 85 14 13 15 80 16 5 17 4 18 2 19 1 20 3 21 81 22 82 23
REMARK SMILES IDX 83 24 84 25 20 26 21 27 22 28 23 29 24 30 25 31 26 32 27 33
REMARK SMILES IDX 79 34 28 35 78 36 29 37 30 38 31 39 72 40 32 41 77 42 71 43
REMARK SMILES IDX 73 44 33 45 76 46 70 47 69 48 34 50 60 51 43 52 59 53 44 54
REMARK SMILES IDX 47 55 58 56 74 57 45 58 46 59 57 61 75 62 48 63 35 64 36 65
REMARK SMILES IDX 41 66 37 67 38 68 40 69 42 70 39 71 61 72 62 73 67 74 63 75
REMARK SMILES IDX 64 76 66 77 68 78 65 79 49 80 50 81 55 82 51 83 52 84 54 85
REMARK SMILES IDX 56 86 53 87
REMARK H PARENT 73 49 47 60
REMARK Flexibility Score: inf
ROOT
ATOM      1  C   UNL A   1      31.767  30.052  25.309  1.00  0.00     0.202 C 
ENDROOT
BRANCH   1   2
ATOM      2  C   UNL A   1      31.699  28.917  24.283  1.00  0.00     0.261 C 
BRANCH   2   3
ATOM      3  O   UNL A   1      32.301  27.711  24.774  1.00  0.00    -0.460 OA
BRANCH   3   4
ATOM      4  C   UNL A   1      33.015  27.024  23.851  1.00  0.00     0.338 C 
ATOM      5  O   UNL A   1      33.588  27.482  22.877  1.00  0.00    -0.246 OA
BRANCH   4   6
ATOM      6  C   UNL A   1      33.131  25.612  24.262  1.00  0.00     0.087 C 
ATOM      7  C   UNL A   1      34.888  20.951  24.856  1.00  0.00     0.030 A 
ATOM      8  C   UNL A   1      33.608  21.533  24.885  1.00  0.00     0.063 A 
ATOM      9  C   UNL A   1      36.005  21.802  24.861  1.00  0.00     0.055 A 
ATOM     10  C   UNL A   1      33.441  22.916  24.783  1.00  0.00     0.129 A 
ATOM     11  C   UNL A   1      35.835  23.185  24.733  1.00  0.00     0.033 A 
ATOM     12  Cl  UNL A   1      37.629  21.244  25.051  1.00  0.00    -0.083 Cl
ATOM     13  C   UNL A   1      34.556  23.737  24.651  1.00  0.00     0.019 A 
ATOM     14  O   UNL A   1      32.156  23.377  24.793  1.00  0.00    -0.475 OA
ATOM     15  C   UNL A   1      34.381  25.146  24.362  1.00  0.00     0.027 C 
ATOM     16  C   UNL A   1      31.902  24.785  24.519  1.00  0.00     0.316 C 
BRANCH   7  17
ATOM     17  S   UNL A   1      34.918  19.162  24.799  1.00  0.00    -0.124 SA
BRANCH  17  18
ATOM     18  C   UNL A   1      33.167  18.698  24.476  1.00  0.00     0.078 C 
BRANCH  18  19
ATOM     19  C   UNL A   1      32.879  17.597  23.436  1.00  0.00    -0.007 C 
ATOM     20  C   UNL A   1      32.268  18.101  22.128  1.00  0.00     0.008 C 
ATOM     21  C   UNL A   1      34.198  16.881  23.107  1.00  0.00     0.008 C 
ENDBRANCH  18  19
ENDBRANCH  17  18
ENDBRANCH   7  17
BRANCH  16  22
ATOM     22  C   UNL A   1      30.881  24.862  23.373  1.00  0.00     0.430 C 
ATOM     23  F   UNL A   1      30.302  23.657  23.150  1.00  0.00    -0.167 F 
ATOM     24  F   UNL A   1      29.877  25.727  23.646  1.00  0.00    -0.167 F 
ATOM     25  F   UNL A   1      31.453  25.259  22.214  1.00  0.00    -0.167 F 
ENDBRANCH  16  22
ENDBRANCH   4   6
ENDBRANCH   3   4
ENDBRANCH   2   3
ENDBRANCH   1   2
BRANCH   1  26
ATOM     26  O   UNL A   1      32.931  30.133  26.127  1.00  0.00    -0.374 OA
BRANCH  26  27
ATOM     27  C   UNL A   1      32.923  31.024  27.240  1.00  0.00     0.202 C 
BRANCH  27  28
ATOM     28  C   UNL A   1      34.269  31.485  27.815  1.00  0.00     0.261 C 
BRANCH  28  29
ATOM     29  O   UNL A   1      35.086  30.401  28.282  1.00  0.00    -0.460 OA
BRANCH  29  30
ATOM     30  C   UNL A   1      35.916  30.718  29.307  1.00  0.00     0.338 C 
ATOM     31  O   UNL A   1      35.631  31.320  30.331  1.00  0.00    -0.246 OA
BRANCH  30  32
ATOM     32  C   UNL A   1      37.222  30.065  29.102  1.00  0.00     0.060 A 
ATOM     33  C   UNL A   1      37.780  29.948  27.828  1.00  0.00     0.016 A 
ATOM     34  C   UNL A   1      37.916  29.599  30.227  1.00  0.00     0.016 A 
ATOM     35  C   UNL A   1      39.047  29.383  27.687  1.00  0.00     0.010 A 
ATOM     36  C   UNL A   1      39.188  29.044  30.085  1.00  0.00     0.010 A 
ATOM     37  C   UNL A   1      39.771  28.947  28.814  1.00  0.00    -0.014 A 
BRANCH  37  38
ATOM     38  C   UNL A   1      41.172  28.486  28.651  1.00  0.00     0.031 A 
ATOM     39  C   UNL A   1      41.494  27.061  28.314  1.00  0.00     0.074 A 
ATOM     40  C   UNL A   1      42.165  29.386  28.790  1.00  0.00     0.049 A 
ATOM     41  N   UNL A   1      42.650  26.530  28.000  1.00  0.00    -0.248 NA
ATOM     42  C   UNL A   1      40.377  26.106  28.340  1.00  0.00     0.031 C 
ATOM     43  C   UNL A   1      41.982  30.789  29.165  1.00  0.00     0.029 A 
ATOM     44  N   UNL A   1      43.520  29.261  28.614  1.00  0.00    -0.354 N 
ATOM     45  C   UNL A   1      42.398  25.186  27.763  1.00  0.00     0.074 A 
ATOM     46  C   UNL A   1      40.991  24.970  28.035  1.00  0.00     0.031 C 
ATOM     47  C   UNL A   1      43.173  31.407  29.143  1.00  0.00     0.029 A 
ATOM     48  C   UNL A   1      44.204  30.440  28.780  1.00  0.00     0.049 A 
ATOM     49  H   UNL A   1      43.958  28.409  28.389  1.00  0.00     0.167 HD
ATOM     50  C   UNL A   1      43.255  24.226  27.336  1.00  0.00     0.037 A 
ATOM     51  C   UNL A   1      45.515  30.712  28.643  1.00  0.00     0.037 A 
ATOM     52  C   UNL A   1      44.663  24.437  27.103  1.00  0.00     0.049 A 
ATOM     53  C   UNL A   1      46.452  29.614  28.221  1.00  0.00     0.074 A 
ATOM     54  C   UNL A   1      45.610  23.535  26.649  1.00  0.00     0.029 A 
ATOM     55  N   UNL A   1      45.330  25.633  27.324  1.00  0.00    -0.354 N 
ATOM     56  N   UNL A   1      46.186  28.369  27.910  1.00  0.00    -0.248 NA
ATOM     57  C   UNL A   1      47.874  29.969  28.118  1.00  0.00     0.031 C 
ATOM     58  C   UNL A   1      46.858  24.168  26.651  1.00  0.00     0.029 A 
ATOM     59  C   UNL A   1      46.680  25.484  27.043  1.00  0.00     0.049 A 
ATOM     60  H   UNL A   1      44.908  26.466  27.635  1.00  0.00     0.167 HD
ATOM     61  C   UNL A   1      47.400  27.802  27.542  1.00  0.00     0.074 A 
ATOM     62  C   UNL A   1      48.397  28.847  27.649  1.00  0.00     0.031 C 
ATOM     63  C   UNL A   1      47.666  26.530  27.152  1.00  0.00     0.037 A 
BRANCH  50  64
ATOM     64  C   UNL A   1      42.687  22.855  27.099  1.00  0.00     0.057 A 
ATOM     65  C   UNL A   1      42.374  22.008  28.169  1.00  0.00     0.134 A 
ATOM     66  C   UNL A   1      42.469  22.364  25.803  1.00  0.00     0.134 A 
ATOM     67  F   UNL A   1      42.567  22.408  29.434  1.00  0.00    -0.206 F 
ATOM     68  C   UNL A   1      41.859  20.727  27.960  1.00  0.00     0.040 A 
ATOM     69  C   UNL A   1      41.926  21.096  25.583  1.00  0.00     0.040 A 
ATOM     70  F   UNL A   1      42.741  23.125  24.732  1.00  0.00    -0.206 F 
ATOM     71  C   UNL A   1      41.624  20.272  26.664  1.00  0.00     0.006 A 
ENDBRANCH  50  64
BRANCH  51  72
ATOM     72  C   UNL A   1      46.026  32.086  28.881  1.00  0.00     0.057 A 
ATOM     73  C   UNL A   1      46.463  32.493  30.147  1.00  0.00     0.134 A 
ATOM     74  C   UNL A   1      46.136  33.010  27.834  1.00  0.00     0.134 A 
ATOM     75  F   UNL A   1      46.376  31.658  31.194  1.00  0.00    -0.206 F 
ATOM     76  C   UNL A   1      46.997  33.763  30.364  1.00  0.00     0.040 A 
ATOM     77  C   UNL A   1      46.697  34.273  28.029  1.00  0.00     0.040 A 
ATOM     78  F   UNL A   1      45.750  32.675  26.595  1.00  0.00    -0.206 F 
ATOM     79  C   UNL A   1      47.128  34.653  29.299  1.00  0.00     0.006 A 
ENDBRANCH  51  72
BRANCH  63  80
ATOM     80  C   UNL A   1      49.086  26.219  26.768  1.00  0.00     0.057 A 
ATOM     81  C   UNL A   1      49.966  25.652  27.700  1.00  0.00     0.134 A 
ATOM     82  C   UNL A   1      49.585  26.471  25.483  1.00  0.00     0.134 A 
ATOM     83  F   UNL A   1      49.560  25.392  28.951  1.00  0.00    -0.206 F 
ATOM     84  C   UNL A   1      51.285  25.341  27.366  1.00  0.00     0.040 A 
ATOM     85  C   UNL A   1      50.893  26.131  25.127  1.00  0.00     0.040 A 
ATOM     86  F   UNL A   1      48.794  26.998  24.537  1.00  0.00    -0.206 F 
ATOM     87  C   UNL A   1      51.748  25.568  26.072  1.00  0.00     0.006 A 
ENDBRANCH  63  80
ENDBRANCH  37  38
ENDBRANCH  30  32
ENDBRANCH  29  30
ENDBRANCH  28  29
ENDBRANCH  27  28
ENDBRANCH  26  27
ENDBRANCH   1  26
TORSDOF 18
ENDMDL
MODEL 3
REMARK VINA RESULT:      -8.3      5.222      9.995
REMARK SMILES CC(C)CSc1cc2c(cc1Cl)C=C(C(=O)OCCOCCOC(=O)c1ccc(-c3c4nc(c(-c5c(F)cccc5F)c5ccc([nH]5)c(-c5c(F)cccc5F)c5nc(c(-c6c(F)cccc6F)c6ccc3[nH]6)C=C5)C=C4)cc1)[C@@H](C(F)(F)F)O2
REMARK SMILES IDX 19 1 18 2 17 3 15 4 16 5 14 6 6 7 7 8 11 9 8 10 10 11 12 12
REMARK SMILES IDX 9 13 85 14 13 15 80 16 5 17 4 18 2 19 1 20 3 21 81 22 82 23
REMARK SMILES IDX 83 24 84 25 20 26 21 27 22 28 23 29 24 30 25 31 26 32 27 33
REMARK SMILES IDX 79 34 28 35 78 36 29 37 30 38 31 39 72 40 32 41 77 42 71 43
REMARK SMILES IDX 73 44 33 45 76 46 70 47 69 48 34 50 60 51 43 52 59 53 44 54
REMARK SMILES IDX 47 55 58 56 74 57 45 58 46 59 57 61 75 62 48 63 35 64 36 65
REMARK SMILES IDX 41 66 37 67 38 68 40 69 42 70 39 71 61 72 62 73 67 74 63 75
REMARK SMILES IDX 64 76 66 77 68 78 65 79 49 80 50 81 55 82 51 83 52 84 54 85
REMARK SMILES IDX 56 86 53 87
REMARK H PARENT 73 49 47 60
REMARK Flexibility Score: inf
ROOT
ATOM      1  C   UNL A   1      39.005  22.093  26.088  1.00  0.00     0.202 C 
ENDROOT
BRANCH   1   2
ATOM      2  C   UNL A   1      37.918  21.137  25.587  1.00  0.00     0.261 C 
BRANCH   2   3
ATOM      3  O   UNL A   1      36.756  21.839  25.123  1.00  0.00    -0.460 OA
BRANCH   3   4
ATOM      4  C   UNL A   1      35.657  21.063  24.964  1.00  0.00     0.338 C 
ATOM      5  O   UNL A   1      35.595  19.850  25.072  1.00  0.00    -0.246 OA
BRANCH   4   6
ATOM      6  C   UNL A   1      34.469  21.917  24.771  1.00  0.00     0.087 C 
ATOM      7  C   UNL A   1      31.444  25.574  23.148  1.00  0.00     0.030 A 
ATOM      8  C   UNL A   1      31.479  24.758  24.294  1.00  0.00     0.063 A 
ATOM      9  C   UNL A   1      32.282  25.242  22.071  1.00  0.00     0.055 A 
ATOM     10  C   UNL A   1      32.414  23.729  24.419  1.00  0.00     0.129 A 
ATOM     11  C   UNL A   1      33.236  24.228  22.209  1.00  0.00     0.033 A 
ATOM     12  Cl  UNL A   1      32.196  26.007  20.524  1.00  0.00    -0.083 Cl
ATOM     13  C   UNL A   1      33.329  23.501  23.397  1.00  0.00     0.019 A 
ATOM     14  O   UNL A   1      32.381  23.014  25.582  1.00  0.00    -0.475 OA
ATOM     15  C   UNL A   1      34.412  22.559  23.599  1.00  0.00     0.027 C 
ATOM     16  C   UNL A   1      33.433  22.043  25.852  1.00  0.00     0.316 C 
BRANCH   7  17
ATOM     17  S   UNL A   1      30.321  26.966  23.229  1.00  0.00    -0.124 SA
BRANCH  17  18
ATOM     18  C   UNL A   1      31.132  28.125  24.406  1.00  0.00     0.078 C 
BRANCH  18  19
ATOM     19  C   UNL A   1      32.672  28.136  24.480  1.00  0.00    -0.007 C 
ATOM     20  C   UNL A   1      33.361  28.830  23.305  1.00  0.00     0.008 C 
ATOM     21  C   UNL A   1      33.091  28.850  25.774  1.00  0.00     0.008 C 
ENDBRANCH  18  19
ENDBRANCH  17  18
ENDBRANCH   7  17
BRANCH  16  22
ATOM     22  C   UNL A   1      34.039  22.378  27.224  1.00  0.00     0.430 C 
ATOM     23  F   UNL A   1      35.074  23.246  27.103  1.00  0.00    -0.167 F 
ATOM     24  F   UNL A   1      33.139  22.965  28.046  1.00  0.00    -0.167 F 
ATOM     25  F   UNL A   1      34.504  21.276  27.852  1.00  0.00    -0.167 F 
ENDBRANCH  16  22
ENDBRANCH   4   6
ENDBRANCH   3   4
ENDBRANCH   2   3
ENDBRANCH   1   2
BRANCH   1  26
ATOM     26  O   UNL A   1      40.060  21.541  26.870  1.00  0.00    -0.374 OA
BRANCH  26  27
ATOM     27  C   UNL A   1      41.142  20.899  26.202  1.00  0.00     0.202 C 
BRANCH  27  28
ATOM     28  C   UNL A   1      42.437  21.693  25.980  1.00  0.00     0.261 C 
BRANCH  28  29
ATOM     29  O   UNL A   1      42.220  22.966  25.354  1.00  0.00    -0.460 OA
BRANCH  29  30
ATOM     30  C   UNL A   1      43.193  23.883  25.583  1.00  0.00     0.338 C 
ATOM     31  O   UNL A   1      44.265  23.984  25.006  1.00  0.00    -0.246 OA
BRANCH  30  32
ATOM     32  C   UNL A   1      42.701  24.894  26.537  1.00  0.00     0.060 A 
ATOM     33  C   UNL A   1      41.667  24.604  27.427  1.00  0.00     0.016 A 
ATOM     34  C   UNL A   1      43.329  26.146  26.559  1.00  0.00     0.016 A 
ATOM     35  C   UNL A   1      41.278  25.568  28.358  1.00  0.00     0.010 A 
ATOM     36  C   UNL A   1      42.946  27.105  27.498  1.00  0.00     0.010 A 
ATOM     37  C   UNL A   1      41.927  26.816  28.416  1.00  0.00    -0.014 A 
BRANCH  37  38
ATOM     38  C   UNL A   1      41.592  27.764  29.508  1.00  0.00     0.031 A 
ATOM     39  C   UNL A   1      40.439  28.715  29.394  1.00  0.00     0.074 A 
ATOM     40  C   UNL A   1      42.339  27.743  30.629  1.00  0.00     0.049 A 
ATOM     41  N   UNL A   1      39.930  29.505  30.307  1.00  0.00    -0.248 NA
ATOM     42  C   UNL A   1      39.776  28.798  28.085  1.00  0.00     0.031 C 
ATOM     43  C   UNL A   1      43.516  26.898  30.840  1.00  0.00     0.029 A 
ATOM     44  N   UNL A   1      42.207  28.433  31.807  1.00  0.00    -0.354 N 
ATOM     45  C   UNL A   1      38.869  30.158  29.695  1.00  0.00     0.074 A 
ATOM     46  C   UNL A   1      38.850  29.721  28.313  1.00  0.00     0.031 C 
ATOM     47  C   UNL A   1      43.970  27.084  32.089  1.00  0.00     0.029 A 
ATOM     48  C   UNL A   1      43.135  28.077  32.756  1.00  0.00     0.049 A 
ATOM     49  H   UNL A   1      41.515  29.116  31.958  1.00  0.00     0.167 HD
ATOM     50  C   UNL A   1      37.979  31.023  30.240  1.00  0.00     0.037 A 
ATOM     51  C   UNL A   1      43.287  28.498  34.025  1.00  0.00     0.037 A 
ATOM     52  C   UNL A   1      38.024  31.484  31.606  1.00  0.00     0.049 A 
ATOM     53  C   UNL A   1      42.316  29.500  34.587  1.00  0.00     0.074 A 
ATOM     54  C   UNL A   1      37.156  32.344  32.258  1.00  0.00     0.029 A 
ATOM     55  N   UNL A   1      39.003  31.137  32.526  1.00  0.00    -0.354 N 
ATOM     56  N   UNL A   1      41.262  30.040  34.026  1.00  0.00    -0.248 NA
ATOM     57  C   UNL A   1      42.554  29.941  35.968  1.00  0.00     0.031 C 
ATOM     58  C   UNL A   1      37.641  32.560  33.552  1.00  0.00     0.029 A 
ATOM     59  C   UNL A   1      38.776  31.787  33.730  1.00  0.00     0.049 A 
ATOM     60  H   UNL A   1      39.750  30.521  32.349  1.00  0.00     0.167 HD
ATOM     61  C   UNL A   1      40.692  30.856  34.996  1.00  0.00     0.074 A 
ATOM     62  C   UNL A   1      41.507  30.721  36.186  1.00  0.00     0.031 C 
ATOM     63  C   UNL A   1      39.593  31.646  34.909  1.00  0.00     0.037 A 
BRANCH  50  64
ATOM     64  C   UNL A   1      36.881  31.531  29.348  1.00  0.00     0.057 A 
ATOM     65  C   UNL A   1      35.778  30.729  29.031  1.00  0.00     0.134 A 
ATOM     66  C   UNL A   1      36.928  32.815  28.783  1.00  0.00     0.134 A 
ATOM     67  F   UNL A   1      35.674  29.488  29.527  1.00  0.00    -0.206 F 
ATOM     68  C   UNL A   1      34.759  31.185  28.192  1.00  0.00     0.040 A 
ATOM     69  C   UNL A   1      35.900  33.292  27.967  1.00  0.00     0.040 A 
ATOM     70  F   UNL A   1      37.952  33.639  29.050  1.00  0.00    -0.206 F 
ATOM     71  C   UNL A   1      34.814  32.475  27.665  1.00  0.00     0.006 A 
ENDBRANCH  50  64
BRANCH  51  72
ATOM     72  C   UNL A   1      44.384  27.959  34.870  1.00  0.00     0.057 A 
ATOM     73  C   UNL A   1      44.228  26.774  35.598  1.00  0.00     0.134 A 
ATOM     74  C   UNL A   1      45.631  28.592  34.927  1.00  0.00     0.134 A 
ATOM     75  F   UNL A   1      43.055  26.124  35.592  1.00  0.00    -0.206 F 
ATOM     76  C   UNL A   1      45.274  26.233  36.347  1.00  0.00     0.040 A 
ATOM     77  C   UNL A   1      46.696  28.047  35.647  1.00  0.00     0.040 A 
ATOM     78  F   UNL A   1      45.848  29.722  34.239  1.00  0.00    -0.206 F 
ATOM     79  C   UNL A   1      46.518  26.864  36.361  1.00  0.00     0.006 A 
ENDBRANCH  51  72
BRANCH  63  80
ATOM     80  C   UNL A   1      39.188  32.387  36.153  1.00  0.00     0.057 A 
ATOM     81  C   UNL A   1      39.671  33.679  36.401  1.00  0.00     0.134 A 
ATOM     82  C   UNL A   1      38.319  31.833  37.104  1.00  0.00     0.134 A 
ATOM     83  F   UNL A   1      40.513  34.269  35.539  1.00  0.00    -0.206 F 
ATOM     84  C   UNL A   1      39.300  34.394  37.541  1.00  0.00     0.040 A 
ATOM     85  C   UNL A   1      37.913  32.552  38.231  1.00  0.00     0.040 A 
ATOM     86  F   UNL A   1      37.807  30.606  36.924  1.00  0.00    -0.206 F 
ATOM     87  C   UNL A   1      38.408  33.836  38.453  1.00  0.00     0.006 A 
ENDBRANCH  63  80
ENDBRANCH  37  38
ENDBRANCH  30  32
ENDBRANCH  29  30
ENDBRANCH  28  29
ENDBRANCH  27  28
ENDBRANCH  26  27
ENDBRANCH   1  26
TORSDOF 18
ENDMDL
