MODEL 1
REMARK VINA RESULT:     -11.2      0.000      0.000
REMARK SMILES N#Cc1ccc(C[N@H+]2CCCC[C@H]2C(=O)OCCOCCOC(=O)c2ccc(-c3c4nc(c(-c5c(F)cccc5F)c5ccc([nH]5)c(-c5c(F)cccc5F)c5nc(c(-c6c(F)cccc6F)c6ccc3[nH]6)C=C5)C=C4)cc2)c(F)c1
REMARK SMILES IDX 18 1 17 2 16 3 14 4 15 5 13 6 8 7 9 8 10 10 12 11 11 12 7 13
REMARK SMILES IDX 6 14 3 15 4 16 81 17 5 18 79 19 80 20 2 21 1 22 19 23 20 24
REMARK SMILES IDX 21 25 22 26 23 27 24 28 25 29 26 30 78 31 27 32 77 33 28 34
REMARK SMILES IDX 29 35 30 36 71 37 31 38 76 39 70 40 72 41 32 42 75 43 69 44
REMARK SMILES IDX 68 45 33 47 59 48 42 49 58 50 43 51 46 52 57 53 73 54 44 55
REMARK SMILES IDX 45 56 56 58 74 59 47 60 34 61 35 62 40 63 36 64 37 65 39 66
REMARK SMILES IDX 41 67 38 68 60 69 61 70 66 71 62 72 63 73 65 74 67 75 64 76
REMARK SMILES IDX 48 77 49 78 54 79 50 80 51 81 53 82 55 83 52 84
REMARK H PARENT 8 9 72 46 46 57
REMARK Flexibility Score: inf
ROOT
ATOM      1  C   UNL A   1      31.289  27.271  26.150  1.00  0.00     0.202 C 
ENDROOT
BRANCH   1   2
ATOM      2  C   UNL A   1      31.934  25.864  26.312  1.00  0.00     0.261 C 
BRANCH   2   3
ATOM      3  O   UNL A   1      32.658  25.262  25.227  1.00  0.00    -0.459 OA
BRANCH   3   4
ATOM      4  C   UNL A   1      32.227  23.992  25.048  1.00  0.00     0.364 C 
ATOM      5  O   UNL A   1      31.097  23.792  24.629  1.00  0.00    -0.245 OA
BRANCH   4   6
ATOM      6  C   UNL A   1      33.187  22.860  25.422  1.00  0.00     0.295 C 
ATOM      7  N   UNL A   1      33.672  22.117  24.217  1.00  0.00    -0.319 N 
ATOM      8  C   UNL A   1      34.463  22.955  23.312  1.00  0.00     0.263 C 
ATOM      9  H   UNL A   1      34.322  21.435  24.606  1.00  0.00     0.349 HD
ATOM     10  C   UNL A   1      35.635  23.661  24.017  1.00  0.00     0.062 C 
ATOM     11  C   UNL A   1      34.402  23.366  26.213  1.00  0.00     0.078 C 
ATOM     12  C   UNL A   1      35.310  24.264  25.383  1.00  0.00     0.013 C 
BRANCH   7  13
ATOM     13  C   UNL A   1      32.695  21.209  23.546  1.00  0.00     0.302 C 
BRANCH  13  14
ATOM     14  C   UNL A   1      32.528  19.770  24.017  1.00  0.00     0.042 A 
ATOM     15  C   UNL A   1      32.941  17.071  24.754  1.00  0.00     0.055 A 
ATOM     16  C   UNL A   1      32.903  18.073  25.733  1.00  0.00     0.020 A 
ATOM     17  C   UNL A   1      32.632  17.392  23.429  1.00  0.00     0.059 A 
ATOM     18  C   UNL A   1      32.690  19.414  25.370  1.00  0.00     0.014 A 
ATOM     19  C   UNL A   1      32.415  18.728  23.076  1.00  0.00     0.133 A 
ATOM     20  F   UNL A   1      32.302  19.022  21.771  1.00  0.00    -0.206 F 
BRANCH  15  21
ATOM     21  C   UNL A   1      33.403  15.754  25.079  1.00  0.00     0.099 C 
ATOM     22  N   UNL A   1      33.799  14.700  25.375  1.00  0.00    -0.192 NA
ENDBRANCH  15  21
ENDBRANCH  13  14
ENDBRANCH   7  13
ENDBRANCH   4   6
ENDBRANCH   3   4
ENDBRANCH   2   3
ENDBRANCH   1   2
BRANCH   1  23
ATOM     23  O   UNL A   1      31.448  28.157  25.051  1.00  0.00    -0.374 OA
BRANCH  23  24
ATOM     24  C   UNL A   1      32.245  29.331  25.135  1.00  0.00     0.202 C 
BRANCH  24  25
ATOM     25  C   UNL A   1      31.784  30.553  25.923  1.00  0.00     0.261 C 
BRANCH  25  26
ATOM     26  O   UNL A   1      32.376  30.633  27.221  1.00  0.00    -0.460 OA
BRANCH  26  27
ATOM     27  C   UNL A   1      33.115  31.754  27.388  1.00  0.00     0.338 C 
ATOM     28  O   UNL A   1      32.724  32.908  27.416  1.00  0.00    -0.246 OA
BRANCH  27  29
ATOM     29  C   UNL A   1      34.485  31.388  27.768  1.00  0.00     0.060 A 
ATOM     30  C   UNL A   1      34.741  30.025  27.974  1.00  0.00     0.016 A 
ATOM     31  C   UNL A   1      35.464  32.354  27.996  1.00  0.00     0.016 A 
ATOM     32  C   UNL A   1      35.962  29.619  28.477  1.00  0.00     0.010 A 
ATOM     33  C   UNL A   1      36.682  31.948  28.539  1.00  0.00     0.010 A 
ATOM     34  C   UNL A   1      36.906  30.588  28.827  1.00  0.00    -0.014 A 
BRANCH  34  35
ATOM     35  C   UNL A   1      38.022  30.178  29.696  1.00  0.00     0.031 A 
ATOM     36  C   UNL A   1      39.067  29.261  29.129  1.00  0.00     0.074 A 
ATOM     37  C   UNL A   1      38.141  30.691  30.930  1.00  0.00     0.049 A 
ATOM     38  N   UNL A   1      40.127  28.756  29.702  1.00  0.00    -0.248 NA
ATOM     39  C   UNL A   1      38.892  28.860  27.722  1.00  0.00     0.031 C 
ATOM     40  C   UNL A   1      37.223  31.654  31.536  1.00  0.00     0.029 A 
ATOM     41  N   UNL A   1      39.093  30.474  31.889  1.00  0.00    -0.354 N 
ATOM     42  C   UNL A   1      40.738  27.971  28.733  1.00  0.00     0.074 A 
ATOM     43  C   UNL A   1      39.912  28.033  27.549  1.00  0.00     0.031 C 
ATOM     44  C   UNL A   1      37.657  31.945  32.773  1.00  0.00     0.029 A 
ATOM     45  C   UNL A   1      38.852  31.154  33.055  1.00  0.00     0.049 A 
ATOM     46  H   UNL A   1      39.872  29.888  31.755  1.00  0.00     0.167 HD
ATOM     47  C   UNL A   1      41.891  27.269  28.827  1.00  0.00     0.037 A 
ATOM     48  C   UNL A   1      39.517  31.115  34.224  1.00  0.00     0.037 A 
ATOM     49  C   UNL A   1      42.695  27.215  30.019  1.00  0.00     0.049 A 
ATOM     50  C   UNL A   1      40.735  30.237  34.337  1.00  0.00     0.074 A 
ATOM     51  C   UNL A   1      43.880  26.534  30.230  1.00  0.00     0.029 A 
ATOM     52  N   UNL A   1      42.387  27.863  31.208  1.00  0.00    -0.354 N 
ATOM     53  N   UNL A   1      41.311  29.496  33.422  1.00  0.00    -0.248 NA
ATOM     54  C   UNL A   1      41.393  30.193  35.648  1.00  0.00     0.031 C 
ATOM     55  C   UNL A   1      44.251  26.712  31.567  1.00  0.00     0.029 A 
ATOM     56  C   UNL A   1      43.340  27.568  32.168  1.00  0.00     0.049 A 
ATOM     57  H   UNL A   1      41.607  28.446  31.348  1.00  0.00     0.167 HD
ATOM     58  C   UNL A   1      42.421  28.928  34.034  1.00  0.00     0.074 A 
ATOM     59  C   UNL A   1      42.441  29.423  35.395  1.00  0.00     0.031 C 
ATOM     60  C   UNL A   1      43.344  28.078  33.517  1.00  0.00     0.037 A 
BRANCH  47  61
ATOM     61  C   UNL A   1      42.316  26.472  27.626  1.00  0.00     0.057 A 
ATOM     62  C   UNL A   1      43.135  27.008  26.622  1.00  0.00     0.134 A 
ATOM     63  C   UNL A   1      41.900  25.143  27.473  1.00  0.00     0.134 A 
ATOM     64  F   UNL A   1      43.557  28.279  26.696  1.00  0.00    -0.206 F 
ATOM     65  C   UNL A   1      43.497  26.263  25.498  1.00  0.00     0.040 A 
ATOM     66  C   UNL A   1      42.284  24.377  26.371  1.00  0.00     0.040 A 
ATOM     67  F   UNL A   1      41.118  24.563  28.396  1.00  0.00    -0.206 F 
ATOM     68  C   UNL A   1      43.075  24.941  25.373  1.00  0.00     0.006 A 
ENDBRANCH  47  61
BRANCH  48  69
ATOM     69  C   UNL A   1      39.040  31.919  35.377  1.00  0.00     0.057 A 
ATOM     70  C   UNL A   1      39.400  33.264  35.519  1.00  0.00     0.134 A 
ATOM     71  C   UNL A   1      38.228  31.359  36.372  1.00  0.00     0.134 A 
ATOM     72  F   UNL A   1      40.190  33.851  34.608  1.00  0.00    -0.206 F 
ATOM     73  C   UNL A   1      38.990  34.016  36.620  1.00  0.00     0.040 A 
ATOM     74  C   UNL A   1      37.784  32.109  37.461  1.00  0.00     0.040 A 
ATOM     75  F   UNL A   1      37.840  30.078  36.291  1.00  0.00    -0.206 F 
ATOM     76  C   UNL A   1      38.176  33.440  37.593  1.00  0.00     0.006 A 
ENDBRANCH  48  69
BRANCH  60  77
ATOM     77  C   UNL A   1      44.479  27.669  34.414  1.00  0.00     0.057 A 
ATOM     78  C   UNL A   1      45.667  28.407  34.499  1.00  0.00     0.134 A 
ATOM     79  C   UNL A   1      44.364  26.538  35.233  1.00  0.00     0.134 A 
ATOM     80  F   UNL A   1      45.849  29.495  33.735  1.00  0.00    -0.206 F 
ATOM     81  C   UNL A   1      46.710  28.015  35.340  1.00  0.00     0.040 A 
ATOM     82  C   UNL A   1      45.385  26.158  36.105  1.00  0.00     0.040 A 
ATOM     83  F   UNL A   1      43.249  25.792  35.213  1.00  0.00    -0.206 F 
ATOM     84  C   UNL A   1      46.567  26.893  36.152  1.00  0.00     0.006 A 
ENDBRANCH  60  77
ENDBRANCH  34  35
ENDBRANCH  27  29
ENDBRANCH  26  27
ENDBRANCH  25  26
ENDBRANCH  24  25
ENDBRANCH  23  24
ENDBRANCH   1  23
TORSDOF 17
ENDMDL
MODEL 2
REMARK VINA RESULT:     -10.8      1.181      6.463
REMARK SMILES N#Cc1ccc(C[N@H+]2CCCC[C@H]2C(=O)OCCOCCOC(=O)c2ccc(-c3c4nc(c(-c5c(F)cccc5F)c5ccc([nH]5)c(-c5c(F)cccc5F)c5nc(c(-c6c(F)cccc6F)c6ccc3[nH]6)C=C5)C=C4)cc2)c(F)c1
REMARK SMILES IDX 18 1 17 2 16 3 14 4 15 5 13 6 8 7 9 8 10 10 12 11 11 12 7 13
REMARK SMILES IDX 6 14 3 15 4 16 81 17 5 18 79 19 80 20 2 21 1 22 19 23 20 24
REMARK SMILES IDX 21 25 22 26 23 27 24 28 25 29 26 30 78 31 27 32 77 33 28 34
REMARK SMILES IDX 29 35 30 36 71 37 31 38 76 39 70 40 72 41 32 42 75 43 69 44
REMARK SMILES IDX 68 45 33 47 59 48 42 49 58 50 43 51 46 52 57 53 73 54 44 55
REMARK SMILES IDX 45 56 56 58 74 59 47 60 34 61 35 62 40 63 36 64 37 65 39 66
REMARK SMILES IDX 41 67 38 68 60 69 61 70 66 71 62 72 63 73 65 74 67 75 64 76
REMARK SMILES IDX 48 77 49 78 54 79 50 80 51 81 53 82 55 83 52 84
REMARK H PARENT 8 9 72 46 46 57
REMARK Flexibility Score: inf
ROOT
ATOM      1  C   UNL A   1      32.297  28.958  23.284  1.00  0.00     0.202 C 
ENDROOT
BRANCH   1   2
ATOM      2  C   UNL A   1      32.846  27.610  22.733  1.00  0.00     0.261 C 
BRANCH   2   3
ATOM      3  O   UNL A   1      31.949  26.607  22.228  1.00  0.00    -0.459 OA
BRANCH   3   4
ATOM      4  C   UNL A   1      32.508  25.385  22.382  1.00  0.00     0.364 C 
ATOM      5  O   UNL A   1      33.650  25.190  21.995  1.00  0.00    -0.245 OA
BRANCH   4   6
ATOM      6  C   UNL A   1      31.645  24.289  23.013  1.00  0.00     0.295 C 
ATOM      7  N   UNL A   1      32.331  23.634  24.170  1.00  0.00    -0.319 N 
ATOM      8  C   UNL A   1      32.580  24.557  25.280  1.00  0.00     0.263 C 
ATOM      9  H   UNL A   1      31.637  22.969  24.510  1.00  0.00     0.349 HD
ATOM     10  C   UNL A   1      31.310  25.288  25.750  1.00  0.00     0.062 C 
ATOM     11  C   UNL A   1      30.282  24.818  23.480  1.00  0.00     0.078 C 
ATOM     12  C   UNL A   1      30.401  25.804  24.636  1.00  0.00     0.013 C 
BRANCH   7  13
ATOM     13  C   UNL A   1      33.459  22.709  23.850  1.00  0.00     0.302 C 
BRANCH  13  14
ATOM     14  C   UNL A   1      33.315  21.209  24.071  1.00  0.00     0.042 A 
ATOM     15  C   UNL A   1      33.508  18.392  23.909  1.00  0.00     0.055 A 
ATOM     16  C   UNL A   1      34.290  19.102  24.830  1.00  0.00     0.020 A 
ATOM     17  C   UNL A   1      32.532  19.067  23.171  1.00  0.00     0.059 A 
ATOM     18  C   UNL A   1      34.189  20.502  24.918  1.00  0.00     0.014 A 
ATOM     19  C   UNL A   1      32.433  20.459  23.268  1.00  0.00     0.133 A 
ATOM     20  F   UNL A   1      31.612  21.092  22.415  1.00  0.00    -0.206 F 
BRANCH  15  21
ATOM     21  C   UNL A   1      33.781  17.012  23.636  1.00  0.00     0.099 C 
ATOM     22  N   UNL A   1      33.977  15.892  23.383  1.00  0.00    -0.192 NA
ENDBRANCH  15  21
ENDBRANCH  13  14
ENDBRANCH   7  13
ENDBRANCH   4   6
ENDBRANCH   3   4
ENDBRANCH   2   3
ENDBRANCH   1   2
BRANCH   1  23
ATOM     23  O   UNL A   1      31.256  29.127  24.236  1.00  0.00    -0.374 OA
BRANCH  23  24
ATOM     24  C   UNL A   1      31.418  29.926  25.400  1.00  0.00     0.202 C 
BRANCH  24  25
ATOM     25  C   UNL A   1      32.795  30.384  25.868  1.00  0.00     0.261 C 
BRANCH  25  26
ATOM     26  O   UNL A   1      32.849  30.633  27.274  1.00  0.00    -0.460 OA
BRANCH  26  27
ATOM     27  C   UNL A   1      33.605  31.712  27.583  1.00  0.00     0.338 C 
ATOM     28  O   UNL A   1      33.229  32.857  27.770  1.00  0.00    -0.246 OA
BRANCH  27  29
ATOM     29  C   UNL A   1      34.973  31.282  27.897  1.00  0.00     0.060 A 
ATOM     30  C   UNL A   1      35.164  29.915  28.144  1.00  0.00     0.016 A 
ATOM     31  C   UNL A   1      36.016  32.197  28.028  1.00  0.00     0.016 A 
ATOM     32  C   UNL A   1      36.388  29.458  28.592  1.00  0.00     0.010 A 
ATOM     33  C   UNL A   1      37.240  31.742  28.515  1.00  0.00     0.010 A 
ATOM     34  C   UNL A   1      37.405  30.383  28.845  1.00  0.00    -0.014 A 
BRANCH  34  35
ATOM     35  C   UNL A   1      38.547  29.942  29.664  1.00  0.00     0.031 A 
ATOM     36  C   UNL A   1      38.658  30.459  31.070  1.00  0.00     0.074 A 
ATOM     37  C   UNL A   1      39.408  29.032  29.187  1.00  0.00     0.049 A 
ATOM     38  N   UNL A   1      39.576  30.225  31.970  1.00  0.00    -0.248 NA
ATOM     39  C   UNL A   1      37.585  31.362  31.522  1.00  0.00     0.031 C 
ATOM     40  C   UNL A   1      39.333  28.408  27.867  1.00  0.00     0.029 A 
ATOM     41  N   UNL A   1      40.511  28.468  29.770  1.00  0.00    -0.354 N 
ATOM     42  C   UNL A   1      39.199  30.959  33.087  1.00  0.00     0.074 A 
ATOM     43  C   UNL A   1      37.993  31.676  32.741  1.00  0.00     0.031 C 
ATOM     44  C   UNL A   1      40.355  27.546  27.737  1.00  0.00     0.029 A 
ATOM     45  C   UNL A   1      41.173  27.595  28.946  1.00  0.00     0.049 A 
ATOM     46  H   UNL A   1      40.801  28.671  30.689  1.00  0.00     0.167 HD
ATOM     47  C   UNL A   1      39.806  31.019  34.296  1.00  0.00     0.037 A 
ATOM     48  C   UNL A   1      42.327  26.933  29.146  1.00  0.00     0.037 A 
ATOM     49  C   UNL A   1      41.012  30.301  34.616  1.00  0.00     0.049 A 
ATOM     50  C   UNL A   1      43.043  27.104  30.460  1.00  0.00     0.074 A 
ATOM     51  C   UNL A   1      41.717  30.288  35.806  1.00  0.00     0.029 A 
ATOM     52  N   UNL A   1      41.696  29.476  33.734  1.00  0.00    -0.354 N 
ATOM     53  N   UNL A   1      42.687  27.797  31.515  1.00  0.00    -0.248 NA
ATOM     54  C   UNL A   1      44.322  26.399  30.607  1.00  0.00     0.031 C 
ATOM     55  C   UNL A   1      42.865  29.512  35.621  1.00  0.00     0.029 A 
ATOM     56  C   UNL A   1      42.836  28.977  34.341  1.00  0.00     0.049 A 
ATOM     57  H   UNL A   1      41.413  29.274  32.813  1.00  0.00     0.167 HD
ATOM     58  C   UNL A   1      43.676  27.581  32.465  1.00  0.00     0.074 A 
ATOM     59  C   UNL A   1      44.639  26.682  31.862  1.00  0.00     0.031 C 
ATOM     60  C   UNL A   1      43.779  28.077  33.724  1.00  0.00     0.037 A 
BRANCH  47  61
ATOM     61  C   UNL A   1      39.199  31.923  35.331  1.00  0.00     0.057 A 
ATOM     62  C   UNL A   1      38.333  31.448  36.326  1.00  0.00     0.134 A 
ATOM     63  C   UNL A   1      39.491  33.293  35.334  1.00  0.00     0.134 A 
ATOM     64  F   UNL A   1      37.998  30.150  36.373  1.00  0.00    -0.206 F 
ATOM     65  C   UNL A   1      37.755  32.307  37.263  1.00  0.00     0.040 A 
ATOM     66  C   UNL A   1      38.947  34.155  36.287  1.00  0.00     0.040 A 
ATOM     67  F   UNL A   1      40.315  33.817  34.415  1.00  0.00    -0.206 F 
ATOM     68  C   UNL A   1      38.067  33.665  37.249  1.00  0.00     0.006 A 
ENDBRANCH  47  61
BRANCH  48  69
ATOM     69  C   UNL A   1      42.880  26.062  28.079  1.00  0.00     0.057 A 
ATOM     70  C   UNL A   1      42.475  24.729  27.952  1.00  0.00     0.134 A 
ATOM     71  C   UNL A   1      43.835  26.536  27.171  1.00  0.00     0.134 A 
ATOM     72  F   UNL A   1      41.576  24.213  28.803  1.00  0.00    -0.206 F 
ATOM     73  C   UNL A   1      43.018  23.891  26.978  1.00  0.00     0.040 A 
ATOM     74  C   UNL A   1      44.362  25.718  26.171  1.00  0.00     0.040 A 
ATOM     75  F   UNL A   1      44.259  27.807  27.231  1.00  0.00    -0.206 F 
ATOM     76  C   UNL A   1      43.962  24.387  26.080  1.00  0.00     0.006 A 
ENDBRANCH  48  69
BRANCH  60  77
ATOM     77  C   UNL A   1      44.948  27.617  34.550  1.00  0.00     0.057 A 
ATOM     78  C   UNL A   1      46.154  28.327  34.597  1.00  0.00     0.134 A 
ATOM     79  C   UNL A   1      44.848  26.463  35.338  1.00  0.00     0.134 A 
ATOM     80  F   UNL A   1      46.323  29.434  33.859  1.00  0.00    -0.206 F 
ATOM     81  C   UNL A   1      47.229  27.887  35.372  1.00  0.00     0.040 A 
ATOM     82  C   UNL A   1      45.902  26.034  36.146  1.00  0.00     0.040 A 
ATOM     83  F   UNL A   1      43.717  25.741  35.351  1.00  0.00    -0.206 F 
ATOM     84  C   UNL A   1      47.101  26.743  36.156  1.00  0.00     0.006 A 
ENDBRANCH  60  77
ENDBRANCH  34  35
ENDBRANCH  27  29
ENDBRANCH  26  27
ENDBRANCH  25  26
ENDBRANCH  24  25
ENDBRANCH  23  24
ENDBRANCH   1  23
TORSDOF 17
ENDMDL
MODEL 3
REMARK VINA RESULT:     -10.8      4.209      9.310
REMARK SMILES N#Cc1ccc(C[N@H+]2CCCC[C@H]2C(=O)OCCOCCOC(=O)c2ccc(-c3c4nc(c(-c5c(F)cccc5F)c5ccc([nH]5)c(-c5c(F)cccc5F)c5nc(c(-c6c(F)cccc6F)c6ccc3[nH]6)C=C5)C=C4)cc2)c(F)c1
REMARK SMILES IDX 18 1 17 2 16 3 14 4 15 5 13 6 8 7 9 8 10 10 12 11 11 12 7 13
REMARK SMILES IDX 6 14 3 15 4 16 81 17 5 18 79 19 80 20 2 21 1 22 19 23 20 24
REMARK SMILES IDX 21 25 22 26 23 27 24 28 25 29 26 30 78 31 27 32 77 33 28 34
REMARK SMILES IDX 29 35 30 36 71 37 31 38 76 39 70 40 72 41 32 42 75 43 69 44
REMARK SMILES IDX 68 45 33 47 59 48 42 49 58 50 43 51 46 52 57 53 73 54 44 55
REMARK SMILES IDX 45 56 56 58 74 59 47 60 34 61 35 62 40 63 36 64 37 65 39 66
REMARK SMILES IDX 41 67 38 68 60 69 61 70 66 71 62 72 63 73 65 74 67 75 64 76
REMARK SMILES IDX 48 77 49 78 54 79 50 80 51 81 53 82 55 83 52 84
REMARK H PARENT 8 9 72 46 46 57
REMARK Flexibility Score: inf
ROOT
ATOM      1  C   UNL A   1      33.553  20.907  26.396  1.00  0.00     0.202 C 
ENDROOT
BRANCH   1   2
ATOM      2  C   UNL A   1      32.931  22.333  26.440  1.00  0.00     0.261 C 
BRANCH   2   3
ATOM      3  O   UNL A   1      33.768  23.498  26.384  1.00  0.00    -0.459 OA
BRANCH   3   4
ATOM      4  C   UNL A   1      33.671  24.065  25.159  1.00  0.00     0.364 C 
ATOM      5  O   UNL A   1      34.659  24.565  24.645  1.00  0.00    -0.245 OA
BRANCH   4   6
ATOM      6  C   UNL A   1      32.292  24.075  24.493  1.00  0.00     0.295 C 
ATOM      7  N   UNL A   1      31.871  25.456  24.101  1.00  0.00    -0.319 N 
ATOM      8  C   UNL A   1      32.747  26.052  23.089  1.00  0.00     0.263 C 
ATOM      9  H   UNL A   1      30.973  25.308  23.641  1.00  0.00     0.349 HD
ATOM     10  C   UNL A   1      32.913  25.165  21.842  1.00  0.00     0.062 C 
ATOM     11  C   UNL A   1      32.237  23.171  23.254  1.00  0.00     0.078 C 
ATOM     12  C   UNL A   1      33.119  23.677  22.119  1.00  0.00     0.013 C 
BRANCH   7  13
ATOM     13  C   UNL A   1      31.462  26.375  25.204  1.00  0.00     0.302 C 
BRANCH  13  14
ATOM     14  C   UNL A   1      32.281  27.621  25.516  1.00  0.00     0.042 A 
ATOM     15  C   UNL A   1      33.369  29.954  26.688  1.00  0.00     0.055 A 
ATOM     16  C   UNL A   1      33.999  28.714  26.865  1.00  0.00     0.020 A 
ATOM     17  C   UNL A   1      32.284  30.055  25.813  1.00  0.00     0.059 A 
ATOM     18  C   UNL A   1      33.464  27.555  26.276  1.00  0.00     0.014 A 
ATOM     19  C   UNL A   1      31.760  28.898  25.227  1.00  0.00     0.133 A 
ATOM     20  F   UNL A   1      30.612  29.006  24.540  1.00  0.00    -0.206 F 
BRANCH  15  21
ATOM     21  C   UNL A   1      33.755  31.084  27.479  1.00  0.00     0.099 C 
ATOM     22  N   UNL A   1      34.066  31.980  28.156  1.00  0.00    -0.192 NA
ENDBRANCH  15  21
ENDBRANCH  13  14
ENDBRANCH   7  13
ENDBRANCH   4   6
ENDBRANCH   3   4
ENDBRANCH   2   3
ENDBRANCH   1   2
BRANCH   1  23
ATOM     23  O   UNL A   1      34.281  20.330  25.322  1.00  0.00    -0.374 OA
BRANCH  23  24
ATOM     24  C   UNL A   1      35.446  20.940  24.784  1.00  0.00     0.202 C 
BRANCH  24  25
ATOM     25  C   UNL A   1      36.600  21.383  25.678  1.00  0.00     0.261 C 
BRANCH  25  26
ATOM     26  O   UNL A   1      37.840  21.484  24.975  1.00  0.00    -0.460 OA
BRANCH  26  27
ATOM     27  C   UNL A   1      38.903  21.156  25.746  1.00  0.00     0.338 C 
ATOM     28  O   UNL A   1      39.529  20.110  25.748  1.00  0.00    -0.246 OA
BRANCH  27  29
ATOM     29  C   UNL A   1      39.378  22.347  26.462  1.00  0.00     0.060 A 
ATOM     30  C   UNL A   1      38.808  23.574  26.093  1.00  0.00     0.016 A 
ATOM     31  C   UNL A   1      40.405  22.276  27.401  1.00  0.00     0.016 A 
ATOM     32  C   UNL A   1      39.308  24.752  26.614  1.00  0.00     0.010 A 
ATOM     33  C   UNL A   1      40.934  23.466  27.897  1.00  0.00     0.010 A 
ATOM     34  C   UNL A   1      40.419  24.701  27.461  1.00  0.00    -0.014 A 
BRANCH  34  35
ATOM     35  C   UNL A   1      41.162  25.951  27.697  1.00  0.00     0.031 A 
ATOM     36  C   UNL A   1      40.495  27.037  28.492  1.00  0.00     0.074 A 
ATOM     37  C   UNL A   1      42.433  26.068  27.287  1.00  0.00     0.049 A 
ATOM     38  N   UNL A   1      40.941  28.221  28.814  1.00  0.00    -0.248 NA
ATOM     39  C   UNL A   1      39.140  26.745  28.991  1.00  0.00     0.031 C 
ATOM     40  C   UNL A   1      43.192  25.036  26.584  1.00  0.00     0.029 A 
ATOM     41  N   UNL A   1      43.310  27.111  27.415  1.00  0.00    -0.354 N 
ATOM     42  C   UNL A   1      39.921  28.820  29.542  1.00  0.00     0.074 A 
ATOM     43  C   UNL A   1      38.819  27.885  29.581  1.00  0.00     0.031 C 
ATOM     44  C   UNL A   1      44.428  25.501  26.338  1.00  0.00     0.029 A 
ATOM     45  C   UNL A   1      44.525  26.873  26.826  1.00  0.00     0.049 A 
ATOM     46  H   UNL A   1      43.089  27.949  27.883  1.00  0.00     0.167 HD
ATOM     47  C   UNL A   1      39.913  30.038  30.131  1.00  0.00     0.037 A 
ATOM     48  C   UNL A   1      45.583  27.692  26.680  1.00  0.00     0.037 A 
ATOM     49  C   UNL A   1      41.020  30.956  30.074  1.00  0.00     0.049 A 
ATOM     50  C   UNL A   1      45.506  29.084  27.247  1.00  0.00     0.074 A 
ATOM     51  C   UNL A   1      41.124  32.218  30.630  1.00  0.00     0.029 A 
ATOM     52  N   UNL A   1      42.214  30.711  29.409  1.00  0.00    -0.354 N 
ATOM     53  N   UNL A   1      44.543  29.648  27.935  1.00  0.00    -0.248 NA
ATOM     54  C   UNL A   1      46.668  29.952  27.017  1.00  0.00     0.031 C 
ATOM     55  C   UNL A   1      42.351  32.764  30.242  1.00  0.00     0.029 A 
ATOM     56  C   UNL A   1      43.046  31.813  29.510  1.00  0.00     0.049 A 
ATOM     57  H   UNL A   1      42.436  29.877  28.936  1.00  0.00     0.167 HD
ATOM     58  C   UNL A   1      44.996  30.922  28.253  1.00  0.00     0.074 A 
ATOM     59  C   UNL A   1      46.327  31.039  27.692  1.00  0.00     0.031 C 
ATOM     60  C   UNL A   1      44.372  31.906  28.949  1.00  0.00     0.037 A 
BRANCH  47  61
ATOM     61  C   UNL A   1      38.656  30.456  30.841  1.00  0.00     0.057 A 
ATOM     62  C   UNL A   1      38.416  30.145  32.186  1.00  0.00     0.134 A 
ATOM     63  C   UNL A   1      37.671  31.188  30.165  1.00  0.00     0.134 A 
ATOM     64  F   UNL A   1      39.310  29.434  32.890  1.00  0.00    -0.206 F 
ATOM     65  C   UNL A   1      37.229  30.516  32.822  1.00  0.00     0.040 A 
ATOM     66  C   UNL A   1      36.496  31.595  30.800  1.00  0.00     0.040 A 
ATOM     67  F   UNL A   1      37.834  31.525  28.877  1.00  0.00    -0.206 F 
ATOM     68  C   UNL A   1      36.268  31.249  32.129  1.00  0.00     0.006 A 
ENDBRANCH  47  61
BRANCH  48  69
ATOM     69  C   UNL A   1      46.792  27.222  25.959  1.00  0.00     0.057 A 
ATOM     70  C   UNL A   1      46.950  27.451  24.588  1.00  0.00     0.134 A 
ATOM     71  C   UNL A   1      47.810  26.521  26.618  1.00  0.00     0.134 A 
ATOM     72  F   UNL A   1      46.002  28.101  23.898  1.00  0.00    -0.206 F 
ATOM     73  C   UNL A   1      48.064  26.978  23.892  1.00  0.00     0.040 A 
ATOM     74  C   UNL A   1      48.944  26.071  25.942  1.00  0.00     0.040 A 
ATOM     75  F   UNL A   1      47.725  26.277  27.934  1.00  0.00    -0.206 F 
ATOM     76  C   UNL A   1      49.068  26.290  24.571  1.00  0.00     0.006 A 
ENDBRANCH  48  69
BRANCH  60  77
ATOM     77  C   UNL A   1      45.142  33.175  29.185  1.00  0.00     0.057 A 
ATOM     78  C   UNL A   1      45.141  34.231  28.265  1.00  0.00     0.134 A 
ATOM     79  C   UNL A   1      45.866  33.354  30.371  1.00  0.00     0.134 A 
ATOM     80  F   UNL A   1      44.478  34.123  27.104  1.00  0.00    -0.206 F 
ATOM     81  C   UNL A   1      45.860  35.405  28.502  1.00  0.00     0.040 A 
ATOM     82  C   UNL A   1      46.557  34.537  30.636  1.00  0.00     0.040 A 
ATOM     83  F   UNL A   1      45.900  32.389  31.302  1.00  0.00    -0.206 F 
ATOM     84  C   UNL A   1      46.563  35.563  29.694  1.00  0.00     0.006 A 
ENDBRANCH  60  77
ENDBRANCH  34  35
ENDBRANCH  27  29
ENDBRANCH  26  27
ENDBRANCH  25  26
ENDBRANCH  24  25
ENDBRANCH  23  24
ENDBRANCH   1  23
TORSDOF 17
ENDMDL
