MODEL 1
REMARK VINA RESULT:     -11.8      0.000      0.000
REMARK SMILES Cc1ccccc1NC(=O)NC[C@@H]1CC[C@@H](C(=O)OCCOCCOC(=O)c2ccc(-c3c4nc(c(-c5c(F)cccc5F)c5ccc([nH]5)c(-c5c(F)cccc5F)c5nc(c(-c6c(F)cccc6F)c6ccc3[nH]6)C=C5)C=C4)cc2)O1
REMARK SMILES IDX 21 1 20 2 19 3 17 4 18 5 16 6 13 7 14 8 82 9 15 10 12 11
REMARK SMILES IDX 11 12 8 13 9 14 10 16 7 18 1 19 2 20 3 21 4 22 6 23 5 24
REMARK SMILES IDX 22 25 23 26 24 27 25 28 26 29 27 30 28 31 29 32 81 33 30 34
REMARK SMILES IDX 80 35 31 36 32 37 33 38 74 39 34 40 79 41 73 42 75 43 35 44
REMARK SMILES IDX 78 45 72 46 71 47 36 49 62 50 45 51 61 52 46 53 49 54 60 55
REMARK SMILES IDX 76 56 47 57 48 58 59 60 77 61 50 62 37 63 38 64 43 65 39 66
REMARK SMILES IDX 40 67 42 68 44 69 41 70 63 71 64 72 69 73 65 74 66 75 68 76
REMARK SMILES IDX 70 77 67 78 51 79 52 80 57 81 53 82 54 83 56 84 58 85 55 86
REMARK H PARENT 8 15 11 17 75 48 49 59
REMARK Flexibility Score: inf
ROOT
ATOM      1  C   UNL A   1      40.964  19.862  26.655  1.00  0.00     0.202 C 
ENDROOT
BRANCH   1   2
ATOM      2  C   UNL A   1      40.446  21.118  26.008  1.00  0.00     0.261 C 
BRANCH   2   3
ATOM      3  O   UNL A   1      39.012  21.156  25.903  1.00  0.00    -0.461 OA
BRANCH   3   4
ATOM      4  C   UNL A   1      38.375  22.371  25.946  1.00  0.00     0.335 C 
ATOM      5  O   UNL A   1      38.868  23.429  26.323  1.00  0.00    -0.249 OA
BRANCH   4   6
ATOM      6  C   UNL A   1      36.961  22.214  25.399  1.00  0.00     0.228 C 
ATOM      7  C   UNL A   1      35.857  24.047  24.463  1.00  0.00     0.138 C 
ATOM      8  C   UNL A   1      35.914  22.962  23.406  1.00  0.00     0.037 C 
ATOM      9  O   UNL A   1      36.126  23.354  25.693  1.00  0.00    -0.361 OA
ATOM     10  C   UNL A   1      37.009  22.077  23.886  1.00  0.00     0.047 C 
BRANCH   7  11
ATOM     11  C   UNL A   1      34.504  24.780  24.513  1.00  0.00     0.149 C 
BRANCH  11  12
ATOM     12  N   UNL A   1      34.029  25.131  23.176  1.00  0.00    -0.335 N 
ATOM     13  N   UNL A   1      32.163  23.748  22.548  1.00  0.00    -0.308 N 
ATOM     14  C   UNL A   1      33.011  24.778  22.385  1.00  0.00     0.319 C 
ATOM     15  H   UNL A   1      31.362  23.857  21.986  1.00  0.00     0.171 HD
ATOM     16  O   UNL A   1      32.793  25.521  21.419  1.00  0.00    -0.249 OA
ATOM     17  H   UNL A   1      34.609  25.800  22.747  1.00  0.00     0.165 HD
BRANCH  13  18
ATOM     18  C   UNL A   1      32.097  22.557  23.293  1.00  0.00     0.045 A 
ATOM     19  C   UNL A   1      31.117  23.736  25.360  1.00  0.00     0.046 C 
ATOM     20  C   UNL A   1      31.731  22.560  24.653  1.00  0.00    -0.027 A 
ATOM     21  C   UNL A   1      31.827  21.366  25.405  1.00  0.00     0.005 A 
ATOM     22  C   UNL A   1      32.233  20.175  24.821  1.00  0.00     0.000 A 
ATOM     23  C   UNL A   1      32.307  21.322  22.707  1.00  0.00     0.026 A 
ATOM     24  C   UNL A   1      32.430  20.146  23.455  1.00  0.00     0.002 A 
ENDBRANCH  13  18
ENDBRANCH  11  12
ENDBRANCH   7  11
ENDBRANCH   4   6
ENDBRANCH   3   4
ENDBRANCH   2   3
ENDBRANCH   1   2
BRANCH   1  25
ATOM     25  O   UNL A   1      41.762  19.210  25.684  1.00  0.00    -0.374 OA
BRANCH  25  26
ATOM     26  C   UNL A   1      42.853  18.449  26.165  1.00  0.00     0.202 C 
BRANCH  26  27
ATOM     27  C   UNL A   1      44.157  18.694  25.391  1.00  0.00     0.261 C 
BRANCH  27  28
ATOM     28  O   UNL A   1      44.086  19.953  24.686  1.00  0.00    -0.460 OA
BRANCH  28  29
ATOM     29  C   UNL A   1      44.909  20.947  25.126  1.00  0.00     0.338 C 
ATOM     30  O   UNL A   1      46.055  20.800  25.512  1.00  0.00    -0.246 OA
BRANCH  29  31
ATOM     31  C   UNL A   1      44.112  22.189  25.357  1.00  0.00     0.060 A 
ATOM     32  C   UNL A   1      44.097  23.216  24.390  1.00  0.00     0.016 A 
ATOM     33  C   UNL A   1      43.700  22.461  26.656  1.00  0.00     0.016 A 
ATOM     34  C   UNL A   1      43.842  24.546  24.771  1.00  0.00     0.010 A 
ATOM     35  C   UNL A   1      43.577  23.775  27.042  1.00  0.00     0.010 A 
ATOM     36  C   UNL A   1      43.682  24.835  26.122  1.00  0.00    -0.014 A 
BRANCH  36  37
ATOM     37  C   UNL A   1      43.713  26.158  26.763  1.00  0.00     0.031 A 
ATOM     38  C   UNL A   1      42.412  26.848  26.935  1.00  0.00     0.074 A 
ATOM     39  C   UNL A   1      44.773  26.544  27.521  1.00  0.00     0.049 A 
ATOM     40  N   UNL A   1      42.267  27.958  27.562  1.00  0.00    -0.248 NA
ATOM     41  C   UNL A   1      41.145  26.351  26.399  1.00  0.00     0.031 C 
ATOM     42  C   UNL A   1      44.763  27.385  28.726  1.00  0.00     0.029 A 
ATOM     43  N   UNL A   1      46.131  26.241  27.385  1.00  0.00    -0.354 N 
ATOM     44  C   UNL A   1      40.932  28.127  27.832  1.00  0.00     0.074 A 
ATOM     45  C   UNL A   1      40.268  27.175  26.981  1.00  0.00     0.031 C 
ATOM     46  C   UNL A   1      46.016  27.760  29.038  1.00  0.00     0.029 A 
ATOM     47  C   UNL A   1      46.870  27.287  27.968  1.00  0.00     0.049 A 
ATOM     48  H   UNL A   1      46.504  25.438  26.955  1.00  0.00     0.167 HD
ATOM     49  C   UNL A   1      40.601  28.987  28.835  1.00  0.00     0.037 A 
ATOM     50  C   UNL A   1      47.742  28.011  27.219  1.00  0.00     0.037 A 
ATOM     51  C   UNL A   1      41.793  29.747  29.253  1.00  0.00     0.049 A 
ATOM     52  C   UNL A   1      47.223  29.419  27.152  1.00  0.00     0.074 A 
ATOM     53  C   UNL A   1      42.595  29.750  30.381  1.00  0.00     0.029 A 
ATOM     54  N   UNL A   1      42.499  30.458  28.278  1.00  0.00    -0.354 N 
ATOM     55  N   UNL A   1      45.959  29.709  27.325  1.00  0.00    -0.248 NA
ATOM     56  C   UNL A   1      48.064  30.605  27.066  1.00  0.00     0.031 C 
ATOM     57  C   UNL A   1      43.821  30.404  30.043  1.00  0.00     0.029 A 
ATOM     58  C   UNL A   1      43.753  30.828  28.722  1.00  0.00     0.049 A 
ATOM     59  H   UNL A   1      42.146  30.670  27.384  1.00  0.00     0.167 HD
ATOM     60  C   UNL A   1      45.821  31.051  27.505  1.00  0.00     0.074 A 
ATOM     61  C   UNL A   1      47.158  31.578  27.280  1.00  0.00     0.031 C 
ATOM     62  C   UNL A   1      44.641  31.627  27.874  1.00  0.00     0.037 A 
BRANCH  49  63
ATOM     63  C   UNL A   1      39.260  29.068  29.544  1.00  0.00     0.057 A 
ATOM     64  C   UNL A   1      38.147  29.636  28.890  1.00  0.00     0.134 A 
ATOM     65  C   UNL A   1      38.994  28.686  30.877  1.00  0.00     0.134 A 
ATOM     66  F   UNL A   1      38.225  30.069  27.623  1.00  0.00    -0.206 F 
ATOM     67  C   UNL A   1      36.894  29.806  29.502  1.00  0.00     0.040 A 
ATOM     68  C   UNL A   1      37.737  28.816  31.488  1.00  0.00     0.040 A 
ATOM     69  F   UNL A   1      39.932  28.201  31.691  1.00  0.00    -0.206 F 
ATOM     70  C   UNL A   1      36.680  29.386  30.803  1.00  0.00     0.006 A 
ENDBRANCH  49  63
BRANCH  50  71
ATOM     71  C   UNL A   1      48.391  27.142  26.189  1.00  0.00     0.057 A 
ATOM     72  C   UNL A   1      47.957  27.338  24.856  1.00  0.00     0.134 A 
ATOM     73  C   UNL A   1      49.697  26.666  26.353  1.00  0.00     0.134 A 
ATOM     74  F   UNL A   1      46.720  27.806  24.616  1.00  0.00    -0.206 F 
ATOM     75  C   UNL A   1      48.828  27.247  23.764  1.00  0.00     0.040 A 
ATOM     76  C   UNL A   1      50.576  26.564  25.259  1.00  0.00     0.040 A 
ATOM     77  F   UNL A   1      50.200  26.468  27.578  1.00  0.00    -0.206 F 
ATOM     78  C   UNL A   1      50.159  26.907  23.972  1.00  0.00     0.006 A 
ENDBRANCH  50  71
BRANCH  62  79
ATOM     79  C   UNL A   1      44.246  33.037  27.507  1.00  0.00     0.057 A 
ATOM     80  C   UNL A   1      44.008  33.464  26.190  1.00  0.00     0.134 A 
ATOM     81  C   UNL A   1      43.894  33.974  28.504  1.00  0.00     0.134 A 
ATOM     82  F   UNL A   1      44.166  32.653  25.136  1.00  0.00    -0.206 F 
ATOM     83  C   UNL A   1      43.528  34.741  25.887  1.00  0.00     0.040 A 
ATOM     84  C   UNL A   1      43.342  35.222  28.214  1.00  0.00     0.040 A 
ATOM     85  F   UNL A   1      44.026  33.712  29.812  1.00  0.00    -0.206 F 
ATOM     86  C   UNL A   1      43.176  35.620  26.900  1.00  0.00     0.006 A 
ENDBRANCH  62  79
ENDBRANCH  36  37
ENDBRANCH  29  31
ENDBRANCH  28  29
ENDBRANCH  27  28
ENDBRANCH  26  27
ENDBRANCH  25  26
ENDBRANCH   1  25
TORSDOF 17
ENDMDL
MODEL 2
REMARK VINA RESULT:     -11.6      5.400     10.964
REMARK SMILES Cc1ccccc1NC(=O)NC[C@@H]1CC[C@@H](C(=O)OCCOCCOC(=O)c2ccc(-c3c4nc(c(-c5c(F)cccc5F)c5ccc([nH]5)c(-c5c(F)cccc5F)c5nc(c(-c6c(F)cccc6F)c6ccc3[nH]6)C=C5)C=C4)cc2)O1
REMARK SMILES IDX 21 1 20 2 19 3 17 4 18 5 16 6 13 7 14 8 82 9 15 10 12 11
REMARK SMILES IDX 11 12 8 13 9 14 10 16 7 18 1 19 2 20 3 21 4 22 6 23 5 24
REMARK SMILES IDX 22 25 23 26 24 27 25 28 26 29 27 30 28 31 29 32 81 33 30 34
REMARK SMILES IDX 80 35 31 36 32 37 33 38 74 39 34 40 79 41 73 42 75 43 35 44
REMARK SMILES IDX 78 45 72 46 71 47 36 49 62 50 45 51 61 52 46 53 49 54 60 55
REMARK SMILES IDX 76 56 47 57 48 58 59 60 77 61 50 62 37 63 38 64 43 65 39 66
REMARK SMILES IDX 40 67 42 68 44 69 41 70 63 71 64 72 69 73 65 74 66 75 68 76
REMARK SMILES IDX 70 77 67 78 51 79 52 80 57 81 53 82 54 83 56 84 58 85 55 86
REMARK H PARENT 8 15 11 17 75 48 49 59
REMARK Flexibility Score: inf
ROOT
ATOM      1  C   UNL A   1      33.119  34.130  28.013  1.00  0.00     0.202 C 
ENDROOT
BRANCH   1   2
ATOM      2  C   UNL A   1      33.929  32.877  28.212  1.00  0.00     0.261 C 
BRANCH   2   3
ATOM      3  O   UNL A   1      33.315  31.705  27.646  1.00  0.00    -0.461 OA
BRANCH   3   4
ATOM      4  C   UNL A   1      34.117  30.682  27.207  1.00  0.00     0.335 C 
ATOM      5  O   UNL A   1      35.279  30.482  27.548  1.00  0.00    -0.249 OA
BRANCH   4   6
ATOM      6  C   UNL A   1      33.321  29.792  26.260  1.00  0.00     0.228 C 
ATOM      7  C   UNL A   1      32.893  27.567  26.825  1.00  0.00     0.138 C 
ATOM      8  C   UNL A   1      31.556  28.246  26.608  1.00  0.00     0.037 C 
ATOM      9  O   UNL A   1      33.841  28.447  26.199  1.00  0.00    -0.361 OA
ATOM     10  C   UNL A   1      31.882  29.691  26.741  1.00  0.00     0.047 C 
BRANCH   7  11
ATOM     11  C   UNL A   1      32.962  26.148  26.230  1.00  0.00     0.149 C 
BRANCH  11  12
ATOM     12  N   UNL A   1      31.926  25.279  26.782  1.00  0.00    -0.335 N 
ATOM     13  N   UNL A   1      30.179  24.910  25.169  1.00  0.00    -0.308 N 
ATOM     14  C   UNL A   1      30.816  24.686  26.332  1.00  0.00     0.319 C 
ATOM     15  H   UNL A   1      29.554  24.178  24.962  1.00  0.00     0.171 HD
ATOM     16  O   UNL A   1      30.354  23.787  27.046  1.00  0.00    -0.249 OA
ATOM     17  H   UNL A   1      32.086  25.079  27.732  1.00  0.00     0.165 HD
BRANCH  13  18
ATOM     18  C   UNL A   1      30.152  25.894  24.165  1.00  0.00     0.045 A 
ATOM     19  C   UNL A   1      32.099  24.827  22.865  1.00  0.00     0.046 C 
ATOM     20  C   UNL A   1      31.129  25.938  23.153  1.00  0.00    -0.027 A 
ATOM     21  C   UNL A   1      31.156  27.032  22.256  1.00  0.00     0.005 A 
ATOM     22  C   UNL A   1      30.212  28.046  22.324  1.00  0.00     0.000 A 
ATOM     23  C   UNL A   1      29.122  26.812  24.078  1.00  0.00     0.026 A 
ATOM     24  C   UNL A   1      29.164  27.910  23.211  1.00  0.00     0.002 A 
ENDBRANCH  13  18
ENDBRANCH  11  12
ENDBRANCH   7  11
ENDBRANCH   4   6
ENDBRANCH   3   4
ENDBRANCH   2   3
ENDBRANCH   1   2
BRANCH   1  25
ATOM     25  O   UNL A   1      33.802  35.163  28.699  1.00  0.00    -0.374 OA
BRANCH  25  26
ATOM     26  C   UNL A   1      33.029  36.273  29.109  1.00  0.00     0.202 C 
BRANCH  26  27
ATOM     27  C   UNL A   1      32.942  36.427  30.635  1.00  0.00     0.261 C 
BRANCH  27  28
ATOM     28  O   UNL A   1      33.149  35.149  31.275  1.00  0.00    -0.460 OA
BRANCH  28  29
ATOM     29  C   UNL A   1      34.272  35.022  32.038  1.00  0.00     0.338 C 
ATOM     30  O   UNL A   1      34.744  35.887  32.755  1.00  0.00    -0.246 OA
BRANCH  29  31
ATOM     31  C   UNL A   1      35.010  33.786  31.639  1.00  0.00     0.060 A 
ATOM     32  C   UNL A   1      34.815  32.580  32.344  1.00  0.00     0.016 A 
ATOM     33  C   UNL A   1      36.127  33.935  30.825  1.00  0.00     0.016 A 
ATOM     34  C   UNL A   1      35.826  31.603  32.372  1.00  0.00     0.010 A 
ATOM     35  C   UNL A   1      37.158  33.035  30.959  1.00  0.00     0.010 A 
ATOM     36  C   UNL A   1      37.042  31.882  31.757  1.00  0.00    -0.014 A 
BRANCH  36  37
ATOM     37  C   UNL A   1      38.312  31.159  31.919  1.00  0.00     0.031 A 
ATOM     38  C   UNL A   1      38.510  29.957  31.073  1.00  0.00     0.074 A 
ATOM     39  C   UNL A   1      39.396  31.762  32.476  1.00  0.00     0.049 A 
ATOM     40  N   UNL A   1      39.600  29.282  31.030  1.00  0.00    -0.248 NA
ATOM     41  C   UNL A   1      37.480  29.392  30.201  1.00  0.00     0.031 C 
ATOM     42  C   UNL A   1      40.812  31.567  32.136  1.00  0.00     0.029 A 
ATOM     43  N   UNL A   1      39.465  32.726  33.486  1.00  0.00    -0.354 N 
ATOM     44  C   UNL A   1      39.561  28.476  29.920  1.00  0.00     0.074 A 
ATOM     45  C   UNL A   1      38.181  28.485  29.514  1.00  0.00     0.031 C 
ATOM     46  C   UNL A   1      41.593  32.133  33.072  1.00  0.00     0.029 A 
ATOM     47  C   UNL A   1      40.712  32.598  34.124  1.00  0.00     0.049 A 
ATOM     48  H   UNL A   1      38.764  33.380  33.711  1.00  0.00     0.167 HD
ATOM     49  C   UNL A   1      40.750  28.009  29.445  1.00  0.00     0.037 A 
ATOM     50  C   UNL A   1      40.778  32.311  35.450  1.00  0.00     0.037 A 
ATOM     51  C   UNL A   1      41.822  28.295  30.417  1.00  0.00     0.049 A 
ATOM     52  C   UNL A   1      41.408  30.955  35.591  1.00  0.00     0.074 A 
ATOM     53  C   UNL A   1      42.902  29.160  30.443  1.00  0.00     0.029 A 
ATOM     54  N   UNL A   1      41.661  27.842  31.730  1.00  0.00    -0.354 N 
ATOM     55  N   UNL A   1      41.383  30.067  34.630  1.00  0.00    -0.248 NA
ATOM     56  C   UNL A   1      42.245  30.546  36.710  1.00  0.00     0.031 C 
ATOM     57  C   UNL A   1      43.336  29.276  31.801  1.00  0.00     0.029 A 
ATOM     58  C   UNL A   1      42.542  28.458  32.596  1.00  0.00     0.049 A 
ATOM     59  H   UNL A   1      41.002  27.164  32.004  1.00  0.00     0.167 HD
ATOM     60  C   UNL A   1      42.264  29.069  34.911  1.00  0.00     0.074 A 
ATOM     61  C   UNL A   1      42.741  29.382  36.249  1.00  0.00     0.031 C 
ATOM     62  C   UNL A   1      42.579  28.090  34.013  1.00  0.00     0.037 A 
BRANCH  49  63
ATOM     63  C   UNL A   1      40.999  27.420  28.068  1.00  0.00     0.057 A 
ATOM     64  C   UNL A   1      40.568  26.110  27.770  1.00  0.00     0.134 A 
ATOM     65  C   UNL A   1      41.711  28.031  27.013  1.00  0.00     0.134 A 
ATOM     66  F   UNL A   1      39.889  25.376  28.664  1.00  0.00    -0.206 F 
ATOM     67  C   UNL A   1      40.819  25.474  26.544  1.00  0.00     0.040 A 
ATOM     68  C   UNL A   1      41.937  27.419  25.769  1.00  0.00     0.040 A 
ATOM     69  F   UNL A   1      42.270  29.237  27.121  1.00  0.00    -0.206 F 
ATOM     70  C   UNL A   1      41.497  26.131  25.531  1.00  0.00     0.006 A 
ENDBRANCH  49  63
BRANCH  50  71
ATOM     71  C   UNL A   1      39.645  32.960  36.180  1.00  0.00     0.057 A 
ATOM     72  C   UNL A   1      38.621  32.091  36.627  1.00  0.00     0.134 A 
ATOM     73  C   UNL A   1      39.831  34.133  36.922  1.00  0.00     0.134 A 
ATOM     74  F   UNL A   1      38.390  30.938  35.975  1.00  0.00    -0.206 F 
ATOM     75  C   UNL A   1      37.953  32.283  37.842  1.00  0.00     0.040 A 
ATOM     76  C   UNL A   1      39.157  34.338  38.140  1.00  0.00     0.040 A 
ATOM     77  F   UNL A   1      40.789  35.006  36.584  1.00  0.00    -0.206 F 
ATOM     78  C   UNL A   1      38.259  33.387  38.628  1.00  0.00     0.006 A 
ENDBRANCH  50  71
BRANCH  62  79
ATOM     79  C   UNL A   1      43.010  26.699  34.409  1.00  0.00     0.057 A 
ATOM     80  C   UNL A   1      42.162  25.764  35.026  1.00  0.00     0.134 A 
ATOM     81  C   UNL A   1      44.256  26.180  33.991  1.00  0.00     0.134 A 
ATOM     82  F   UNL A   1      40.901  26.058  35.365  1.00  0.00    -0.206 F 
ATOM     83  C   UNL A   1      42.549  24.444  35.273  1.00  0.00     0.040 A 
ATOM     84  C   UNL A   1      44.621  24.844  34.164  1.00  0.00     0.040 A 
ATOM     85  F   UNL A   1      45.167  26.930  33.355  1.00  0.00    -0.206 F 
ATOM     86  C   UNL A   1      43.775  23.973  34.827  1.00  0.00     0.006 A 
ENDBRANCH  62  79
ENDBRANCH  36  37
ENDBRANCH  29  31
ENDBRANCH  28  29
ENDBRANCH  27  28
ENDBRANCH  26  27
ENDBRANCH  25  26
ENDBRANCH   1  25
TORSDOF 17
ENDMDL
MODEL 3
REMARK VINA RESULT:     -11.4      5.297     10.881
REMARK SMILES Cc1ccccc1NC(=O)NC[C@@H]1CC[C@@H](C(=O)OCCOCCOC(=O)c2ccc(-c3c4nc(c(-c5c(F)cccc5F)c5ccc([nH]5)c(-c5c(F)cccc5F)c5nc(c(-c6c(F)cccc6F)c6ccc3[nH]6)C=C5)C=C4)cc2)O1
REMARK SMILES IDX 21 1 20 2 19 3 17 4 18 5 16 6 13 7 14 8 82 9 15 10 12 11
REMARK SMILES IDX 11 12 8 13 9 14 10 16 7 18 1 19 2 20 3 21 4 22 6 23 5 24
REMARK SMILES IDX 22 25 23 26 24 27 25 28 26 29 27 30 28 31 29 32 81 33 30 34
REMARK SMILES IDX 80 35 31 36 32 37 33 38 74 39 34 40 79 41 73 42 75 43 35 44
REMARK SMILES IDX 78 45 72 46 71 47 36 49 62 50 45 51 61 52 46 53 49 54 60 55
REMARK SMILES IDX 76 56 47 57 48 58 59 60 77 61 50 62 37 63 38 64 43 65 39 66
REMARK SMILES IDX 40 67 42 68 44 69 41 70 63 71 64 72 69 73 65 74 66 75 68 76
REMARK SMILES IDX 70 77 67 78 51 79 52 80 57 81 53 82 54 83 56 84 58 85 55 86
REMARK H PARENT 8 15 11 17 75 48 49 59
REMARK Flexibility Score: inf
ROOT
ATOM      1  C   UNL A   1      32.984  33.719  27.854  1.00  0.00     0.202 C 
ENDROOT
BRANCH   1   2
ATOM      2  C   UNL A   1      33.670  32.399  28.083  1.00  0.00     0.261 C 
BRANCH   2   3
ATOM      3  O   UNL A   1      33.484  31.466  27.003  1.00  0.00    -0.461 OA
BRANCH   3   4
ATOM      4  C   UNL A   1      33.473  30.122  27.282  1.00  0.00     0.335 C 
ATOM      5  O   UNL A   1      34.357  29.500  27.864  1.00  0.00    -0.249 OA
BRANCH   4   6
ATOM      6  C   UNL A   1      32.158  29.521  26.799  1.00  0.00     0.228 C 
ATOM      7  C   UNL A   1      32.160  27.880  25.139  1.00  0.00     0.138 C 
ATOM      8  C   UNL A   1      31.474  27.294  26.356  1.00  0.00     0.037 C 
ATOM      9  O   UNL A   1      32.144  29.298  25.374  1.00  0.00    -0.361 OA
ATOM     10  C   UNL A   1      31.937  28.171  27.464  1.00  0.00     0.047 C 
BRANCH   7  11
ATOM     11  C   UNL A   1      31.463  27.520  23.812  1.00  0.00     0.149 C 
BRANCH  11  12
ATOM     12  N   UNL A   1      32.415  27.031  22.818  1.00  0.00    -0.335 N 
ATOM     13  N   UNL A   1      32.793  24.670  23.093  1.00  0.00    -0.308 N 
ATOM     14  C   UNL A   1      32.908  25.844  22.448  1.00  0.00     0.319 C 
ATOM     15  H   UNL A   1      33.012  23.917  22.498  1.00  0.00     0.171 HD
ATOM     16  O   UNL A   1      33.492  25.816  21.358  1.00  0.00    -0.249 OA
ATOM     17  H   UNL A   1      32.791  27.764  22.280  1.00  0.00     0.165 HD
BRANCH  13  18
ATOM     18  C   UNL A   1      32.448  24.213  24.378  1.00  0.00     0.045 A 
ATOM     19  C   UNL A   1      34.750  24.805  25.364  1.00  0.00     0.046 C 
ATOM     20  C   UNL A   1      33.397  24.152  25.415  1.00  0.00    -0.027 A 
ATOM     21  C   UNL A   1      33.050  23.543  26.644  1.00  0.00     0.005 A 
ATOM     22  C   UNL A   1      31.776  23.041  26.868  1.00  0.00     0.000 A 
ATOM     23  C   UNL A   1      31.145  23.882  24.703  1.00  0.00     0.026 A 
ATOM     24  C   UNL A   1      30.808  23.253  25.907  1.00  0.00     0.002 A 
ENDBRANCH  13  18
ENDBRANCH  11  12
ENDBRANCH   7  11
ENDBRANCH   4   6
ENDBRANCH   3   4
ENDBRANCH   2   3
ENDBRANCH   1   2
BRANCH   1  25
ATOM     25  O   UNL A   1      32.880  34.342  29.121  1.00  0.00    -0.374 OA
BRANCH  25  26
ATOM     26  C   UNL A   1      32.874  35.756  29.136  1.00  0.00     0.202 C 
BRANCH  26  27
ATOM     27  C   UNL A   1      32.908  36.353  30.551  1.00  0.00     0.261 C 
BRANCH  27  28
ATOM     28  O   UNL A   1      34.182  36.080  31.174  1.00  0.00    -0.460 OA
BRANCH  28  29
ATOM     29  C   UNL A   1      34.174  35.222  32.233  1.00  0.00     0.338 C 
ATOM     30  O   UNL A   1      33.877  35.513  33.379  1.00  0.00    -0.246 OA
BRANCH  29  31
ATOM     31  C   UNL A   1      34.872  33.956  31.856  1.00  0.00     0.060 A 
ATOM     32  C   UNL A   1      34.688  32.786  32.623  1.00  0.00     0.016 A 
ATOM     33  C   UNL A   1      35.952  34.048  30.987  1.00  0.00     0.016 A 
ATOM     34  C   UNL A   1      35.683  31.792  32.648  1.00  0.00     0.010 A 
ATOM     35  C   UNL A   1      36.973  33.135  31.113  1.00  0.00     0.010 A 
ATOM     36  C   UNL A   1      36.874  32.020  31.967  1.00  0.00    -0.014 A 
BRANCH  36  37
ATOM     37  C   UNL A   1      38.137  31.280  32.102  1.00  0.00     0.031 A 
ATOM     38  C   UNL A   1      38.294  30.066  31.265  1.00  0.00     0.074 A 
ATOM     39  C   UNL A   1      39.244  31.873  32.623  1.00  0.00     0.049 A 
ATOM     40  N   UNL A   1      39.373  29.375  31.200  1.00  0.00    -0.248 NA
ATOM     41  C   UNL A   1      37.233  29.508  30.427  1.00  0.00     0.031 C 
ATOM     42  C   UNL A   1      40.647  31.654  32.248  1.00  0.00     0.029 A 
ATOM     43  N   UNL A   1      39.354  32.848  33.620  1.00  0.00    -0.354 N 
ATOM     44  C   UNL A   1      39.293  28.558  30.101  1.00  0.00     0.074 A 
ATOM     45  C   UNL A   1      37.903  28.583  29.732  1.00  0.00     0.031 C 
ATOM     46  C   UNL A   1      41.461  32.219  33.157  1.00  0.00     0.029 A 
ATOM     47  C   UNL A   1      40.616  32.708  34.226  1.00  0.00     0.049 A 
ATOM     48  H   UNL A   1      38.669  33.514  33.857  1.00  0.00     0.167 HD
ATOM     49  C   UNL A   1      40.462  28.069  29.600  1.00  0.00     0.037 A 
ATOM     50  C   UNL A   1      40.713  32.434  35.553  1.00  0.00     0.037 A 
ATOM     51  C   UNL A   1      41.563  28.350  30.539  1.00  0.00     0.049 A 
ATOM     52  C   UNL A   1      41.328  31.071  35.692  1.00  0.00     0.074 A 
ATOM     53  C   UNL A   1      42.656  29.199  30.527  1.00  0.00     0.029 A 
ATOM     54  N   UNL A   1      41.432  27.913  31.861  1.00  0.00    -0.354 N 
ATOM     55  N   UNL A   1      41.264  30.173  34.742  1.00  0.00    -0.248 NA
ATOM     56  C   UNL A   1      42.189  30.662  36.793  1.00  0.00     0.031 C 
ATOM     57  C   UNL A   1      43.128  29.323  31.871  1.00  0.00     0.029 A 
ATOM     58  C   UNL A   1      42.345  28.526  32.696  1.00  0.00     0.049 A 
ATOM     59  H   UNL A   1      40.770  27.248  32.160  1.00  0.00     0.167 HD
ATOM     60  C   UNL A   1      42.138  29.165  35.010  1.00  0.00     0.074 A 
ATOM     61  C   UNL A   1      42.655  29.486  36.331  1.00  0.00     0.031 C 
ATOM     62  C   UNL A   1      42.415  28.173  34.115  1.00  0.00     0.037 A 
BRANCH  49  63
ATOM     63  C   UNL A   1      40.665  27.461  28.223  1.00  0.00     0.057 A 
ATOM     64  C   UNL A   1      40.205  26.156  27.951  1.00  0.00     0.134 A 
ATOM     65  C   UNL A   1      41.359  28.049  27.143  1.00  0.00     0.134 A 
ATOM     66  F   UNL A   1      39.538  25.442  28.870  1.00  0.00    -0.206 F 
ATOM     67  C   UNL A   1      40.413  25.502  26.725  1.00  0.00     0.040 A 
ATOM     68  C   UNL A   1      41.543  27.421  25.901  1.00  0.00     0.040 A 
ATOM     69  F   UNL A   1      41.941  29.246  27.224  1.00  0.00    -0.206 F 
ATOM     70  C   UNL A   1      41.076  26.138  25.688  1.00  0.00     0.006 A 
ENDBRANCH  49  63
BRANCH  50  71
ATOM     71  C   UNL A   1      39.610  33.108  36.306  1.00  0.00     0.057 A 
ATOM     72  C   UNL A   1      38.590  32.257  36.796  1.00  0.00     0.134 A 
ATOM     73  C   UNL A   1      39.831  34.289  37.024  1.00  0.00     0.134 A 
ATOM     74  F   UNL A   1      38.326  31.098  36.170  1.00  0.00    -0.206 F 
ATOM     75  C   UNL A   1      37.960  32.477  38.027  1.00  0.00     0.040 A 
ATOM     76  C   UNL A   1      39.196  34.521  38.257  1.00  0.00     0.040 A 
ATOM     77  F   UNL A   1      40.789  35.146  36.645  1.00  0.00    -0.206 F 
ATOM     78  C   UNL A   1      38.302  33.589  38.787  1.00  0.00     0.006 A 
ENDBRANCH  50  71
BRANCH  62  79
ATOM     79  C   UNL A   1      42.836  26.779  34.515  1.00  0.00     0.057 A 
ATOM     80  C   UNL A   1      42.029  25.901  35.257  1.00  0.00     0.134 A 
ATOM     81  C   UNL A   1      44.009  26.197  33.984  1.00  0.00     0.134 A 
ATOM     82  F   UNL A   1      40.824  26.257  35.720  1.00  0.00    -0.206 F 
ATOM     83  C   UNL A   1      42.392  24.576  35.510  1.00  0.00     0.040 A 
ATOM     84  C   UNL A   1      44.342  24.854  34.168  1.00  0.00     0.040 A 
ATOM     85  F   UNL A   1      44.871  26.887  33.225  1.00  0.00    -0.206 F 
ATOM     86  C   UNL A   1      43.543  24.041  34.952  1.00  0.00     0.006 A 
ENDBRANCH  62  79
ENDBRANCH  36  37
ENDBRANCH  29  31
ENDBRANCH  28  29
ENDBRANCH  27  28
ENDBRANCH  26  27
ENDBRANCH  25  26
ENDBRANCH   1  25
TORSDOF 17
ENDMDL
