MODEL 1
REMARK VINA RESULT:      -9.6      0.000      0.000
REMARK SMILES O=C(OCCOCCOC(=O)[C@@H](F)Sc1ccccc1O)c1ccc(-c2c3nc(c(-c4c(F)cccc4F)c4ccc([nH]4)c(-c4c(F)cccc4F)c4nc(c(-c5c(F)cccc5F)c5ccc2[nH]5)C=C4)C=C3)cc1
REMARK SMILES IDX 7 1 6 2 5 3 4 4 3 5 2 6 1 7 22 8 23 9 75 10 24 11 74 12
REMARK SMILES IDX 25 13 26 14 27 15 68 16 28 17 73 18 67 19 69 20 29 21 72 22
REMARK SMILES IDX 66 23 65 24 30 26 56 27 39 28 55 29 40 30 43 31 54 32 70 33
REMARK SMILES IDX 41 34 42 35 53 37 71 38 44 39 31 40 32 41 37 42 33 43 34 44
REMARK SMILES IDX 36 45 38 46 35 47 57 48 58 49 63 50 59 51 60 52 62 53 64 54
REMARK SMILES IDX 61 55 45 56 46 57 51 58 47 59 48 60 50 61 52 62 49 63 8 64
REMARK SMILES IDX 9 65 10 66 11 67 12 68 13 69 14 70 15 71 16 72 20 73 17 74
REMARK SMILES IDX 19 75 18 76 21 77
REMARK H PARENT 69 25 43 36 21 78
REMARK Flexibility Score: inf
ROOT
ATOM      1  C   UNL A   1      33.800  35.034  32.805  1.00  0.00     0.202 C 
ENDROOT
BRANCH   1   2
ATOM      2  O   UNL A   1      35.042  35.735  32.944  1.00  0.00    -0.374 OA
BRANCH   2   3
ATOM      3  C   UNL A   1      36.208  34.909  33.006  1.00  0.00     0.202 C 
BRANCH   3   4
ATOM      4  C   UNL A   1      36.415  34.213  34.355  1.00  0.00     0.261 C 
BRANCH   4   5
ATOM      5  O   UNL A   1      36.368  32.782  34.192  1.00  0.00    -0.460 OA
BRANCH   5   6
ATOM      6  C   UNL A   1      36.263  32.051  33.059  1.00  0.00     0.338 C 
ATOM      7  O   UNL A   1      35.137  31.788  32.640  1.00  0.00    -0.246 OA
BRANCH   6   8
ATOM      8  C   UNL A   1      37.432  31.535  32.280  1.00  0.00     0.060 A 
ATOM      9  C   UNL A   1      38.437  30.714  32.792  1.00  0.00     0.016 A 
ATOM     10  C   UNL A   1      37.462  31.826  30.903  1.00  0.00     0.016 A 
ATOM     11  C   UNL A   1      39.461  30.231  31.993  1.00  0.00     0.010 A 
ATOM     12  C   UNL A   1      38.473  31.318  30.081  1.00  0.00     0.010 A 
ATOM     13  C   UNL A   1      39.482  30.527  30.634  1.00  0.00    -0.014 A 
BRANCH  13  14
ATOM     14  C   UNL A   1      40.640  30.054  29.860  1.00  0.00     0.031 A 
ATOM     15  C   UNL A   1      41.824  30.959  29.732  1.00  0.00     0.074 A 
ATOM     16  C   UNL A   1      40.673  28.778  29.441  1.00  0.00     0.049 A 
ATOM     17  N   UNL A   1      42.961  30.750  29.128  1.00  0.00    -0.248 NA
ATOM     18  C   UNL A   1      41.720  32.271  30.393  1.00  0.00     0.031 C 
ATOM     19  C   UNL A   1      39.604  27.797  29.651  1.00  0.00     0.029 A 
ATOM     20  N   UNL A   1      41.650  28.073  28.794  1.00  0.00    -0.354 N 
ATOM     21  C   UNL A   1      43.704  31.905  29.323  1.00  0.00     0.074 A 
ATOM     22  C   UNL A   1      42.889  32.816  30.095  1.00  0.00     0.031 C 
ATOM     23  C   UNL A   1      39.997  26.610  29.162  1.00  0.00     0.029 A 
ATOM     24  C   UNL A   1      41.314  26.764  28.555  1.00  0.00     0.049 A 
ATOM     25  H   UNL A   1      42.511  28.468  28.526  1.00  0.00     0.167 HD
ATOM     26  C   UNL A   1      44.954  32.175  28.886  1.00  0.00     0.037 A 
ATOM     27  C   UNL A   1      41.994  25.811  27.891  1.00  0.00     0.037 A 
ATOM     28  C   UNL A   1      45.733  31.252  28.107  1.00  0.00     0.049 A 
ATOM     29  C   UNL A   1      43.339  26.174  27.322  1.00  0.00     0.074 A 
ATOM     30  C   UNL A   1      46.974  31.434  27.530  1.00  0.00     0.029 A 
ATOM     31  N   UNL A   1      45.328  29.958  27.799  1.00  0.00    -0.354 N 
ATOM     32  N   UNL A   1      44.009  27.297  27.442  1.00  0.00    -0.248 NA
ATOM     33  C   UNL A   1      44.013  25.152  26.512  1.00  0.00     0.031 C 
ATOM     34  C   UNL A   1      47.304  30.261  26.839  1.00  0.00     0.029 A 
ATOM     35  C   UNL A   1      46.288  29.334  27.023  1.00  0.00     0.049 A 
ATOM     36  H   UNL A   1      44.483  29.547  28.090  1.00  0.00     0.167 HD
ATOM     37  C   UNL A   1      45.188  27.115  26.733  1.00  0.00     0.074 A 
ATOM     38  C   UNL A   1      45.149  25.764  26.206  1.00  0.00     0.031 C 
ATOM     39  C   UNL A   1      46.208  27.984  26.526  1.00  0.00     0.037 A 
BRANCH  26  40
ATOM     40  C   UNL A   1      45.494  33.542  29.180  1.00  0.00     0.057 A 
ATOM     41  C   UNL A   1      46.178  33.834  30.367  1.00  0.00     0.134 A 
ATOM     42  C   UNL A   1      45.277  34.595  28.283  1.00  0.00     0.134 A 
ATOM     43  F   UNL A   1      46.389  32.876  31.283  1.00  0.00    -0.206 F 
ATOM     44  C   UNL A   1      46.605  35.131  30.663  1.00  0.00     0.040 A 
ATOM     45  C   UNL A   1      45.717  35.891  28.558  1.00  0.00     0.040 A 
ATOM     46  F   UNL A   1      44.618  34.386  27.134  1.00  0.00    -0.206 F 
ATOM     47  C   UNL A   1      46.376  36.163  29.755  1.00  0.00     0.006 A 
ENDBRANCH  26  40
BRANCH  27  48
ATOM     48  C   UNL A   1      41.400  24.464  27.688  1.00  0.00     0.057 A 
ATOM     49  C   UNL A   1      41.820  23.356  28.432  1.00  0.00     0.134 A 
ATOM     50  C   UNL A   1      40.402  24.248  26.727  1.00  0.00     0.134 A 
ATOM     51  F   UNL A   1      42.787  23.489  29.352  1.00  0.00    -0.206 F 
ATOM     52  C   UNL A   1      41.282  22.084  28.221  1.00  0.00     0.040 A 
ATOM     53  C   UNL A   1      39.835  22.989  26.526  1.00  0.00     0.040 A 
ATOM     54  F   UNL A   1      39.952  25.265  25.978  1.00  0.00    -0.206 F 
ATOM     55  C   UNL A   1      40.280  21.900  27.270  1.00  0.00     0.006 A 
ENDBRANCH  27  48
BRANCH  39  56
ATOM     56  C   UNL A   1      47.363  27.482  25.717  1.00  0.00     0.057 A 
ATOM     57  C   UNL A   1      47.370  27.561  24.320  1.00  0.00     0.134 A 
ATOM     58  C   UNL A   1      48.498  26.960  26.348  1.00  0.00     0.134 A 
ATOM     59  F   UNL A   1      46.304  28.039  23.660  1.00  0.00    -0.206 F 
ATOM     60  C   UNL A   1      48.462  27.120  23.574  1.00  0.00     0.040 A 
ATOM     61  C   UNL A   1      49.607  26.539  25.615  1.00  0.00     0.040 A 
ATOM     62  F   UNL A   1      48.553  26.868  27.686  1.00  0.00    -0.206 F 
ATOM     63  C   UNL A   1      49.588  26.615  24.223  1.00  0.00     0.006 A 
ENDBRANCH  39  56
ENDBRANCH  13  14
ENDBRANCH   6   8
ENDBRANCH   5   6
ENDBRANCH   4   5
ENDBRANCH   3   4
ENDBRANCH   2   3
ENDBRANCH   1   2
BRANCH   1  64
ATOM     64  C   UNL A   1      32.933  35.755  31.777  1.00  0.00     0.261 C 
BRANCH  64  65
ATOM     65  O   UNL A   1      33.696  35.828  30.567  1.00  0.00    -0.460 OA
BRANCH  65  66
ATOM     66  C   UNL A   1      33.492  34.866  29.631  1.00  0.00     0.351 C 
ATOM     67  O   UNL A   1      32.594  34.901  28.792  1.00  0.00    -0.248 OA
BRANCH  66  68
ATOM     68  C   UNL A   1      34.594  33.815  29.641  1.00  0.00     0.338 C 
ATOM     69  F   UNL A   1      34.242  32.690  30.332  1.00  0.00    -0.222 F 
BRANCH  68  70
ATOM     70  S   UNL A   1      35.297  33.371  28.016  1.00  0.00    -0.073 SA
BRANCH  70  71
ATOM     71  C   UNL A   1      34.761  31.683  27.759  1.00  0.00     0.052 A 
ATOM     72  C   UNL A   1      35.746  30.694  27.899  1.00  0.00     0.019 A 
ATOM     73  C   UNL A   1      33.459  31.283  27.422  1.00  0.00     0.129 A 
ATOM     74  C   UNL A   1      35.450  29.349  27.674  1.00  0.00     0.001 A 
ATOM     75  C   UNL A   1      33.160  29.937  27.192  1.00  0.00     0.047 A 
ATOM     76  C   UNL A   1      34.159  28.971  27.314  1.00  0.00     0.004 A 
BRANCH  73  77
ATOM     77  O   UNL A   1      32.464  32.213  27.298  1.00  0.00    -0.507 OA
ATOM     78  H   UNL A   1      32.680  33.115  27.162  1.00  0.00     0.293 HD
ENDBRANCH  73  77
ENDBRANCH  70  71
ENDBRANCH  68  70
ENDBRANCH  66  68
ENDBRANCH  65  66
ENDBRANCH  64  65
ENDBRANCH   1  64
TORSDOF 17
ENDMDL
MODEL 2
REMARK VINA RESULT:      -9.5      5.557     11.069
REMARK SMILES O=C(OCCOCCOC(=O)[C@@H](F)Sc1ccccc1O)c1ccc(-c2c3nc(c(-c4c(F)cccc4F)c4ccc([nH]4)c(-c4c(F)cccc4F)c4nc(c(-c5c(F)cccc5F)c5ccc2[nH]5)C=C4)C=C3)cc1
REMARK SMILES IDX 7 1 6 2 5 3 4 4 3 5 2 6 1 7 22 8 23 9 75 10 24 11 74 12
REMARK SMILES IDX 25 13 26 14 27 15 68 16 28 17 73 18 67 19 69 20 29 21 72 22
REMARK SMILES IDX 66 23 65 24 30 26 56 27 39 28 55 29 40 30 43 31 54 32 70 33
REMARK SMILES IDX 41 34 42 35 53 37 71 38 44 39 31 40 32 41 37 42 33 43 34 44
REMARK SMILES IDX 36 45 38 46 35 47 57 48 58 49 63 50 59 51 60 52 62 53 64 54
REMARK SMILES IDX 61 55 45 56 46 57 51 58 47 59 48 60 50 61 52 62 49 63 8 64
REMARK SMILES IDX 9 65 10 66 11 67 12 68 13 69 14 70 15 71 16 72 20 73 17 74
REMARK SMILES IDX 19 75 18 76 21 77
REMARK H PARENT 69 25 43 36 21 78
REMARK Flexibility Score: inf
ROOT
ATOM      1  C   UNL A   1      46.034  19.897  25.321  1.00  0.00     0.202 C 
ENDROOT
BRANCH   1   2
ATOM      2  O   UNL A   1      45.331  18.863  24.620  1.00  0.00    -0.374 OA
BRANCH   2   3
ATOM      3  C   UNL A   1      43.914  18.846  24.814  1.00  0.00     0.202 C 
BRANCH   3   4
ATOM      4  C   UNL A   1      43.471  18.271  26.163  1.00  0.00     0.261 C 
BRANCH   4   5
ATOM      5  O   UNL A   1      42.088  18.590  26.413  1.00  0.00    -0.460 OA
BRANCH   5   6
ATOM      6  C   UNL A   1      41.407  19.725  26.136  1.00  0.00     0.338 C 
ATOM      7  O   UNL A   1      40.414  19.646  25.413  1.00  0.00    -0.246 OA
BRANCH   6   8
ATOM      8  C   UNL A   1      41.785  21.079  26.649  1.00  0.00     0.060 A 
ATOM      9  C   UNL A   1      42.118  22.174  25.852  1.00  0.00     0.016 A 
ATOM     10  C   UNL A   1      41.704  21.283  28.039  1.00  0.00     0.016 A 
ATOM     11  C   UNL A   1      42.406  23.414  26.399  1.00  0.00     0.010 A 
ATOM     12  C   UNL A   1      41.962  22.537  28.601  1.00  0.00     0.010 A 
ATOM     13  C   UNL A   1      42.325  23.603  27.775  1.00  0.00    -0.014 A 
BRANCH  13  14
ATOM     14  C   UNL A   1      42.725  24.918  28.298  1.00  0.00     0.031 A 
ATOM     15  C   UNL A   1      41.665  25.955  28.494  1.00  0.00     0.074 A 
ATOM     16  C   UNL A   1      43.981  25.094  28.742  1.00  0.00     0.049 A 
ATOM     17  N   UNL A   1      41.772  27.166  28.966  1.00  0.00    -0.248 NA
ATOM     18  C   UNL A   1      40.292  25.565  28.128  1.00  0.00     0.031 C 
ATOM     19  C   UNL A   1      45.035  24.076  28.706  1.00  0.00     0.029 A 
ATOM     20  N   UNL A   1      44.573  26.168  29.348  1.00  0.00    -0.354 N 
ATOM     21  C   UNL A   1      40.487  27.689  28.941  1.00  0.00     0.074 A 
ATOM     22  C   UNL A   1      39.616  26.669  28.403  1.00  0.00     0.031 C 
ATOM     23  C   UNL A   1      46.140  24.570  29.288  1.00  0.00     0.029 A 
ATOM     24  C   UNL A   1      45.888  25.952  29.681  1.00  0.00     0.049 A 
ATOM     25  H   UNL A   1      44.103  27.014  29.526  1.00  0.00     0.167 HD
ATOM     26  C   UNL A   1      40.081  28.919  29.331  1.00  0.00     0.037 A 
ATOM     27  C   UNL A   1      46.787  26.796  30.220  1.00  0.00     0.037 A 
ATOM     28  C   UNL A   1      40.977  29.917  29.849  1.00  0.00     0.049 A 
ATOM     29  C   UNL A   1      46.332  28.193  30.543  1.00  0.00     0.074 A 
ATOM     30  C   UNL A   1      40.710  31.226  30.197  1.00  0.00     0.029 A 
ATOM     31  N   UNL A   1      42.328  29.700  30.092  1.00  0.00    -0.354 N 
ATOM     32  N   UNL A   1      45.130  28.712  30.447  1.00  0.00    -0.248 NA
ATOM     33  C   UNL A   1      47.356  29.126  31.029  1.00  0.00     0.031 C 
ATOM     34  C   UNL A   1      41.910  31.814  30.616  1.00  0.00     0.029 A 
ATOM     35  C   UNL A   1      42.915  30.857  30.569  1.00  0.00     0.049 A 
ATOM     36  H   UNL A   1      42.798  28.847  29.946  1.00  0.00     0.167 HD
ATOM     37  C   UNL A   1      45.248  30.029  30.870  1.00  0.00     0.074 A 
ATOM     38  C   UNL A   1      46.637  30.219  31.244  1.00  0.00     0.031 C 
ATOM     39  C   UNL A   1      44.302  30.997  30.935  1.00  0.00     0.037 A 
BRANCH  26  40
ATOM     40  C   UNL A   1      38.634  29.250  29.126  1.00  0.00     0.057 A 
ATOM     41  C   UNL A   1      37.697  29.172  30.164  1.00  0.00     0.134 A 
ATOM     42  C   UNL A   1      38.163  29.603  27.856  1.00  0.00     0.134 A 
ATOM     43  F   UNL A   1      38.079  28.808  31.398  1.00  0.00    -0.206 F 
ATOM     44  C   UNL A   1      36.338  29.406  29.941  1.00  0.00     0.040 A 
ATOM     45  C   UNL A   1      36.811  29.860  27.623  1.00  0.00     0.040 A 
ATOM     46  F   UNL A   1      39.006  29.685  26.815  1.00  0.00    -0.206 F 
ATOM     47  C   UNL A   1      35.893  29.753  28.666  1.00  0.00     0.006 A 
ENDBRANCH  26  40
BRANCH  27  48
ATOM     48  C   UNL A   1      48.193  26.365  30.433  1.00  0.00     0.057 A 
ATOM     49  C   UNL A   1      49.141  26.420  29.405  1.00  0.00     0.134 A 
ATOM     50  C   UNL A   1      48.621  25.871  31.673  1.00  0.00     0.134 A 
ATOM     51  F   UNL A   1      48.792  26.862  28.188  1.00  0.00    -0.206 F 
ATOM     52  C   UNL A   1      50.456  25.989  29.598  1.00  0.00     0.040 A 
ATOM     53  C   UNL A   1      49.938  25.464  31.887  1.00  0.00     0.040 A 
ATOM     54  F   UNL A   1      47.765  25.790  32.702  1.00  0.00    -0.206 F 
ATOM     55  C   UNL A   1      50.860  25.515  30.845  1.00  0.00     0.006 A 
ENDBRANCH  27  48
BRANCH  39  56
ATOM     56  C   UNL A   1      44.742  32.332  31.452  1.00  0.00     0.057 A 
ATOM     57  C   UNL A   1      45.204  33.336  30.594  1.00  0.00     0.134 A 
ATOM     58  C   UNL A   1      44.656  32.628  32.818  1.00  0.00     0.134 A 
ATOM     59  F   UNL A   1      45.320  33.104  29.276  1.00  0.00    -0.206 F 
ATOM     60  C   UNL A   1      45.583  34.587  31.078  1.00  0.00     0.040 A 
ATOM     61  C   UNL A   1      45.009  33.883  33.312  1.00  0.00     0.040 A 
ATOM     62  F   UNL A   1      44.213  31.708  33.688  1.00  0.00    -0.206 F 
ATOM     63  C   UNL A   1      45.478  34.865  32.441  1.00  0.00     0.006 A 
ENDBRANCH  39  56
ENDBRANCH  13  14
ENDBRANCH   6   8
ENDBRANCH   5   6
ENDBRANCH   4   5
ENDBRANCH   3   4
ENDBRANCH   2   3
ENDBRANCH   1   2
BRANCH   1  64
ATOM     64  C   UNL A   1      45.442  21.250  24.936  1.00  0.00     0.261 C 
BRANCH  64  65
ATOM     65  O   UNL A   1      46.287  22.253  25.511  1.00  0.00    -0.460 OA
BRANCH  65  66
ATOM     66  C   UNL A   1      46.457  23.410  24.821  1.00  0.00     0.351 C 
ATOM     67  O   UNL A   1      46.225  23.536  23.621  1.00  0.00    -0.248 OA
BRANCH  66  68
ATOM     68  C   UNL A   1      46.823  24.573  25.734  1.00  0.00     0.338 C 
ATOM     69  F   UNL A   1      47.947  24.331  26.471  1.00  0.00    -0.222 F 
BRANCH  68  70
ATOM     70  S   UNL A   1      46.920  26.216  24.944  1.00  0.00    -0.073 SA
BRANCH  70  71
ATOM     71  C   UNL A   1      45.485  27.082  25.571  1.00  0.00     0.052 A 
ATOM     72  C   UNL A   1      44.250  26.711  25.020  1.00  0.00     0.019 A 
ATOM     73  C   UNL A   1      45.505  28.095  26.543  1.00  0.00     0.129 A 
ATOM     74  C   UNL A   1      43.072  27.355  25.401  1.00  0.00     0.001 A 
ATOM     75  C   UNL A   1      44.326  28.745  26.923  1.00  0.00     0.047 A 
ATOM     76  C   UNL A   1      43.111  28.377  26.347  1.00  0.00     0.004 A 
BRANCH  73  77
ATOM     77  O   UNL A   1      46.685  28.472  27.121  1.00  0.00    -0.507 OA
ATOM     78  H   UNL A   1      46.825  28.330  28.036  1.00  0.00     0.293 HD
ENDBRANCH  73  77
ENDBRANCH  70  71
ENDBRANCH  68  70
ENDBRANCH  66  68
ENDBRANCH  65  66
ENDBRANCH  64  65
ENDBRANCH   1  64
TORSDOF 17
ENDMDL
MODEL 3
REMARK VINA RESULT:      -9.5      5.317      9.997
REMARK SMILES O=C(OCCOCCOC(=O)[C@@H](F)Sc1ccccc1O)c1ccc(-c2c3nc(c(-c4c(F)cccc4F)c4ccc([nH]4)c(-c4c(F)cccc4F)c4nc(c(-c5c(F)cccc5F)c5ccc2[nH]5)C=C4)C=C3)cc1
REMARK SMILES IDX 7 1 6 2 5 3 4 4 3 5 2 6 1 7 22 8 23 9 75 10 24 11 74 12
REMARK SMILES IDX 25 13 26 14 27 15 68 16 28 17 73 18 67 19 69 20 29 21 72 22
REMARK SMILES IDX 66 23 65 24 30 26 56 27 39 28 55 29 40 30 43 31 54 32 70 33
REMARK SMILES IDX 41 34 42 35 53 37 71 38 44 39 31 40 32 41 37 42 33 43 34 44
REMARK SMILES IDX 36 45 38 46 35 47 57 48 58 49 63 50 59 51 60 52 62 53 64 54
REMARK SMILES IDX 61 55 45 56 46 57 51 58 47 59 48 60 50 61 52 62 49 63 8 64
REMARK SMILES IDX 9 65 10 66 11 67 12 68 13 69 14 70 15 71 16 72 20 73 17 74
REMARK SMILES IDX 19 75 18 76 21 77
REMARK H PARENT 69 25 43 36 21 78
REMARK Flexibility Score: inf
ROOT
ATOM      1  C   UNL A   1      37.118  21.589  24.566  1.00  0.00     0.202 C 
ENDROOT
BRANCH   1   2
ATOM      2  O   UNL A   1      37.006  20.200  24.898  1.00  0.00    -0.374 OA
BRANCH   2   3
ATOM      3  C   UNL A   1      38.209  19.437  24.760  1.00  0.00     0.202 C 
BRANCH   3   4
ATOM      4  C   UNL A   1      39.179  19.574  25.938  1.00  0.00     0.261 C 
BRANCH   4   5
ATOM      5  O   UNL A   1      40.426  18.919  25.638  1.00  0.00    -0.460 OA
BRANCH   5   6
ATOM      6  C   UNL A   1      41.687  19.288  25.958  1.00  0.00     0.338 C 
ATOM      7  O   UNL A   1      42.583  18.451  25.853  1.00  0.00    -0.246 OA
BRANCH   6   8
ATOM      8  C   UNL A   1      42.067  20.652  26.442  1.00  0.00     0.060 A 
ATOM      9  C   UNL A   1      42.237  21.011  27.778  1.00  0.00     0.016 A 
ATOM     10  C   UNL A   1      42.366  21.618  25.462  1.00  0.00     0.016 A 
ATOM     11  C   UNL A   1      42.642  22.284  28.146  1.00  0.00     0.010 A 
ATOM     12  C   UNL A   1      42.806  22.896  25.819  1.00  0.00     0.010 A 
ATOM     13  C   UNL A   1      42.933  23.231  27.169  1.00  0.00    -0.014 A 
BRANCH  13  14
ATOM     14  C   UNL A   1      43.277  24.586  27.626  1.00  0.00     0.031 A 
ATOM     15  C   UNL A   1      44.703  25.026  27.531  1.00  0.00     0.074 A 
ATOM     16  C   UNL A   1      42.290  25.439  27.950  1.00  0.00     0.049 A 
ATOM     17  N   UNL A   1      45.234  26.176  27.842  1.00  0.00    -0.248 NA
ATOM     18  C   UNL A   1      45.656  24.043  26.990  1.00  0.00     0.031 C 
ATOM     19  C   UNL A   1      40.860  25.115  27.935  1.00  0.00     0.029 A 
ATOM     20  N   UNL A   1      42.330  26.757  28.312  1.00  0.00    -0.354 N 
ATOM     21  C   UNL A   1      46.585  26.052  27.550  1.00  0.00     0.074 A 
ATOM     22  C   UNL A   1      46.795  24.715  27.042  1.00  0.00     0.031 C 
ATOM     23  C   UNL A   1      40.159  26.216  28.250  1.00  0.00     0.029 A 
ATOM     24  C   UNL A   1      41.091  27.299  28.545  1.00  0.00     0.049 A 
ATOM     25  H   UNL A   1      43.167  27.268  28.397  1.00  0.00     0.167 HD
ATOM     26  C   UNL A   1      47.558  26.978  27.702  1.00  0.00     0.037 A 
ATOM     27  C   UNL A   1      40.759  28.530  28.977  1.00  0.00     0.037 A 
ATOM     28  C   UNL A   1      47.317  28.295  28.225  1.00  0.00     0.049 A 
ATOM     29  C   UNL A   1      41.873  29.506  29.240  1.00  0.00     0.074 A 
ATOM     30  C   UNL A   1      48.225  29.296  28.510  1.00  0.00     0.029 A 
ATOM     31  N   UNL A   1      46.057  28.789  28.542  1.00  0.00    -0.354 N 
ATOM     32  N   UNL A   1      43.162  29.361  29.036  1.00  0.00    -0.248 NA
ATOM     33  C   UNL A   1      41.495  30.804  29.812  1.00  0.00     0.031 C 
ATOM     34  C   UNL A   1      47.517  30.383  29.036  1.00  0.00     0.029 A 
ATOM     35  C   UNL A   1      46.164  30.076  29.037  1.00  0.00     0.049 A 
ATOM     36  H   UNL A   1      45.213  28.296  28.429  1.00  0.00     0.167 HD
ATOM     37  C   UNL A   1      43.749  30.551  29.442  1.00  0.00     0.074 A 
ATOM     38  C   UNL A   1      42.670  31.414  29.884  1.00  0.00     0.031 C 
ATOM     39  C   UNL A   1      45.059  30.900  29.459  1.00  0.00     0.037 A 
BRANCH  26  40
ATOM     40  C   UNL A   1      48.956  26.551  27.372  1.00  0.00     0.057 A 
ATOM     41  C   UNL A   1      49.797  25.956  28.321  1.00  0.00     0.134 A 
ATOM     42  C   UNL A   1      49.486  26.789  26.098  1.00  0.00     0.134 A 
ATOM     43  F   UNL A   1      49.361  25.730  29.570  1.00  0.00    -0.206 F 
ATOM     44  C   UNL A   1      51.124  25.636  28.022  1.00  0.00     0.040 A 
ATOM     45  C   UNL A   1      50.803  26.456  25.781  1.00  0.00     0.040 A 
ATOM     46  F   UNL A   1      48.736  27.368  25.147  1.00  0.00    -0.206 F 
ATOM     47  C   UNL A   1      51.628  25.885  26.747  1.00  0.00     0.006 A 
ENDBRANCH  26  40
BRANCH  27  48
ATOM     48  C   UNL A   1      39.338  28.883  29.232  1.00  0.00     0.057 A 
ATOM     49  C   UNL A   1      38.736  28.652  30.474  1.00  0.00     0.134 A 
ATOM     50  C   UNL A   1      38.539  29.448  28.229  1.00  0.00     0.134 A 
ATOM     51  F   UNL A   1      39.438  28.093  31.471  1.00  0.00    -0.206 F 
ATOM     52  C   UNL A   1      37.392  28.958  30.705  1.00  0.00     0.040 A 
ATOM     53  C   UNL A   1      37.204  29.786  28.454  1.00  0.00     0.040 A 
ATOM     54  F   UNL A   1      39.051  29.696  27.014  1.00  0.00    -0.206 F 
ATOM     55  C   UNL A   1      36.624  29.533  29.695  1.00  0.00     0.006 A 
ENDBRANCH  27  48
BRANCH  39  56
ATOM     56  C   UNL A   1      45.380  32.278  29.949  1.00  0.00     0.057 A 
ATOM     57  C   UNL A   1      45.695  32.525  31.290  1.00  0.00     0.134 A 
ATOM     58  C   UNL A   1      45.421  33.356  29.058  1.00  0.00     0.134 A 
ATOM     59  F   UNL A   1      45.659  31.532  32.192  1.00  0.00    -0.206 F 
ATOM     60  C   UNL A   1      46.024  33.805  31.733  1.00  0.00     0.040 A 
ATOM     61  C   UNL A   1      45.772  34.636  29.484  1.00  0.00     0.040 A 
ATOM     62  F   UNL A   1      45.138  33.179  27.758  1.00  0.00    -0.206 F 
ATOM     63  C   UNL A   1      46.070  34.864  30.826  1.00  0.00     0.006 A 
ENDBRANCH  39  56
ENDBRANCH  13  14
ENDBRANCH   6   8
ENDBRANCH   5   6
ENDBRANCH   4   5
ENDBRANCH   3   4
ENDBRANCH   2   3
ENDBRANCH   1   2
BRANCH   1  64
ATOM     64  C   UNL A   1      36.747  22.424  25.789  1.00  0.00     0.261 C 
BRANCH  64  65
ATOM     65  O   UNL A   1      35.459  22.994  25.529  1.00  0.00    -0.460 OA
BRANCH  65  66
ATOM     66  C   UNL A   1      34.364  22.258  25.850  1.00  0.00     0.351 C 
ATOM     67  O   UNL A   1      34.197  21.712  26.939  1.00  0.00    -0.248 OA
BRANCH  66  68
ATOM     68  C   UNL A   1      33.299  22.311  24.763  1.00  0.00     0.338 C 
ATOM     69  F   UNL A   1      33.812  22.114  23.512  1.00  0.00    -0.222 F 
BRANCH  68  70
ATOM     70  S   UNL A   1      31.830  21.258  25.023  1.00  0.00    -0.073 SA
BRANCH  70  71
ATOM     71  C   UNL A   1      32.395  19.615  24.596  1.00  0.00     0.052 A 
ATOM     72  C   UNL A   1      32.324  19.271  23.239  1.00  0.00     0.019 A 
ATOM     73  C   UNL A   1      32.882  18.660  25.502  1.00  0.00     0.129 A 
ATOM     74  C   UNL A   1      32.694  17.998  22.801  1.00  0.00     0.001 A 
ATOM     75  C   UNL A   1      33.248  17.382  25.067  1.00  0.00     0.047 A 
ATOM     76  C   UNL A   1      33.149  17.051  23.716  1.00  0.00     0.004 A 
BRANCH  73  77
ATOM     77  O   UNL A   1      32.987  18.962  26.832  1.00  0.00    -0.507 OA
ATOM     78  H   UNL A   1      32.280  18.767  27.414  1.00  0.00     0.293 HD
ENDBRANCH  73  77
ENDBRANCH  70  71
ENDBRANCH  68  70
ENDBRANCH  66  68
ENDBRANCH  65  66
ENDBRANCH  64  65
ENDBRANCH   1  64
TORSDOF 17
ENDMDL
