MODEL 1
REMARK VINA RESULT:     -11.8      0.000      0.000
REMARK SMILES Cn1ncc(C(=O)OCCOCCOC(=O)c2ccc(-c3c4nc(c(-c5c(F)cccc5F)c5ccc([nH]5)c(-c5c(F)cccc5F)c5nc(c(-c6c(F)cccc6F)c6ccc3[nH]6)C=C5)C=C4)cc2)c1C(=O)Nc1nccc(-c2ccc(OC(F)F)cc2)n1
REMARK SMILES IDX 9 1 8 2 6 3 7 4 5 5 1 6 2 7 3 8 71 9 4 10 72 11 73 12 74 13
REMARK SMILES IDX 75 15 76 16 90 17 77 18 79 19 78 20 80 21 81 22 89 23 82 24
REMARK SMILES IDX 88 25 83 26 84 27 85 28 86 29 87 30 10 31 11 32 12 33 13 34
REMARK SMILES IDX 14 35 15 36 16 37 17 38 18 39 70 40 19 41 69 42 20 43 21 44
REMARK SMILES IDX 22 45 63 46 23 47 68 48 62 49 64 50 24 51 67 52 61 53 60 54
REMARK SMILES IDX 25 56 51 57 34 58 50 59 35 60 38 61 49 62 65 63 36 64 37 65
REMARK SMILES IDX 48 67 66 68 39 69 26 70 27 71 32 72 28 73 29 74 31 75 33 76
REMARK SMILES IDX 30 77 52 78 53 79 58 80 54 81 55 82 57 83 59 84 56 85 40 86
REMARK SMILES IDX 41 87 46 88 42 89 43 90 45 91 47 92 44 93
REMARK H PARENT 74 14 64 55 38 66
REMARK Flexibility Score: inf
ROOT
ATOM      1  C   UNL A   1      33.901  25.602  24.481  1.00  0.00     0.261 C 
ENDROOT
BRANCH   1   2
ATOM      2  O   UNL A   1      35.095  24.806  24.451  1.00  0.00    -0.460 OA
BRANCH   2   3
ATOM      3  C   UNL A   1      34.970  23.616  23.812  1.00  0.00     0.342 C 
ATOM      4  O   UNL A   1      35.517  23.335  22.751  1.00  0.00    -0.246 OA
BRANCH   3   5
ATOM      5  C   UNL A   1      34.265  22.606  24.574  1.00  0.00     0.111 A 
ATOM      6  C   UNL A   1      33.166  19.379  24.906  1.00  0.00     0.174 C 
ATOM      7  N   UNL A   1      33.255  20.798  25.180  1.00  0.00    -0.262 N 
ATOM      8  N   UNL A   1      33.979  21.130  26.271  1.00  0.00    -0.180 NA
ATOM      9  C   UNL A   1      33.131  21.836  24.272  1.00  0.00     0.140 A 
ATOM     10  C   UNL A   1      34.691  22.165  25.843  1.00  0.00     0.151 A 
BRANCH   9  11
ATOM     11  C   UNL A   1      32.251  21.974  23.125  1.00  0.00     0.277 C 
ATOM     12  O   UNL A   1      32.399  21.255  22.131  1.00  0.00    -0.267 OA
ATOM     13  N   UNL A   1      31.164  22.797  23.056  1.00  0.00    -0.289 N 
ATOM     14  H   UNL A   1      30.596  22.597  22.277  1.00  0.00     0.173 HD
BRANCH  13  15
ATOM     15  C   UNL A   1      30.668  23.840  23.807  1.00  0.00     0.230 A 
ATOM     16  N   UNL A   1      30.788  23.635  25.127  1.00  0.00    -0.221 NA
ATOM     17  N   UNL A   1      30.202  24.967  23.264  1.00  0.00    -0.213 NA
ATOM     18  C   UNL A   1      30.519  24.672  25.937  1.00  0.00     0.117 A 
ATOM     19  C   UNL A   1      29.891  25.976  24.116  1.00  0.00     0.076 A 
ATOM     20  C   UNL A   1      30.074  25.884  25.480  1.00  0.00     0.049 A 
BRANCH  19  21
ATOM     21  C   UNL A   1      29.421  27.217  23.492  1.00  0.00     0.001 A 
ATOM     22  C   UNL A   1      30.315  28.086  22.855  1.00  0.00     0.014 A 
ATOM     23  C   UNL A   1      28.064  27.575  23.526  1.00  0.00     0.014 A 
ATOM     24  C   UNL A   1      29.864  29.283  22.289  1.00  0.00     0.047 A 
ATOM     25  C   UNL A   1      27.617  28.782  22.977  1.00  0.00     0.047 A 
ATOM     26  C   UNL A   1      28.518  29.650  22.363  1.00  0.00     0.126 A 
BRANCH  26  27
ATOM     27  O   UNL A   1      28.221  30.860  21.805  1.00  0.00    -0.435 OA
BRANCH  27  28
ATOM     28  C   UNL A   1      28.261  32.011  22.639  1.00  0.00     0.542 C 
ATOM     29  F   UNL A   1      28.083  33.128  21.892  1.00  0.00    -0.167 F 
ATOM     30  F   UNL A   1      27.275  31.957  23.565  1.00  0.00    -0.167 F 
ENDBRANCH  27  28
ENDBRANCH  26  27
ENDBRANCH  19  21
ENDBRANCH  13  15
ENDBRANCH   9  11
ENDBRANCH   3   5
ENDBRANCH   2   3
ENDBRANCH   1   2
BRANCH   1  31
ATOM     31  C   UNL A   1      33.889  26.450  25.751  1.00  0.00     0.202 C 
BRANCH  31  32
ATOM     32  O   UNL A   1      32.922  27.503  25.757  1.00  0.00    -0.374 OA
BRANCH  32  33
ATOM     33  C   UNL A   1      33.193  28.631  24.918  1.00  0.00     0.202 C 
BRANCH  33  34
ATOM     34  C   UNL A   1      32.491  29.931  25.322  1.00  0.00     0.261 C 
BRANCH  34  35
ATOM     35  O   UNL A   1      32.526  30.114  26.750  1.00  0.00    -0.460 OA
BRANCH  35  36
ATOM     36  C   UNL A   1      33.102  31.266  27.169  1.00  0.00     0.338 C 
ATOM     37  O   UNL A   1      32.585  32.367  27.246  1.00  0.00    -0.246 OA
BRANCH  36  38
ATOM     38  C   UNL A   1      34.442  30.979  27.720  1.00  0.00     0.060 A 
ATOM     39  C   UNL A   1      34.728  29.647  28.050  1.00  0.00     0.016 A 
ATOM     40  C   UNL A   1      35.381  31.985  27.958  1.00  0.00     0.016 A 
ATOM     41  C   UNL A   1      35.934  29.324  28.667  1.00  0.00     0.010 A 
ATOM     42  C   UNL A   1      36.586  31.661  28.592  1.00  0.00     0.010 A 
ATOM     43  C   UNL A   1      36.851  30.335  28.979  1.00  0.00    -0.014 A 
BRANCH  43  44
ATOM     44  C   UNL A   1      38.007  30.019  29.850  1.00  0.00     0.031 A 
ATOM     45  C   UNL A   1      39.085  29.112  29.325  1.00  0.00     0.074 A 
ATOM     46  C   UNL A   1      38.119  30.565  31.075  1.00  0.00     0.049 A 
ATOM     47  N   UNL A   1      40.181  28.699  29.910  1.00  0.00    -0.248 NA
ATOM     48  C   UNL A   1      38.903  28.604  27.956  1.00  0.00     0.031 C 
ATOM     49  C   UNL A   1      37.161  31.487  31.681  1.00  0.00     0.029 A 
ATOM     50  N   UNL A   1      39.095  30.415  32.027  1.00  0.00    -0.354 N 
ATOM     51  C   UNL A   1      40.818  27.887  28.982  1.00  0.00     0.074 A 
ATOM     52  C   UNL A   1      39.975  27.841  27.806  1.00  0.00     0.031 C 
ATOM     53  C   UNL A   1      37.594  31.814  32.911  1.00  0.00     0.029 A 
ATOM     54  C   UNL A   1      38.844  31.108  33.185  1.00  0.00     0.049 A 
ATOM     55  H   UNL A   1      39.900  29.863  31.893  1.00  0.00     0.167 HD
ATOM     56  C   UNL A   1      42.005  27.244  29.095  1.00  0.00     0.037 A 
ATOM     57  C   UNL A   1      39.537  31.151  34.338  1.00  0.00     0.037 A 
ATOM     58  C   UNL A   1      42.844  27.287  30.262  1.00  0.00     0.049 A 
ATOM     59  C   UNL A   1      40.819  30.371  34.464  1.00  0.00     0.074 A 
ATOM     60  C   UNL A   1      44.072  26.682  30.464  1.00  0.00     0.029 A 
ATOM     61  N   UNL A   1      42.536  27.969  31.428  1.00  0.00    -0.354 N 
ATOM     62  N   UNL A   1      41.426  29.627  33.572  1.00  0.00    -0.248 NA
ATOM     63  C   UNL A   1      41.511  30.438  35.760  1.00  0.00     0.031 C 
ATOM     64  C   UNL A   1      44.489  26.966  31.768  1.00  0.00     0.029 A 
ATOM     65  C   UNL A   1      43.539  27.780  32.364  1.00  0.00     0.049 A 
ATOM     66  H   UNL A   1      41.724  28.508  31.570  1.00  0.00     0.167 HD
ATOM     67  C   UNL A   1      42.578  29.156  34.188  1.00  0.00     0.074 A 
ATOM     68  C   UNL A   1      42.593  29.706  35.527  1.00  0.00     0.031 C 
ATOM     69  C   UNL A   1      43.539  28.339  33.691  1.00  0.00     0.037 A 
BRANCH  56  70
ATOM     70  C   UNL A   1      42.455  26.422  27.925  1.00  0.00     0.057 A 
ATOM     71  C   UNL A   1      42.102  25.074  27.794  1.00  0.00     0.134 A 
ATOM     72  C   UNL A   1      43.224  26.995  26.904  1.00  0.00     0.134 A 
ATOM     73  F   UNL A   1      41.379  24.464  28.746  1.00  0.00    -0.206 F 
ATOM     74  C   UNL A   1      42.515  24.317  26.696  1.00  0.00     0.040 A 
ATOM     75  C   UNL A   1      43.625  26.254  25.792  1.00  0.00     0.040 A 
ATOM     76  F   UNL A   1      43.593  28.283  26.970  1.00  0.00    -0.206 F 
ATOM     77  C   UNL A   1      43.273  24.909  25.688  1.00  0.00     0.006 A 
ENDBRANCH  56  70
BRANCH  57  78
ATOM     78  C   UNL A   1      39.031  31.952  35.479  1.00  0.00     0.057 A 
ATOM     79  C   UNL A   1      39.351  33.308  35.614  1.00  0.00     0.134 A 
ATOM     80  C   UNL A   1      38.237  31.373  36.477  1.00  0.00     0.134 A 
ATOM     81  F   UNL A   1      40.130  33.911  34.704  1.00  0.00    -0.206 F 
ATOM     82  C   UNL A   1      38.911  34.057  36.707  1.00  0.00     0.040 A 
ATOM     83  C   UNL A   1      37.773  32.114  37.563  1.00  0.00     0.040 A 
ATOM     84  F   UNL A   1      37.901  30.077  36.405  1.00  0.00    -0.206 F 
ATOM     85  C   UNL A   1      38.116  33.460  37.684  1.00  0.00     0.006 A 
ENDBRANCH  57  78
BRANCH  69  86
ATOM     86  C   UNL A   1      44.696  28.013  34.586  1.00  0.00     0.057 A 
ATOM     87  C   UNL A   1      44.699  26.874  35.399  1.00  0.00     0.134 A 
ATOM     88  C   UNL A   1      45.838  28.824  34.601  1.00  0.00     0.134 A 
ATOM     89  F   UNL A   1      43.630  26.064  35.438  1.00  0.00    -0.206 F 
ATOM     90  C   UNL A   1      45.790  26.561  36.211  1.00  0.00     0.040 A 
ATOM     91  C   UNL A   1      46.944  28.511  35.392  1.00  0.00     0.040 A 
ATOM     92  F   UNL A   1      45.901  29.926  33.839  1.00  0.00    -0.206 F 
ATOM     93  C   UNL A   1      46.920  27.378  36.204  1.00  0.00     0.006 A 
ENDBRANCH  69  86
ENDBRANCH  43  44
ENDBRANCH  36  38
ENDBRANCH  35  36
ENDBRANCH  34  35
ENDBRANCH  33  34
ENDBRANCH  32  33
ENDBRANCH  31  32
ENDBRANCH   1  31
TORSDOF 19
ENDMDL
MODEL 2
REMARK VINA RESULT:     -11.7      4.056      7.642
REMARK SMILES Cn1ncc(C(=O)OCCOCCOC(=O)c2ccc(-c3c4nc(c(-c5c(F)cccc5F)c5ccc([nH]5)c(-c5c(F)cccc5F)c5nc(c(-c6c(F)cccc6F)c6ccc3[nH]6)C=C5)C=C4)cc2)c1C(=O)Nc1nccc(-c2ccc(OC(F)F)cc2)n1
REMARK SMILES IDX 9 1 8 2 6 3 7 4 5 5 1 6 2 7 3 8 71 9 4 10 72 11 73 12 74 13
REMARK SMILES IDX 75 15 76 16 90 17 77 18 79 19 78 20 80 21 81 22 89 23 82 24
REMARK SMILES IDX 88 25 83 26 84 27 85 28 86 29 87 30 10 31 11 32 12 33 13 34
REMARK SMILES IDX 14 35 15 36 16 37 17 38 18 39 70 40 19 41 69 42 20 43 21 44
REMARK SMILES IDX 22 45 63 46 23 47 68 48 62 49 64 50 24 51 67 52 61 53 60 54
REMARK SMILES IDX 25 56 51 57 34 58 50 59 35 60 38 61 49 62 65 63 36 64 37 65
REMARK SMILES IDX 48 67 66 68 39 69 26 70 27 71 32 72 28 73 29 74 31 75 33 76
REMARK SMILES IDX 30 77 52 78 53 79 58 80 54 81 55 82 57 83 59 84 56 85 40 86
REMARK SMILES IDX 41 87 46 88 42 89 43 90 45 91 47 92 44 93
REMARK H PARENT 74 14 64 55 38 66
REMARK Flexibility Score: inf
ROOT
ATOM      1  C   UNL A   1      33.544  24.689  25.802  1.00  0.00     0.261 C 
ENDROOT
BRANCH   1   2
ATOM      2  O   UNL A   1      33.467  26.081  26.141  1.00  0.00    -0.460 OA
BRANCH   2   3
ATOM      3  C   UNL A   1      32.217  26.607  26.112  1.00  0.00     0.342 C 
ATOM      4  O   UNL A   1      31.441  26.612  27.062  1.00  0.00    -0.246 OA
BRANCH   3   5
ATOM      5  C   UNL A   1      31.910  27.337  24.899  1.00  0.00     0.111 A 
ATOM      6  C   UNL A   1      29.825  29.406  23.138  1.00  0.00     0.174 C 
ATOM      7  N   UNL A   1      30.904  28.467  23.360  1.00  0.00    -0.262 N 
ATOM      8  N   UNL A   1      32.142  29.007  23.384  1.00  0.00    -0.180 NA
ATOM      9  C   UNL A   1      30.831  27.244  24.005  1.00  0.00     0.140 A 
ATOM     10  C   UNL A   1      32.707  28.394  24.417  1.00  0.00     0.151 A 
BRANCH   9  11
ATOM     11  C   UNL A   1      29.781  26.242  23.992  1.00  0.00     0.277 C 
ATOM     12  O   UNL A   1      28.636  26.528  24.360  1.00  0.00    -0.267 OA
ATOM     13  N   UNL A   1      29.905  24.971  23.509  1.00  0.00    -0.289 N 
ATOM     14  H   UNL A   1      29.033  24.523  23.412  1.00  0.00     0.173 HD
BRANCH  13  15
ATOM     15  C   UNL A   1      30.950  24.160  23.126  1.00  0.00     0.230 A 
ATOM     16  N   UNL A   1      31.825  24.783  22.322  1.00  0.00    -0.221 NA
ATOM     17  N   UNL A   1      31.110  22.917  23.585  1.00  0.00    -0.213 NA
ATOM     18  C   UNL A   1      32.977  24.145  22.055  1.00  0.00     0.117 A 
ATOM     19  C   UNL A   1      32.263  22.283  23.254  1.00  0.00     0.076 A 
ATOM     20  C   UNL A   1      33.257  22.884  22.511  1.00  0.00     0.049 A 
BRANCH  19  21
ATOM     21  C   UNL A   1      32.432  20.935  23.805  1.00  0.00     0.001 A 
ATOM     22  C   UNL A   1      32.706  20.742  25.164  1.00  0.00     0.014 A 
ATOM     23  C   UNL A   1      32.337  19.800  22.984  1.00  0.00     0.014 A 
ATOM     24  C   UNL A   1      32.898  19.455  25.678  1.00  0.00     0.047 A 
ATOM     25  C   UNL A   1      32.548  18.514  23.495  1.00  0.00     0.047 A 
ATOM     26  C   UNL A   1      32.840  18.335  24.845  1.00  0.00     0.126 A 
BRANCH  26  27
ATOM     27  O   UNL A   1      33.084  17.145  25.467  1.00  0.00    -0.435 OA
BRANCH  27  28
ATOM     28  C   UNL A   1      33.152  15.970  24.668  1.00  0.00     0.542 C 
ATOM     29  F   UNL A   1      34.401  15.829  24.161  1.00  0.00    -0.167 F 
ATOM     30  F   UNL A   1      32.869  14.876  25.413  1.00  0.00    -0.167 F 
ENDBRANCH  27  28
ENDBRANCH  26  27
ENDBRANCH  19  21
ENDBRANCH  13  15
ENDBRANCH   9  11
ENDBRANCH   3   5
ENDBRANCH   2   3
ENDBRANCH   1   2
BRANCH   1  31
ATOM     31  C   UNL A   1      34.991  24.325  25.477  1.00  0.00     0.202 C 
BRANCH  31  32
ATOM     32  O   UNL A   1      35.392  23.023  25.910  1.00  0.00    -0.374 OA
BRANCH  32  33
ATOM     33  C   UNL A   1      35.861  22.124  24.900  1.00  0.00     0.202 C 
BRANCH  33  34
ATOM     34  C   UNL A   1      36.862  21.067  25.377  1.00  0.00     0.261 C 
BRANCH  34  35
ATOM     35  O   UNL A   1      38.207  21.427  25.009  1.00  0.00    -0.460 OA
BRANCH  35  36
ATOM     36  C   UNL A   1      39.151  21.151  25.939  1.00  0.00     0.338 C 
ATOM     37  O   UNL A   1      39.684  20.077  26.158  1.00  0.00    -0.246 OA
BRANCH  36  38
ATOM     38  C   UNL A   1      39.613  22.407  26.566  1.00  0.00     0.060 A 
ATOM     39  C   UNL A   1      39.024  23.599  26.123  1.00  0.00     0.016 A 
ATOM     40  C   UNL A   1      40.630  22.432  27.522  1.00  0.00     0.016 A 
ATOM     41  C   UNL A   1      39.485  24.824  26.598  1.00  0.00     0.010 A 
ATOM     42  C   UNL A   1      41.102  23.664  27.988  1.00  0.00     0.010 A 
ATOM     43  C   UNL A   1      40.555  24.865  27.501  1.00  0.00    -0.014 A 
BRANCH  43  44
ATOM     44  C   UNL A   1      41.195  26.165  27.806  1.00  0.00     0.031 A 
ATOM     45  C   UNL A   1      42.602  26.409  27.334  1.00  0.00     0.074 A 
ATOM     46  C   UNL A   1      40.522  27.132  28.455  1.00  0.00     0.049 A 
ATOM     47  N   UNL A   1      43.358  27.467  27.488  1.00  0.00    -0.248 NA
ATOM     48  C   UNL A   1      43.241  25.315  26.587  1.00  0.00     0.031 C 
ATOM     49  C   UNL A   1      39.144  27.031  28.929  1.00  0.00     0.029 A 
ATOM     50  N   UNL A   1      40.917  28.392  28.827  1.00  0.00    -0.354 N 
ATOM     51  C   UNL A   1      44.558  27.166  26.857  1.00  0.00     0.074 A 
ATOM     52  C   UNL A   1      44.442  25.818  26.342  1.00  0.00     0.031 C 
ATOM     53  C   UNL A   1      38.810  28.181  29.540  1.00  0.00     0.029 A 
ATOM     54  C   UNL A   1      39.957  29.087  29.519  1.00  0.00     0.049 A 
ATOM     55  H   UNL A   1      41.805  28.763  28.618  1.00  0.00     0.167 HD
ATOM     56  C   UNL A   1      45.654  27.946  26.711  1.00  0.00     0.037 A 
ATOM     57  C   UNL A   1      40.007  30.308  30.083  1.00  0.00     0.037 A 
ATOM     58  C   UNL A   1      45.773  29.284  27.222  1.00  0.00     0.049 A 
ATOM     59  C   UNL A   1      41.264  31.129  29.968  1.00  0.00     0.074 A 
ATOM     60  C   UNL A   1      46.839  30.160  27.108  1.00  0.00     0.029 A 
ATOM     61  N   UNL A   1      44.793  29.939  27.950  1.00  0.00    -0.354 N 
ATOM     62  N   UNL A   1      42.383  30.845  29.347  1.00  0.00    -0.248 NA
ATOM     63  C   UNL A   1      41.263  32.441  30.632  1.00  0.00     0.031 C 
ATOM     64  C   UNL A   1      46.518  31.331  27.804  1.00  0.00     0.029 A 
ATOM     65  C   UNL A   1      45.238  31.198  28.315  1.00  0.00     0.049 A 
ATOM     66  H   UNL A   1      43.910  29.563  28.175  1.00  0.00     0.167 HD
ATOM     67  C   UNL A   1      43.209  31.948  29.527  1.00  0.00     0.074 A 
ATOM     68  C   UNL A   1      42.459  32.911  30.305  1.00  0.00     0.031 C 
ATOM     69  C   UNL A   1      44.476  32.145  29.087  1.00  0.00     0.037 A 
BRANCH  56  70
ATOM     70  C   UNL A   1      46.823  27.357  25.980  1.00  0.00     0.057 A 
ATOM     71  C   UNL A   1      47.809  26.618  26.644  1.00  0.00     0.134 A 
ATOM     72  C   UNL A   1      46.947  27.507  24.593  1.00  0.00     0.134 A 
ATOM     73  F   UNL A   1      47.755  26.452  27.974  1.00  0.00    -0.206 F 
ATOM     74  C   UNL A   1      48.889  26.062  25.956  1.00  0.00     0.040 A 
ATOM     75  C   UNL A   1      48.011  26.939  23.892  1.00  0.00     0.040 A 
ATOM     76  F   UNL A   1      46.034  28.202  23.899  1.00  0.00    -0.206 F 
ATOM     77  C   UNL A   1      48.988  26.217  24.574  1.00  0.00     0.006 A 
ENDBRANCH  56  70
BRANCH  57  78
ATOM     78  C   UNL A   1      38.835  30.832  30.826  1.00  0.00     0.057 A 
ATOM     79  C   UNL A   1      38.649  30.548  32.184  1.00  0.00     0.134 A 
ATOM     80  C   UNL A   1      37.858  31.606  30.188  1.00  0.00     0.134 A 
ATOM     81  F   UNL A   1      39.538  29.789  32.842  1.00  0.00    -0.206 F 
ATOM     82  C   UNL A   1      37.527  31.004  32.878  1.00  0.00     0.040 A 
ATOM     83  C   UNL A   1      36.742  32.085  30.874  1.00  0.00     0.040 A 
ATOM     84  F   UNL A   1      37.977  31.907  28.887  1.00  0.00    -0.206 F 
ATOM     85  C   UNL A   1      36.572  31.779  32.223  1.00  0.00     0.006 A 
ENDBRANCH  57  78
BRANCH  69  86
ATOM     86  C   UNL A   1      45.120  33.459  29.414  1.00  0.00     0.057 A 
ATOM     87  C   UNL A   1      44.974  34.577  28.584  1.00  0.00     0.134 A 
ATOM     88  C   UNL A   1      45.857  33.619  30.594  1.00  0.00     0.134 A 
ATOM     89  F   UNL A   1      44.291  34.484  27.434  1.00  0.00    -0.206 F 
ATOM     90  C   UNL A   1      45.554  35.805  28.907  1.00  0.00     0.040 A 
ATOM     91  C   UNL A   1      46.424  34.847  30.940  1.00  0.00     0.040 A 
ATOM     92  F   UNL A   1      46.027  32.589  31.436  1.00  0.00    -0.206 F 
ATOM     93  C   UNL A   1      46.276  35.943  30.091  1.00  0.00     0.006 A 
ENDBRANCH  69  86
ENDBRANCH  43  44
ENDBRANCH  36  38
ENDBRANCH  35  36
ENDBRANCH  34  35
ENDBRANCH  33  34
ENDBRANCH  32  33
ENDBRANCH  31  32
ENDBRANCH   1  31
TORSDOF 19
ENDMDL
MODEL 3
REMARK VINA RESULT:     -11.6      3.983      9.205
REMARK SMILES Cn1ncc(C(=O)OCCOCCOC(=O)c2ccc(-c3c4nc(c(-c5c(F)cccc5F)c5ccc([nH]5)c(-c5c(F)cccc5F)c5nc(c(-c6c(F)cccc6F)c6ccc3[nH]6)C=C5)C=C4)cc2)c1C(=O)Nc1nccc(-c2ccc(OC(F)F)cc2)n1
REMARK SMILES IDX 9 1 8 2 6 3 7 4 5 5 1 6 2 7 3 8 71 9 4 10 72 11 73 12 74 13
REMARK SMILES IDX 75 15 76 16 90 17 77 18 79 19 78 20 80 21 81 22 89 23 82 24
REMARK SMILES IDX 88 25 83 26 84 27 85 28 86 29 87 30 10 31 11 32 12 33 13 34
REMARK SMILES IDX 14 35 15 36 16 37 17 38 18 39 70 40 19 41 69 42 20 43 21 44
REMARK SMILES IDX 22 45 63 46 23 47 68 48 62 49 64 50 24 51 67 52 61 53 60 54
REMARK SMILES IDX 25 56 51 57 34 58 50 59 35 60 38 61 49 62 65 63 36 64 37 65
REMARK SMILES IDX 48 67 66 68 39 69 26 70 27 71 32 72 28 73 29 74 31 75 33 76
REMARK SMILES IDX 30 77 52 78 53 79 58 80 54 81 55 82 57 83 59 84 56 85 40 86
REMARK SMILES IDX 41 87 46 88 42 89 43 90 45 91 47 92 44 93
REMARK H PARENT 74 14 64 55 38 66
REMARK Flexibility Score: inf
ROOT
ATOM      1  C   UNL A   1      33.615  24.764  25.746  1.00  0.00     0.261 C 
ENDROOT
BRANCH   1   2
ATOM      2  O   UNL A   1      33.535  26.141  26.139  1.00  0.00    -0.460 OA
BRANCH   2   3
ATOM      3  C   UNL A   1      32.279  26.655  26.163  1.00  0.00     0.342 C 
ATOM      4  O   UNL A   1      31.546  26.655  27.146  1.00  0.00    -0.246 OA
BRANCH   3   5
ATOM      5  C   UNL A   1      31.912  27.379  24.964  1.00  0.00     0.111 A 
ATOM      6  C   UNL A   1      29.710  29.386  23.275  1.00  0.00     0.174 C 
ATOM      7  N   UNL A   1      30.825  28.481  23.461  1.00  0.00    -0.262 N 
ATOM      8  N   UNL A   1      32.046  29.061  23.449  1.00  0.00    -0.180 NA
ATOM      9  C   UNL A   1      30.811  27.254  24.103  1.00  0.00     0.140 A 
ATOM     10  C   UNL A   1      32.660  28.463  24.462  1.00  0.00     0.151 A 
BRANCH   9  11
ATOM     11  C   UNL A   1      29.793  26.219  24.117  1.00  0.00     0.277 C 
ATOM     12  O   UNL A   1      28.670  26.451  24.579  1.00  0.00    -0.267 OA
ATOM     13  N   UNL A   1      29.920  24.976  23.567  1.00  0.00    -0.289 N 
ATOM     14  H   UNL A   1      29.057  24.505  23.512  1.00  0.00     0.173 HD
BRANCH  13  15
ATOM     15  C   UNL A   1      30.958  24.218  23.072  1.00  0.00     0.230 A 
ATOM     16  N   UNL A   1      31.812  24.932  22.324  1.00  0.00    -0.221 NA
ATOM     17  N   UNL A   1      31.132  22.933  23.387  1.00  0.00    -0.213 NA
ATOM     18  C   UNL A   1      32.959  24.334  21.962  1.00  0.00     0.117 A 
ATOM     19  C   UNL A   1      32.279  22.346  22.961  1.00  0.00     0.076 A 
ATOM     20  C   UNL A   1      33.254  23.032  22.268  1.00  0.00     0.049 A 
BRANCH  19  21
ATOM     21  C   UNL A   1      32.464  20.946  23.355  1.00  0.00     0.001 A 
ATOM     22  C   UNL A   1      32.121  19.903  22.487  1.00  0.00     0.014 A 
ATOM     23  C   UNL A   1      32.980  20.612  24.617  1.00  0.00     0.014 A 
ATOM     24  C   UNL A   1      32.272  18.569  22.881  1.00  0.00     0.047 A 
ATOM     25  C   UNL A   1      33.112  19.277  25.018  1.00  0.00     0.047 A 
ATOM     26  C   UNL A   1      32.749  18.246  24.154  1.00  0.00     0.126 A 
BRANCH  26  27
ATOM     27  O   UNL A   1      32.809  16.909  24.422  1.00  0.00    -0.435 OA
BRANCH  27  28
ATOM     28  C   UNL A   1      34.008  16.214  24.103  1.00  0.00     0.542 C 
ATOM     29  F   UNL A   1      34.649  16.842  23.087  1.00  0.00    -0.167 F 
ATOM     30  F   UNL A   1      34.836  16.186  25.175  1.00  0.00    -0.167 F 
ENDBRANCH  27  28
ENDBRANCH  26  27
ENDBRANCH  19  21
ENDBRANCH  13  15
ENDBRANCH   9  11
ENDBRANCH   3   5
ENDBRANCH   2   3
ENDBRANCH   1   2
BRANCH   1  31
ATOM     31  C   UNL A   1      35.004  24.478  25.179  1.00  0.00     0.202 C 
BRANCH  31  32
ATOM     32  O   UNL A   1      35.362  23.095  25.141  1.00  0.00    -0.374 OA
BRANCH  32  33
ATOM     33  C   UNL A   1      36.197  22.675  24.057  1.00  0.00     0.202 C 
BRANCH  33  34
ATOM     34  C   UNL A   1      37.122  21.492  24.362  1.00  0.00     0.261 C 
BRANCH  34  35
ATOM     35  O   UNL A   1      37.477  21.462  25.758  1.00  0.00    -0.460 OA
BRANCH  35  36
ATOM     36  C   UNL A   1      38.785  21.227  26.013  1.00  0.00     0.338 C 
ATOM     37  O   UNL A   1      39.441  20.252  25.689  1.00  0.00    -0.246 OA
BRANCH  36  38
ATOM     38  C   UNL A   1      39.400  22.435  26.604  1.00  0.00     0.060 A 
ATOM     39  C   UNL A   1      38.859  23.674  26.236  1.00  0.00     0.016 A 
ATOM     40  C   UNL A   1      40.506  22.368  27.452  1.00  0.00     0.016 A 
ATOM     41  C   UNL A   1      39.455  24.854  26.675  1.00  0.00     0.010 A 
ATOM     42  C   UNL A   1      41.112  23.554  27.881  1.00  0.00     0.010 A 
ATOM     43  C   UNL A   1      40.610  24.800  27.466  1.00  0.00    -0.014 A 
BRANCH  43  44
ATOM     44  C   UNL A   1      41.372  26.045  27.718  1.00  0.00     0.031 A 
ATOM     45  C   UNL A   1      40.716  27.153  28.494  1.00  0.00     0.074 A 
ATOM     46  C   UNL A   1      42.644  26.173  27.300  1.00  0.00     0.049 A 
ATOM     47  N   UNL A   1      41.190  28.326  28.829  1.00  0.00    -0.248 NA
ATOM     48  C   UNL A   1      39.341  26.904  28.955  1.00  0.00     0.031 C 
ATOM     49  C   UNL A   1      43.402  25.157  26.572  1.00  0.00     0.029 A 
ATOM     50  N   UNL A   1      43.520  27.220  27.431  1.00  0.00    -0.354 N 
ATOM     51  C   UNL A   1      40.175  28.952  29.541  1.00  0.00     0.074 A 
ATOM     52  C   UNL A   1      39.049  28.043  29.566  1.00  0.00     0.031 C 
ATOM     53  C   UNL A   1      44.630  25.637  26.311  1.00  0.00     0.029 A 
ATOM     54  C   UNL A   1      44.735  26.998  26.834  1.00  0.00     0.049 A 
ATOM     55  H   UNL A   1      43.298  28.053  27.908  1.00  0.00     0.167 HD
ATOM     56  C   UNL A   1      40.184  30.171  30.130  1.00  0.00     0.037 A 
ATOM     57  C   UNL A   1      45.803  27.809  26.710  1.00  0.00     0.037 A 
ATOM     58  C   UNL A   1      41.300  31.077  30.106  1.00  0.00     0.049 A 
ATOM     59  C   UNL A   1      45.762  29.188  27.313  1.00  0.00     0.074 A 
ATOM     60  C   UNL A   1      41.410  32.328  30.689  1.00  0.00     0.029 A 
ATOM     61  N   UNL A   1      42.500  30.831  29.458  1.00  0.00    -0.354 N 
ATOM     62  N   UNL A   1      44.807  29.761  28.005  1.00  0.00    -0.248 NA
ATOM     63  C   UNL A   1      46.949  30.034  27.116  1.00  0.00     0.031 C 
ATOM     64  C   UNL A   1      42.662  32.855  30.359  1.00  0.00     0.029 A 
ATOM     65  C   UNL A   1      43.347  31.916  29.605  1.00  0.00     0.049 A 
ATOM     66  H   UNL A   1      42.718  30.005  28.966  1.00  0.00     0.167 HD
ATOM     67  C   UNL A   1      45.284  31.020  28.344  1.00  0.00     0.074 A 
ATOM     68  C   UNL A   1      46.618  31.127  27.791  1.00  0.00     0.031 C 
ATOM     69  C   UNL A   1      44.673  32.003  29.050  1.00  0.00     0.037 A 
BRANCH  56  70
ATOM     70  C   UNL A   1      38.933  30.601  30.836  1.00  0.00     0.057 A 
ATOM     71  C   UNL A   1      38.723  30.326  32.192  1.00  0.00     0.134 A 
ATOM     72  C   UNL A   1      37.944  31.324  30.158  1.00  0.00     0.134 A 
ATOM     73  F   UNL A   1      39.627  29.624  32.892  1.00  0.00    -0.206 F 
ATOM     74  C   UNL A   1      37.561  30.740  32.847  1.00  0.00     0.040 A 
ATOM     75  C   UNL A   1      36.788  31.760  30.807  1.00  0.00     0.040 A 
ATOM     76  F   UNL A   1      38.087  31.621  28.858  1.00  0.00    -0.206 F 
ATOM     77  C   UNL A   1      36.593  31.465  32.155  1.00  0.00     0.006 A 
ENDBRANCH  56  70
BRANCH  57  78
ATOM     78  C   UNL A   1      47.004  27.349  25.971  1.00  0.00     0.057 A 
ATOM     79  C   UNL A   1      47.112  27.514  24.585  1.00  0.00     0.134 A 
ATOM     80  C   UNL A   1      48.060  26.709  26.630  1.00  0.00     0.134 A 
ATOM     81  F   UNL A   1      46.120  28.096  23.896  1.00  0.00    -0.206 F 
ATOM     82  C   UNL A   1      48.221  27.046  23.879  1.00  0.00     0.040 A 
ATOM     83  C   UNL A   1      49.184  26.255  25.940  1.00  0.00     0.040 A 
ATOM     84  F   UNL A   1      48.013  26.517  27.956  1.00  0.00    -0.206 F 
ATOM     85  C   UNL A   1      49.264  26.418  24.558  1.00  0.00     0.006 A 
ENDBRANCH  57  78
BRANCH  69  86
ATOM     86  C   UNL A   1      45.448  33.265  29.286  1.00  0.00     0.057 A 
ATOM     87  C   UNL A   1      46.308  33.405  30.382  1.00  0.00     0.134 A 
ATOM     88  C   UNL A   1      45.366  34.332  28.384  1.00  0.00     0.134 A 
ATOM     89  F   UNL A   1      46.421  32.422  31.288  1.00  0.00    -0.206 F 
ATOM     90  C   UNL A   1      47.048  34.572  30.582  1.00  0.00     0.040 A 
ATOM     91  C   UNL A   1      46.116  35.496  28.561  1.00  0.00     0.040 A 
ATOM     92  F   UNL A   1      44.566  34.257  27.310  1.00  0.00    -0.206 F 
ATOM     93  C   UNL A   1      46.957  35.619  29.667  1.00  0.00     0.006 A 
ENDBRANCH  69  86
ENDBRANCH  43  44
ENDBRANCH  36  38
ENDBRANCH  35  36
ENDBRANCH  34  35
ENDBRANCH  33  34
ENDBRANCH  32  33
ENDBRANCH  31  32
ENDBRANCH   1  31
TORSDOF 19
ENDMDL
