MODEL 1
REMARK VINA RESULT:     -11.4      0.000      0.000
REMARK SMILES CC[C@@H]1CC[C@](C[C@@H]2CCCc3ccccc32)(C(=O)OCCOCCOC(=O)c2ccc(-c3c4nc(c(-c5c(F)cccc5F)c5ccc([nH]5)c(-c5c(F)cccc5F)c5nc(c(-c6c(F)cccc6F)c6ccc3[nH]6)C=C5)C=C4)cc2)C1
REMARK SMILES IDX 23 1 22 2 21 3 20 4 18 5 19 6 6 7 3 8 4 9 83 10 5 11 2 12
REMARK SMILES IDX 1 13 7 14 8 15 9 16 17 17 10 18 12 19 16 20 11 21 13 22
REMARK SMILES IDX 15 23 14 24 24 25 25 26 26 27 27 28 28 29 29 30 30 31 82 32
REMARK SMILES IDX 31 33 81 34 32 35 33 36 34 37 75 38 35 39 80 40 74 41 76 42
REMARK SMILES IDX 36 43 79 44 73 45 72 46 37 48 63 49 46 50 62 51 47 52 50 53
REMARK SMILES IDX 61 54 77 55 48 56 49 57 60 59 78 60 51 61 38 62 39 63 44 64
REMARK SMILES IDX 40 65 41 66 43 67 45 68 42 69 64 70 65 71 70 72 66 73 67 74
REMARK SMILES IDX 69 75 71 76 68 77 52 78 53 79 58 80 54 81 55 82 57 83 59 84
REMARK SMILES IDX 56 85
REMARK H PARENT 76 47 50 58
REMARK Flexibility Score: inf
ROOT
ATOM      1  O   UNL A   1      35.738  20.892  24.979  1.00  0.00    -0.374 OA
ENDROOT
BRANCH   1   2
ATOM      2  C   UNL A   1      34.320  20.808  24.878  1.00  0.00     0.202 C 
BRANCH   2   3
ATOM      3  C   UNL A   1      33.506  20.953  26.166  1.00  0.00     0.261 C 
BRANCH   3   4
ATOM      4  O   UNL A   1      32.334  21.763  25.995  1.00  0.00    -0.463 OA
BRANCH   4   5
ATOM      5  C   UNL A   1      32.297  22.889  26.760  1.00  0.00     0.312 C 
ATOM      6  O   UNL A   1      32.406  22.882  27.983  1.00  0.00    -0.252 OA
BRANCH   5   7
ATOM      7  C   UNL A   1      32.106  24.192  25.939  1.00  0.00     0.069 C 
ATOM      8  C   UNL A   1      33.247  24.532  23.804  1.00  0.00    -0.010 C 
ATOM      9  C   UNL A   1      34.299  24.525  24.900  1.00  0.00     0.005 C 
ATOM     10  C   UNL A   1      32.069  23.792  24.443  1.00  0.00     0.022 C 
ATOM     11  C   UNL A   1      33.464  24.919  26.126  1.00  0.00     0.019 C 
BRANCH   8  12
ATOM     12  C   UNL A   1      33.673  24.059  22.417  1.00  0.00     0.000 C 
ATOM     13  C   UNL A   1      32.904  22.888  21.838  1.00  0.00     0.004 C 
ENDBRANCH   8  12
BRANCH   7  14
ATOM     14  C   UNL A   1      30.810  24.961  26.364  1.00  0.00     0.027 C 
BRANCH  14  15
ATOM     15  C   UNL A   1      30.328  26.332  25.776  1.00  0.00     0.020 C 
ATOM     16  C   UNL A   1      29.545  26.327  24.450  1.00  0.00     0.009 C 
ATOM     17  C   UNL A   1      31.366  27.420  25.855  1.00  0.00    -0.042 A 
ATOM     18  C   UNL A   1      30.335  26.632  23.186  1.00  0.00     0.005 C 
ATOM     19  C   UNL A   1      31.947  27.967  24.704  1.00  0.00    -0.045 A 
ATOM     20  C   UNL A   1      31.814  27.833  27.124  1.00  0.00     0.004 A 
ATOM     21  C   UNL A   1      31.396  27.723  23.324  1.00  0.00     0.036 C 
ATOM     22  C   UNL A   1      33.053  28.821  24.847  1.00  0.00     0.004 A 
ATOM     23  C   UNL A   1      32.894  28.701  27.251  1.00  0.00     0.000 A 
ATOM     24  C   UNL A   1      33.535  29.169  26.111  1.00  0.00     0.000 A 
ENDBRANCH  14  15
ENDBRANCH   7  14
ENDBRANCH   5   7
ENDBRANCH   4   5
ENDBRANCH   3   4
ENDBRANCH   2   3
ENDBRANCH   1   2
BRANCH   1  25
ATOM     25  C   UNL A   1      36.486  19.676  25.000  1.00  0.00     0.202 C 
BRANCH  25  26
ATOM     26  C   UNL A   1      38.005  19.779  24.826  1.00  0.00     0.261 C 
BRANCH  26  27
ATOM     27  O   UNL A   1      38.534  20.996  25.387  1.00  0.00    -0.460 OA
BRANCH  27  28
ATOM     28  C   UNL A   1      39.656  20.827  26.128  1.00  0.00     0.338 C 
ATOM     29  O   UNL A   1      40.401  19.864  26.136  1.00  0.00    -0.246 OA
BRANCH  28  30
ATOM     30  C   UNL A   1      39.995  22.074  26.837  1.00  0.00     0.060 A 
ATOM     31  C   UNL A   1      39.287  23.228  26.475  1.00  0.00     0.016 A 
ATOM     32  C   UNL A   1      41.061  22.145  27.735  1.00  0.00     0.016 A 
ATOM     33  C   UNL A   1      39.686  24.469  26.959  1.00  0.00     0.010 A 
ATOM     34  C   UNL A   1      41.467  23.397  28.213  1.00  0.00     0.010 A 
ATOM     35  C   UNL A   1      40.810  24.566  27.789  1.00  0.00    -0.014 A 
BRANCH  35  36
ATOM     36  C   UNL A   1      41.389  25.907  28.048  1.00  0.00     0.031 A 
ATOM     37  C   UNL A   1      42.768  26.214  27.531  1.00  0.00     0.074 A 
ATOM     38  C   UNL A   1      40.672  26.860  28.666  1.00  0.00     0.049 A 
ATOM     39  N   UNL A   1      43.453  27.329  27.599  1.00  0.00    -0.248 NA
ATOM     40  C   UNL A   1      43.470  25.120  26.840  1.00  0.00     0.031 C 
ATOM     41  C   UNL A   1      39.312  26.698  29.175  1.00  0.00     0.029 A 
ATOM     42  N   UNL A   1      40.992  28.161  28.961  1.00  0.00    -0.354 N 
ATOM     43  C   UNL A   1      44.658  27.070  26.960  1.00  0.00     0.074 A 
ATOM     44  C   UNL A   1      44.629  25.687  26.540  1.00  0.00     0.031 C 
ATOM     45  C   UNL A   1      38.912  27.859  29.724  1.00  0.00     0.029 A 
ATOM     46  C   UNL A   1      39.995  28.836  29.620  1.00  0.00     0.049 A 
ATOM     47  H   UNL A   1      41.853  28.572  28.722  1.00  0.00     0.167 HD
ATOM     48  C   UNL A   1      45.693  27.913  26.730  1.00  0.00     0.037 A 
ATOM     49  C   UNL A   1      39.964  30.097  30.092  1.00  0.00     0.037 A 
ATOM     50  C   UNL A   1      45.725  29.291  27.146  1.00  0.00     0.049 A 
ATOM     51  C   UNL A   1      41.153  30.997  29.880  1.00  0.00     0.074 A 
ATOM     52  C   UNL A   1      46.724  30.229  26.948  1.00  0.00     0.029 A 
ATOM     53  N   UNL A   1      44.713  29.924  27.850  1.00  0.00    -0.354 N 
ATOM     54  N   UNL A   1      42.277  30.750  29.252  1.00  0.00    -0.248 NA
ATOM     55  C   UNL A   1      41.064  32.354  30.438  1.00  0.00     0.031 C 
ATOM     56  C   UNL A   1      46.333  31.420  27.570  1.00  0.00     0.029 A 
ATOM     57  C   UNL A   1      45.073  31.235  28.116  1.00  0.00     0.049 A 
ATOM     58  H   UNL A   1      43.865  29.505  28.121  1.00  0.00     0.167 HD
ATOM     59  C   UNL A   1      43.017  31.923  29.319  1.00  0.00     0.074 A 
ATOM     60  C   UNL A   1      42.209  32.887  30.036  1.00  0.00     0.031 C 
ATOM     61  C   UNL A   1      44.256  32.181  28.831  1.00  0.00     0.037 A 
BRANCH  48  62
ATOM     62  C   UNL A   1      46.886  27.357  26.012  1.00  0.00     0.057 A 
ATOM     63  C   UNL A   1      47.007  27.425  24.619  1.00  0.00     0.134 A 
ATOM     64  C   UNL A   1      47.936  26.764  26.724  1.00  0.00     0.134 A 
ATOM     65  F   UNL A   1      46.029  27.966  23.877  1.00  0.00    -0.206 F 
ATOM     66  C   UNL A   1      48.121  26.906  23.957  1.00  0.00     0.040 A 
ATOM     67  C   UNL A   1      49.065  26.262  26.077  1.00  0.00     0.040 A 
ATOM     68  F   UNL A   1      47.883  26.669  28.062  1.00  0.00    -0.206 F 
ATOM     69  C   UNL A   1      49.157  26.326  24.688  1.00  0.00     0.006 A 
ENDBRANCH  48  62
BRANCH  49  70
ATOM     70  C   UNL A   1      38.768  30.589  30.820  1.00  0.00     0.057 A 
ATOM     71  C   UNL A   1      38.615  30.375  32.194  1.00  0.00     0.134 A 
ATOM     72  C   UNL A   1      37.738  31.261  30.151  1.00  0.00     0.134 A 
ATOM     73  F   UNL A   1      39.557  29.715  32.884  1.00  0.00    -0.206 F 
ATOM     74  C   UNL A   1      37.473  30.799  32.876  1.00  0.00     0.040 A 
ATOM     75  C   UNL A   1      36.602  31.710  30.824  1.00  0.00     0.040 A 
ATOM     76  F   UNL A   1      37.825  31.494  28.833  1.00  0.00    -0.206 F 
ATOM     77  C   UNL A   1      36.464  31.474  32.190  1.00  0.00     0.006 A 
ENDBRANCH  49  70
BRANCH  61  78
ATOM     78  C   UNL A   1      44.799  33.565  29.036  1.00  0.00     0.057 A 
ATOM     79  C   UNL A   1      44.544  34.600  28.127  1.00  0.00     0.134 A 
ATOM     80  C   UNL A   1      45.559  33.873  30.172  1.00  0.00     0.134 A 
ATOM     81  F   UNL A   1      43.833  34.366  27.014  1.00  0.00    -0.206 F 
ATOM     82  C   UNL A   1      45.050  35.885  28.326  1.00  0.00     0.040 A 
ATOM     83  C   UNL A   1      46.049  35.161  30.394  1.00  0.00     0.040 A 
ATOM     84  F   UNL A   1      45.830  32.930  31.086  1.00  0.00    -0.206 F 
ATOM     85  C   UNL A   1      45.800  36.170  29.467  1.00  0.00     0.006 A 
ENDBRANCH  61  78
ENDBRANCH  35  36
ENDBRANCH  28  30
ENDBRANCH  27  28
ENDBRANCH  26  27
ENDBRANCH  25  26
ENDBRANCH   1  25
TORSDOF 17
ENDMDL
MODEL 2
REMARK VINA RESULT:     -11.2      2.037      2.607
REMARK SMILES CC[C@@H]1CC[C@](C[C@@H]2CCCc3ccccc32)(C(=O)OCCOCCOC(=O)c2ccc(-c3c4nc(c(-c5c(F)cccc5F)c5ccc([nH]5)c(-c5c(F)cccc5F)c5nc(c(-c6c(F)cccc6F)c6ccc3[nH]6)C=C5)C=C4)cc2)C1
REMARK SMILES IDX 23 1 22 2 21 3 20 4 18 5 19 6 6 7 3 8 4 9 83 10 5 11 2 12
REMARK SMILES IDX 1 13 7 14 8 15 9 16 17 17 10 18 12 19 16 20 11 21 13 22
REMARK SMILES IDX 15 23 14 24 24 25 25 26 26 27 27 28 28 29 29 30 30 31 82 32
REMARK SMILES IDX 31 33 81 34 32 35 33 36 34 37 75 38 35 39 80 40 74 41 76 42
REMARK SMILES IDX 36 43 79 44 73 45 72 46 37 48 63 49 46 50 62 51 47 52 50 53
REMARK SMILES IDX 61 54 77 55 48 56 49 57 60 59 78 60 51 61 38 62 39 63 44 64
REMARK SMILES IDX 40 65 41 66 43 67 45 68 42 69 64 70 65 71 70 72 66 73 67 74
REMARK SMILES IDX 69 75 71 76 68 77 52 78 53 79 58 80 54 81 55 82 57 83 59 84
REMARK SMILES IDX 56 85
REMARK H PARENT 76 47 50 58
REMARK Flexibility Score: inf
ROOT
ATOM      1  O   UNL A   1      36.533  20.868  25.546  1.00  0.00    -0.374 OA
ENDROOT
BRANCH   1   2
ATOM      2  C   UNL A   1      35.368  21.502  25.029  1.00  0.00     0.202 C 
BRANCH   2   3
ATOM      3  C   UNL A   1      34.007  20.962  25.477  1.00  0.00     0.261 C 
BRANCH   3   4
ATOM      4  O   UNL A   1      32.960  21.937  25.368  1.00  0.00    -0.463 OA
BRANCH   4   5
ATOM      5  C   UNL A   1      33.027  22.956  26.270  1.00  0.00     0.312 C 
ATOM      6  O   UNL A   1      33.420  22.816  27.424  1.00  0.00    -0.252 OA
BRANCH   5   7
ATOM      7  C   UNL A   1      32.559  24.322  25.698  1.00  0.00     0.069 C 
ATOM      8  C   UNL A   1      33.191  25.047  23.452  1.00  0.00    -0.010 C 
ATOM      9  C   UNL A   1      34.449  25.020  24.305  1.00  0.00     0.005 C 
ATOM     10  C   UNL A   1      32.241  24.108  24.198  1.00  0.00     0.022 C 
ATOM     11  C   UNL A   1      33.862  25.165  25.716  1.00  0.00     0.019 C 
BRANCH   8  12
ATOM     12  C   UNL A   1      33.353  24.800  21.955  1.00  0.00     0.000 C 
ATOM     13  C   UNL A   1      32.627  25.759  21.031  1.00  0.00     0.004 C 
ENDBRANCH   8  12
BRANCH   7  14
ATOM     14  C   UNL A   1      31.324  24.885  26.478  1.00  0.00     0.027 C 
BRANCH  14  15
ATOM     15  C   UNL A   1      30.527  26.184  26.112  1.00  0.00     0.020 C 
ATOM     16  C   UNL A   1      29.475  26.107  24.991  1.00  0.00     0.009 C 
ATOM     17  C   UNL A   1      31.388  27.418  26.043  1.00  0.00    -0.042 A 
ATOM     18  C   UNL A   1      29.905  26.583  23.611  1.00  0.00     0.005 C 
ATOM     19  C   UNL A   1      31.608  28.095  24.836  1.00  0.00    -0.045 A 
ATOM     20  C   UNL A   1      32.047  27.847  27.210  1.00  0.00     0.004 A 
ATOM     21  C   UNL A   1      30.801  27.821  23.595  1.00  0.00     0.036 C 
ATOM     22  C   UNL A   1      32.582  29.106  24.798  1.00  0.00     0.004 A 
ATOM     23  C   UNL A   1      32.990  28.869  27.163  1.00  0.00     0.000 A 
ATOM     24  C   UNL A   1      33.282  29.476  25.948  1.00  0.00     0.000 A 
ENDBRANCH  14  15
ENDBRANCH   7  14
ENDBRANCH   5   7
ENDBRANCH   4   5
ENDBRANCH   3   4
ENDBRANCH   2   3
ENDBRANCH   1   2
BRANCH   1  25
ATOM     25  C   UNL A   1      37.033  19.716  24.866  1.00  0.00     0.202 C 
BRANCH  25  26
ATOM     26  C   UNL A   1      38.447  19.246  25.221  1.00  0.00     0.261 C 
BRANCH  26  27
ATOM     27  O   UNL A   1      39.270  20.323  25.709  1.00  0.00    -0.460 OA
BRANCH  27  28
ATOM     28  C   UNL A   1      40.542  19.962  26.007  1.00  0.00     0.338 C 
ATOM     29  O   UNL A   1      41.097  18.912  25.738  1.00  0.00    -0.246 OA
BRANCH  28  30
ATOM     30  C   UNL A   1      41.280  21.106  26.572  1.00  0.00     0.060 A 
ATOM     31  C   UNL A   1      41.189  21.306  27.955  1.00  0.00     0.016 A 
ATOM     32  C   UNL A   1      41.935  22.033  25.759  1.00  0.00     0.016 A 
ATOM     33  C   UNL A   1      41.695  22.470  28.525  1.00  0.00     0.010 A 
ATOM     34  C   UNL A   1      42.434  23.209  26.334  1.00  0.00     0.010 A 
ATOM     35  C   UNL A   1      42.274  23.451  27.710  1.00  0.00    -0.014 A 
BRANCH  35  36
ATOM     36  C   UNL A   1      42.533  24.793  28.288  1.00  0.00     0.031 A 
ATOM     37  C   UNL A   1      43.940  25.155  28.678  1.00  0.00     0.074 A 
ATOM     38  C   UNL A   1      41.548  25.700  28.392  1.00  0.00     0.049 A 
ATOM     39  N   UNL A   1      44.406  26.281  29.158  1.00  0.00    -0.248 NA
ATOM     40  C   UNL A   1      44.961  24.109  28.502  1.00  0.00     0.031 C 
ATOM     41  C   UNL A   1      40.154  25.483  28.009  1.00  0.00     0.029 A 
ATOM     42  N   UNL A   1      41.577  26.994  28.847  1.00  0.00    -0.354 N 
ATOM     43  C   UNL A   1      45.768  26.080  29.335  1.00  0.00     0.074 A 
ATOM     44  C   UNL A   1      46.050  24.716  28.947  1.00  0.00     0.031 C 
ATOM     45  C   UNL A   1      39.458  26.609  28.247  1.00  0.00     0.029 A 
ATOM     46  C   UNL A   1      40.354  27.616  28.815  1.00  0.00     0.049 A 
ATOM     47  H   UNL A   1      42.398  27.436  29.164  1.00  0.00     0.167 HD
ATOM     48  C   UNL A   1      46.704  26.956  29.771  1.00  0.00     0.037 A 
ATOM     49  C   UNL A   1      39.998  28.854  29.209  1.00  0.00     0.037 A 
ATOM     50  C   UNL A   1      46.426  28.315  30.158  1.00  0.00     0.049 A 
ATOM     51  C   UNL A   1      41.045  29.789  29.750  1.00  0.00     0.074 A 
ATOM     52  C   UNL A   1      47.310  29.285  30.600  1.00  0.00     0.029 A 
ATOM     53  N   UNL A   1      45.166  28.893  30.153  1.00  0.00    -0.354 N 
ATOM     54  N   UNL A   1      42.335  29.597  29.889  1.00  0.00    -0.248 NA
ATOM     55  C   UNL A   1      40.588  31.118  30.181  1.00  0.00     0.031 C 
ATOM     56  C   UNL A   1      46.577  30.437  30.903  1.00  0.00     0.029 A 
ATOM     57  C   UNL A   1      45.245  30.199  30.608  1.00  0.00     0.049 A 
ATOM     58  H   UNL A   1      44.339  28.442  29.870  1.00  0.00     0.167 HD
ATOM     59  C   UNL A   1      42.844  30.784  30.402  1.00  0.00     0.074 A 
ATOM     60  C   UNL A   1      41.727  31.696  30.534  1.00  0.00     0.031 C 
ATOM     61  C   UNL A   1      44.122  31.092  30.733  1.00  0.00     0.037 A 
BRANCH  48  62
ATOM     62  C   UNL A   1      48.116  26.461  29.870  1.00  0.00     0.057 A 
ATOM     63  C   UNL A   1      49.033  26.628  28.825  1.00  0.00     0.134 A 
ATOM     64  C   UNL A   1      48.570  25.828  31.034  1.00  0.00     0.134 A 
ATOM     65  F   UNL A   1      48.656  27.212  27.678  1.00  0.00    -0.206 F 
ATOM     66  C   UNL A   1      50.346  26.165  28.926  1.00  0.00     0.040 A 
ATOM     67  C   UNL A   1      49.886  25.381  31.156  1.00  0.00     0.040 A 
ATOM     68  F   UNL A   1      47.742  25.639  32.074  1.00  0.00    -0.206 F 
ATOM     69  C   UNL A   1      50.777  25.543  30.097  1.00  0.00     0.006 A 
ENDBRANCH  48  62
BRANCH  49  70
ATOM     70  C   UNL A   1      38.581  29.284  29.114  1.00  0.00     0.057 A 
ATOM     71  C   UNL A   1      38.036  29.730  27.905  1.00  0.00     0.134 A 
ATOM     72  C   UNL A   1      37.746  29.283  30.237  1.00  0.00     0.134 A 
ATOM     73  F   UNL A   1      38.794  29.777  26.799  1.00  0.00    -0.206 F 
ATOM     74  C   UNL A   1      36.715  30.174  27.818  1.00  0.00     0.040 A 
ATOM     75  C   UNL A   1      36.417  29.702  30.161  1.00  0.00     0.040 A 
ATOM     76  F   UNL A   1      38.210  28.868  31.426  1.00  0.00    -0.206 F 
ATOM     77  C   UNL A   1      35.900  30.156  28.949  1.00  0.00     0.006 A 
ENDBRANCH  49  70
BRANCH  61  78
ATOM     78  C   UNL A   1      44.381  32.479  31.247  1.00  0.00     0.057 A 
ATOM     79  C   UNL A   1      44.665  33.545  30.383  1.00  0.00     0.134 A 
ATOM     80  C   UNL A   1      44.317  32.756  32.618  1.00  0.00     0.134 A 
ATOM     81  F   UNL A   1      44.754  33.342  29.060  1.00  0.00    -0.206 F 
ATOM     82  C   UNL A   1      44.902  34.831  30.868  1.00  0.00     0.040 A 
ATOM     83  C   UNL A   1      44.526  34.044  33.113  1.00  0.00     0.040 A 
ATOM     84  F   UNL A   1      44.040  31.781  33.497  1.00  0.00    -0.206 F 
ATOM     85  C   UNL A   1      44.826  35.085  32.237  1.00  0.00     0.006 A 
ENDBRANCH  61  78
ENDBRANCH  35  36
ENDBRANCH  28  30
ENDBRANCH  27  28
ENDBRANCH  26  27
ENDBRANCH  25  26
ENDBRANCH   1  25
TORSDOF 17
ENDMDL
MODEL 3
REMARK VINA RESULT:     -11.1      4.210      9.335
REMARK SMILES CC[C@@H]1CC[C@](C[C@@H]2CCCc3ccccc32)(C(=O)OCCOCCOC(=O)c2ccc(-c3c4nc(c(-c5c(F)cccc5F)c5ccc([nH]5)c(-c5c(F)cccc5F)c5nc(c(-c6c(F)cccc6F)c6ccc3[nH]6)C=C5)C=C4)cc2)C1
REMARK SMILES IDX 23 1 22 2 21 3 20 4 18 5 19 6 6 7 3 8 4 9 83 10 5 11 2 12
REMARK SMILES IDX 1 13 7 14 8 15 9 16 17 17 10 18 12 19 16 20 11 21 13 22
REMARK SMILES IDX 15 23 14 24 24 25 25 26 26 27 27 28 28 29 29 30 30 31 82 32
REMARK SMILES IDX 31 33 81 34 32 35 33 36 34 37 75 38 35 39 80 40 74 41 76 42
REMARK SMILES IDX 36 43 79 44 73 45 72 46 37 48 63 49 46 50 62 51 47 52 50 53
REMARK SMILES IDX 61 54 77 55 48 56 49 57 60 59 78 60 51 61 38 62 39 63 44 64
REMARK SMILES IDX 40 65 41 66 43 67 45 68 42 69 64 70 65 71 70 72 66 73 67 74
REMARK SMILES IDX 69 75 71 76 68 77 52 78 53 79 58 80 54 81 55 82 57 83 59 84
REMARK SMILES IDX 56 85
REMARK H PARENT 76 47 50 58
REMARK Flexibility Score: inf
ROOT
ATOM      1  O   UNL A   1      31.238  31.095  25.640  1.00  0.00    -0.374 OA
ENDROOT
BRANCH   1   2
ATOM      2  C   UNL A   1      32.154  30.005  25.653  1.00  0.00     0.202 C 
BRANCH   2   3
ATOM      3  C   UNL A   1      32.422  29.285  24.329  1.00  0.00     0.261 C 
BRANCH   3   4
ATOM      4  O   UNL A   1      33.004  27.986  24.510  1.00  0.00    -0.463 OA
BRANCH   4   5
ATOM      5  C   UNL A   1      32.374  26.977  23.847  1.00  0.00     0.312 C 
ATOM      6  O   UNL A   1      31.375  27.141  23.152  1.00  0.00    -0.252 OA
BRANCH   5   7
ATOM      7  C   UNL A   1      33.042  25.590  24.050  1.00  0.00     0.069 C 
ATOM      8  C   UNL A   1      32.571  24.225  26.021  1.00  0.00    -0.010 C 
ATOM      9  C   UNL A   1      33.331  25.460  26.478  1.00  0.00     0.005 C 
ATOM     10  C   UNL A   1      31.979  24.656  24.677  1.00  0.00     0.022 C 
ATOM     11  C   UNL A   1      34.059  25.863  25.189  1.00  0.00     0.019 C 
BRANCH   8  12
ATOM     12  C   UNL A   1      31.605  23.587  27.015  1.00  0.00     0.000 C 
ATOM     13  C   UNL A   1      30.413  22.859  26.424  1.00  0.00     0.004 C 
ENDBRANCH   8  12
BRANCH   7  14
ATOM     14  C   UNL A   1      33.600  25.013  22.706  1.00  0.00     0.027 C 
BRANCH  14  15
ATOM     15  C   UNL A   1      33.927  23.506  22.425  1.00  0.00     0.020 C 
ATOM     16  C   UNL A   1      32.783  22.577  21.983  1.00  0.00     0.009 C 
ATOM     17  C   UNL A   1      34.839  22.887  23.451  1.00  0.00    -0.042 A 
ATOM     18  C   UNL A   1      32.139  21.718  23.062  1.00  0.00     0.005 C 
ATOM     19  C   UNL A   1      34.399  21.871  24.309  1.00  0.00    -0.045 A 
ATOM     20  C   UNL A   1      36.140  23.405  23.598  1.00  0.00     0.004 A 
ATOM     21  C   UNL A   1      33.101  21.136  24.097  1.00  0.00     0.036 C 
ATOM     22  C   UNL A   1      35.224  21.485  25.378  1.00  0.00     0.004 A 
ATOM     23  C   UNL A   1      36.958  22.993  24.645  1.00  0.00     0.000 A 
ATOM     24  C   UNL A   1      36.486  22.056  25.556  1.00  0.00     0.000 A 
ENDBRANCH  14  15
ENDBRANCH   7  14
ENDBRANCH   5   7
ENDBRANCH   4   5
ENDBRANCH   3   4
ENDBRANCH   2   3
ENDBRANCH   1   2
BRANCH   1  25
ATOM     25  C   UNL A   1      31.201  31.960  26.776  1.00  0.00     0.202 C 
BRANCH  25  26
ATOM     26  C   UNL A   1      32.308  33.012  26.897  1.00  0.00     0.261 C 
BRANCH  26  27
ATOM     27  O   UNL A   1      32.270  33.696  28.164  1.00  0.00    -0.460 OA
BRANCH  27  28
ATOM     28  C   UNL A   1      33.373  34.438  28.430  1.00  0.00     0.338 C 
ATOM     29  O   UNL A   1      33.425  35.634  28.655  1.00  0.00    -0.246 OA
BRANCH  28  30
ATOM     30  C   UNL A   1      34.549  33.566  28.599  1.00  0.00     0.060 A 
ATOM     31  C   UNL A   1      34.359  32.363  29.291  1.00  0.00     0.016 A 
ATOM     32  C   UNL A   1      35.827  33.969  28.208  1.00  0.00     0.016 A 
ATOM     33  C   UNL A   1      35.456  31.590  29.655  1.00  0.00     0.010 A 
ATOM     34  C   UNL A   1      36.930  33.194  28.585  1.00  0.00     0.010 A 
ATOM     35  C   UNL A   1      36.751  32.027  29.350  1.00  0.00    -0.014 A 
BRANCH  35  36
ATOM     36  C   UNL A   1      37.901  31.350  29.997  1.00  0.00     0.031 A 
ATOM     37  C   UNL A   1      38.203  31.654  31.440  1.00  0.00     0.074 A 
ATOM     38  C   UNL A   1      38.618  30.426  29.338  1.00  0.00     0.049 A 
ATOM     39  N   UNL A   1      39.126  31.150  32.220  1.00  0.00    -0.248 NA
ATOM     40  C   UNL A   1      37.348  32.659  32.093  1.00  0.00     0.031 C 
ATOM     41  C   UNL A   1      38.397  30.014  27.953  1.00  0.00     0.029 A 
ATOM     42  N   UNL A   1      39.676  29.658  29.755  1.00  0.00    -0.354 N 
ATOM     43  C   UNL A   1      38.960  31.771  33.451  1.00  0.00     0.074 A 
ATOM     44  C   UNL A   1      37.872  32.714  33.307  1.00  0.00     0.031 C 
ATOM     45  C   UNL A   1      39.297  29.067  27.632  1.00  0.00     0.029 A 
ATOM     46  C   UNL A   1      40.165  28.821  28.783  1.00  0.00     0.049 A 
ATOM     47  H   UNL A   1      40.048  29.702  30.665  1.00  0.00     0.167 HD
ATOM     48  C   UNL A   1      39.642  31.567  34.602  1.00  0.00     0.037 A 
ATOM     49  C   UNL A   1      41.201  27.962  28.817  1.00  0.00     0.037 A 
ATOM     50  C   UNL A   1      40.724  30.629  34.748  1.00  0.00     0.049 A 
ATOM     51  C   UNL A   1      41.985  27.797  30.092  1.00  0.00     0.074 A 
ATOM     52  C   UNL A   1      41.469  30.340  35.879  1.00  0.00     0.029 A 
ATOM     53  N   UNL A   1      41.218  29.832  33.728  1.00  0.00    -0.354 N 
ATOM     54  N   UNL A   1      41.803  28.371  31.257  1.00  0.00    -0.248 NA
ATOM     55  C   UNL A   1      43.117  26.860  30.056  1.00  0.00     0.031 C 
ATOM     56  C   UNL A   1      42.443  29.397  35.531  1.00  0.00     0.029 A 
ATOM     57  C   UNL A   1      42.275  29.068  34.195  1.00  0.00     0.049 A 
ATOM     58  H   UNL A   1      40.870  29.812  32.808  1.00  0.00     0.167 HD
ATOM     59  C   UNL A   1      42.779  27.849  32.096  1.00  0.00     0.074 A 
ATOM     60  C   UNL A   1      43.542  26.900  31.311  1.00  0.00     0.031 C 
ATOM     61  C   UNL A   1      43.023  28.128  33.400  1.00  0.00     0.037 A 
BRANCH  48  62
ATOM     62  C   UNL A   1      39.248  32.391  35.791  1.00  0.00     0.057 A 
ATOM     63  C   UNL A   1      38.352  31.915  36.756  1.00  0.00     0.134 A 
ATOM     64  C   UNL A   1      39.787  33.670  35.983  1.00  0.00     0.134 A 
ATOM     65  F   UNL A   1      37.787  30.706  36.621  1.00  0.00    -0.206 F 
ATOM     66  C   UNL A   1      37.990  32.689  37.860  1.00  0.00     0.040 A 
ATOM     67  C   UNL A   1      39.451  34.443  37.095  1.00  0.00     0.040 A 
ATOM     68  F   UNL A   1      40.653  34.184  35.097  1.00  0.00    -0.206 F 
ATOM     69  C   UNL A   1      38.545  33.956  38.034  1.00  0.00     0.006 A 
ENDBRANCH  48  62
BRANCH  49  70
ATOM     70  C   UNL A   1      41.566  27.190  27.604  1.00  0.00     0.057 A 
ATOM     71  C   UNL A   1      41.088  25.891  27.398  1.00  0.00     0.134 A 
ATOM     72  C   UNL A   1      42.421  27.725  26.634  1.00  0.00     0.134 A 
ATOM     73  F   UNL A   1      40.285  25.315  28.305  1.00  0.00    -0.206 F 
ATOM     74  C   UNL A   1      41.460  25.145  26.278  1.00  0.00     0.040 A 
ATOM     75  C   UNL A   1      42.783  27.000  25.499  1.00  0.00     0.040 A 
ATOM     76  F   UNL A   1      42.914  28.965  26.775  1.00  0.00    -0.206 F 
ATOM     77  C   UNL A   1      42.307  25.702  25.321  1.00  0.00     0.006 A 
ENDBRANCH  49  70
BRANCH  61  78
ATOM     78  C   UNL A   1      44.143  27.381  34.063  1.00  0.00     0.057 A 
ATOM     79  C   UNL A   1      45.446  27.895  34.111  1.00  0.00     0.134 A 
ATOM     80  C   UNL A   1      43.910  26.149  34.686  1.00  0.00     0.134 A 
ATOM     81  F   UNL A   1      45.736  29.065  33.523  1.00  0.00    -0.206 F 
ATOM     82  C   UNL A   1      46.482  27.197  34.732  1.00  0.00     0.040 A 
ATOM     83  C   UNL A   1      44.933  25.453  35.332  1.00  0.00     0.040 A 
ATOM     84  F   UNL A   1      42.684  25.606  34.684  1.00  0.00    -0.206 F 
ATOM     85  C   UNL A   1      46.225  25.974  35.350  1.00  0.00     0.006 A 
ENDBRANCH  61  78
ENDBRANCH  35  36
ENDBRANCH  28  30
ENDBRANCH  27  28
ENDBRANCH  26  27
ENDBRANCH  25  26
ENDBRANCH   1  25
TORSDOF 17
ENDMDL
