MODEL 1
REMARK VINA RESULT:     -12.2      0.000      0.000
REMARK SMILES O=C(Cn1c(=O)[nH]c2ccccc2c1=O)NC[C@H]1CC[C@@H](C(=O)N2CCC(C(=O)OCCOCCOC(=O)c3ccc(-c4c5nc(c(-c6c(F)cccc6F)c6ccc([nH]6)c(-c6c(F)cccc6F)c6nc(c(-c7c(F)cccc7F)c7ccc4[nH]7)C=C6)C=C5)cc3)CC2)CC1
REMARK SMILES IDX 31 1 30 2 28 3 29 4 27 5 22 6 23 7 24 8 25 9 94 10 26 11
REMARK SMILES IDX 93 12 21 13 18 14 19 15 96 16 20 17 95 18 17 19 16 20 1 21
REMARK SMILES IDX 2 22 3 24 4 25 5 26 14 27 6 28 7 29 13 30 15 31 8 32 12 34
REMARK SMILES IDX 9 35 11 36 10 37 32 38 33 39 34 40 35 41 36 42 37 43 38 44
REMARK SMILES IDX 39 45 40 46 92 47 41 48 91 49 42 50 43 51 44 52 85 53 45 54
REMARK SMILES IDX 90 55 84 56 86 57 46 58 89 59 83 60 82 61 47 63 73 64 56 65
REMARK SMILES IDX 72 66 57 67 60 68 71 69 87 70 58 71 59 72 70 74 88 75 61 76
REMARK SMILES IDX 48 77 49 78 54 79 50 80 51 81 53 82 55 83 52 84 74 85 75 86
REMARK SMILES IDX 80 87 76 88 77 89 79 90 81 91 78 92 62 93 63 94 68 95 64 96
REMARK SMILES IDX 65 97 67 98 69 99 66 100
REMARK H PARENT 16 23 7 33 86 62 60 73
REMARK Flexibility Score: inf
ROOT
ATOM      1  C   UNL A   1      31.392  29.483  25.160  1.00  0.00     0.261 C 
ENDROOT
BRANCH   1   2
ATOM      2  O   UNL A   1      31.111  28.866  23.900  1.00  0.00    -0.463 OA
BRANCH   2   3
ATOM      3  C   UNL A   1      30.699  27.580  23.980  1.00  0.00     0.309 C 
ATOM      4  O   UNL A   1      29.534  27.200  23.927  1.00  0.00    -0.252 OA
BRANCH   3   5
ATOM      5  C   UNL A   1      31.821  26.620  24.257  1.00  0.00     0.103 C 
ATOM      6  C   UNL A   1      33.499  22.761  24.817  1.00  0.00     0.225 C 
ATOM      7  O   UNL A   1      33.186  22.193  25.871  1.00  0.00    -0.275 OA
ATOM      8  N   UNL A   1      33.091  24.061  24.594  1.00  0.00    -0.342 N 
ATOM      9  C   UNL A   1      33.038  24.981  25.734  1.00  0.00     0.120 C 
ATOM     10  C   UNL A   1      32.894  24.630  23.285  1.00  0.00     0.120 C 
ATOM     11  C   UNL A   1      31.900  25.999  25.653  1.00  0.00     0.037 C 
ATOM     12  C   UNL A   1      31.692  25.532  23.210  1.00  0.00     0.037 C 
BRANCH   6  13
ATOM     13  C   UNL A   1      34.556  22.079  23.909  1.00  0.00     0.078 C 
ATOM     14  C   UNL A   1      37.303  21.850  25.156  1.00  0.00     0.008 C 
ATOM     15  C   UNL A   1      36.065  21.131  25.697  1.00  0.00     0.006 C 
ATOM     16  C   UNL A   1      37.025  22.951  24.116  1.00  0.00     0.006 C 
ATOM     17  C   UNL A   1      35.046  20.810  24.612  1.00  0.00     0.014 C 
ATOM     18  C   UNL A   1      35.748  22.796  23.271  1.00  0.00     0.014 C 
BRANCH  14  19
ATOM     19  C   UNL A   1      38.254  22.330  26.285  1.00  0.00     0.119 C 
BRANCH  19  20
ATOM     20  N   UNL A   1      39.672  22.472  25.955  1.00  0.00    -0.354 N 
ATOM     21  O   UNL A   1      40.408  21.463  27.868  1.00  0.00    -0.273 OA
ATOM     22  C   UNL A   1      40.645  21.863  26.726  1.00  0.00     0.240 C 
ATOM     23  H   UNL A   1      39.937  23.010  25.173  1.00  0.00     0.163 HD
BRANCH  22  24
ATOM     24  C   UNL A   1      42.091  21.836  26.194  1.00  0.00     0.230 C 
BRANCH  24  25
ATOM     25  N   UNL A   1      42.841  23.082  26.060  1.00  0.00    -0.250 N 
ATOM     26  C   UNL A   1      43.478  23.322  24.856  1.00  0.00     0.329 A 
ATOM     27  C   UNL A   1      43.198  23.745  27.237  1.00  0.00     0.264 A 
ATOM     28  O   UNL A   1      43.402  22.579  23.882  1.00  0.00    -0.248 OA
ATOM     29  N   UNL A   1      44.206  24.472  24.762  1.00  0.00    -0.307 N 
ATOM     30  C   UNL A   1      44.006  24.975  27.100  1.00  0.00     0.064 A 
ATOM     31  O   UNL A   1      42.894  23.343  28.358  1.00  0.00    -0.268 OA
ATOM     32  C   UNL A   1      44.449  25.327  25.832  1.00  0.00     0.055 A 
ATOM     33  H   UNL A   1      44.581  24.711  23.883  1.00  0.00     0.171 HD
ATOM     34  C   UNL A   1      44.314  25.786  28.197  1.00  0.00     0.016 A 
ATOM     35  C   UNL A   1      45.162  26.511  25.635  1.00  0.00     0.027 A 
ATOM     36  C   UNL A   1      45.014  26.978  28.004  1.00  0.00     0.001 A 
ATOM     37  C   UNL A   1      45.428  27.344  26.722  1.00  0.00     0.002 A 
ENDBRANCH  24  25
ENDBRANCH  22  24
ENDBRANCH  19  20
ENDBRANCH  14  19
ENDBRANCH   6  13
ENDBRANCH   3   5
ENDBRANCH   2   3
ENDBRANCH   1   2
BRANCH   1  38
ATOM     38  C   UNL A   1      32.890  29.714  25.362  1.00  0.00     0.202 C 
BRANCH  38  39
ATOM     39  O   UNL A   1      33.322  30.217  26.621  1.00  0.00    -0.374 OA
BRANCH  39  40
ATOM     40  C   UNL A   1      32.625  31.324  27.196  1.00  0.00     0.202 C 
BRANCH  40  41
ATOM     41  C   UNL A   1      33.417  32.583  27.573  1.00  0.00     0.261 C 
BRANCH  41  42
ATOM     42  O   UNL A   1      32.581  33.740  27.757  1.00  0.00    -0.460 OA
BRANCH  42  43
ATOM     43  C   UNL A   1      33.104  34.708  28.545  1.00  0.00     0.338 C 
ATOM     44  O   UNL A   1      32.644  35.820  28.765  1.00  0.00    -0.246 OA
BRANCH  43  45
ATOM     45  C   UNL A   1      34.235  34.154  29.308  1.00  0.00     0.060 A 
ATOM     46  C   UNL A   1      34.025  33.398  30.460  1.00  0.00     0.016 A 
ATOM     47  C   UNL A   1      35.530  34.364  28.815  1.00  0.00     0.016 A 
ATOM     48  C   UNL A   1      35.124  32.828  31.109  1.00  0.00     0.010 A 
ATOM     49  C   UNL A   1      36.624  33.803  29.469  1.00  0.00     0.010 A 
ATOM     50  C   UNL A   1      36.425  33.014  30.609  1.00  0.00    -0.014 A 
BRANCH  50  51
ATOM     51  C   UNL A   1      37.572  32.290  31.209  1.00  0.00     0.031 A 
ATOM     52  C   UNL A   1      38.105  32.662  32.558  1.00  0.00     0.074 A 
ATOM     53  C   UNL A   1      38.152  31.307  30.496  1.00  0.00     0.049 A 
ATOM     54  N   UNL A   1      39.087  32.121  33.234  1.00  0.00    -0.248 NA
ATOM     55  C   UNL A   1      37.458  33.796  33.234  1.00  0.00     0.031 C 
ATOM     56  C   UNL A   1      37.744  30.889  29.153  1.00  0.00     0.029 A 
ATOM     57  N   UNL A   1      39.209  30.487  30.795  1.00  0.00    -0.354 N 
ATOM     58  C   UNL A   1      39.158  32.824  34.428  1.00  0.00     0.074 A 
ATOM     59  C   UNL A   1      38.162  33.874  34.356  1.00  0.00     0.031 C 
ATOM     60  C   UNL A   1      38.530  29.878  28.751  1.00  0.00     0.029 A 
ATOM     61  C   UNL A   1      39.515  29.599  29.792  1.00  0.00     0.049 A 
ATOM     62  H   UNL A   1      39.700  30.530  31.647  1.00  0.00     0.167 HD
ATOM     63  C   UNL A   1      39.962  32.596  35.495  1.00  0.00     0.037 A 
ATOM     64  C   UNL A   1      40.487  28.672  29.718  1.00  0.00     0.037 A 
ATOM     65  C   UNL A   1      40.978  31.574  35.543  1.00  0.00     0.049 A 
ATOM     66  C   UNL A   1      41.417  28.495  30.887  1.00  0.00     0.074 A 
ATOM     67  C   UNL A   1      41.840  31.258  36.579  1.00  0.00     0.029 A 
ATOM     68  N   UNL A   1      41.278  30.708  34.500  1.00  0.00    -0.354 N 
ATOM     69  N   UNL A   1      41.428  29.118  32.041  1.00  0.00    -0.248 NA
ATOM     70  C   UNL A   1      42.468  27.478  30.745  1.00  0.00     0.031 C 
ATOM     71  C   UNL A   1      42.696  30.240  36.144  1.00  0.00     0.029 A 
ATOM     72  C   UNL A   1      42.330  29.879  34.859  1.00  0.00     0.049 A 
ATOM     73  H   UNL A   1      40.812  30.687  33.633  1.00  0.00     0.167 HD
ATOM     74  C   UNL A   1      42.465  28.549  32.770  1.00  0.00     0.074 A 
ATOM     75  C   UNL A   1      43.045  27.518  31.936  1.00  0.00     0.031 C 
ATOM     76  C   UNL A   1      42.897  28.854  34.018  1.00  0.00     0.037 A 
BRANCH  63  77
ATOM     77  C   UNL A   1      39.773  33.477  36.698  1.00  0.00     0.057 A 
ATOM     78  C   UNL A   1      40.464  34.688  36.824  1.00  0.00     0.134 A 
ATOM     79  C   UNL A   1      38.922  33.109  37.749  1.00  0.00     0.134 A 
ATOM     80  F   UNL A   1      41.305  35.099  35.863  1.00  0.00    -0.206 F 
ATOM     81  C   UNL A   1      40.312  35.503  37.949  1.00  0.00     0.040 A 
ATOM     82  C   UNL A   1      38.739  33.928  38.865  1.00  0.00     0.040 A 
ATOM     83  F   UNL A   1      38.225  31.964  37.690  1.00  0.00    -0.206 F 
ATOM     84  C   UNL A   1      39.440  35.128  38.969  1.00  0.00     0.006 A 
ENDBRANCH  63  77
BRANCH  64  85
ATOM     85  C   UNL A   1      40.639  27.842  28.497  1.00  0.00     0.057 A 
ATOM     86  C   UNL A   1      39.957  26.628  28.354  1.00  0.00     0.134 A 
ATOM     87  C   UNL A   1      41.437  28.263  27.427  1.00  0.00     0.134 A 
ATOM     88  F   UNL A   1      39.182  26.163  29.346  1.00  0.00    -0.206 F 
ATOM     89  C   UNL A   1      40.059  25.864  27.190  1.00  0.00     0.040 A 
ATOM     90  C   UNL A   1      41.523  27.525  26.246  1.00  0.00     0.040 A 
ATOM     91  F   UNL A   1      42.102  29.425  27.497  1.00  0.00    -0.206 F 
ATOM     92  C   UNL A   1      40.833  26.321  26.126  1.00  0.00     0.006 A 
ENDBRANCH  64  85
BRANCH  76  93
ATOM     93  C   UNL A   1      44.031  28.035  34.567  1.00  0.00     0.057 A 
ATOM     94  C   UNL A   1      43.779  26.850  35.269  1.00  0.00     0.134 A 
ATOM     95  C   UNL A   1      45.369  28.424  34.418  1.00  0.00     0.134 A 
ATOM     96  F   UNL A   1      42.521  26.422  35.455  1.00  0.00    -0.206 F 
ATOM     97  C   UNL A   1      44.815  26.082  35.805  1.00  0.00     0.040 A 
ATOM     98  C   UNL A   1      46.415  27.648  34.922  1.00  0.00     0.040 A 
ATOM     99  F   UNL A   1      45.683  29.540  33.743  1.00  0.00    -0.206 F 
ATOM    100  C   UNL A   1      46.139  26.477  35.625  1.00  0.00     0.006 A 
ENDBRANCH  76  93
ENDBRANCH  50  51
ENDBRANCH  43  45
ENDBRANCH  42  43
ENDBRANCH  41  42
ENDBRANCH  40  41
ENDBRANCH  39  40
ENDBRANCH  38  39
ENDBRANCH   1  38
TORSDOF 19
ENDMDL
MODEL 2
REMARK VINA RESULT:     -12.0      0.540      5.628
REMARK SMILES O=C(Cn1c(=O)[nH]c2ccccc2c1=O)NC[C@H]1CC[C@@H](C(=O)N2CCC(C(=O)OCCOCCOC(=O)c3ccc(-c4c5nc(c(-c6c(F)cccc6F)c6ccc([nH]6)c(-c6c(F)cccc6F)c6nc(c(-c7c(F)cccc7F)c7ccc4[nH]7)C=C6)C=C5)cc3)CC2)CC1
REMARK SMILES IDX 31 1 30 2 28 3 29 4 27 5 22 6 23 7 24 8 25 9 94 10 26 11
REMARK SMILES IDX 93 12 21 13 18 14 19 15 96 16 20 17 95 18 17 19 16 20 1 21
REMARK SMILES IDX 2 22 3 24 4 25 5 26 14 27 6 28 7 29 13 30 15 31 8 32 12 34
REMARK SMILES IDX 9 35 11 36 10 37 32 38 33 39 34 40 35 41 36 42 37 43 38 44
REMARK SMILES IDX 39 45 40 46 92 47 41 48 91 49 42 50 43 51 44 52 85 53 45 54
REMARK SMILES IDX 90 55 84 56 86 57 46 58 89 59 83 60 82 61 47 63 73 64 56 65
REMARK SMILES IDX 72 66 57 67 60 68 71 69 87 70 58 71 59 72 70 74 88 75 61 76
REMARK SMILES IDX 48 77 49 78 54 79 50 80 51 81 53 82 55 83 52 84 74 85 75 86
REMARK SMILES IDX 80 87 76 88 77 89 79 90 81 91 78 92 62 93 63 94 68 95 64 96
REMARK SMILES IDX 65 97 67 98 69 99 66 100
REMARK H PARENT 16 23 7 33 86 62 60 73
REMARK Flexibility Score: inf
ROOT
ATOM      1  C   UNL A   1      31.390  29.657  25.211  1.00  0.00     0.261 C 
ENDROOT
BRANCH   1   2
ATOM      2  O   UNL A   1      31.444  29.020  23.931  1.00  0.00    -0.463 OA
BRANCH   2   3
ATOM      3  C   UNL A   1      30.952  27.760  23.905  1.00  0.00     0.309 C 
ATOM      4  O   UNL A   1      29.783  27.456  23.693  1.00  0.00    -0.252 OA
BRANCH   3   5
ATOM      5  C   UNL A   1      31.973  26.722  24.278  1.00  0.00     0.103 C 
ATOM      6  C   UNL A   1      33.368  22.748  24.800  1.00  0.00     0.225 C 
ATOM      7  O   UNL A   1      32.869  22.130  25.749  1.00  0.00    -0.275 OA
ATOM      8  N   UNL A   1      33.058  24.080  24.614  1.00  0.00    -0.342 N 
ATOM      9  C   UNL A   1      32.871  24.925  25.797  1.00  0.00     0.120 C 
ATOM     10  C   UNL A   1      33.092  24.745  23.336  1.00  0.00     0.120 C 
ATOM     11  C   UNL A   1      31.807  26.008  25.620  1.00  0.00     0.037 C 
ATOM     12  C   UNL A   1      31.958  25.715  23.146  1.00  0.00     0.037 C 
BRANCH   6  13
ATOM     13  C   UNL A   1      34.520  22.069  24.015  1.00  0.00     0.078 C 
ATOM     14  C   UNL A   1      37.260  22.469  25.237  1.00  0.00     0.008 C 
ATOM     15  C   UNL A   1      36.133  21.691  25.921  1.00  0.00     0.006 C 
ATOM     16  C   UNL A   1      36.836  23.308  24.017  1.00  0.00     0.006 C 
ATOM     17  C   UNL A   1      35.181  21.034  24.931  1.00  0.00     0.014 C 
ATOM     18  C   UNL A   1      35.604  22.819  23.236  1.00  0.00     0.014 C 
BRANCH  14  19
ATOM     19  C   UNL A   1      38.121  23.279  26.242  1.00  0.00     0.119 C 
BRANCH  19  20
ATOM     20  N   UNL A   1      39.573  23.230  26.077  1.00  0.00    -0.354 N 
ATOM     21  O   UNL A   1      39.827  21.287  27.249  1.00  0.00    -0.273 OA
ATOM     22  C   UNL A   1      40.295  22.119  26.471  1.00  0.00     0.240 C 
ATOM     23  H   UNL A   1      40.042  24.000  25.679  1.00  0.00     0.163 HD
BRANCH  22  24
ATOM     24  C   UNL A   1      41.774  22.018  26.046  1.00  0.00     0.230 C 
BRANCH  24  25
ATOM     25  N   UNL A   1      42.603  23.220  26.005  1.00  0.00    -0.250 N 
ATOM     26  C   UNL A   1      43.393  23.416  24.887  1.00  0.00     0.329 A 
ATOM     27  C   UNL A   1      42.853  23.869  27.217  1.00  0.00     0.264 A 
ATOM     28  O   UNL A   1      43.393  22.673  23.910  1.00  0.00    -0.248 OA
ATOM     29  N   UNL A   1      44.190  24.523  24.882  1.00  0.00    -0.307 N 
ATOM     30  C   UNL A   1      43.739  25.051  27.179  1.00  0.00     0.064 A 
ATOM     31  O   UNL A   1      42.393  23.491  28.293  1.00  0.00    -0.268 OA
ATOM     32  C   UNL A   1      44.351  25.369  25.974  1.00  0.00     0.055 A 
ATOM     33  H   UNL A   1      44.681  24.736  24.055  1.00  0.00     0.171 HD
ATOM     34  C   UNL A   1      43.957  25.849  28.306  1.00  0.00     0.016 A 
ATOM     35  C   UNL A   1      45.147  26.510  25.866  1.00  0.00     0.027 A 
ATOM     36  C   UNL A   1      44.741  27.000  28.200  1.00  0.00     0.001 A 
ATOM     37  C   UNL A   1      45.327  27.334  26.978  1.00  0.00     0.002 A 
ENDBRANCH  24  25
ENDBRANCH  22  24
ENDBRANCH  19  20
ENDBRANCH  14  19
ENDBRANCH   6  13
ENDBRANCH   3   5
ENDBRANCH   2   3
ENDBRANCH   1   2
BRANCH   1  38
ATOM     38  C   UNL A   1      32.783  29.857  25.809  1.00  0.00     0.202 C 
BRANCH  38  39
ATOM     39  O   UNL A   1      32.886  30.589  27.025  1.00  0.00    -0.374 OA
BRANCH  39  40
ATOM     40  C   UNL A   1      32.237  31.858  27.122  1.00  0.00     0.202 C 
BRANCH  40  41
ATOM     41  C   UNL A   1      33.080  33.102  27.435  1.00  0.00     0.261 C 
BRANCH  41  42
ATOM     42  O   UNL A   1      32.388  34.060  28.255  1.00  0.00    -0.460 OA
BRANCH  42  43
ATOM     43  C   UNL A   1      33.148  35.083  28.711  1.00  0.00     0.338 C 
ATOM     44  O   UNL A   1      32.894  36.279  28.667  1.00  0.00    -0.246 OA
BRANCH  43  45
ATOM     45  C   UNL A   1      34.271  34.541  29.494  1.00  0.00     0.060 A 
ATOM     46  C   UNL A   1      34.053  33.865  30.694  1.00  0.00     0.016 A 
ATOM     47  C   UNL A   1      35.566  34.676  28.973  1.00  0.00     0.016 A 
ATOM     48  C   UNL A   1      35.141  33.301  31.364  1.00  0.00     0.010 A 
ATOM     49  C   UNL A   1      36.650  34.121  29.649  1.00  0.00     0.010 A 
ATOM     50  C   UNL A   1      36.442  33.412  30.838  1.00  0.00    -0.014 A 
BRANCH  50  51
ATOM     51  C   UNL A   1      37.572  32.690  31.469  1.00  0.00     0.031 A 
ATOM     52  C   UNL A   1      38.257  31.557  30.770  1.00  0.00     0.074 A 
ATOM     53  C   UNL A   1      37.950  33.052  32.710  1.00  0.00     0.049 A 
ATOM     54  N   UNL A   1      39.271  30.832  31.173  1.00  0.00    -0.248 NA
ATOM     55  C   UNL A   1      37.731  31.181  29.451  1.00  0.00     0.031 C 
ATOM     56  C   UNL A   1      37.326  34.112  33.503  1.00  0.00     0.029 A 
ATOM     57  N   UNL A   1      38.943  32.567  33.521  1.00  0.00    -0.354 N 
ATOM     58  C   UNL A   1      39.527  29.935  30.145  1.00  0.00     0.074 A 
ATOM     59  C   UNL A   1      38.519  30.163  29.129  1.00  0.00     0.031 C 
ATOM     60  C   UNL A   1      37.961  34.211  34.681  1.00  0.00     0.029 A 
ATOM     61  C   UNL A   1      39.015  33.201  34.738  1.00  0.00     0.049 A 
ATOM     62  H   UNL A   1      39.546  31.836  33.257  1.00  0.00     0.167 HD
ATOM     63  C   UNL A   1      40.526  29.025  30.050  1.00  0.00     0.037 A 
ATOM     64  C   UNL A   1      39.832  32.984  35.784  1.00  0.00     0.037 A 
ATOM     65  C   UNL A   1      41.501  28.777  31.083  1.00  0.00     0.049 A 
ATOM     66  C   UNL A   1      40.882  31.912  35.681  1.00  0.00     0.074 A 
ATOM     67  C   UNL A   1      42.556  27.881  31.080  1.00  0.00     0.029 A 
ATOM     68  N   UNL A   1      41.529  29.420  32.313  1.00  0.00    -0.354 N 
ATOM     69  N   UNL A   1      41.161  31.118  34.675  1.00  0.00    -0.248 NA
ATOM     70  C   UNL A   1      41.737  31.710  36.859  1.00  0.00     0.031 C 
ATOM     71  C   UNL A   1      43.189  27.943  32.327  1.00  0.00     0.029 A 
ATOM     72  C   UNL A   1      42.567  28.920  33.086  1.00  0.00     0.049 A 
ATOM     73  H   UNL A   1      40.905  30.126  32.596  1.00  0.00     0.167 HD
ATOM     74  C   UNL A   1      42.239  30.345  35.088  1.00  0.00     0.074 A 
ATOM     75  C   UNL A   1      42.576  30.781  36.427  1.00  0.00     0.031 C 
ATOM     76  C   UNL A   1      42.891  29.364  34.419  1.00  0.00     0.037 A 
BRANCH  63  77
ATOM     77  C   UNL A   1      40.609  28.227  28.779  1.00  0.00     0.057 A 
ATOM     78  C   UNL A   1      41.381  28.667  27.697  1.00  0.00     0.134 A 
ATOM     79  C   UNL A   1      39.898  27.029  28.618  1.00  0.00     0.134 A 
ATOM     80  F   UNL A   1      42.079  29.810  27.776  1.00  0.00    -0.206 F 
ATOM     81  C   UNL A   1      41.447  27.943  26.504  1.00  0.00     0.040 A 
ATOM     82  C   UNL A   1      39.978  26.282  27.441  1.00  0.00     0.040 A 
ATOM     83  F   UNL A   1      39.143  26.548  29.617  1.00  0.00    -0.206 F 
ATOM     84  C   UNL A   1      40.752  26.742  26.377  1.00  0.00     0.006 A 
ENDBRANCH  63  77
BRANCH  64  85
ATOM     85  C   UNL A   1      39.693  33.791  37.023  1.00  0.00     0.057 A 
ATOM     86  C   UNL A   1      38.788  33.432  38.028  1.00  0.00     0.134 A 
ATOM     87  C   UNL A   1      40.493  34.917  37.249  1.00  0.00     0.134 A 
ATOM     88  F   UNL A   1      37.985  32.368  37.870  1.00  0.00    -0.206 F 
ATOM     89  C   UNL A   1      38.685  34.160  39.214  1.00  0.00     0.040 A 
ATOM     90  C   UNL A   1      40.423  35.635  38.443  1.00  0.00     0.040 A 
ATOM     91  F   UNL A   1      41.392  35.302  36.331  1.00  0.00    -0.206 F 
ATOM     92  C   UNL A   1      39.515  35.257  39.430  1.00  0.00     0.006 A 
ENDBRANCH  64  85
BRANCH  76  93
ATOM     93  C   UNL A   1      44.057  28.721  35.116  1.00  0.00     0.057 A 
ATOM     94  C   UNL A   1      43.868  27.601  35.935  1.00  0.00     0.134 A 
ATOM     95  C   UNL A   1      45.362  29.217  34.994  1.00  0.00     0.134 A 
ATOM     96  F   UNL A   1      42.644  27.078  36.104  1.00  0.00    -0.206 F 
ATOM     97  C   UNL A   1      44.933  26.999  36.607  1.00  0.00     0.040 A 
ATOM     98  C   UNL A   1      46.440  28.605  35.636  1.00  0.00     0.040 A 
ATOM     99  F   UNL A   1      45.616  30.279  34.212  1.00  0.00    -0.206 F 
ATOM    100  C   UNL A   1      46.225  27.496  36.452  1.00  0.00     0.006 A 
ENDBRANCH  76  93
ENDBRANCH  50  51
ENDBRANCH  43  45
ENDBRANCH  42  43
ENDBRANCH  41  42
ENDBRANCH  40  41
ENDBRANCH  39  40
ENDBRANCH  38  39
ENDBRANCH   1  38
TORSDOF 19
ENDMDL
MODEL 3
REMARK VINA RESULT:     -11.7      5.033     11.742
REMARK SMILES O=C(Cn1c(=O)[nH]c2ccccc2c1=O)NC[C@H]1CC[C@@H](C(=O)N2CCC(C(=O)OCCOCCOC(=O)c3ccc(-c4c5nc(c(-c6c(F)cccc6F)c6ccc([nH]6)c(-c6c(F)cccc6F)c6nc(c(-c7c(F)cccc7F)c7ccc4[nH]7)C=C6)C=C5)cc3)CC2)CC1
REMARK SMILES IDX 31 1 30 2 28 3 29 4 27 5 22 6 23 7 24 8 25 9 94 10 26 11
REMARK SMILES IDX 93 12 21 13 18 14 19 15 96 16 20 17 95 18 17 19 16 20 1 21
REMARK SMILES IDX 2 22 3 24 4 25 5 26 14 27 6 28 7 29 13 30 15 31 8 32 12 34
REMARK SMILES IDX 9 35 11 36 10 37 32 38 33 39 34 40 35 41 36 42 37 43 38 44
REMARK SMILES IDX 39 45 40 46 92 47 41 48 91 49 42 50 43 51 44 52 85 53 45 54
REMARK SMILES IDX 90 55 84 56 86 57 46 58 89 59 83 60 82 61 47 63 73 64 56 65
REMARK SMILES IDX 72 66 57 67 60 68 71 69 87 70 58 71 59 72 70 74 88 75 61 76
REMARK SMILES IDX 48 77 49 78 54 79 50 80 51 81 53 82 55 83 52 84 74 85 75 86
REMARK SMILES IDX 80 87 76 88 77 89 79 90 81 91 78 92 62 93 63 94 68 95 64 96
REMARK SMILES IDX 65 97 67 98 69 99 66 100
REMARK H PARENT 16 23 7 33 86 62 60 73
REMARK Flexibility Score: inf
ROOT
ATOM      1  C   UNL A   1      40.583  22.513  26.736  1.00  0.00     0.261 C 
ENDROOT
BRANCH   1   2
ATOM      2  O   UNL A   1      39.279  21.955  26.554  1.00  0.00    -0.463 OA
BRANCH   2   3
ATOM      3  C   UNL A   1      38.345  22.831  26.114  1.00  0.00     0.309 C 
ATOM      4  O   UNL A   1      38.336  24.035  26.342  1.00  0.00    -0.252 OA
BRANCH   3   5
ATOM      5  C   UNL A   1      37.213  22.165  25.384  1.00  0.00     0.103 C 
ATOM      6  C   UNL A   1      33.942  19.482  25.038  1.00  0.00     0.225 C 
ATOM      7  O   UNL A   1      34.241  18.281  25.002  1.00  0.00    -0.275 OA
ATOM      8  N   UNL A   1      34.941  20.434  25.041  1.00  0.00    -0.342 N 
ATOM      9  C   UNL A   1      36.151  20.181  24.253  1.00  0.00     0.120 C 
ATOM     10  C   UNL A   1      34.799  21.749  25.614  1.00  0.00     0.120 C 
ATOM     11  C   UNL A   1      37.427  20.735  24.886  1.00  0.00     0.037 C 
ATOM     12  C   UNL A   1      36.034  22.214  26.336  1.00  0.00     0.037 C 
BRANCH   6  13
ATOM     13  C   UNL A   1      32.457  19.868  24.814  1.00  0.00     0.078 C 
ATOM     14  C   UNL A   1      32.059  22.339  23.113  1.00  0.00     0.008 C 
ATOM     15  C   UNL A   1      32.682  21.043  22.590  1.00  0.00     0.006 C 
ATOM     16  C   UNL A   1      31.920  22.434  24.644  1.00  0.00     0.006 C 
ATOM     17  C   UNL A   1      32.166  19.805  23.311  1.00  0.00     0.014 C 
ATOM     18  C   UNL A   1      31.780  21.106  25.408  1.00  0.00     0.014 C 
BRANCH  14  19
ATOM     19  C   UNL A   1      32.715  23.605  22.499  1.00  0.00     0.119 C 
BRANCH  19  20
ATOM     20  N   UNL A   1      32.437  24.887  23.146  1.00  0.00    -0.354 N 
ATOM     21  O   UNL A   1      34.513  25.077  24.080  1.00  0.00    -0.273 OA
ATOM     22  C   UNL A   1      33.445  25.604  23.763  1.00  0.00     0.240 C 
ATOM     23  H   UNL A   1      31.519  25.245  23.141  1.00  0.00     0.163 HD
BRANCH  22  24
ATOM     24  C   UNL A   1      33.151  27.053  24.202  1.00  0.00     0.230 C 
BRANCH  24  25
ATOM     25  N   UNL A   1      32.159  27.845  23.478  1.00  0.00    -0.250 N 
ATOM     26  C   UNL A   1      32.612  28.927  22.747  1.00  0.00     0.329 A 
ATOM     27  C   UNL A   1      30.825  27.719  23.875  1.00  0.00     0.264 A 
ATOM     28  O   UNL A   1      33.797  29.223  22.625  1.00  0.00    -0.248 OA
ATOM     29  N   UNL A   1      31.669  29.679  22.109  1.00  0.00    -0.307 N 
ATOM     30  C   UNL A   1      29.833  28.565  23.179  1.00  0.00     0.064 A 
ATOM     31  O   UNL A   1      30.455  26.967  24.774  1.00  0.00    -0.268 OA
ATOM     32  C   UNL A   1      30.299  29.502  22.266  1.00  0.00     0.055 A 
ATOM     33  H   UNL A   1      31.978  30.390  21.501  1.00  0.00     0.171 HD
ATOM     34  C   UNL A   1      28.459  28.433  23.406  1.00  0.00     0.016 A 
ATOM     35  C   UNL A   1      29.402  30.283  21.535  1.00  0.00     0.027 A 
ATOM     36  C   UNL A   1      27.557  29.202  22.667  1.00  0.00     0.001 A 
ATOM     37  C   UNL A   1      28.029  30.118  21.725  1.00  0.00     0.002 A 
ENDBRANCH  24  25
ENDBRANCH  22  24
ENDBRANCH  19  20
ENDBRANCH  14  19
ENDBRANCH   6  13
ENDBRANCH   3   5
ENDBRANCH   2   3
ENDBRANCH   1   2
BRANCH   1  38
ATOM     38  C   UNL A   1      41.670  21.646  26.099  1.00  0.00     0.202 C 
BRANCH  38  39
ATOM     39  O   UNL A   1      42.021  20.432  26.752  1.00  0.00    -0.374 OA
BRANCH  39  40
ATOM     40  C   UNL A   1      42.031  19.220  25.994  1.00  0.00     0.202 C 
BRANCH  40  41
ATOM     41  C   UNL A   1      43.377  18.640  25.540  1.00  0.00     0.261 C 
BRANCH  41  42
ATOM     42  O   UNL A   1      43.801  19.142  24.259  1.00  0.00    -0.460 OA
BRANCH  42  43
ATOM     43  C   UNL A   1      45.060  19.641  24.226  1.00  0.00     0.338 C 
ATOM     44  O   UNL A   1      46.039  19.157  23.675  1.00  0.00    -0.246 OA
BRANCH  43  45
ATOM     45  C   UNL A   1      45.054  21.005  24.777  1.00  0.00     0.060 A 
ATOM     46  C   UNL A   1      45.379  21.244  26.113  1.00  0.00     0.016 A 
ATOM     47  C   UNL A   1      44.765  22.067  23.910  1.00  0.00     0.016 A 
ATOM     48  C   UNL A   1      45.436  22.562  26.573  1.00  0.00     0.010 A 
ATOM     49  C   UNL A   1      44.812  23.379  24.374  1.00  0.00     0.010 A 
ATOM     50  C   UNL A   1      45.169  23.636  25.704  1.00  0.00    -0.014 A 
BRANCH  50  51
ATOM     51  C   UNL A   1      45.373  25.034  26.152  1.00  0.00     0.031 A 
ATOM     52  C   UNL A   1      46.730  25.667  26.129  1.00  0.00     0.074 A 
ATOM     53  C   UNL A   1      44.311  25.718  26.620  1.00  0.00     0.049 A 
ATOM     54  N   UNL A   1      47.078  26.883  26.468  1.00  0.00    -0.248 NA
ATOM     55  C   UNL A   1      47.844  24.824  25.674  1.00  0.00     0.031 C 
ATOM     56  C   UNL A   1      42.952  25.187  26.729  1.00  0.00     0.029 A 
ATOM     57  N   UNL A   1      44.210  27.000  27.093  1.00  0.00    -0.354 N 
ATOM     58  C   UNL A   1      48.444  26.964  26.239  1.00  0.00     0.074 A 
ATOM     59  C   UNL A   1      48.873  25.653  25.794  1.00  0.00     0.031 C 
ATOM     60  C   UNL A   1      42.147  26.142  27.221  1.00  0.00     0.029 A 
ATOM     61  C   UNL A   1      42.939  27.338  27.491  1.00  0.00     0.049 A 
ATOM     62  H   UNL A   1      44.973  27.619  27.143  1.00  0.00     0.167 HD
ATOM     63  C   UNL A   1      49.258  28.040  26.364  1.00  0.00     0.037 A 
ATOM     64  C   UNL A   1      42.469  28.481  28.023  1.00  0.00     0.037 A 
ATOM     65  C   UNL A   1      48.832  29.330  26.845  1.00  0.00     0.049 A 
ATOM     66  C   UNL A   1      43.413  29.635  28.224  1.00  0.00     0.074 A 
ATOM     67  C   UNL A   1      49.578  30.486  27.003  1.00  0.00     0.029 A 
ATOM     68  N   UNL A   1      47.542  29.631  27.263  1.00  0.00    -0.354 N 
ATOM     69  N   UNL A   1      44.690  29.723  27.936  1.00  0.00    -0.248 NA
ATOM     70  C   UNL A   1      42.848  30.853  28.821  1.00  0.00     0.031 C 
ATOM     71  C   UNL A   1      48.754  31.467  27.566  1.00  0.00     0.029 A 
ATOM     72  C   UNL A   1      47.480  30.944  27.704  1.00  0.00     0.049 A 
ATOM     73  H   UNL A   1      46.784  29.003  27.250  1.00  0.00     0.167 HD
ATOM     74  C   UNL A   1      45.071  31.011  28.288  1.00  0.00     0.074 A 
ATOM     75  C   UNL A   1      43.887  31.675  28.792  1.00  0.00     0.031 C 
ATOM     76  C   UNL A   1      46.292  31.593  28.202  1.00  0.00     0.037 A 
BRANCH  63  77
ATOM     77  C   UNL A   1      50.698  27.860  25.974  1.00  0.00     0.057 A 
ATOM     78  C   UNL A   1      51.682  27.599  26.935  1.00  0.00     0.134 A 
ATOM     79  C   UNL A   1      51.116  27.974  24.640  1.00  0.00     0.134 A 
ATOM     80  F   UNL A   1      51.358  27.488  28.232  1.00  0.00    -0.206 F 
ATOM     81  C   UNL A   1      53.026  27.452  26.584  1.00  0.00     0.040 A 
ATOM     82  C   UNL A   1      52.452  27.801  24.273  1.00  0.00     0.040 A 
ATOM     83  F   UNL A   1      50.225  28.218  23.668  1.00  0.00    -0.206 F 
ATOM     84  C   UNL A   1      53.413  27.544  25.249  1.00  0.00     0.006 A 
ENDBRANCH  63  77
BRANCH  64  85
ATOM     85  C   UNL A   1      41.039  28.597  28.407  1.00  0.00     0.057 A 
ATOM     86  C   UNL A   1      40.067  28.994  27.481  1.00  0.00     0.134 A 
ATOM     87  C   UNL A   1      40.606  28.273  29.697  1.00  0.00     0.134 A 
ATOM     88  F   UNL A   1      40.418  29.328  26.230  1.00  0.00    -0.206 F 
ATOM     89  C   UNL A   1      38.716  29.061  27.823  1.00  0.00     0.040 A 
ATOM     90  C   UNL A   1      39.255  28.305  30.043  1.00  0.00     0.040 A 
ATOM     91  F   UNL A   1      41.487  27.869  30.624  1.00  0.00    -0.206 F 
ATOM     92  C   UNL A   1      38.305  28.702  29.104  1.00  0.00     0.006 A 
ENDBRANCH  64  85
BRANCH  76  93
ATOM     93  C   UNL A   1      46.396  33.029  28.631  1.00  0.00     0.057 A 
ATOM     94  C   UNL A   1      46.739  33.355  29.949  1.00  0.00     0.134 A 
ATOM     95  C   UNL A   1      46.140  34.088  27.751  1.00  0.00     0.134 A 
ATOM     96  F   UNL A   1      46.990  32.391  30.848  1.00  0.00    -0.206 F 
ATOM     97  C   UNL A   1      46.823  34.682  30.376  1.00  0.00     0.040 A 
ATOM     98  C   UNL A   1      46.252  35.419  28.157  1.00  0.00     0.040 A 
ATOM     99  F   UNL A   1      45.821  33.846  26.470  1.00  0.00    -0.206 F 
ATOM    100  C   UNL A   1      46.587  35.719  29.476  1.00  0.00     0.006 A 
ENDBRANCH  76  93
ENDBRANCH  50  51
ENDBRANCH  43  45
ENDBRANCH  42  43
ENDBRANCH  41  42
ENDBRANCH  40  41
ENDBRANCH  39  40
ENDBRANCH  38  39
ENDBRANCH   1  38
TORSDOF 19
ENDMDL
