MODEL 1
REMARK VINA RESULT:     -11.3      0.000      0.000
REMARK SMILES COc1cccc(NC(=O)[C@@H]2[C@@H](C(=O)OCCOCCOC(=O)c3ccc(-c4c5nc(c(-c6c(F)cccc6F)c6ccc([nH]6)c(-c6c(F)cccc6F)c6nc(c(-c7c(F)cccc7F)c7ccc4[nH]7)C=C6)C=C5)cc3)[C@H]3C=C[C@@H]2C3)c1
REMARK SMILES IDX 17 1 16 2 15 3 13 4 14 5 12 6 11 7 81 8 78 9 80 10 82 11
REMARK SMILES IDX 79 12 9 13 8 14 10 16 7 17 3 18 4 19 83 20 5 21 6 22 2 23
REMARK SMILES IDX 1 24 18 25 19 26 20 27 21 28 22 29 23 30 24 31 25 32 77 33
REMARK SMILES IDX 26 34 76 35 27 36 28 37 29 38 70 39 30 40 75 41 69 42 71 43
REMARK SMILES IDX 31 44 74 45 68 46 67 47 32 49 58 50 41 51 57 52 42 53 45 54
REMARK SMILES IDX 56 55 72 56 43 57 44 58 55 60 73 61 46 62 33 63 34 64 39 65
REMARK SMILES IDX 35 66 36 67 38 68 40 69 37 70 59 71 60 72 65 73 61 74 62 75
REMARK SMILES IDX 64 76 66 77 63 78 47 79 48 80 53 81 49 82 50 83 52 84 54 85
REMARK SMILES IDX 51 86
REMARK H PARENT 8 15 71 48 45 59
REMARK Flexibility Score: inf
ROOT
ATOM      1  C   UNL A   1      34.006  32.682  27.821  1.00  0.00     0.202 C 
ENDROOT
BRANCH   1   2
ATOM      2  C   UNL A   1      34.089  31.152  27.930  1.00  0.00     0.261 C 
BRANCH   2   3
ATOM      3  O   UNL A   1      33.102  30.440  27.174  1.00  0.00    -0.463 OA
BRANCH   3   4
ATOM      4  C   UNL A   1      33.575  29.252  26.714  1.00  0.00     0.310 C 
ATOM      5  O   UNL A   1      34.701  28.850  26.963  1.00  0.00    -0.252 OA
BRANCH   4   6
ATOM      6  C   UNL A   1      32.556  28.428  25.969  1.00  0.00     0.119 C 
ATOM      7  C   UNL A   1      33.157  27.040  25.544  1.00  0.00     0.100 C 
ATOM      8  C   UNL A   1      32.840  27.024  24.019  1.00  0.00     0.025 C 
ATOM      9  C   UNL A   1      32.105  29.047  24.620  1.00  0.00     0.027 C 
ATOM     10  C   UNL A   1      33.755  28.046  23.370  1.00  0.00    -0.027 C 
ATOM     11  C   UNL A   1      31.528  27.813  23.925  1.00  0.00     0.017 C 
ATOM     12  C   UNL A   1      33.309  29.259  23.728  1.00  0.00    -0.027 C 
BRANCH   7  13
ATOM     13  C   UNL A   1      32.494  25.876  26.272  1.00  0.00     0.228 C 
ATOM     14  N   UNL A   1      33.002  24.612  26.337  1.00  0.00    -0.326 N 
ATOM     15  H   UNL A   1      32.493  24.048  26.962  1.00  0.00     0.169 HD
ATOM     16  O   UNL A   1      31.465  26.070  26.934  1.00  0.00    -0.274 OA
BRANCH  14  17
ATOM     17  C   UNL A   1      34.064  23.904  25.742  1.00  0.00     0.044 A 
ATOM     18  C   UNL A   1      34.863  21.734  24.979  1.00  0.00     0.120 A 
ATOM     19  C   UNL A   1      36.142  22.238  24.799  1.00  0.00     0.046 A 
ATOM     20  C   UNL A   1      33.833  22.547  25.464  1.00  0.00     0.072 A 
ATOM     21  C   UNL A   1      36.355  23.596  24.982  1.00  0.00     0.006 A 
ATOM     22  C   UNL A   1      35.305  24.429  25.400  1.00  0.00     0.026 A 
BRANCH  18  23
ATOM     23  O   UNL A   1      34.655  20.405  24.726  1.00  0.00    -0.497 OA
ATOM     24  C   UNL A   1      33.359  20.017  25.186  1.00  0.00     0.278 C 
ENDBRANCH  18  23
ENDBRANCH  14  17
ENDBRANCH   7  13
ENDBRANCH   4   6
ENDBRANCH   3   4
ENDBRANCH   2   3
ENDBRANCH   1   2
BRANCH   1  25
ATOM     25  O   UNL A   1      33.485  33.444  28.900  1.00  0.00    -0.374 OA
BRANCH  25  26
ATOM     26  C   UNL A   1      34.371  34.200  29.721  1.00  0.00     0.202 C 
BRANCH  26  27
ATOM     27  C   UNL A   1      34.420  33.928  31.228  1.00  0.00     0.261 C 
BRANCH  27  28
ATOM     28  O   UNL A   1      34.552  32.531  31.545  1.00  0.00    -0.460 OA
BRANCH  28  29
ATOM     29  C   UNL A   1      35.535  32.242  32.428  1.00  0.00     0.338 C 
ATOM     30  O   UNL A   1      35.546  32.474  33.634  1.00  0.00    -0.246 OA
BRANCH  29  31
ATOM     31  C   UNL A   1      36.561  31.409  31.788  1.00  0.00     0.060 A 
ATOM     32  C   UNL A   1      37.632  30.965  32.575  1.00  0.00     0.016 A 
ATOM     33  C   UNL A   1      36.529  31.156  30.417  1.00  0.00     0.016 A 
ATOM     34  C   UNL A   1      38.700  30.300  31.985  1.00  0.00     0.010 A 
ATOM     35  C   UNL A   1      37.611  30.502  29.822  1.00  0.00     0.010 A 
ATOM     36  C   UNL A   1      38.715  30.104  30.599  1.00  0.00    -0.014 A 
BRANCH  36  37
ATOM     37  C   UNL A   1      39.957  29.630  29.947  1.00  0.00     0.031 A 
ATOM     38  C   UNL A   1      41.099  30.592  29.776  1.00  0.00     0.074 A 
ATOM     39  C   UNL A   1      40.071  28.354  29.539  1.00  0.00     0.049 A 
ATOM     40  N   UNL A   1      42.259  30.409  29.201  1.00  0.00    -0.248 NA
ATOM     41  C   UNL A   1      40.910  31.944  30.329  1.00  0.00     0.031 C 
ATOM     42  C   UNL A   1      39.047  27.323  29.693  1.00  0.00     0.029 A 
ATOM     43  N   UNL A   1      41.104  27.713  28.904  1.00  0.00    -0.354 N 
ATOM     44  C   UNL A   1      42.928  31.622  29.305  1.00  0.00     0.074 A 
ATOM     45  C   UNL A   1      42.041  32.541  29.984  1.00  0.00     0.031 C 
ATOM     46  C   UNL A   1      39.499  26.177  29.154  1.00  0.00     0.029 A 
ATOM     47  C   UNL A   1      40.828  26.405  28.590  1.00  0.00     0.049 A 
ATOM     48  H   UNL A   1      41.961  28.149  28.693  1.00  0.00     0.167 HD
ATOM     49  C   UNL A   1      44.172  31.937  28.874  1.00  0.00     0.037 A 
ATOM     50  C   UNL A   1      41.559  25.507  27.903  1.00  0.00     0.037 A 
ATOM     51  C   UNL A   1      45.057  31.013  28.216  1.00  0.00     0.049 A 
ATOM     52  C   UNL A   1      42.914  25.908  27.379  1.00  0.00     0.074 A 
ATOM     53  C   UNL A   1      46.355  31.224  27.784  1.00  0.00     0.029 A 
ATOM     54  N   UNL A   1      44.732  29.706  27.890  1.00  0.00    -0.354 N 
ATOM     55  N   UNL A   1      43.554  27.043  27.520  1.00  0.00    -0.248 NA
ATOM     56  C   UNL A   1      43.647  24.900  26.601  1.00  0.00     0.031 C 
ATOM     57  C   UNL A   1      46.795  30.061  27.145  1.00  0.00     0.029 A 
ATOM     58  C   UNL A   1      45.792  29.108  27.230  1.00  0.00     0.049 A 
ATOM     59  H   UNL A   1      43.875  29.268  28.097  1.00  0.00     0.167 HD
ATOM     60  C   UNL A   1      44.777  26.874  26.881  1.00  0.00     0.074 A 
ATOM     61  C   UNL A   1      44.793  25.521  26.364  1.00  0.00     0.031 C 
ATOM     62  C   UNL A   1      45.797  27.755  26.737  1.00  0.00     0.037 A 
BRANCH  49  63
ATOM     63  C   UNL A   1      44.645  33.347  29.070  1.00  0.00     0.057 A 
ATOM     64  C   UNL A   1      45.398  33.732  30.187  1.00  0.00     0.134 A 
ATOM     65  C   UNL A   1      44.396  34.319  28.093  1.00  0.00     0.134 A 
ATOM     66  F   UNL A   1      45.660  32.852  31.166  1.00  0.00    -0.206 F 
ATOM     67  C   UNL A   1      45.877  35.035  30.329  1.00  0.00     0.040 A 
ATOM     68  C   UNL A   1      44.889  35.619  28.212  1.00  0.00     0.040 A 
ATOM     69  F   UNL A   1      43.684  34.016  26.997  1.00  0.00    -0.206 F 
ATOM     70  C   UNL A   1      45.631  35.980  29.335  1.00  0.00     0.006 A 
ENDBRANCH  49  63
BRANCH  50  71
ATOM     71  C   UNL A   1      41.028  24.144  27.642  1.00  0.00     0.057 A 
ATOM     72  C   UNL A   1      41.541  23.026  28.309  1.00  0.00     0.134 A 
ATOM     73  C   UNL A   1      40.034  23.921  26.681  1.00  0.00     0.134 A 
ATOM     74  F   UNL A   1      42.512  23.172  29.224  1.00  0.00    -0.206 F 
ATOM     75  C   UNL A   1      41.109  21.732  28.010  1.00  0.00     0.040 A 
ATOM     76  C   UNL A   1      39.572  22.636  26.393  1.00  0.00     0.040 A 
ATOM     77  F   UNL A   1      39.499  24.949  26.007  1.00  0.00    -0.206 F 
ATOM     78  C   UNL A   1      40.119  21.536  27.050  1.00  0.00     0.006 A 
ENDBRANCH  50  71
BRANCH  62  79
ATOM     79  C   UNL A   1      47.032  27.271  26.035  1.00  0.00     0.057 A 
ATOM     80  C   UNL A   1      48.039  26.567  26.706  1.00  0.00     0.134 A 
ATOM     81  C   UNL A   1      47.196  27.480  24.659  1.00  0.00     0.134 A 
ATOM     82  F   UNL A   1      47.951  26.343  28.026  1.00  0.00    -0.206 F 
ATOM     83  C   UNL A   1      49.178  26.110  26.039  1.00  0.00     0.040 A 
ATOM     84  C   UNL A   1      48.314  27.004  23.976  1.00  0.00     0.040 A 
ATOM     85  F   UNL A   1      46.263  28.138  23.955  1.00  0.00    -0.206 F 
ATOM     86  C   UNL A   1      49.313  26.322  24.668  1.00  0.00     0.006 A 
ENDBRANCH  62  79
ENDBRANCH  36  37
ENDBRANCH  29  31
ENDBRANCH  28  29
ENDBRANCH  27  28
ENDBRANCH  26  27
ENDBRANCH  25  26
ENDBRANCH   1  25
TORSDOF 17
ENDMDL
MODEL 2
REMARK VINA RESULT:     -11.0      4.050      8.252
REMARK SMILES COc1cccc(NC(=O)[C@@H]2[C@@H](C(=O)OCCOCCOC(=O)c3ccc(-c4c5nc(c(-c6c(F)cccc6F)c6ccc([nH]6)c(-c6c(F)cccc6F)c6nc(c(-c7c(F)cccc7F)c7ccc4[nH]7)C=C6)C=C5)cc3)[C@H]3C=C[C@@H]2C3)c1
REMARK SMILES IDX 17 1 16 2 15 3 13 4 14 5 12 6 11 7 81 8 78 9 80 10 82 11
REMARK SMILES IDX 79 12 9 13 8 14 10 16 7 17 3 18 4 19 83 20 5 21 6 22 2 23
REMARK SMILES IDX 1 24 18 25 19 26 20 27 21 28 22 29 23 30 24 31 25 32 77 33
REMARK SMILES IDX 26 34 76 35 27 36 28 37 29 38 70 39 30 40 75 41 69 42 71 43
REMARK SMILES IDX 31 44 74 45 68 46 67 47 32 49 58 50 41 51 57 52 42 53 45 54
REMARK SMILES IDX 56 55 72 56 43 57 44 58 55 60 73 61 46 62 33 63 34 64 39 65
REMARK SMILES IDX 35 66 36 67 38 68 40 69 37 70 59 71 60 72 65 73 61 74 62 75
REMARK SMILES IDX 64 76 66 77 63 78 47 79 48 80 53 81 49 82 50 83 52 84 54 85
REMARK SMILES IDX 51 86
REMARK H PARENT 8 15 71 48 45 59
REMARK Flexibility Score: inf
ROOT
ATOM      1  C   UNL A   1      32.918  28.952  27.295  1.00  0.00     0.202 C 
ENDROOT
BRANCH   1   2
ATOM      2  C   UNL A   1      33.392  28.257  26.010  1.00  0.00     0.261 C 
BRANCH   2   3
ATOM      3  O   UNL A   1      32.765  26.997  25.742  1.00  0.00    -0.463 OA
BRANCH   3   4
ATOM      4  C   UNL A   1      33.598  26.145  25.087  1.00  0.00     0.310 C 
ATOM      5  O   UNL A   1      34.262  25.299  25.665  1.00  0.00    -0.252 OA
BRANCH   4   6
ATOM      6  C   UNL A   1      33.543  26.261  23.586  1.00  0.00     0.119 C 
ATOM      7  C   UNL A   1      32.233  26.996  23.126  1.00  0.00     0.100 C 
ATOM      8  C   UNL A   1      31.662  25.983  22.089  1.00  0.00     0.025 C 
ATOM      9  C   UNL A   1      33.463  24.899  22.848  1.00  0.00     0.027 C 
ATOM     10  C   UNL A   1      31.167  24.783  22.874  1.00  0.00    -0.027 C 
ATOM     11  C   UNL A   1      32.923  25.348  21.489  1.00  0.00     0.017 C 
ATOM     12  C   UNL A   1      32.249  24.131  23.324  1.00  0.00    -0.027 C 
BRANCH   7  13
ATOM     13  C   UNL A   1      32.522  28.352  22.493  1.00  0.00     0.228 C 
ATOM     14  N   UNL A   1      31.595  29.335  22.310  1.00  0.00    -0.326 N 
ATOM     15  H   UNL A   1      32.011  30.175  22.010  1.00  0.00     0.169 HD
ATOM     16  O   UNL A   1      33.684  28.653  22.188  1.00  0.00    -0.274 OA
BRANCH  14  17
ATOM     17  C   UNL A   1      30.198  29.462  22.436  1.00  0.00     0.044 A 
ATOM     18  C   UNL A   1      28.292  30.973  22.325  1.00  0.00     0.120 A 
ATOM     19  C   UNL A   1      27.462  30.010  22.877  1.00  0.00     0.046 A 
ATOM     20  C   UNL A   1      29.652  30.716  22.122  1.00  0.00     0.072 A 
ATOM     21  C   UNL A   1      27.972  28.740  23.102  1.00  0.00     0.006 A 
ATOM     22  C   UNL A   1      29.320  28.458  22.831  1.00  0.00     0.026 A 
BRANCH  18  23
ATOM     23  O   UNL A   1      27.754  32.200  22.044  1.00  0.00    -0.497 OA
ATOM     24  C   UNL A   1      27.792  32.439  20.636  1.00  0.00     0.278 C 
ENDBRANCH  18  23
ENDBRANCH  14  17
ENDBRANCH   7  13
ENDBRANCH   4   6
ENDBRANCH   3   4
ENDBRANCH   2   3
ENDBRANCH   1   2
BRANCH   1  25
ATOM     25  O   UNL A   1      31.785  29.808  27.263  1.00  0.00    -0.374 OA
BRANCH  25  26
ATOM     26  C   UNL A   1      31.783  30.943  26.402  1.00  0.00     0.202 C 
BRANCH  26  27
ATOM     27  C   UNL A   1      31.532  32.336  26.991  1.00  0.00     0.261 C 
BRANCH  27  28
ATOM     28  O   UNL A   1      32.625  33.245  26.774  1.00  0.00    -0.460 OA
BRANCH  28  29
ATOM     29  C   UNL A   1      33.124  33.806  27.898  1.00  0.00     0.338 C 
ATOM     30  O   UNL A   1      32.586  34.644  28.617  1.00  0.00    -0.246 OA
BRANCH  29  31
ATOM     31  C   UNL A   1      34.367  33.130  28.291  1.00  0.00     0.060 A 
ATOM     32  C   UNL A   1      34.272  31.839  28.828  1.00  0.00     0.016 A 
ATOM     33  C   UNL A   1      35.594  33.791  28.234  1.00  0.00     0.016 A 
ATOM     34  C   UNL A   1      35.400  31.216  29.349  1.00  0.00     0.010 A 
ATOM     35  C   UNL A   1      36.724  33.171  28.774  1.00  0.00     0.010 A 
ATOM     36  C   UNL A   1      36.624  31.898  29.365  1.00  0.00    -0.014 A 
BRANCH  36  37
ATOM     37  C   UNL A   1      37.753  31.342  30.142  1.00  0.00     0.031 A 
ATOM     38  C   UNL A   1      38.664  30.343  29.484  1.00  0.00     0.074 A 
ATOM     39  C   UNL A   1      37.977  31.741  31.406  1.00  0.00     0.049 A 
ATOM     40  N   UNL A   1      39.686  29.696  29.984  1.00  0.00    -0.248 NA
ATOM     41  C   UNL A   1      38.388  30.030  28.072  1.00  0.00     0.031 C 
ATOM     42  C   UNL A   1      37.186  32.735  32.130  1.00  0.00     0.029 A 
ATOM     43  N   UNL A   1      38.935  31.350  32.306  1.00  0.00    -0.354 N 
ATOM     44  C   UNL A   1      40.160  28.890  28.958  1.00  0.00     0.074 A 
ATOM     45  C   UNL A   1      39.308  29.114  27.811  1.00  0.00     0.031 C 
ATOM     46  C   UNL A   1      37.687  32.868  33.372  1.00  0.00     0.029 A 
ATOM     47  C   UNL A   1      38.808  31.946  33.537  1.00  0.00     0.049 A 
ATOM     48  H   UNL A   1      39.646  30.704  32.091  1.00  0.00     0.167 HD
ATOM     49  C   UNL A   1      41.215  28.042  28.973  1.00  0.00     0.037 A 
ATOM     50  C   UNL A   1      39.505  31.745  34.672  1.00  0.00     0.037 A 
ATOM     51  C   UNL A   1      42.071  27.837  30.112  1.00  0.00     0.049 A 
ATOM     52  C   UNL A   1      40.632  30.746  34.675  1.00  0.00     0.074 A 
ATOM     53  C   UNL A   1      43.194  27.035  30.212  1.00  0.00     0.029 A 
ATOM     54  N   UNL A   1      41.894  28.437  31.349  1.00  0.00    -0.354 N 
ATOM     55  N   UNL A   1      41.100  30.021  33.688  1.00  0.00    -0.248 NA
ATOM     56  C   UNL A   1      41.330  30.540  35.953  1.00  0.00     0.031 C 
ATOM     57  C   UNL A   1      43.663  27.104  31.526  1.00  0.00     0.029 A 
ATOM     58  C   UNL A   1      42.866  27.994  32.229  1.00  0.00     0.049 A 
ATOM     59  H   UNL A   1      41.182  29.080  31.568  1.00  0.00     0.167 HD
ATOM     60  C   UNL A   1      42.167  29.301  34.216  1.00  0.00     0.074 A 
ATOM     61  C   UNL A   1      42.283  29.688  35.606  1.00  0.00     0.031 C 
ATOM     62  C   UNL A   1      42.978  28.403  33.605  1.00  0.00     0.037 A 
BRANCH  49  63
ATOM     63  C   UNL A   1      41.490  27.243  27.733  1.00  0.00     0.057 A 
ATOM     64  C   UNL A   1      40.927  25.979  27.520  1.00  0.00     0.134 A 
ATOM     65  C   UNL A   1      42.282  27.778  26.709  1.00  0.00     0.134 A 
ATOM     66  F   UNL A   1      40.169  25.405  28.468  1.00  0.00    -0.206 F 
ATOM     67  C   UNL A   1      41.150  25.271  26.338  1.00  0.00     0.040 A 
ATOM     68  C   UNL A   1      42.493  27.092  25.513  1.00  0.00     0.040 A 
ATOM     69  F   UNL A   1      42.849  28.987  26.848  1.00  0.00    -0.206 F 
ATOM     70  C   UNL A   1      41.926  25.832  25.326  1.00  0.00     0.006 A 
ENDBRANCH  49  63
BRANCH  50  71
ATOM     71  C   UNL A   1      39.152  32.482  35.913  1.00  0.00     0.057 A 
ATOM     72  C   UNL A   1      39.713  33.732  36.198  1.00  0.00     0.134 A 
ATOM     73  C   UNL A   1      38.290  31.930  36.868  1.00  0.00     0.134 A 
ATOM     74  F   UNL A   1      40.565  34.303  35.333  1.00  0.00    -0.206 F 
ATOM     75  C   UNL A   1      39.455  34.394  37.401  1.00  0.00     0.040 A 
ATOM     76  C   UNL A   1      38.000  32.593  38.061  1.00  0.00     0.040 A 
ATOM     77  F   UNL A   1      37.717  30.736  36.656  1.00  0.00    -0.206 F 
ATOM     78  C   UNL A   1      38.593  33.824  38.335  1.00  0.00     0.006 A 
ENDBRANCH  50  71
BRANCH  62  79
ATOM     79  C   UNL A   1      44.092  27.815  34.421  1.00  0.00     0.057 A 
ATOM     80  C   UNL A   1      45.336  28.446  34.544  1.00  0.00     0.134 A 
ATOM     81  C   UNL A   1      43.902  26.619  35.126  1.00  0.00     0.134 A 
ATOM     82  F   UNL A   1      45.588  29.588  33.886  1.00  0.00    -0.206 F 
ATOM     83  C   UNL A   1      46.359  27.895  35.317  1.00  0.00     0.040 A 
ATOM     84  C   UNL A   1      44.907  26.073  35.925  1.00  0.00     0.040 A 
ATOM     85  F   UNL A   1      42.730  25.968  35.060  1.00  0.00    -0.206 F 
ATOM     86  C   UNL A   1      46.143  26.709  36.016  1.00  0.00     0.006 A 
ENDBRANCH  62  79
ENDBRANCH  36  37
ENDBRANCH  29  31
ENDBRANCH  28  29
ENDBRANCH  27  28
ENDBRANCH  26  27
ENDBRANCH  25  26
ENDBRANCH   1  25
TORSDOF 17
ENDMDL
MODEL 3
REMARK VINA RESULT:     -10.9      4.696      9.683
REMARK SMILES COc1cccc(NC(=O)[C@@H]2[C@@H](C(=O)OCCOCCOC(=O)c3ccc(-c4c5nc(c(-c6c(F)cccc6F)c6ccc([nH]6)c(-c6c(F)cccc6F)c6nc(c(-c7c(F)cccc7F)c7ccc4[nH]7)C=C6)C=C5)cc3)[C@H]3C=C[C@@H]2C3)c1
REMARK SMILES IDX 17 1 16 2 15 3 13 4 14 5 12 6 11 7 81 8 78 9 80 10 82 11
REMARK SMILES IDX 79 12 9 13 8 14 10 16 7 17 3 18 4 19 83 20 5 21 6 22 2 23
REMARK SMILES IDX 1 24 18 25 19 26 20 27 21 28 22 29 23 30 24 31 25 32 77 33
REMARK SMILES IDX 26 34 76 35 27 36 28 37 29 38 70 39 30 40 75 41 69 42 71 43
REMARK SMILES IDX 31 44 74 45 68 46 67 47 32 49 58 50 41 51 57 52 42 53 45 54
REMARK SMILES IDX 56 55 72 56 43 57 44 58 55 60 73 61 46 62 33 63 34 64 39 65
REMARK SMILES IDX 35 66 36 67 38 68 40 69 37 70 59 71 60 72 65 73 61 74 62 75
REMARK SMILES IDX 64 76 66 77 63 78 47 79 48 80 53 81 49 82 50 83 52 84 54 85
REMARK SMILES IDX 51 86
REMARK H PARENT 8 15 71 48 45 59
REMARK Flexibility Score: inf
ROOT
ATOM      1  C   UNL A   1      40.345  22.010  25.768  1.00  0.00     0.202 C 
ENDROOT
BRANCH   1   2
ATOM      2  C   UNL A   1      39.002  22.136  26.502  1.00  0.00     0.261 C 
BRANCH   2   3
ATOM      3  O   UNL A   1      37.973  22.804  25.761  1.00  0.00    -0.463 OA
BRANCH   3   4
ATOM      4  C   UNL A   1      36.942  21.971  25.462  1.00  0.00     0.310 C 
ATOM      5  O   UNL A   1      37.111  20.847  25.015  1.00  0.00    -0.252 OA
BRANCH   4   6
ATOM      6  C   UNL A   1      35.584  22.510  25.834  1.00  0.00     0.119 C 
ATOM      7  C   UNL A   1      34.440  21.606  25.246  1.00  0.00     0.100 C 
ATOM      8  C   UNL A   1      33.571  22.663  24.500  1.00  0.00     0.025 C 
ATOM      9  C   UNL A   1      35.273  23.907  25.240  1.00  0.00     0.027 C 
ATOM     10  C   UNL A   1      34.365  23.106  23.286  1.00  0.00    -0.027 C 
ATOM     11  C   UNL A   1      33.748  23.927  25.351  1.00  0.00     0.017 C 
ATOM     12  C   UNL A   1      35.382  23.857  23.731  1.00  0.00    -0.027 C 
BRANCH   7  13
ATOM     13  C   UNL A   1      33.651  20.890  26.335  1.00  0.00     0.228 C 
ATOM     14  N   UNL A   1      33.230  19.596  26.264  1.00  0.00    -0.326 N 
ATOM     15  H   UNL A   1      32.856  19.287  27.121  1.00  0.00     0.169 HD
ATOM     16  O   UNL A   1      33.429  21.463  27.412  1.00  0.00    -0.274 OA
BRANCH  14  17
ATOM     17  C   UNL A   1      33.189  18.585  25.284  1.00  0.00     0.044 A 
ATOM     18  C   UNL A   1      33.335  16.194  24.846  1.00  0.00     0.120 A 
ATOM     19  C   UNL A   1      33.393  16.421  23.479  1.00  0.00     0.046 A 
ATOM     20  C   UNL A   1      33.255  17.261  25.747  1.00  0.00     0.072 A 
ATOM     21  C   UNL A   1      33.235  17.717  23.011  1.00  0.00     0.006 A 
ATOM     22  C   UNL A   1      33.081  18.783  23.912  1.00  0.00     0.026 A 
BRANCH  18  23
ATOM     23  O   UNL A   1      33.422  14.902  25.286  1.00  0.00    -0.497 OA
ATOM     24  C   UNL A   1      32.156  14.471  25.790  1.00  0.00     0.278 C 
ENDBRANCH  18  23
ENDBRANCH  14  17
ENDBRANCH   7  13
ENDBRANCH   4   6
ENDBRANCH   3   4
ENDBRANCH   2   3
ENDBRANCH   1   2
BRANCH   1  25
ATOM     25  O   UNL A   1      41.542  21.809  26.506  1.00  0.00    -0.374 OA
BRANCH  25  26
ATOM     26  C   UNL A   1      42.726  21.396  25.830  1.00  0.00     0.202 C 
BRANCH  26  27
ATOM     27  C   UNL A   1      43.789  22.438  25.464  1.00  0.00     0.261 C 
BRANCH  27  28
ATOM     28  O   UNL A   1      43.228  23.654  24.940  1.00  0.00    -0.460 OA
BRANCH  28  29
ATOM     29  C   UNL A   1      43.939  24.770  25.220  1.00  0.00     0.338 C 
ATOM     30  O   UNL A   1      44.975  25.150  24.681  1.00  0.00    -0.246 OA
BRANCH  29  31
ATOM     31  C   UNL A   1      43.196  25.621  26.158  1.00  0.00     0.060 A 
ATOM     32  C   UNL A   1      43.708  26.895  26.438  1.00  0.00     0.016 A 
ATOM     33  C   UNL A   1      42.074  25.138  26.832  1.00  0.00     0.016 A 
ATOM     34  C   UNL A   1      43.124  27.678  27.427  1.00  0.00     0.010 A 
ATOM     35  C   UNL A   1      41.499  25.919  27.838  1.00  0.00     0.010 A 
ATOM     36  C   UNL A   1      42.043  27.175  28.162  1.00  0.00    -0.014 A 
BRANCH  36  37
ATOM     37  C   UNL A   1      41.592  27.898  29.372  1.00  0.00     0.031 A 
ATOM     38  C   UNL A   1      40.374  28.776  29.280  1.00  0.00     0.074 A 
ATOM     39  C   UNL A   1      42.243  27.753  30.539  1.00  0.00     0.049 A 
ATOM     40  N   UNL A   1      39.825  29.531  30.196  1.00  0.00    -0.248 NA
ATOM     41  C   UNL A   1      39.681  28.806  27.981  1.00  0.00     0.031 C 
ATOM     42  C   UNL A   1      43.407  26.896  30.756  1.00  0.00     0.029 A 
ATOM     43  N   UNL A   1      42.017  28.333  31.761  1.00  0.00    -0.354 N 
ATOM     44  C   UNL A   1      38.738  30.139  29.581  1.00  0.00     0.074 A 
ATOM     45  C   UNL A   1      38.711  29.679  28.210  1.00  0.00     0.031 C 
ATOM     46  C   UNL A   1      43.802  27.015  32.037  1.00  0.00     0.029 A 
ATOM     47  C   UNL A   1      42.940  27.980  32.715  1.00  0.00     0.049 A 
ATOM     48  H   UNL A   1      41.265  28.943  31.938  1.00  0.00     0.167 HD
ATOM     49  C   UNL A   1      37.842  31.001  30.116  1.00  0.00     0.037 A 
ATOM     50  C   UNL A   1      43.082  28.411  33.983  1.00  0.00     0.037 A 
ATOM     51  C   UNL A   1      37.862  31.440  31.487  1.00  0.00     0.049 A 
ATOM     52  C   UNL A   1      42.106  29.420  34.530  1.00  0.00     0.074 A 
ATOM     53  C   UNL A   1      36.970  32.275  32.136  1.00  0.00     0.029 A 
ATOM     54  N   UNL A   1      38.828  31.084  32.415  1.00  0.00    -0.354 N 
ATOM     55  N   UNL A   1      41.057  29.956  33.955  1.00  0.00    -0.248 NA
ATOM     56  C   UNL A   1      42.336  29.884  35.906  1.00  0.00     0.031 C 
ATOM     57  C   UNL A   1      37.429  32.470  33.442  1.00  0.00     0.029 A 
ATOM     58  C   UNL A   1      38.574  31.711  33.623  1.00  0.00     0.049 A 
ATOM     59  H   UNL A   1      39.583  30.476  32.240  1.00  0.00     0.167 HD
ATOM     60  C   UNL A   1      40.483  30.789  34.908  1.00  0.00     0.074 A 
ATOM     61  C   UNL A   1      41.294  30.678  36.102  1.00  0.00     0.031 C 
ATOM     62  C   UNL A   1      39.382  31.575  34.806  1.00  0.00     0.037 A 
BRANCH  49  63
ATOM     63  C   UNL A   1      36.777  31.555  29.215  1.00  0.00     0.057 A 
ATOM     64  C   UNL A   1      35.658  30.804  28.837  1.00  0.00     0.134 A 
ATOM     65  C   UNL A   1      36.845  32.882  28.774  1.00  0.00     0.134 A 
ATOM     66  F   UNL A   1      35.539  29.522  29.215  1.00  0.00    -0.206 F 
ATOM     67  C   UNL A   1      34.649  31.350  28.041  1.00  0.00     0.040 A 
ATOM     68  C   UNL A   1      35.833  33.447  27.999  1.00  0.00     0.040 A 
ATOM     69  F   UNL A   1      37.890  33.657  29.104  1.00  0.00    -0.206 F 
ATOM     70  C   UNL A   1      34.730  32.679  27.629  1.00  0.00     0.006 A 
ENDBRANCH  49  63
BRANCH  50  71
ATOM     71  C   UNL A   1      44.200  27.916  34.826  1.00  0.00     0.057 A 
ATOM     72  C   UNL A   1      45.433  28.578  34.858  1.00  0.00     0.134 A 
ATOM     73  C   UNL A   1      44.081  26.740  35.578  1.00  0.00     0.134 A 
ATOM     74  F   UNL A   1      45.617  29.696  34.140  1.00  0.00    -0.206 F 
ATOM     75  C   UNL A   1      46.517  28.074  35.580  1.00  0.00     0.040 A 
ATOM     76  C   UNL A   1      45.147  26.241  36.328  1.00  0.00     0.040 A 
ATOM     77  F   UNL A   1      42.927  26.058  35.593  1.00  0.00    -0.206 F 
ATOM     78  C   UNL A   1      46.374  26.902  36.320  1.00  0.00     0.006 A 
ENDBRANCH  50  71
BRANCH  62  79
ATOM     79  C   UNL A   1      38.963  32.335  36.030  1.00  0.00     0.057 A 
ATOM     80  C   UNL A   1      39.316  33.676  36.228  1.00  0.00     0.134 A 
ATOM     81  C   UNL A   1      38.162  31.726  37.006  1.00  0.00     0.134 A 
ATOM     82  F   UNL A   1      40.091  34.314  35.339  1.00  0.00    -0.206 F 
ATOM     83  C   UNL A   1      38.908  34.376  37.366  1.00  0.00     0.040 A 
ATOM     84  C   UNL A   1      37.725  32.423  38.132  1.00  0.00     0.040 A 
ATOM     85  F   UNL A   1      37.780  30.447  36.872  1.00  0.00    -0.206 F 
ATOM     86  C   UNL A   1      38.104  33.751  38.317  1.00  0.00     0.006 A 
ENDBRANCH  62  79
ENDBRANCH  36  37
ENDBRANCH  29  31
ENDBRANCH  28  29
ENDBRANCH  27  28
ENDBRANCH  26  27
ENDBRANCH  25  26
ENDBRANCH   1  25
TORSDOF 17
ENDMDL
