MODEL 1
REMARK VINA RESULT:      -9.4      0.000      0.000
REMARK SMILES O=C(OCCOCCOC(=O)[C@H]1Cc2cc(O)ccc2C[NH2+]1)c1ccc(-c2c3nc(c(-c4c(F)cccc4F)c4ccc([nH]4)c(-c4c(F)cccc4F)c4nc(c(-c5c(F)cccc5F)c5ccc2[nH]5)C=C4)C=C3)cc1
REMARK SMILES IDX 5 1 4 2 3 3 2 4 1 5 23 6 24 7 76 8 25 9 75 10 26 11 27 12
REMARK SMILES IDX 28 13 69 14 29 15 74 16 68 17 70 18 30 19 73 20 67 21 66 22
REMARK SMILES IDX 31 24 57 25 40 26 56 27 41 28 44 29 55 30 71 31 42 32 43 33
REMARK SMILES IDX 54 35 72 36 45 37 32 38 33 39 38 40 34 41 35 42 37 43 39 44
REMARK SMILES IDX 36 45 58 46 59 47 64 48 60 49 61 50 63 51 65 52 62 53 46 54
REMARK SMILES IDX 47 55 52 56 48 57 49 58 51 59 53 60 50 61 6 62 7 63 8 64
REMARK SMILES IDX 9 65 10 66 11 67 12 68 13 69 22 70 14 71 21 72 15 75 20 76
REMARK SMILES IDX 16 77 19 78 18 79 17 80
REMARK H PARENT 70 23 44 34 22 73 22 74 17 81
REMARK Flexibility Score: inf
ROOT
ATOM      1  C   UNL A   1      32.481  35.908  31.857  1.00  0.00     0.202 C 
ENDROOT
BRANCH   1   2
ATOM      2  C   UNL A   1      33.059  36.291  30.492  1.00  0.00     0.261 C 
BRANCH   2   3
ATOM      3  O   UNL A   1      32.519  35.463  29.453  1.00  0.00    -0.460 OA
BRANCH   3   4
ATOM      4  C   UNL A   1      33.119  34.480  28.748  1.00  0.00     0.338 C 
ATOM      5  O   UNL A   1      32.552  34.081  27.731  1.00  0.00    -0.246 OA
BRANCH   4   6
ATOM      6  C   UNL A   1      34.408  33.810  29.129  1.00  0.00     0.060 A 
ATOM      7  C   UNL A   1      35.531  34.143  28.350  1.00  0.00     0.016 A 
ATOM      8  C   UNL A   1      34.576  32.837  30.119  1.00  0.00     0.016 A 
ATOM      9  C   UNL A   1      36.762  33.514  28.550  1.00  0.00     0.010 A 
ATOM     10  C   UNL A   1      35.791  32.202  30.326  1.00  0.00     0.010 A 
ATOM     11  C   UNL A   1      36.887  32.543  29.546  1.00  0.00    -0.014 A 
BRANCH  11  12
ATOM     12  C   UNL A   1      38.190  32.009  29.948  1.00  0.00     0.031 A 
ATOM     13  C   UNL A   1      39.105  32.780  30.839  1.00  0.00     0.074 A 
ATOM     14  C   UNL A   1      38.569  30.874  29.339  1.00  0.00     0.049 A 
ATOM     15  N   UNL A   1      40.238  32.403  31.368  1.00  0.00    -0.248 NA
ATOM     16  C   UNL A   1      38.721  34.166  31.148  1.00  0.00     0.031 C 
ATOM     17  C   UNL A   1      37.779  30.165  28.324  1.00  0.00     0.029 A 
ATOM     18  N   UNL A   1      39.701  30.126  29.465  1.00  0.00    -0.354 N 
ATOM     19  C   UNL A   1      40.693  33.494  32.095  1.00  0.00     0.074 A 
ATOM     20  C   UNL A   1      39.750  34.571  31.881  1.00  0.00     0.031 C 
ATOM     21  C   UNL A   1      38.430  29.053  27.961  1.00  0.00     0.029 A 
ATOM     22  C   UNL A   1      39.671  28.977  28.717  1.00  0.00     0.049 A 
ATOM     23  H   UNL A   1      40.461  30.383  30.036  1.00  0.00     0.167 HD
ATOM     24  C   UNL A   1      41.794  33.563  32.881  1.00  0.00     0.037 A 
ATOM     25  C   UNL A   1      40.538  27.954  28.691  1.00  0.00     0.037 A 
ATOM     26  C   UNL A   1      42.727  32.470  33.012  1.00  0.00     0.049 A 
ATOM     27  C   UNL A   1      41.713  28.024  29.618  1.00  0.00     0.074 A 
ATOM     28  C   UNL A   1      43.836  32.361  33.829  1.00  0.00     0.029 A 
ATOM     29  N   UNL A   1      42.664  31.296  32.268  1.00  0.00    -0.354 N 
ATOM     30  N   UNL A   1      42.059  28.985  30.443  1.00  0.00    -0.248 NA
ATOM     31  C   UNL A   1      42.598  26.858  29.632  1.00  0.00     0.031 C 
ATOM     32  C   UNL A   1      44.474  31.146  33.538  1.00  0.00     0.029 A 
ATOM     33  C   UNL A   1      43.730  30.470  32.582  1.00  0.00     0.049 A 
ATOM     34  H   UNL A   1      41.962  31.083  31.611  1.00  0.00     0.167 HD
ATOM     35  C   UNL A   1      43.198  28.537  31.090  1.00  0.00     0.074 A 
ATOM     36  C   UNL A   1      43.454  27.198  30.583  1.00  0.00     0.031 C 
ATOM     37  C   UNL A   1      43.970  29.164  32.015  1.00  0.00     0.037 A 
BRANCH  24  38
ATOM     38  C   UNL A   1      42.034  34.843  33.637  1.00  0.00     0.057 A 
ATOM     39  C   UNL A   1      41.505  35.037  34.919  1.00  0.00     0.134 A 
ATOM     40  C   UNL A   1      42.784  35.897  33.091  1.00  0.00     0.134 A 
ATOM     41  F   UNL A   1      40.773  34.080  35.509  1.00  0.00    -0.206 F 
ATOM     42  C   UNL A   1      41.718  36.223  35.630  1.00  0.00     0.040 A 
ATOM     43  C   UNL A   1      43.028  37.074  33.803  1.00  0.00     0.040 A 
ATOM     44  F   UNL A   1      43.327  35.784  31.869  1.00  0.00    -0.206 F 
ATOM     45  C   UNL A   1      42.490  37.241  35.076  1.00  0.00     0.006 A 
ENDBRANCH  24  38
BRANCH  25  46
ATOM     46  C   UNL A   1      40.233  26.756  27.875  1.00  0.00     0.057 A 
ATOM     47  C   UNL A   1      39.446  25.708  28.367  1.00  0.00     0.134 A 
ATOM     48  C   UNL A   1      40.792  26.601  26.602  1.00  0.00     0.134 A 
ATOM     49  F   UNL A   1      38.910  25.782  29.595  1.00  0.00    -0.206 F 
ATOM     50  C   UNL A   1      39.229  24.547  27.623  1.00  0.00     0.040 A 
ATOM     51  C   UNL A   1      40.564  25.457  25.837  1.00  0.00     0.040 A 
ATOM     52  F   UNL A   1      41.562  27.568  26.081  1.00  0.00    -0.206 F 
ATOM     53  C   UNL A   1      39.785  24.423  26.351  1.00  0.00     0.006 A 
ENDBRANCH  25  46
BRANCH  37  54
ATOM     54  C   UNL A   1      45.156  28.384  32.503  1.00  0.00     0.057 A 
ATOM     55  C   UNL A   1      45.008  27.408  33.495  1.00  0.00     0.134 A 
ATOM     56  C   UNL A   1      46.431  28.565  31.952  1.00  0.00     0.134 A 
ATOM     57  F   UNL A   1      43.815  27.193  34.069  1.00  0.00    -0.206 F 
ATOM     58  C   UNL A   1      46.083  26.622  33.905  1.00  0.00     0.040 A 
ATOM     59  C   UNL A   1      47.506  27.760  32.328  1.00  0.00     0.040 A 
ATOM     60  F   UNL A   1      46.632  29.474  30.984  1.00  0.00    -0.206 F 
ATOM     61  C   UNL A   1      47.332  26.785  33.307  1.00  0.00     0.006 A 
ENDBRANCH  37  54
ENDBRANCH  11  12
ENDBRANCH   4   6
ENDBRANCH   3   4
ENDBRANCH   2   3
ENDBRANCH   1   2
BRANCH   1  62
ATOM     62  O   UNL A   1      33.365  35.179  32.711  1.00  0.00    -0.374 OA
BRANCH  62  63
ATOM     63  C   UNL A   1      34.619  35.807  33.013  1.00  0.00     0.202 C 
BRANCH  63  64
ATOM     64  C   UNL A   1      35.751  34.779  32.953  1.00  0.00     0.261 C 
BRANCH  64  65
ATOM     65  O   UNL A   1      35.371  33.654  33.752  1.00  0.00    -0.459 OA
BRANCH  65  66
ATOM     66  C   UNL A   1      36.270  33.309  34.722  1.00  0.00     0.365 C 
ATOM     67  O   UNL A   1      36.161  33.570  35.916  1.00  0.00    -0.245 OA
BRANCH  66  68
ATOM     68  C   UNL A   1      37.292  32.352  34.111  1.00  0.00     0.298 C 
ATOM     69  C   UNL A   1      38.411  32.062  35.109  1.00  0.00     0.113 C 
ATOM     70  N   UNL A   1      36.647  31.117  33.616  1.00  0.00    -0.331 N 
ATOM     71  C   UNL A   1      39.287  30.921  34.668  1.00  0.00    -0.029 A 
ATOM     72  C   UNL A   1      37.622  30.350  32.838  1.00  0.00     0.298 C 
ATOM     73  H   UNL A   1      35.853  31.359  33.025  1.00  0.00     0.347 HD
ATOM     74  H   UNL A   1      36.321  30.559  34.405  1.00  0.00     0.347 HD
ATOM     75  C   UNL A   1      40.475  30.673  35.362  1.00  0.00     0.050 A 
ATOM     76  C   UNL A   1      38.883  30.067  33.623  1.00  0.00     0.010 A 
ATOM     77  C   UNL A   1      41.249  29.573  35.028  1.00  0.00     0.115 A 
ATOM     78  C   UNL A   1      39.694  28.976  33.285  1.00  0.00     0.013 A 
ATOM     79  C   UNL A   1      40.870  28.720  33.996  1.00  0.00     0.046 A 
BRANCH  77  80
ATOM     80  O   UNL A   1      42.379  29.356  35.758  1.00  0.00    -0.508 OA
ATOM     81  H   UNL A   1      42.458  29.716  36.619  1.00  0.00     0.293 HD
ENDBRANCH  77  80
ENDBRANCH  66  68
ENDBRANCH  65  66
ENDBRANCH  64  65
ENDBRANCH  63  64
ENDBRANCH  62  63
ENDBRANCH   1  62
TORSDOF 15
ENDMDL
MODEL 2
REMARK VINA RESULT:      -9.2      5.114     10.809
REMARK SMILES O=C(OCCOCCOC(=O)[C@H]1Cc2cc(O)ccc2C[NH2+]1)c1ccc(-c2c3nc(c(-c4c(F)cccc4F)c4ccc([nH]4)c(-c4c(F)cccc4F)c4nc(c(-c5c(F)cccc5F)c5ccc2[nH]5)C=C4)C=C3)cc1
REMARK SMILES IDX 5 1 4 2 3 3 2 4 1 5 23 6 24 7 76 8 25 9 75 10 26 11 27 12
REMARK SMILES IDX 28 13 69 14 29 15 74 16 68 17 70 18 30 19 73 20 67 21 66 22
REMARK SMILES IDX 31 24 57 25 40 26 56 27 41 28 44 29 55 30 71 31 42 32 43 33
REMARK SMILES IDX 54 35 72 36 45 37 32 38 33 39 38 40 34 41 35 42 37 43 39 44
REMARK SMILES IDX 36 45 58 46 59 47 64 48 60 49 61 50 63 51 65 52 62 53 46 54
REMARK SMILES IDX 47 55 52 56 48 57 49 58 51 59 53 60 50 61 6 62 7 63 8 64
REMARK SMILES IDX 9 65 10 66 11 67 12 68 13 69 22 70 14 71 21 72 15 75 20 76
REMARK SMILES IDX 16 77 19 78 18 79 17 80
REMARK H PARENT 70 23 44 34 22 73 22 74 17 81
REMARK Flexibility Score: inf
ROOT
ATOM      1  C   UNL A   1      44.687  18.886  25.136  1.00  0.00     0.202 C 
ENDROOT
BRANCH   1   2
ATOM      2  C   UNL A   1      43.544  18.511  26.084  1.00  0.00     0.261 C 
BRANCH   2   3
ATOM      3  O   UNL A   1      42.272  18.841  25.511  1.00  0.00    -0.460 OA
BRANCH   3   4
ATOM      4  C   UNL A   1      41.344  19.721  25.946  1.00  0.00     0.338 C 
ATOM      5  O   UNL A   1      40.162  19.390  25.859  1.00  0.00    -0.246 OA
BRANCH   4   6
ATOM      6  C   UNL A   1      41.643  21.088  26.490  1.00  0.00     0.060 A 
ATOM      7  C   UNL A   1      41.477  21.249  27.878  1.00  0.00     0.016 A 
ATOM      8  C   UNL A   1      41.984  22.222  25.747  1.00  0.00     0.016 A 
ATOM      9  C   UNL A   1      41.634  22.497  28.485  1.00  0.00     0.010 A 
ATOM     10  C   UNL A   1      42.139  23.467  26.336  1.00  0.00     0.010 A 
ATOM     11  C   UNL A   1      41.970  23.606  27.706  1.00  0.00    -0.014 A 
BRANCH  11  12
ATOM     12  C   UNL A   1      42.360  24.885  28.305  1.00  0.00     0.031 A 
ATOM     13  C   UNL A   1      43.749  25.123  28.793  1.00  0.00     0.074 A 
ATOM     14  C   UNL A   1      41.360  25.752  28.533  1.00  0.00     0.049 A 
ATOM     15  N   UNL A   1      44.276  26.228  29.248  1.00  0.00    -0.248 NA
ATOM     16  C   UNL A   1      44.656  23.965  28.811  1.00  0.00     0.031 C 
ATOM     17  C   UNL A   1      39.947  25.497  28.228  1.00  0.00     0.029 A 
ATOM     18  N   UNL A   1      41.366  27.002  29.075  1.00  0.00    -0.354 N 
ATOM     19  C   UNL A   1      45.585  25.909  29.581  1.00  0.00     0.074 A 
ATOM     20  C   UNL A   1      45.750  24.491  29.346  1.00  0.00     0.031 C 
ATOM     21  C   UNL A   1      39.229  26.583  28.540  1.00  0.00     0.029 A 
ATOM     22  C   UNL A   1      40.132  27.600  29.059  1.00  0.00     0.049 A 
ATOM     23  H   UNL A   1      42.173  27.432  29.440  1.00  0.00     0.167 HD
ATOM     24  C   UNL A   1      46.552  26.746  30.027  1.00  0.00     0.037 A 
ATOM     25  C   UNL A   1      39.789  28.854  29.385  1.00  0.00     0.037 A 
ATOM     26  C   UNL A   1      46.310  28.144  30.295  1.00  0.00     0.049 A 
ATOM     27  C   UNL A   1      40.887  29.780  29.811  1.00  0.00     0.074 A 
ATOM     28  C   UNL A   1      47.203  29.130  30.668  1.00  0.00     0.029 A 
ATOM     29  N   UNL A   1      45.055  28.743  30.242  1.00  0.00    -0.354 N 
ATOM     30  N   UNL A   1      42.167  29.529  29.963  1.00  0.00    -0.248 NA
ATOM     31  C   UNL A   1      40.500  31.165  30.080  1.00  0.00     0.031 C 
ATOM     32  C   UNL A   1      46.480  30.309  30.895  1.00  0.00     0.029 A 
ATOM     33  C   UNL A   1      45.144  30.076  30.606  1.00  0.00     0.049 A 
ATOM     34  H   UNL A   1      44.223  28.285  29.984  1.00  0.00     0.167 HD
ATOM     35  C   UNL A   1      42.747  30.731  30.334  1.00  0.00     0.074 A 
ATOM     36  C   UNL A   1      41.676  31.714  30.342  1.00  0.00     0.031 C 
ATOM     37  C   UNL A   1      44.040  31.007  30.644  1.00  0.00     0.037 A 
BRANCH  24  38
ATOM     38  C   UNL A   1      47.927  26.173  30.246  1.00  0.00     0.057 A 
ATOM     39  C   UNL A   1      48.319  25.688  31.500  1.00  0.00     0.134 A 
ATOM     40  C   UNL A   1      48.875  26.107  29.213  1.00  0.00     0.134 A 
ATOM     41  F   UNL A   1      47.473  25.721  32.540  1.00  0.00    -0.206 F 
ATOM     42  C   UNL A   1      49.595  25.157  31.716  1.00  0.00     0.040 A 
ATOM     43  C   UNL A   1      50.142  25.551  29.409  1.00  0.00     0.040 A 
ATOM     44  F   UNL A   1      48.572  26.548  27.981  1.00  0.00    -0.206 F 
ATOM     45  C   UNL A   1      50.506  25.077  30.666  1.00  0.00     0.006 A 
ENDBRANCH  24  38
BRANCH  25  46
ATOM     46  C   UNL A   1      38.395  29.310  29.176  1.00  0.00     0.057 A 
ATOM     47  C   UNL A   1      37.455  29.310  30.213  1.00  0.00     0.134 A 
ATOM     48  C   UNL A   1      37.951  29.683  27.902  1.00  0.00     0.134 A 
ATOM     49  F   UNL A   1      37.810  28.929  31.449  1.00  0.00    -0.206 F 
ATOM     50  C   UNL A   1      36.124  29.664  29.991  1.00  0.00     0.040 A 
ATOM     51  C   UNL A   1      36.630  30.062  27.670  1.00  0.00     0.040 A 
ATOM     52  F   UNL A   1      38.805  29.693  26.867  1.00  0.00    -0.206 F 
ATOM     53  C   UNL A   1      35.710  30.047  28.716  1.00  0.00     0.006 A 
ENDBRANCH  25  46
BRANCH  37  54
ATOM     54  C   UNL A   1      44.324  32.430  31.023  1.00  0.00     0.057 A 
ATOM     55  C   UNL A   1      44.493  32.791  32.365  1.00  0.00     0.134 A 
ATOM     56  C   UNL A   1      44.481  33.431  30.055  1.00  0.00     0.134 A 
ATOM     57  F   UNL A   1      44.347  31.881  33.340  1.00  0.00    -0.206 F 
ATOM     58  C   UNL A   1      44.832  34.093  32.728  1.00  0.00     0.040 A 
ATOM     59  C   UNL A   1      44.856  34.728  30.404  1.00  0.00     0.040 A 
ATOM     60  F   UNL A   1      44.348  33.143  28.750  1.00  0.00    -0.206 F 
ATOM     61  C   UNL A   1      45.033  35.061  31.745  1.00  0.00     0.006 A 
ENDBRANCH  37  54
ENDBRANCH  11  12
ENDBRANCH   4   6
ENDBRANCH   3   4
ENDBRANCH   2   3
ENDBRANCH   1   2
BRANCH   1  62
ATOM     62  O   UNL A   1      44.612  20.200  24.580  1.00  0.00    -0.374 OA
BRANCH  62  63
ATOM     63  C   UNL A   1      45.380  21.216  25.241  1.00  0.00     0.202 C 
BRANCH  63  64
ATOM     64  C   UNL A   1      45.794  22.298  24.241  1.00  0.00     0.261 C 
BRANCH  64  65
ATOM     65  O   UNL A   1      45.184  23.529  24.642  1.00  0.00    -0.459 OA
BRANCH  65  66
ATOM     66  C   UNL A   1      46.053  24.570  24.816  1.00  0.00     0.365 C 
ATOM     67  O   UNL A   1      47.159  24.666  24.294  1.00  0.00    -0.245 OA
BRANCH  66  68
ATOM     68  C   UNL A   1      45.322  25.685  25.563  1.00  0.00     0.298 C 
ATOM     69  C   UNL A   1      46.258  26.868  25.799  1.00  0.00     0.113 C 
ATOM     70  N   UNL A   1      44.082  26.082  24.862  1.00  0.00    -0.331 N 
ATOM     71  C   UNL A   1      45.524  28.091  26.277  1.00  0.00    -0.029 A 
ATOM     72  C   UNL A   1      43.310  26.974  25.730  1.00  0.00     0.298 C 
ATOM     73  H   UNL A   1      43.530  25.253  24.647  1.00  0.00     0.347 HD
ATOM     74  H   UNL A   1      44.315  26.564  23.995  1.00  0.00     0.347 HD
ATOM     75  C   UNL A   1      46.260  29.185  26.740  1.00  0.00     0.050 A 
ATOM     76  C   UNL A   1      44.119  28.166  26.190  1.00  0.00     0.010 A 
ATOM     77  C   UNL A   1      45.605  30.352  27.099  1.00  0.00     0.115 A 
ATOM     78  C   UNL A   1      43.476  29.346  26.583  1.00  0.00     0.013 A 
ATOM     79  C   UNL A   1      44.219  30.444  27.025  1.00  0.00     0.046 A 
BRANCH  77  80
ATOM     80  O   UNL A   1      46.372  31.401  27.511  1.00  0.00    -0.508 OA
ATOM     81  H   UNL A   1      47.292  31.285  27.645  1.00  0.00     0.293 HD
ENDBRANCH  77  80
ENDBRANCH  66  68
ENDBRANCH  65  66
ENDBRANCH  64  65
ENDBRANCH  63  64
ENDBRANCH  62  63
ENDBRANCH   1  62
TORSDOF 15
ENDMDL
MODEL 3
REMARK VINA RESULT:      -9.1      5.042     10.953
REMARK SMILES O=C(OCCOCCOC(=O)[C@H]1Cc2cc(O)ccc2C[NH2+]1)c1ccc(-c2c3nc(c(-c4c(F)cccc4F)c4ccc([nH]4)c(-c4c(F)cccc4F)c4nc(c(-c5c(F)cccc5F)c5ccc2[nH]5)C=C4)C=C3)cc1
REMARK SMILES IDX 5 1 4 2 3 3 2 4 1 5 23 6 24 7 76 8 25 9 75 10 26 11 27 12
REMARK SMILES IDX 28 13 69 14 29 15 74 16 68 17 70 18 30 19 73 20 67 21 66 22
REMARK SMILES IDX 31 24 57 25 40 26 56 27 41 28 44 29 55 30 71 31 42 32 43 33
REMARK SMILES IDX 54 35 72 36 45 37 32 38 33 39 38 40 34 41 35 42 37 43 39 44
REMARK SMILES IDX 36 45 58 46 59 47 64 48 60 49 61 50 63 51 65 52 62 53 46 54
REMARK SMILES IDX 47 55 52 56 48 57 49 58 51 59 53 60 50 61 6 62 7 63 8 64
REMARK SMILES IDX 9 65 10 66 11 67 12 68 13 69 22 70 14 71 21 72 15 75 20 76
REMARK SMILES IDX 16 77 19 78 18 79 17 80
REMARK H PARENT 70 23 44 34 22 73 22 74 17 81
REMARK Flexibility Score: inf
ROOT
ATOM      1  C   UNL A   1      44.476  18.687  25.029  1.00  0.00     0.202 C 
ENDROOT
BRANCH   1   2
ATOM      2  C   UNL A   1      43.188  18.457  25.825  1.00  0.00     0.261 C 
BRANCH   2   3
ATOM      3  O   UNL A   1      42.126  19.287  25.337  1.00  0.00    -0.460 OA
BRANCH   3   4
ATOM      4  C   UNL A   1      41.273  20.074  26.028  1.00  0.00     0.338 C 
ATOM      5  O   UNL A   1      40.090  19.735  26.064  1.00  0.00    -0.246 OA
BRANCH   4   6
ATOM      6  C   UNL A   1      41.649  21.351  26.723  1.00  0.00     0.060 A 
ATOM      7  C   UNL A   1      41.951  22.442  25.887  1.00  0.00     0.016 A 
ATOM      8  C   UNL A   1      41.807  21.531  28.100  1.00  0.00     0.016 A 
ATOM      9  C   UNL A   1      42.404  23.653  26.415  1.00  0.00     0.010 A 
ATOM     10  C   UNL A   1      42.259  22.726  28.637  1.00  0.00     0.010 A 
ATOM     11  C   UNL A   1      42.553  23.790  27.797  1.00  0.00    -0.014 A 
BRANCH  11  12
ATOM     12  C   UNL A   1      42.812  25.090  28.423  1.00  0.00     0.031 A 
ATOM     13  C   UNL A   1      44.150  25.428  28.987  1.00  0.00     0.074 A 
ATOM     14  C   UNL A   1      41.738  25.876  28.599  1.00  0.00     0.049 A 
ATOM     15  N   UNL A   1      44.567  26.566  29.474  1.00  0.00    -0.248 NA
ATOM     16  C   UNL A   1      45.141  24.342  29.048  1.00  0.00     0.031 C 
ATOM     17  C   UNL A   1      40.366  25.518  28.217  1.00  0.00     0.029 A 
ATOM     18  N   UNL A   1      41.619  27.118  29.147  1.00  0.00    -0.354 N 
ATOM     19  C   UNL A   1      45.876  26.344  29.877  1.00  0.00     0.074 A 
ATOM     20  C   UNL A   1      46.161  24.945  29.644  1.00  0.00     0.031 C 
ATOM     21  C   UNL A   1      39.552  26.544  28.495  1.00  0.00     0.029 A 
ATOM     22  C   UNL A   1      40.346  27.621  29.067  1.00  0.00     0.049 A 
ATOM     23  H   UNL A   1      42.371  27.605  29.558  1.00  0.00     0.167 HD
ATOM     24  C   UNL A   1      46.752  27.248  30.379  1.00  0.00     0.037 A 
ATOM     25  C   UNL A   1      39.892  28.843  29.380  1.00  0.00     0.037 A 
ATOM     26  C   UNL A   1      46.389  28.620  30.640  1.00  0.00     0.049 A 
ATOM     27  C   UNL A   1      40.891  29.846  29.870  1.00  0.00     0.074 A 
ATOM     28  C   UNL A   1      47.184  29.668  31.066  1.00  0.00     0.029 A 
ATOM     29  N   UNL A   1      45.097  29.123  30.522  1.00  0.00    -0.354 N 
ATOM     30  N   UNL A   1      42.177  29.691  30.090  1.00  0.00    -0.248 NA
ATOM     31  C   UNL A   1      40.386  31.195  30.124  1.00  0.00     0.031 C 
ATOM     32  C   UNL A   1      46.362  30.787  31.259  1.00  0.00     0.029 A 
ATOM     33  C   UNL A   1      45.064  30.456  30.897  1.00  0.00     0.049 A 
ATOM     34  H   UNL A   1      44.317  28.606  30.216  1.00  0.00     0.167 HD
ATOM     35  C   UNL A   1      42.643  30.930  30.498  1.00  0.00     0.074 A 
ATOM     36  C   UNL A   1      41.502  31.829  30.452  1.00  0.00     0.031 C 
ATOM     37  C   UNL A   1      43.893  31.300  30.880  1.00  0.00     0.037 A 
BRANCH  24  38
ATOM     38  C   UNL A   1      48.151  26.778  30.669  1.00  0.00     0.057 A 
ATOM     39  C   UNL A   1      49.203  27.041  29.782  1.00  0.00     0.134 A 
ATOM     40  C   UNL A   1      48.464  26.051  31.829  1.00  0.00     0.134 A 
ATOM     41  F   UNL A   1      48.986  27.725  28.649  1.00  0.00    -0.206 F 
ATOM     42  C   UNL A   1      50.507  26.605  30.039  1.00  0.00     0.040 A 
ATOM     43  C   UNL A   1      49.769  25.637  32.111  1.00  0.00     0.040 A 
ATOM     44  F   UNL A   1      47.511  25.764  32.730  1.00  0.00    -0.206 F 
ATOM     45  C   UNL A   1      50.795  25.911  31.211  1.00  0.00     0.006 A 
ENDBRANCH  24  38
BRANCH  25  46
ATOM     46  C   UNL A   1      38.480  29.194  29.098  1.00  0.00     0.057 A 
ATOM     47  C   UNL A   1      38.059  29.597  27.825  1.00  0.00     0.134 A 
ATOM     48  C   UNL A   1      37.531  29.206  30.126  1.00  0.00     0.134 A 
ATOM     49  F   UNL A   1      38.930  29.640  26.806  1.00  0.00    -0.206 F 
ATOM     50  C   UNL A   1      36.745  30.002  27.587  1.00  0.00     0.040 A 
ATOM     51  C   UNL A   1      36.209  29.585  29.897  1.00  0.00     0.040 A 
ATOM     52  F   UNL A   1      37.879  28.838  31.369  1.00  0.00    -0.206 F 
ATOM     53  C   UNL A   1      35.815  29.991  28.624  1.00  0.00     0.006 A 
ENDBRANCH  25  46
BRANCH  37  54
ATOM     54  C   UNL A   1      44.046  32.738  31.280  1.00  0.00     0.057 A 
ATOM     55  C   UNL A   1      44.397  33.707  30.333  1.00  0.00     0.134 A 
ATOM     56  C   UNL A   1      43.795  33.168  32.589  1.00  0.00     0.134 A 
ATOM     57  F   UNL A   1      44.661  33.359  29.064  1.00  0.00    -0.206 F 
ATOM     58  C   UNL A   1      44.470  35.057  30.670  1.00  0.00     0.040 A 
ATOM     59  C   UNL A   1      43.828  34.519  32.929  1.00  0.00     0.040 A 
ATOM     60  F   UNL A   1      43.437  32.287  33.538  1.00  0.00    -0.206 F 
ATOM     61  C   UNL A   1      44.167  35.468  31.968  1.00  0.00     0.006 A 
ENDBRANCH  37  54
ENDBRANCH  11  12
ENDBRANCH   4   6
ENDBRANCH   3   4
ENDBRANCH   2   3
ENDBRANCH   1   2
BRANCH   1  62
ATOM     62  O   UNL A   1      44.758  20.050  24.705  1.00  0.00    -0.374 OA
BRANCH  62  63
ATOM     63  C   UNL A   1      45.921  20.622  25.319  1.00  0.00     0.202 C 
BRANCH  63  64
ATOM     64  C   UNL A   1      45.553  21.921  26.039  1.00  0.00     0.261 C 
BRANCH  64  65
ATOM     65  O   UNL A   1      46.494  22.927  25.648  1.00  0.00    -0.459 OA
BRANCH  65  66
ATOM     66  C   UNL A   1      46.130  23.658  24.552  1.00  0.00     0.365 C 
ATOM     67  O   UNL A   1      45.652  23.199  23.520  1.00  0.00    -0.245 OA
BRANCH  66  68
ATOM     68  C   UNL A   1      46.192  25.139  24.922  1.00  0.00     0.298 C 
ATOM     69  C   UNL A   1      44.798  25.660  25.262  1.00  0.00     0.113 C 
ATOM     70  N   UNL A   1      47.164  25.384  26.009  1.00  0.00    -0.331 N 
ATOM     71  C   UNL A   1      44.838  27.024  25.896  1.00  0.00    -0.029 A 
ATOM     72  C   UNL A   1      47.355  26.828  26.159  1.00  0.00     0.298 C 
ATOM     73  H   UNL A   1      48.054  24.944  25.778  1.00  0.00     0.347 HD
ATOM     74  H   UNL A   1      46.812  24.991  26.881  1.00  0.00     0.347 HD
ATOM     75  C   UNL A   1      43.640  27.725  26.070  1.00  0.00     0.050 A 
ATOM     76  C   UNL A   1      46.049  27.558  26.378  1.00  0.00     0.010 A 
ATOM     77  C   UNL A   1      43.647  28.942  26.732  1.00  0.00     0.115 A 
ATOM     78  C   UNL A   1      46.036  28.801  27.022  1.00  0.00     0.013 A 
ATOM     79  C   UNL A   1      44.833  29.488  27.212  1.00  0.00     0.046 A 
BRANCH  77  80
ATOM     80  O   UNL A   1      42.449  29.568  26.906  1.00  0.00    -0.508 OA
ATOM     81  H   UNL A   1      41.865  29.673  26.180  1.00  0.00     0.293 HD
ENDBRANCH  77  80
ENDBRANCH  66  68
ENDBRANCH  65  66
ENDBRANCH  64  65
ENDBRANCH  63  64
ENDBRANCH  62  63
ENDBRANCH   1  62
TORSDOF 15
ENDMDL
