MODEL 1
REMARK VINA RESULT:     -10.3      0.000      0.000
REMARK SMILES CC[C@]1(C(=O)OCCOCCOC(=O)c2ccc(-c3c4nc(c(-c5c(F)cccc5F)c5ccc([nH]5)c(-c5c(F)cccc5F)c5nc(c(-c6c(F)cccc6F)c6ccc3[nH]6)C=C5)C=C4)cc2)CC[N@@H+](Cc2nc(C)ccc2O)C1
REMARK SMILES IDX 8 1 7 2 6 3 4 4 5 5 3 6 69 7 81 8 70 9 71 10 2 12 1 13 72 14
REMARK SMILES IDX 73 15 74 16 79 17 75 18 78 19 76 20 77 21 80 22 9 24 10 25
REMARK SMILES IDX 11 26 12 27 13 28 14 29 15 30 16 31 68 32 17 33 67 34 18 35
REMARK SMILES IDX 19 36 20 37 61 38 21 39 66 40 60 41 62 42 22 43 65 44 59 45
REMARK SMILES IDX 58 46 23 48 49 49 32 50 48 51 33 52 36 53 47 54 63 55 34 56
REMARK SMILES IDX 35 57 46 59 64 60 37 61 24 62 25 63 30 64 26 65 27 66 29 67
REMARK SMILES IDX 31 68 28 69 50 70 51 71 56 72 52 73 53 74 55 75 57 76 54 77
REMARK SMILES IDX 38 78 39 79 44 80 40 81 41 82 43 83 45 84 42 85
REMARK H PARENT 71 11 80 23 62 47 36 58
REMARK Flexibility Score: inf
ROOT
ATOM      1  C   UNL A   1      33.146  20.209  25.315  1.00  0.00     0.202 C 
ENDROOT
BRANCH   1   2
ATOM      2  C   UNL A   1      32.636  20.812  24.008  1.00  0.00     0.261 C 
BRANCH   2   3
ATOM      3  O   UNL A   1      32.242  22.173  24.261  1.00  0.00    -0.463 OA
BRANCH   3   4
ATOM      4  C   UNL A   1      32.760  23.118  23.439  1.00  0.00     0.318 C 
ATOM      5  O   UNL A   1      33.135  22.874  22.299  1.00  0.00    -0.251 OA
BRANCH   4   6
ATOM      6  C   UNL A   1      32.870  24.497  24.102  1.00  0.00     0.122 C 
ATOM      7  C   UNL A   1      33.646  25.570  23.308  1.00  0.00     0.086 C 
ATOM      8  C   UNL A   1      31.455  25.103  24.173  1.00  0.00     0.281 C 
ATOM      9  C   UNL A   1      32.955  26.871  23.684  1.00  0.00     0.264 C 
ATOM     10  N   UNL A   1      31.538  26.523  23.789  1.00  0.00    -0.329 N 
ATOM     11  H   UNL A   1      31.097  27.090  24.511  1.00  0.00     0.348 HD
BRANCH   6  12
ATOM     12  C   UNL A   1      33.572  24.378  25.489  1.00  0.00     0.021 C 
ATOM     13  C   UNL A   1      35.096  24.396  25.509  1.00  0.00     0.005 C 
ENDBRANCH   6  12
BRANCH  10  14
ATOM     14  C   UNL A   1      30.750  26.874  22.581  1.00  0.00     0.323 C 
BRANCH  14  15
ATOM     15  C   UNL A   1      29.575  27.827  22.740  1.00  0.00     0.136 A 
ATOM     16  N   UNL A   1      29.675  29.022  22.085  1.00  0.00    -0.248 NA
ATOM     17  C   UNL A   1      28.432  27.476  23.455  1.00  0.00     0.142 A 
ATOM     18  C   UNL A   1      28.633  29.879  22.139  1.00  0.00     0.038 A 
ATOM     19  C   UNL A   1      27.368  28.364  23.503  1.00  0.00     0.050 A 
ATOM     20  C   UNL A   1      28.782  31.194  21.433  1.00  0.00     0.067 C 
ATOM     21  C   UNL A   1      27.479  29.587  22.851  1.00  0.00     0.027 A 
BRANCH  17  22
ATOM     22  O   UNL A   1      28.342  26.278  24.096  1.00  0.00    -0.506 OA
ATOM     23  H   UNL A   1      28.150  25.500  23.610  1.00  0.00     0.293 HD
ENDBRANCH  17  22
ENDBRANCH  14  15
ENDBRANCH  10  14
ENDBRANCH   4   6
ENDBRANCH   3   4
ENDBRANCH   2   3
ENDBRANCH   1   2
BRANCH   1  24
ATOM     24  O   UNL A   1      34.438  20.692  25.695  1.00  0.00    -0.374 OA
BRANCH  24  25
ATOM     25  C   UNL A   1      35.386  20.804  24.634  1.00  0.00     0.202 C 
BRANCH  25  26
ATOM     26  C   UNL A   1      36.808  20.375  25.003  1.00  0.00     0.261 C 
BRANCH  26  27
ATOM     27  O   UNL A   1      37.668  21.511  25.205  1.00  0.00    -0.460 OA
BRANCH  27  28
ATOM     28  C   UNL A   1      38.840  21.238  25.827  1.00  0.00     0.338 C 
ATOM     29  O   UNL A   1      39.455  20.186  25.832  1.00  0.00    -0.246 OA
BRANCH  28  30
ATOM     30  C   UNL A   1      39.383  22.489  26.389  1.00  0.00     0.060 A 
ATOM     31  C   UNL A   1      38.838  23.703  25.952  1.00  0.00     0.016 A 
ATOM     32  C   UNL A   1      40.423  22.477  27.318  1.00  0.00     0.016 A 
ATOM     33  C   UNL A   1      39.344  24.912  26.431  1.00  0.00     0.010 A 
ATOM     34  C   UNL A   1      40.924  23.689  27.801  1.00  0.00     0.010 A 
ATOM     35  C   UNL A   1      40.403  24.918  27.349  1.00  0.00    -0.014 A 
BRANCH  35  36
ATOM     36  C   UNL A   1      41.074  26.192  27.724  1.00  0.00     0.031 A 
ATOM     37  C   UNL A   1      42.487  26.421  27.257  1.00  0.00     0.074 A 
ATOM     38  C   UNL A   1      40.457  27.134  28.465  1.00  0.00     0.049 A 
ATOM     39  N   UNL A   1      43.309  27.400  27.536  1.00  0.00    -0.248 NA
ATOM     40  C   UNL A   1      43.058  25.389  26.377  1.00  0.00     0.031 C 
ATOM     41  C   UNL A   1      39.092  27.054  28.980  1.00  0.00     0.029 A 
ATOM     42  N   UNL A   1      40.912  28.349  28.917  1.00  0.00    -0.354 N 
ATOM     43  C   UNL A   1      44.501  27.080  26.898  1.00  0.00     0.074 A 
ATOM     44  C   UNL A   1      44.312  25.797  26.261  1.00  0.00     0.031 C 
ATOM     45  C   UNL A   1      38.816  28.174  29.671  1.00  0.00     0.029 A 
ATOM     46  C   UNL A   1      39.995  29.040  29.673  1.00  0.00     0.049 A 
ATOM     47  H   UNL A   1      41.812  28.693  28.718  1.00  0.00     0.167 HD
ATOM     48  C   UNL A   1      45.645  27.799  26.824  1.00  0.00     0.037 A 
ATOM     49  C   UNL A   1      40.098  30.229  30.301  1.00  0.00     0.037 A 
ATOM     50  C   UNL A   1      45.823  29.101  27.405  1.00  0.00     0.049 A 
ATOM     51  C   UNL A   1      41.388  31.007  30.215  1.00  0.00     0.074 A 
ATOM     52  C   UNL A   1      46.928  29.930  27.336  1.00  0.00     0.029 A 
ATOM     53  N   UNL A   1      44.866  29.766  28.154  1.00  0.00    -0.354 N 
ATOM     54  N   UNL A   1      42.494  30.709  29.579  1.00  0.00    -0.248 NA
ATOM     55  C   UNL A   1      41.440  32.289  30.937  1.00  0.00     0.031 C 
ATOM     56  C   UNL A   1      46.652  31.085  28.075  1.00  0.00     0.029 A 
ATOM     57  C   UNL A   1      45.360  30.991  28.566  1.00  0.00     0.049 A 
ATOM     58  H   UNL A   1      43.968  29.419  28.361  1.00  0.00     0.167 HD
ATOM     59  C   UNL A   1      43.360  31.775  29.798  1.00  0.00     0.074 A 
ATOM     60  C   UNL A   1      42.647  32.733  30.615  1.00  0.00     0.031 C 
ATOM     61  C   UNL A   1      44.632  31.945  29.361  1.00  0.00     0.037 A 
BRANCH  48  62
ATOM     62  C   UNL A   1      46.793  27.181  26.084  1.00  0.00     0.057 A 
ATOM     63  C   UNL A   1      47.748  26.384  26.732  1.00  0.00     0.134 A 
ATOM     64  C   UNL A   1      46.946  27.385  24.707  1.00  0.00     0.134 A 
ATOM     65  F   UNL A   1      47.669  26.166  28.053  1.00  0.00    -0.206 F 
ATOM     66  C   UNL A   1      48.833  25.842  26.041  1.00  0.00     0.040 A 
ATOM     67  C   UNL A   1      48.010  26.823  24.001  1.00  0.00     0.040 A 
ATOM     68  F   UNL A   1      46.065  28.135  24.028  1.00  0.00    -0.206 F 
ATOM     69  C   UNL A   1      48.962  26.057  24.671  1.00  0.00     0.006 A 
ENDBRANCH  48  62
BRANCH  49  70
ATOM     70  C   UNL A   1      38.951  30.777  31.072  1.00  0.00     0.057 A 
ATOM     71  C   UNL A   1      38.755  30.433  32.416  1.00  0.00     0.134 A 
ATOM     72  C   UNL A   1      38.000  31.611  30.475  1.00  0.00     0.134 A 
ATOM     73  F   UNL A   1      39.618  29.615  33.036  1.00  0.00    -0.206 F 
ATOM     74  C   UNL A   1      37.642  30.880  33.131  1.00  0.00     0.040 A 
ATOM     75  C   UNL A   1      36.894  32.085  31.186  1.00  0.00     0.040 A 
ATOM     76  F   UNL A   1      38.129  31.976  29.192  1.00  0.00    -0.206 F 
ATOM     77  C   UNL A   1      36.709  31.711  32.516  1.00  0.00     0.006 A 
ENDBRANCH  49  70
BRANCH  61  78
ATOM     78  C   UNL A   1      45.325  33.228  29.716  1.00  0.00     0.057 A 
ATOM     79  C   UNL A   1      46.128  33.343  30.857  1.00  0.00     0.134 A 
ATOM     80  C   UNL A   1      45.244  34.339  28.867  1.00  0.00     0.134 A 
ATOM     81  F   UNL A   1      46.239  32.319  31.717  1.00  0.00    -0.206 F 
ATOM     82  C   UNL A   1      46.815  34.523  31.149  1.00  0.00     0.040 A 
ATOM     83  C   UNL A   1      45.946  35.515  29.135  1.00  0.00     0.040 A 
ATOM     84  F   UNL A   1      44.501  34.290  27.751  1.00  0.00    -0.206 F 
ATOM     85  C   UNL A   1      46.732  35.610  30.281  1.00  0.00     0.006 A 
ENDBRANCH  61  78
ENDBRANCH  35  36
ENDBRANCH  28  30
ENDBRANCH  27  28
ENDBRANCH  26  27
ENDBRANCH  25  26
ENDBRANCH  24  25
ENDBRANCH   1  24
TORSDOF 18
ENDMDL
MODEL 2
REMARK VINA RESULT:     -10.3      4.189      9.398
REMARK SMILES CC[C@]1(C(=O)OCCOCCOC(=O)c2ccc(-c3c4nc(c(-c5c(F)cccc5F)c5ccc([nH]5)c(-c5c(F)cccc5F)c5nc(c(-c6c(F)cccc6F)c6ccc3[nH]6)C=C5)C=C4)cc2)CC[N@@H+](Cc2nc(C)ccc2O)C1
REMARK SMILES IDX 8 1 7 2 6 3 4 4 5 5 3 6 69 7 81 8 70 9 71 10 2 12 1 13 72 14
REMARK SMILES IDX 73 15 74 16 79 17 75 18 78 19 76 20 77 21 80 22 9 24 10 25
REMARK SMILES IDX 11 26 12 27 13 28 14 29 15 30 16 31 68 32 17 33 67 34 18 35
REMARK SMILES IDX 19 36 20 37 61 38 21 39 66 40 60 41 62 42 22 43 65 44 59 45
REMARK SMILES IDX 58 46 23 48 49 49 32 50 48 51 33 52 36 53 47 54 63 55 34 56
REMARK SMILES IDX 35 57 46 59 64 60 37 61 24 62 25 63 30 64 26 65 27 66 29 67
REMARK SMILES IDX 31 68 28 69 50 70 51 71 56 72 52 73 53 74 55 75 57 76 54 77
REMARK SMILES IDX 38 78 39 79 44 80 40 81 41 82 43 83 45 84 42 85
REMARK H PARENT 71 11 80 23 62 47 36 58
REMARK Flexibility Score: inf
ROOT
ATOM      1  C   UNL A   1      33.193  30.288  27.119  1.00  0.00     0.202 C 
ENDROOT
BRANCH   1   2
ATOM      2  C   UNL A   1      33.571  29.153  26.172  1.00  0.00     0.261 C 
BRANCH   2   3
ATOM      3  O   UNL A   1      32.647  28.068  26.373  1.00  0.00    -0.463 OA
BRANCH   3   4
ATOM      4  C   UNL A   1      32.820  26.971  25.595  1.00  0.00     0.318 C 
ATOM      5  O   UNL A   1      33.904  26.419  25.457  1.00  0.00    -0.251 OA
BRANCH   4   6
ATOM      6  C   UNL A   1      31.536  26.534  24.879  1.00  0.00     0.122 C 
ATOM      7  C   UNL A   1      31.725  25.846  23.509  1.00  0.00     0.086 C 
ATOM      8  C   UNL A   1      30.882  25.418  25.716  1.00  0.00     0.281 C 
ATOM      9  C   UNL A   1      30.571  24.860  23.435  1.00  0.00     0.264 C 
ATOM     10  N   UNL A   1      30.419  24.360  24.800  1.00  0.00    -0.329 N 
ATOM     11  H   UNL A   1      29.437  24.163  24.988  1.00  0.00     0.348 HD
BRANCH   6  12
ATOM     12  C   UNL A   1      30.606  27.761  24.634  1.00  0.00     0.021 C 
ATOM     13  C   UNL A   1      30.812  28.553  23.348  1.00  0.00     0.005 C 
ENDBRANCH   6  12
BRANCH  10  14
ATOM     14  C   UNL A   1      31.059  23.039  25.023  1.00  0.00     0.323 C 
BRANCH  14  15
ATOM     15  C   UNL A   1      32.484  23.010  25.555  1.00  0.00     0.136 A 
ATOM     16  N   UNL A   1      33.477  23.167  24.629  1.00  0.00    -0.248 NA
ATOM     17  C   UNL A   1      32.761  22.898  26.916  1.00  0.00     0.142 A 
ATOM     18  C   UNL A   1      34.758  23.214  25.055  1.00  0.00     0.038 A 
ATOM     19  C   UNL A   1      34.081  22.948  27.341  1.00  0.00     0.050 A 
ATOM     20  C   UNL A   1      35.826  23.360  24.013  1.00  0.00     0.067 C 
ATOM     21  C   UNL A   1      35.090  23.089  26.396  1.00  0.00     0.027 A 
BRANCH  17  22
ATOM     22  O   UNL A   1      31.762  22.751  27.829  1.00  0.00    -0.506 OA
ATOM     23  H   UNL A   1      31.247  23.492  28.083  1.00  0.00     0.293 HD
ENDBRANCH  17  22
ENDBRANCH  14  15
ENDBRANCH  10  14
ENDBRANCH   4   6
ENDBRANCH   3   4
ENDBRANCH   2   3
ENDBRANCH   1   2
BRANCH   1  24
ATOM     24  O   UNL A   1      31.801  30.617  27.083  1.00  0.00    -0.374 OA
BRANCH  24  25
ATOM     25  C   UNL A   1      31.496  31.945  26.659  1.00  0.00     0.202 C 
BRANCH  25  26
ATOM     26  C   UNL A   1      32.591  32.973  26.955  1.00  0.00     0.261 C 
BRANCH  26  27
ATOM     27  O   UNL A   1      32.218  33.848  28.035  1.00  0.00    -0.460 OA
BRANCH  27  28
ATOM     28  C   UNL A   1      33.212  34.643  28.498  1.00  0.00     0.338 C 
ATOM     29  O   UNL A   1      33.172  35.843  28.706  1.00  0.00    -0.246 OA
BRANCH  28  30
ATOM     30  C   UNL A   1      34.356  33.797  28.889  1.00  0.00     0.060 A 
ATOM     31  C   UNL A   1      34.106  32.676  29.690  1.00  0.00     0.016 A 
ATOM     32  C   UNL A   1      35.657  34.106  28.493  1.00  0.00     0.016 A 
ATOM     33  C   UNL A   1      35.162  31.866  30.112  1.00  0.00     0.010 A 
ATOM     34  C   UNL A   1      36.712  33.291  28.914  1.00  0.00     0.010 A 
ATOM     35  C   UNL A   1      36.477  32.175  29.742  1.00  0.00    -0.014 A 
BRANCH  35  36
ATOM     36  C   UNL A   1      37.625  31.436  30.334  1.00  0.00     0.031 A 
ATOM     37  C   UNL A   1      37.979  31.700  31.774  1.00  0.00     0.074 A 
ATOM     38  C   UNL A   1      38.348  30.549  29.623  1.00  0.00     0.049 A 
ATOM     39  N   UNL A   1      38.988  31.257  32.479  1.00  0.00    -0.248 NA
ATOM     40  C   UNL A   1      37.086  32.611  32.509  1.00  0.00     0.031 C 
ATOM     41  C   UNL A   1      38.119  30.188  28.226  1.00  0.00     0.029 A 
ATOM     42  N   UNL A   1      39.436  29.793  29.988  1.00  0.00    -0.354 N 
ATOM     43  C   UNL A   1      38.870  31.865  33.723  1.00  0.00     0.074 A 
ATOM     44  C   UNL A   1      37.724  32.743  33.661  1.00  0.00     0.031 C 
ATOM     45  C   UNL A   1      39.032  29.273  27.853  1.00  0.00     0.029 A 
ATOM     46  C   UNL A   1      39.930  29.005  28.975  1.00  0.00     0.049 A 
ATOM     47  H   UNL A   1      39.826  29.813  30.891  1.00  0.00     0.167 HD
ATOM     48  C   UNL A   1      39.629  31.691  34.829  1.00  0.00     0.037 A 
ATOM     49  C   UNL A   1      40.989  28.171  28.954  1.00  0.00     0.037 A 
ATOM     50  C   UNL A   1      40.735  30.777  34.918  1.00  0.00     0.049 A 
ATOM     51  C   UNL A   1      41.829  28.002  30.196  1.00  0.00     0.074 A 
ATOM     52  C   UNL A   1      41.529  30.493  36.014  1.00  0.00     0.029 A 
ATOM     53  N   UNL A   1      41.194  29.993  33.872  1.00  0.00    -0.354 N 
ATOM     54  N   UNL A   1      41.685  28.556  31.375  1.00  0.00    -0.248 NA
ATOM     55  C   UNL A   1      42.981  27.090  30.101  1.00  0.00     0.031 C 
ATOM     56  C   UNL A   1      42.495  29.559  35.622  1.00  0.00     0.029 A 
ATOM     57  C   UNL A   1      42.272  29.234  34.293  1.00  0.00     0.049 A 
ATOM     58  H   UNL A   1      40.811  29.978  32.966  1.00  0.00     0.167 HD
ATOM     59  C   UNL A   1      42.704  28.039  32.168  1.00  0.00     0.074 A 
ATOM     60  C   UNL A   1      43.453  27.118  31.340  1.00  0.00     0.031 C 
ATOM     61  C   UNL A   1      42.995  28.304  33.465  1.00  0.00     0.037 A 
BRANCH  48  62
ATOM     62  C   UNL A   1      39.282  32.515  36.033  1.00  0.00     0.057 A 
ATOM     63  C   UNL A   1      39.808  33.800  36.227  1.00  0.00     0.134 A 
ATOM     64  C   UNL A   1      38.409  32.017  37.008  1.00  0.00     0.134 A 
ATOM     65  F   UNL A   1      40.665  34.325  35.339  1.00  0.00    -0.206 F 
ATOM     66  C   UNL A   1      39.507  34.545  37.368  1.00  0.00     0.040 A 
ATOM     67  C   UNL A   1      38.077  32.766  38.138  1.00  0.00     0.040 A 
ATOM     68  F   UNL A   1      37.868  30.796  36.881  1.00  0.00    -0.206 F 
ATOM     69  C   UNL A   1      38.634  34.030  38.324  1.00  0.00     0.006 A 
ENDBRANCH  48  62
BRANCH  49  70
ATOM     70  C   UNL A   1      41.331  27.416  27.720  1.00  0.00     0.057 A 
ATOM     71  C   UNL A   1      42.117  27.996  26.714  1.00  0.00     0.134 A 
ATOM     72  C   UNL A   1      40.842  26.126  27.491  1.00  0.00     0.134 A 
ATOM     73  F   UNL A   1      42.593  29.240  26.864  1.00  0.00    -0.206 F 
ATOM     74  C   UNL A   1      42.384  27.327  25.518  1.00  0.00     0.040 A 
ATOM     75  C   UNL A   1      41.122  25.436  26.308  1.00  0.00     0.040 A 
ATOM     76  F   UNL A   1      40.084  25.516  28.412  1.00  0.00    -0.206 F 
ATOM     77  C   UNL A   1      41.887  26.043  25.314  1.00  0.00     0.006 A 
ENDBRANCH  49  70
BRANCH  61  78
ATOM     78  C   UNL A   1      44.140  27.562  34.089  1.00  0.00     0.057 A 
ATOM     79  C   UNL A   1      43.976  26.294  34.659  1.00  0.00     0.134 A 
ATOM     80  C   UNL A   1      45.435  28.095  34.056  1.00  0.00     0.134 A 
ATOM     81  F   UNL A   1      42.760  25.732  34.730  1.00  0.00    -0.206 F 
ATOM     82  C   UNL A   1      45.058  25.587  35.186  1.00  0.00     0.040 A 
ATOM     83  C   UNL A   1      46.528  27.388  34.558  1.00  0.00     0.040 A 
ATOM     84  F   UNL A   1      45.662  29.301  33.514  1.00  0.00    -0.206 F 
ATOM     85  C   UNL A   1      46.341  26.130  35.127  1.00  0.00     0.006 A 
ENDBRANCH  61  78
ENDBRANCH  35  36
ENDBRANCH  28  30
ENDBRANCH  27  28
ENDBRANCH  26  27
ENDBRANCH  25  26
ENDBRANCH  24  25
ENDBRANCH   1  24
TORSDOF 18
ENDMDL
MODEL 3
REMARK VINA RESULT:     -10.3      4.192      9.553
REMARK SMILES CC[C@]1(C(=O)OCCOCCOC(=O)c2ccc(-c3c4nc(c(-c5c(F)cccc5F)c5ccc([nH]5)c(-c5c(F)cccc5F)c5nc(c(-c6c(F)cccc6F)c6ccc3[nH]6)C=C5)C=C4)cc2)CC[N@@H+](Cc2nc(C)ccc2O)C1
REMARK SMILES IDX 8 1 7 2 6 3 4 4 5 5 3 6 69 7 81 8 70 9 71 10 2 12 1 13 72 14
REMARK SMILES IDX 73 15 74 16 79 17 75 18 78 19 76 20 77 21 80 22 9 24 10 25
REMARK SMILES IDX 11 26 12 27 13 28 14 29 15 30 16 31 68 32 17 33 67 34 18 35
REMARK SMILES IDX 19 36 20 37 61 38 21 39 66 40 60 41 62 42 22 43 65 44 59 45
REMARK SMILES IDX 58 46 23 48 49 49 32 50 48 51 33 52 36 53 47 54 63 55 34 56
REMARK SMILES IDX 35 57 46 59 64 60 37 61 24 62 25 63 30 64 26 65 27 66 29 67
REMARK SMILES IDX 31 68 28 69 50 70 51 71 56 72 52 73 53 74 55 75 57 76 54 77
REMARK SMILES IDX 38 78 39 79 44 80 40 81 41 82 43 83 45 84 42 85
REMARK H PARENT 71 11 80 23 62 47 36 58
REMARK Flexibility Score: inf
ROOT
ATOM      1  C   UNL A   1      33.220  30.471  26.802  1.00  0.00     0.202 C 
ENDROOT
BRANCH   1   2
ATOM      2  C   UNL A   1      33.579  28.988  26.751  1.00  0.00     0.261 C 
BRANCH   2   3
ATOM      3  O   UNL A   1      32.667  28.331  25.852  1.00  0.00    -0.463 OA
BRANCH   3   4
ATOM      4  C   UNL A   1      33.166  27.953  24.649  1.00  0.00     0.318 C 
ATOM      5  O   UNL A   1      34.131  28.499  24.129  1.00  0.00    -0.251 OA
BRANCH   4   6
ATOM      6  C   UNL A   1      32.369  26.815  23.999  1.00  0.00     0.122 C 
ATOM      7  C   UNL A   1      32.545  26.652  22.473  1.00  0.00     0.086 C 
ATOM      8  C   UNL A   1      32.922  25.481  24.536  1.00  0.00     0.281 C 
ATOM      9  C   UNL A   1      32.396  25.155  22.249  1.00  0.00     0.264 C 
ATOM     10  N   UNL A   1      33.039  24.539  23.409  1.00  0.00    -0.329 N 
ATOM     11  H   UNL A   1      32.559  23.672  23.648  1.00  0.00     0.348 HD
BRANCH   6  12
ATOM     12  C   UNL A   1      30.843  27.008  24.251  1.00  0.00     0.021 C 
ATOM     13  C   UNL A   1      30.186  26.119  25.300  1.00  0.00     0.005 C 
ENDBRANCH   6  12
BRANCH  10  14
ATOM     14  C   UNL A   1      34.423  24.076  23.144  1.00  0.00     0.323 C 
BRANCH  14  15
ATOM     15  C   UNL A   1      34.911  22.821  23.853  1.00  0.00     0.136 A 
ATOM     16  N   UNL A   1      33.952  21.910  24.195  1.00  0.00    -0.248 NA
ATOM     17  C   UNL A   1      36.265  22.582  24.080  1.00  0.00     0.142 A 
ATOM     18  C   UNL A   1      34.337  20.750  24.769  1.00  0.00     0.038 A 
ATOM     19  C   UNL A   1      36.648  21.386  24.670  1.00  0.00     0.050 A 
ATOM     20  C   UNL A   1      33.260  19.781  25.157  1.00  0.00     0.067 C 
ATOM     21  C   UNL A   1      35.670  20.469  25.034  1.00  0.00     0.027 A 
BRANCH  17  22
ATOM     22  O   UNL A   1      37.211  23.495  23.727  1.00  0.00    -0.506 OA
ATOM     23  H   UNL A   1      37.145  23.946  22.907  1.00  0.00     0.293 HD
ENDBRANCH  17  22
ENDBRANCH  14  15
ENDBRANCH  10  14
ENDBRANCH   4   6
ENDBRANCH   3   4
ENDBRANCH   2   3
ENDBRANCH   1   2
BRANCH   1  24
ATOM     24  O   UNL A   1      31.812  30.711  26.878  1.00  0.00    -0.374 OA
BRANCH  24  25
ATOM     25  C   UNL A   1      31.409  32.064  26.663  1.00  0.00     0.202 C 
BRANCH  25  26
ATOM     26  C   UNL A   1      32.501  33.102  26.929  1.00  0.00     0.261 C 
BRANCH  26  27
ATOM     27  O   UNL A   1      32.222  33.872  28.112  1.00  0.00    -0.460 OA
BRANCH  27  28
ATOM     28  C   UNL A   1      33.234  34.671  28.528  1.00  0.00     0.338 C 
ATOM     29  O   UNL A   1      33.206  35.875  28.714  1.00  0.00    -0.246 OA
BRANCH  28  30
ATOM     30  C   UNL A   1      34.386  33.827  28.898  1.00  0.00     0.060 A 
ATOM     31  C   UNL A   1      34.137  32.631  29.583  1.00  0.00     0.016 A 
ATOM     32  C   UNL A   1      35.693  34.209  28.598  1.00  0.00     0.016 A 
ATOM     33  C   UNL A   1      35.198  31.818  29.984  1.00  0.00     0.010 A 
ATOM     34  C   UNL A   1      36.754  33.390  28.996  1.00  0.00     0.010 A 
ATOM     35  C   UNL A   1      36.519  32.197  29.708  1.00  0.00    -0.014 A 
BRANCH  35  36
ATOM     36  C   UNL A   1      37.661  31.442  30.289  1.00  0.00     0.031 A 
ATOM     37  C   UNL A   1      38.019  31.683  31.732  1.00  0.00     0.074 A 
ATOM     38  C   UNL A   1      38.377  30.560  29.565  1.00  0.00     0.049 A 
ATOM     39  N   UNL A   1      39.026  31.223  32.430  1.00  0.00    -0.248 NA
ATOM     40  C   UNL A   1      37.135  32.592  32.480  1.00  0.00     0.031 C 
ATOM     41  C   UNL A   1      38.143  30.219  28.163  1.00  0.00     0.029 A 
ATOM     42  N   UNL A   1      39.460  29.790  29.918  1.00  0.00    -0.354 N 
ATOM     43  C   UNL A   1      38.914  31.815  33.681  1.00  0.00     0.074 A 
ATOM     44  C   UNL A   1      37.775  32.703  33.633  1.00  0.00     0.031 C 
ATOM     45  C   UNL A   1      39.049  29.303  27.776  1.00  0.00     0.029 A 
ATOM     46  C   UNL A   1      39.947  29.012  28.893  1.00  0.00     0.049 A 
ATOM     47  H   UNL A   1      39.851  29.795  30.820  1.00  0.00     0.167 HD
ATOM     48  C   UNL A   1      39.673  31.620  34.784  1.00  0.00     0.037 A 
ATOM     49  C   UNL A   1      40.999  28.171  28.860  1.00  0.00     0.037 A 
ATOM     50  C   UNL A   1      40.772  30.698  34.859  1.00  0.00     0.049 A 
ATOM     51  C   UNL A   1      41.840  27.979  30.098  1.00  0.00     0.074 A 
ATOM     52  C   UNL A   1      41.566  30.392  35.950  1.00  0.00     0.029 A 
ATOM     53  N   UNL A   1      41.224  29.924  33.802  1.00  0.00    -0.354 N 
ATOM     54  N   UNL A   1      41.701  28.518  31.285  1.00  0.00    -0.248 NA
ATOM     55  C   UNL A   1      42.985  27.060  29.989  1.00  0.00     0.031 C 
ATOM     56  C   UNL A   1      42.524  29.457  35.544  1.00  0.00     0.029 A 
ATOM     57  C   UNL A   1      42.297  29.151  34.211  1.00  0.00     0.049 A 
ATOM     58  H   UNL A   1      40.839  29.925  32.897  1.00  0.00     0.167 HD
ATOM     59  C   UNL A   1      42.717  27.982  32.069  1.00  0.00     0.074 A 
ATOM     60  C   UNL A   1      43.459  27.067  31.228  1.00  0.00     0.031 C 
ATOM     61  C   UNL A   1      43.011  28.228  33.369  1.00  0.00     0.037 A 
BRANCH  48  62
ATOM     62  C   UNL A   1      39.334  32.431  35.999  1.00  0.00     0.057 A 
ATOM     63  C   UNL A   1      38.464  31.953  36.989  1.00  0.00     0.134 A 
ATOM     64  C   UNL A   1      39.884  33.706  36.181  1.00  0.00     0.134 A 
ATOM     65  F   UNL A   1      37.888  30.747  36.863  1.00  0.00    -0.206 F 
ATOM     66  C   UNL A   1      38.126  32.729  38.099  1.00  0.00     0.040 A 
ATOM     67  C   UNL A   1      39.577  34.478  37.302  1.00  0.00     0.040 A 
ATOM     68  F   UNL A   1      40.726  34.221  35.273  1.00  0.00    -0.206 F 
ATOM     69  C   UNL A   1      38.688  33.993  38.260  1.00  0.00     0.006 A 
ENDBRANCH  48  62
BRANCH  49  70
ATOM     70  C   UNL A   1      41.334  27.431  27.615  1.00  0.00     0.057 A 
ATOM     71  C   UNL A   1      40.881  26.121  27.409  1.00  0.00     0.134 A 
ATOM     72  C   UNL A   1      42.153  27.991  26.628  1.00  0.00     0.134 A 
ATOM     73  F   UNL A   1      40.115  25.520  28.331  1.00  0.00    -0.206 F 
ATOM     74  C   UNL A   1      41.249  25.388  26.279  1.00  0.00     0.040 A 
ATOM     75  C   UNL A   1      42.509  27.277  25.481  1.00  0.00     0.040 A 
ATOM     76  F   UNL A   1      42.620  29.239  26.765  1.00  0.00    -0.206 F 
ATOM     77  C   UNL A   1      42.064  25.967  25.310  1.00  0.00     0.006 A 
ENDBRANCH  49  70
BRANCH  61  78
ATOM     78  C   UNL A   1      44.152  27.469  33.981  1.00  0.00     0.057 A 
ATOM     79  C   UNL A   1      45.456  27.978  33.996  1.00  0.00     0.134 A 
ATOM     80  C   UNL A   1      43.928  26.245  34.625  1.00  0.00     0.134 A 
ATOM     81  F   UNL A   1      45.738  29.141  33.389  1.00  0.00    -0.206 F 
ATOM     82  C   UNL A   1      46.500  27.291  34.619  1.00  0.00     0.040 A 
ATOM     83  C   UNL A   1      44.958  25.561  35.272  1.00  0.00     0.040 A 
ATOM     84  F   UNL A   1      42.699  25.706  34.656  1.00  0.00    -0.206 F 
ATOM     85  C   UNL A   1      46.249  26.083  35.267  1.00  0.00     0.006 A 
ENDBRANCH  61  78
ENDBRANCH  35  36
ENDBRANCH  28  30
ENDBRANCH  27  28
ENDBRANCH  26  27
ENDBRANCH  25  26
ENDBRANCH  24  25
ENDBRANCH   1  24
TORSDOF 18
ENDMDL
