MODEL 1
REMARK VINA RESULT:     -10.0      0.000      0.000
REMARK SMILES CC(C)[C@H](NC(=O)OCc1ccccc1)C(=O)NCC(=O)OCCOCCOC(=O)c1ccc(-c2c3nc(c(-c4c(F)cccc4F)c4ccc([nH]4)c(-c4c(F)cccc4F)c4nc(c(-c5c(F)cccc5F)c5ccc2[nH]5)C=C4)C=C3)cc1
REMARK SMILES IDX 23 1 22 2 20 3 21 4 19 5 18 6 16 7 17 8 4 10 2 11 1 12 3 13
REMARK SMILES IDX 5 14 6 15 7 17 8 18 9 19 10 20 11 21 15 22 12 23 14 24 13 25
REMARK SMILES IDX 24 26 25 27 26 28 27 29 28 30 29 31 30 32 31 33 32 34 84 35
REMARK SMILES IDX 33 36 83 37 34 38 35 39 36 40 77 41 37 42 82 43 76 44 78 45
REMARK SMILES IDX 38 46 81 47 75 48 74 49 39 51 65 52 48 53 64 54 49 55 52 56
REMARK SMILES IDX 63 57 79 58 50 59 51 60 62 62 80 63 53 64 40 65 41 66 46 67
REMARK SMILES IDX 42 68 43 69 45 70 47 71 44 72 66 73 67 74 72 75 68 76 69 77
REMARK SMILES IDX 71 78 73 79 70 80 54 81 55 82 60 83 56 84 57 85 59 86 61 87
REMARK SMILES IDX 58 88
REMARK H PARENT 18 9 5 16 78 50 52 61
REMARK Flexibility Score: inf
ROOT
ATOM      1  C   UNL A   1      31.060  30.074  24.249  1.00  0.00     0.261 C 
ENDROOT
BRANCH   1   2
ATOM      2  O   UNL A   1      29.911  29.291  23.884  1.00  0.00    -0.462 OA
BRANCH   2   3
ATOM      3  C   UNL A   1      29.909  28.831  22.604  1.00  0.00     0.325 C 
ATOM      4  O   UNL A   1      29.538  29.473  21.627  1.00  0.00    -0.250 OA
BRANCH   3   5
ATOM      5  C   UNL A   1      30.489  27.428  22.464  1.00  0.00     0.238 C 
BRANCH   5   6
ATOM      6  N   UNL A   1      31.852  27.295  21.987  1.00  0.00    -0.343 N 
ATOM      7  C   UNL A   1      32.809  26.365  22.221  1.00  0.00     0.243 C 
ATOM      8  O   UNL A   1      33.878  26.522  21.616  1.00  0.00    -0.273 OA
ATOM      9  H   UNL A   1      32.135  28.018  21.380  1.00  0.00     0.164 HD
BRANCH   7  10
ATOM     10  C   UNL A   1      32.671  25.209  23.243  1.00  0.00     0.177 C 
BRANCH  10  11
ATOM     11  C   UNL A   1      32.258  23.821  22.709  1.00  0.00     0.015 C 
ATOM     12  C   UNL A   1      33.478  23.004  22.264  1.00  0.00     0.010 C 
ATOM     13  C   UNL A   1      31.494  23.025  23.776  1.00  0.00     0.010 C 
ENDBRANCH  10  11
BRANCH  10  14
ATOM     14  N   UNL A   1      31.986  25.740  24.425  1.00  0.00    -0.309 N 
ATOM     15  C   UNL A   1      32.309  25.693  25.741  1.00  0.00     0.408 C 
ATOM     16  H   UNL A   1      31.145  26.213  24.229  1.00  0.00     0.167 HD
ATOM     17  O   UNL A   1      31.458  25.922  26.601  1.00  0.00    -0.225 OA
BRANCH  15  18
ATOM     18  O   UNL A   1      33.588  25.345  25.985  1.00  0.00    -0.445 OA
BRANCH  18  19
ATOM     19  C   UNL A   1      33.802  24.004  26.444  1.00  0.00     0.270 C 
BRANCH  19  20
ATOM     20  C   UNL A   1      34.829  23.247  25.655  1.00  0.00    -0.011 A 
ATOM     21  C   UNL A   1      34.783  21.851  25.571  1.00  0.00     0.007 A 
ATOM     22  C   UNL A   1      35.885  23.937  25.044  1.00  0.00     0.007 A 
ATOM     23  C   UNL A   1      35.800  21.155  24.918  1.00  0.00     0.000 A 
ATOM     24  C   UNL A   1      36.898  23.241  24.390  1.00  0.00     0.000 A 
ATOM     25  C   UNL A   1      36.859  21.850  24.334  1.00  0.00     0.000 A 
ENDBRANCH  19  20
ENDBRANCH  18  19
ENDBRANCH  15  18
ENDBRANCH  10  14
ENDBRANCH   7  10
ENDBRANCH   5   6
ENDBRANCH   3   5
ENDBRANCH   2   3
ENDBRANCH   1   2
BRANCH   1  26
ATOM     26  C   UNL A   1      32.029  29.337  25.178  1.00  0.00     0.202 C 
BRANCH  26  27
ATOM     27  O   UNL A   1      31.998  29.631  26.571  1.00  0.00    -0.374 OA
BRANCH  27  28
ATOM     28  C   UNL A   1      32.891  30.601  27.104  1.00  0.00     0.202 C 
BRANCH  28  29
ATOM     29  C   UNL A   1      34.161  30.140  27.829  1.00  0.00     0.261 C 
BRANCH  29  30
ATOM     30  O   UNL A   1      35.087  31.197  28.119  1.00  0.00    -0.460 OA
BRANCH  30  31
ATOM     31  C   UNL A   1      35.803  31.001  29.254  1.00  0.00     0.338 C 
ATOM     32  O   UNL A   1      35.531  31.391  30.378  1.00  0.00    -0.246 OA
BRANCH  31  33
ATOM     33  C   UNL A   1      36.934  30.093  29.001  1.00  0.00     0.060 A 
ATOM     34  C   UNL A   1      37.493  29.426  30.101  1.00  0.00     0.016 A 
ATOM     35  C   UNL A   1      37.519  30.007  27.739  1.00  0.00     0.016 A 
ATOM     36  C   UNL A   1      38.682  28.718  29.955  1.00  0.00     0.010 A 
ATOM     37  C   UNL A   1      38.719  29.307  27.596  1.00  0.00     0.010 A 
ATOM     38  C   UNL A   1      39.326  28.702  28.713  1.00  0.00    -0.014 A 
BRANCH  38  39
ATOM     39  C   UNL A   1      40.727  28.235  28.611  1.00  0.00     0.031 A 
ATOM     40  C   UNL A   1      41.830  29.236  28.812  1.00  0.00     0.074 A 
ATOM     41  C   UNL A   1      41.012  26.951  28.341  1.00  0.00     0.049 A 
ATOM     42  N   UNL A   1      43.120  29.098  28.648  1.00  0.00    -0.248 NA
ATOM     43  C   UNL A   1      41.418  30.580  29.251  1.00  0.00     0.031 C 
ATOM     44  C   UNL A   1      40.029  25.879  28.200  1.00  0.00     0.029 A 
ATOM     45  N   UNL A   1      42.218  26.339  28.123  1.00  0.00    -0.354 N 
ATOM     46  C   UNL A   1      43.670  30.339  28.942  1.00  0.00     0.074 A 
ATOM     47  C   UNL A   1      42.574  31.223  29.274  1.00  0.00     0.031 C 
ATOM     48  C   UNL A   1      40.675  24.738  27.905  1.00  0.00     0.029 A 
ATOM     49  C   UNL A   1      42.106  25.013  27.790  1.00  0.00     0.049 A 
ATOM     50  H   UNL A   1      43.082  26.806  28.197  1.00  0.00     0.167 HD
ATOM     51  C   UNL A   1      44.972  30.708  28.932  1.00  0.00     0.037 A 
ATOM     52  C   UNL A   1      43.052  24.135  27.405  1.00  0.00     0.037 A 
ATOM     53  C   UNL A   1      46.054  29.820  28.600  1.00  0.00     0.049 A 
ATOM     54  C   UNL A   1      44.482  24.593  27.300  1.00  0.00     0.074 A 
ATOM     55  C   UNL A   1      47.412  30.084  28.575  1.00  0.00     0.029 A 
ATOM     56  N   UNL A   1      45.896  28.494  28.223  1.00  0.00    -0.354 N 
ATOM     57  N   UNL A   1      44.999  25.764  27.582  1.00  0.00    -0.248 NA
ATOM     58  C   UNL A   1      45.459  23.608  26.812  1.00  0.00     0.031 C 
ATOM     59  C   UNL A   1      48.070  28.933  28.132  1.00  0.00     0.029 A 
ATOM     60  C   UNL A   1      47.128  27.935  27.935  1.00  0.00     0.049 A 
ATOM     61  H   UNL A   1      45.033  28.022  28.169  1.00  0.00     0.167 HD
ATOM     62  C   UNL A   1      46.364  25.647  27.347  1.00  0.00     0.074 A 
ATOM     63  C   UNL A   1      46.593  24.291  26.891  1.00  0.00     0.031 C 
ATOM     64  C   UNL A   1      47.339  26.575  27.504  1.00  0.00     0.037 A 
BRANCH  51  65
ATOM     65  C   UNL A   1      45.285  32.142  29.244  1.00  0.00     0.057 A 
ATOM     66  C   UNL A   1      45.569  32.578  30.546  1.00  0.00     0.134 A 
ATOM     67  C   UNL A   1      45.296  33.104  28.226  1.00  0.00     0.134 A 
ATOM     68  F   UNL A   1      45.559  31.711  31.570  1.00  0.00    -0.206 F 
ATOM     69  C   UNL A   1      45.819  33.922  30.827  1.00  0.00     0.040 A 
ATOM     70  C   UNL A   1      45.573  34.446  28.490  1.00  0.00     0.040 A 
ATOM     71  F   UNL A   1      45.037  32.756  26.956  1.00  0.00    -0.206 F 
ATOM     72  C   UNL A   1      45.825  34.860  29.797  1.00  0.00     0.006 A 
ENDBRANCH  51  65
BRANCH  52  73
ATOM     73  C   UNL A   1      42.675  22.736  27.087  1.00  0.00     0.057 A 
ATOM     74  C   UNL A   1      42.629  22.289  25.762  1.00  0.00     0.134 A 
ATOM     75  C   UNL A   1      42.359  21.813  28.091  1.00  0.00     0.134 A 
ATOM     76  F   UNL A   1      42.900  23.133  24.756  1.00  0.00    -0.206 F 
ATOM     77  C   UNL A   1      42.274  20.977  25.445  1.00  0.00     0.040 A 
ATOM     78  C   UNL A   1      42.025  20.491  27.790  1.00  0.00     0.040 A 
ATOM     79  F   UNL A   1      42.384  22.179  29.381  1.00  0.00    -0.206 F 
ATOM     80  C   UNL A   1      41.978  20.071  26.462  1.00  0.00     0.006 A 
ENDBRANCH  52  73
BRANCH  64  81
ATOM     81  C   UNL A   1      48.753  26.149  27.244  1.00  0.00     0.057 A 
ATOM     82  C   UNL A   1      49.368  26.330  26.000  1.00  0.00     0.134 A 
ATOM     83  C   UNL A   1      49.535  25.626  28.284  1.00  0.00     0.134 A 
ATOM     84  F   UNL A   1      48.671  26.816  24.961  1.00  0.00    -0.206 F 
ATOM     85  C   UNL A   1      50.708  26.000  25.796  1.00  0.00     0.040 A 
ATOM     86  C   UNL A   1      50.882  25.316  28.099  1.00  0.00     0.040 A 
ATOM     87  F   UNL A   1      49.008  25.437  29.502  1.00  0.00    -0.206 F 
ATOM     88  C   UNL A   1      51.473  25.501  26.851  1.00  0.00     0.006 A 
ENDBRANCH  64  81
ENDBRANCH  38  39
ENDBRANCH  31  33
ENDBRANCH  30  31
ENDBRANCH  29  30
ENDBRANCH  28  29
ENDBRANCH  27  28
ENDBRANCH  26  27
ENDBRANCH   1  26
TORSDOF 21
ENDMDL
MODEL 2
REMARK VINA RESULT:     -10.0      1.985      7.024
REMARK SMILES CC(C)[C@H](NC(=O)OCc1ccccc1)C(=O)NCC(=O)OCCOCCOC(=O)c1ccc(-c2c3nc(c(-c4c(F)cccc4F)c4ccc([nH]4)c(-c4c(F)cccc4F)c4nc(c(-c5c(F)cccc5F)c5ccc2[nH]5)C=C4)C=C3)cc1
REMARK SMILES IDX 23 1 22 2 20 3 21 4 19 5 18 6 16 7 17 8 4 10 2 11 1 12 3 13
REMARK SMILES IDX 5 14 6 15 7 17 8 18 9 19 10 20 11 21 15 22 12 23 14 24 13 25
REMARK SMILES IDX 24 26 25 27 26 28 27 29 28 30 29 31 30 32 31 33 32 34 84 35
REMARK SMILES IDX 33 36 83 37 34 38 35 39 36 40 77 41 37 42 82 43 76 44 78 45
REMARK SMILES IDX 38 46 81 47 75 48 74 49 39 51 65 52 48 53 64 54 49 55 52 56
REMARK SMILES IDX 63 57 79 58 50 59 51 60 62 62 80 63 53 64 40 65 41 66 46 67
REMARK SMILES IDX 42 68 43 69 45 70 47 71 44 72 66 73 67 74 72 75 68 76 69 77
REMARK SMILES IDX 71 78 73 79 70 80 54 81 55 82 60 83 56 84 57 85 59 86 61 87
REMARK SMILES IDX 58 88
REMARK H PARENT 18 9 5 16 78 50 52 61
REMARK Flexibility Score: inf
ROOT
ATOM      1  C   UNL A   1      34.964  31.994  28.048  1.00  0.00     0.261 C 
ENDROOT
BRANCH   1   2
ATOM      2  O   UNL A   1      33.700  31.331  27.875  1.00  0.00    -0.462 OA
BRANCH   2   3
ATOM      3  C   UNL A   1      33.743  30.195  27.127  1.00  0.00     0.325 C 
ATOM      4  O   UNL A   1      34.713  29.450  27.037  1.00  0.00    -0.250 OA
BRANCH   3   5
ATOM      5  C   UNL A   1      32.421  29.873  26.440  1.00  0.00     0.238 C 
BRANCH   5   6
ATOM      6  N   UNL A   1      31.668  28.726  26.909  1.00  0.00    -0.343 N 
ATOM      7  C   UNL A   1      31.519  27.473  26.414  1.00  0.00     0.243 C 
ATOM      8  O   UNL A   1      30.824  26.702  27.088  1.00  0.00    -0.273 OA
ATOM      9  H   UNL A   1      31.170  28.889  27.743  1.00  0.00     0.164 HD
BRANCH   7  10
ATOM     10  C   UNL A   1      32.077  27.003  25.047  1.00  0.00     0.177 C 
BRANCH  10  11
ATOM     11  C   UNL A   1      33.608  27.012  24.853  1.00  0.00     0.015 C 
ATOM     12  C   UNL A   1      34.152  25.597  24.619  1.00  0.00     0.010 C 
ATOM     13  C   UNL A   1      34.007  27.897  23.663  1.00  0.00     0.010 C 
ENDBRANCH  10  11
BRANCH  10  14
ATOM     14  N   UNL A   1      31.231  27.584  23.999  1.00  0.00    -0.309 N 
ATOM     15  C   UNL A   1      30.870  27.112  22.780  1.00  0.00     0.408 C 
ATOM     16  H   UNL A   1      30.862  28.469  24.218  1.00  0.00     0.167 HD
ATOM     17  O   UNL A   1      30.415  27.873  21.927  1.00  0.00    -0.225 OA
BRANCH  15  18
ATOM     18  O   UNL A   1      31.095  25.794  22.608  1.00  0.00    -0.445 OA
BRANCH  18  19
ATOM     19  C   UNL A   1      30.233  24.906  23.332  1.00  0.00     0.270 C 
BRANCH  19  20
ATOM     20  C   UNL A   1      30.943  23.736  23.945  1.00  0.00    -0.011 A 
ATOM     21  C   UNL A   1      30.857  23.485  25.320  1.00  0.00     0.007 A 
ATOM     22  C   UNL A   1      31.755  22.918  23.147  1.00  0.00     0.007 A 
ATOM     23  C   UNL A   1      31.602  22.454  25.891  1.00  0.00     0.000 A 
ATOM     24  C   UNL A   1      32.496  21.887  23.719  1.00  0.00     0.000 A 
ATOM     25  C   UNL A   1      32.425  21.660  25.092  1.00  0.00     0.000 A 
ENDBRANCH  19  20
ENDBRANCH  18  19
ENDBRANCH  15  18
ENDBRANCH  10  14
ENDBRANCH   7  10
ENDBRANCH   5   6
ENDBRANCH   3   5
ENDBRANCH   2   3
ENDBRANCH   1   2
BRANCH   1  26
ATOM     26  C   UNL A   1      34.882  33.237  28.938  1.00  0.00     0.202 C 
BRANCH  26  27
ATOM     27  O   UNL A   1      34.199  33.143  30.184  1.00  0.00    -0.374 OA
BRANCH  27  28
ATOM     28  C   UNL A   1      34.598  33.974  31.268  1.00  0.00     0.202 C 
BRANCH  28  29
ATOM     29  C   UNL A   1      34.787  33.361  32.660  1.00  0.00     0.261 C 
BRANCH  29  30
ATOM     30  O   UNL A   1      35.283  32.014  32.645  1.00  0.00    -0.460 OA
BRANCH  30  31
ATOM     31  C   UNL A   1      36.500  31.873  33.227  1.00  0.00     0.338 C 
ATOM     32  O   UNL A   1      36.820  32.191  34.361  1.00  0.00    -0.246 OA
BRANCH  31  33
ATOM     33  C   UNL A   1      37.409  31.122  32.346  1.00  0.00     0.060 A 
ATOM     34  C   UNL A   1      38.514  30.492  32.936  1.00  0.00     0.016 A 
ATOM     35  C   UNL A   1      37.257  31.151  30.960  1.00  0.00     0.016 A 
ATOM     36  C   UNL A   1      39.511  29.941  32.135  1.00  0.00     0.010 A 
ATOM     37  C   UNL A   1      38.264  30.611  30.158  1.00  0.00     0.010 A 
ATOM     38  C   UNL A   1      39.414  30.048  30.743  1.00  0.00    -0.014 A 
BRANCH  38  39
ATOM     39  C   UNL A   1      40.592  29.762  29.894  1.00  0.00     0.031 A 
ATOM     40  C   UNL A   1      40.717  28.395  29.284  1.00  0.00     0.074 A 
ATOM     41  C   UNL A   1      41.531  30.696  29.675  1.00  0.00     0.049 A 
ATOM     42  N   UNL A   1      41.710  27.868  28.616  1.00  0.00    -0.248 NA
ATOM     43  C   UNL A   1      39.564  27.496  29.459  1.00  0.00     0.031 C 
ATOM     44  C   UNL A   1      41.480  32.076  30.152  1.00  0.00     0.029 A 
ATOM     45  N   UNL A   1      42.723  30.611  29.002  1.00  0.00    -0.354 N 
ATOM     46  C   UNL A   1      41.312  26.573  28.311  1.00  0.00     0.074 A 
ATOM     47  C   UNL A   1      39.997  26.385  28.883  1.00  0.00     0.031 C 
ATOM     48  C   UNL A   1      42.602  32.708  29.767  1.00  0.00     0.029 A 
ATOM     49  C   UNL A   1      43.465  31.764  29.060  1.00  0.00     0.049 A 
ATOM     50  H   UNL A   1      43.017  29.802  28.525  1.00  0.00     0.167 HD
ATOM     51  C   UNL A   1      41.985  25.624  27.618  1.00  0.00     0.037 A 
ATOM     52  C   UNL A   1      44.713  32.011  28.619  1.00  0.00     0.037 A 
ATOM     53  C   UNL A   1      43.293  25.823  27.053  1.00  0.00     0.049 A 
ATOM     54  C   UNL A   1      45.487  30.910  27.942  1.00  0.00     0.074 A 
ATOM     55  C   UNL A   1      44.060  24.936  26.317  1.00  0.00     0.029 A 
ATOM     56  N   UNL A   1      44.033  26.990  27.172  1.00  0.00    -0.354 N 
ATOM     57  N   UNL A   1      45.107  29.689  27.652  1.00  0.00    -0.248 NA
ATOM     58  C   UNL A   1      46.867  31.220  27.540  1.00  0.00     0.031 C 
ATOM     59  C   UNL A   1      45.285  25.550  26.038  1.00  0.00     0.029 A 
ATOM     60  C   UNL A   1      45.259  26.838  26.550  1.00  0.00     0.049 A 
ATOM     61  H   UNL A   1      43.729  27.807  27.632  1.00  0.00     0.167 HD
ATOM     62  C   UNL A   1      46.182  29.099  26.999  1.00  0.00     0.074 A 
ATOM     63  C   UNL A   1      47.233  30.094  26.943  1.00  0.00     0.031 C 
ATOM     64  C   UNL A   1      46.285  27.849  26.484  1.00  0.00     0.037 A 
BRANCH  51  65
ATOM     65  C   UNL A   1      41.334  24.280  27.479  1.00  0.00     0.057 A 
ATOM     66  C   UNL A   1      40.261  24.057  26.606  1.00  0.00     0.134 A 
ATOM     67  C   UNL A   1      41.787  23.191  28.236  1.00  0.00     0.134 A 
ATOM     68  F   UNL A   1      39.769  25.060  25.864  1.00  0.00    -0.206 F 
ATOM     69  C   UNL A   1      39.640  22.809  26.517  1.00  0.00     0.040 A 
ATOM     70  C   UNL A   1      41.193  21.933  28.134  1.00  0.00     0.040 A 
ATOM     71  F   UNL A   1      42.813  23.332  29.088  1.00  0.00    -0.206 F 
ATOM     72  C   UNL A   1      40.109  21.742  27.280  1.00  0.00     0.006 A 
ENDBRANCH  51  65
BRANCH  52  73
ATOM     73  C   UNL A   1      45.311  33.356  28.807  1.00  0.00     0.057 A 
ATOM     74  C   UNL A   1      45.973  33.686  29.994  1.00  0.00     0.134 A 
ATOM     75  C   UNL A   1      45.240  34.338  27.812  1.00  0.00     0.134 A 
ATOM     76  F   UNL A   1      46.054  32.795  30.992  1.00  0.00    -0.206 F 
ATOM     77  C   UNL A   1      46.539  34.948  30.189  1.00  0.00     0.040 A 
ATOM     78  C   UNL A   1      45.821  35.595  27.984  1.00  0.00     0.040 A 
ATOM     79  F   UNL A   1      44.618  34.083  26.652  1.00  0.00    -0.206 F 
ATOM     80  C   UNL A   1      46.469  35.904  29.178  1.00  0.00     0.006 A 
ENDBRANCH  52  73
BRANCH  64  81
ATOM     81  C   UNL A   1      47.550  27.498  25.759  1.00  0.00     0.057 A 
ATOM     82  C   UNL A   1      48.656  26.948  26.416  1.00  0.00     0.134 A 
ATOM     83  C   UNL A   1      47.625  27.636  24.365  1.00  0.00     0.134 A 
ATOM     84  F   UNL A   1      48.650  26.799  27.749  1.00  0.00    -0.206 F 
ATOM     85  C   UNL A   1      49.796  26.554  25.715  1.00  0.00     0.040 A 
ATOM     86  C   UNL A   1      48.750  27.224  23.652  1.00  0.00     0.040 A 
ATOM     87  F   UNL A   1      46.596  28.148  23.676  1.00  0.00    -0.206 F 
ATOM     88  C   UNL A   1      49.842  26.682  24.326  1.00  0.00     0.006 A 
ENDBRANCH  64  81
ENDBRANCH  38  39
ENDBRANCH  31  33
ENDBRANCH  30  31
ENDBRANCH  29  30
ENDBRANCH  28  29
ENDBRANCH  27  28
ENDBRANCH  26  27
ENDBRANCH   1  26
TORSDOF 21
ENDMDL
MODEL 3
REMARK VINA RESULT:      -9.9      4.567      9.662
REMARK SMILES CC(C)[C@H](NC(=O)OCc1ccccc1)C(=O)NCC(=O)OCCOCCOC(=O)c1ccc(-c2c3nc(c(-c4c(F)cccc4F)c4ccc([nH]4)c(-c4c(F)cccc4F)c4nc(c(-c5c(F)cccc5F)c5ccc2[nH]5)C=C4)C=C3)cc1
REMARK SMILES IDX 23 1 22 2 20 3 21 4 19 5 18 6 16 7 17 8 4 10 2 11 1 12 3 13
REMARK SMILES IDX 5 14 6 15 7 17 8 18 9 19 10 20 11 21 15 22 12 23 14 24 13 25
REMARK SMILES IDX 24 26 25 27 26 28 27 29 28 30 29 31 30 32 31 33 32 34 84 35
REMARK SMILES IDX 33 36 83 37 34 38 35 39 36 40 77 41 37 42 82 43 76 44 78 45
REMARK SMILES IDX 38 46 81 47 75 48 74 49 39 51 65 52 48 53 64 54 49 55 52 56
REMARK SMILES IDX 63 57 79 58 50 59 51 60 62 62 80 63 53 64 40 65 41 66 46 67
REMARK SMILES IDX 42 68 43 69 45 70 47 71 44 72 66 73 67 74 72 75 68 76 69 77
REMARK SMILES IDX 71 78 73 79 70 80 54 81 55 82 60 83 56 84 57 85 59 86 61 87
REMARK SMILES IDX 58 88
REMARK H PARENT 18 9 5 16 78 50 52 61
REMARK Flexibility Score: inf
ROOT
ATOM      1  C   UNL A   1      37.783  21.323  24.939  1.00  0.00     0.261 C 
ENDROOT
BRANCH   1   2
ATOM      2  O   UNL A   1      36.720  21.852  25.749  1.00  0.00    -0.462 OA
BRANCH   2   3
ATOM      3  C   UNL A   1      36.641  23.209  25.784  1.00  0.00     0.325 C 
ATOM      4  O   UNL A   1      37.604  23.968  25.794  1.00  0.00    -0.250 OA
BRANCH   3   5
ATOM      5  C   UNL A   1      35.211  23.733  25.739  1.00  0.00     0.238 C 
BRANCH   5   6
ATOM      6  N   UNL A   1      34.743  24.342  24.509  1.00  0.00    -0.343 N 
ATOM      7  C   UNL A   1      33.628  25.054  24.214  1.00  0.00     0.243 C 
ATOM      8  O   UNL A   1      33.544  25.474  23.053  1.00  0.00    -0.273 OA
ATOM      9  H   UNL A   1      35.349  24.212  23.743  1.00  0.00     0.164 HD
BRANCH   7  10
ATOM     10  C   UNL A   1      32.451  25.278  25.196  1.00  0.00     0.177 C 
BRANCH  10  11
ATOM     11  C   UNL A   1      31.022  25.299  24.615  1.00  0.00     0.015 C 
ATOM     12  C   UNL A   1      30.671  23.967  23.938  1.00  0.00     0.010 C 
ATOM     13  C   UNL A   1      29.985  25.583  25.711  1.00  0.00     0.010 C 
ENDBRANCH  10  11
BRANCH  10  14
ATOM     14  N   UNL A   1      32.847  26.337  26.129  1.00  0.00    -0.309 N 
ATOM     15  C   UNL A   1      33.016  27.671  25.947  1.00  0.00     0.408 C 
ATOM     16  H   UNL A   1      33.020  26.027  27.047  1.00  0.00     0.167 HD
ATOM     17  O   UNL A   1      33.647  28.337  26.767  1.00  0.00    -0.225 OA
BRANCH  15  18
ATOM     18  O   UNL A   1      32.478  28.146  24.806  1.00  0.00    -0.445 OA
BRANCH  18  19
ATOM     19  C   UNL A   1      31.933  29.470  24.868  1.00  0.00     0.270 C 
BRANCH  19  20
ATOM     20  C   UNL A   1      30.618  29.620  24.162  1.00  0.00    -0.011 A 
ATOM     21  C   UNL A   1      30.118  28.595  23.350  1.00  0.00     0.007 A 
ATOM     22  C   UNL A   1      29.907  30.824  24.264  1.00  0.00     0.007 A 
ATOM     23  C   UNL A   1      28.944  28.788  22.622  1.00  0.00     0.000 A 
ATOM     24  C   UNL A   1      28.733  31.014  23.538  1.00  0.00     0.000 A 
ATOM     25  C   UNL A   1      28.257  29.999  22.712  1.00  0.00     0.000 A 
ENDBRANCH  19  20
ENDBRANCH  18  19
ENDBRANCH  15  18
ENDBRANCH  10  14
ENDBRANCH   7  10
ENDBRANCH   5   6
ENDBRANCH   3   5
ENDBRANCH   2   3
ENDBRANCH   1   2
BRANCH   1  26
ATOM     26  C   UNL A   1      38.864  20.601  25.747  1.00  0.00     0.202 C 
BRANCH  26  27
ATOM     27  O   UNL A   1      40.002  21.339  26.181  1.00  0.00    -0.374 OA
BRANCH  27  28
ATOM     28  C   UNL A   1      41.268  20.695  26.260  1.00  0.00     0.202 C 
BRANCH  28  29
ATOM     29  C   UNL A   1      42.531  21.458  25.845  1.00  0.00     0.261 C 
BRANCH  29  30
ATOM     30  O   UNL A   1      42.279  22.604  25.020  1.00  0.00    -0.460 OA
BRANCH  30  31
ATOM     31  C   UNL A   1      43.133  23.635  25.240  1.00  0.00     0.338 C 
ATOM     32  O   UNL A   1      44.269  23.759  24.811  1.00  0.00    -0.246 OA
BRANCH  31  33
ATOM     33  C   UNL A   1      42.458  24.717  25.974  1.00  0.00     0.060 A 
ATOM     34  C   UNL A   1      43.066  25.981  25.975  1.00  0.00     0.016 A 
ATOM     35  C   UNL A   1      41.332  24.464  26.755  1.00  0.00     0.016 A 
ATOM     36  C   UNL A   1      42.585  26.984  26.812  1.00  0.00     0.010 A 
ATOM     37  C   UNL A   1      40.859  25.466  27.605  1.00  0.00     0.010 A 
ATOM     38  C   UNL A   1      41.513  26.711  27.669  1.00  0.00    -0.014 A 
BRANCH  38  39
ATOM     39  C   UNL A   1      41.195  27.640  28.776  1.00  0.00     0.031 A 
ATOM     40  C   UNL A   1      42.009  27.556  30.036  1.00  0.00     0.074 A 
ATOM     41  C   UNL A   1      40.201  28.536  28.665  1.00  0.00     0.049 A 
ATOM     42  N   UNL A   1      41.841  28.168  31.179  1.00  0.00    -0.248 NA
ATOM     43  C   UNL A   1      43.169  26.649  30.002  1.00  0.00     0.031 C 
ATOM     44  C   UNL A   1      39.393  28.759  27.468  1.00  0.00     0.029 A 
ATOM     45  N   UNL A   1      39.694  29.415  29.587  1.00  0.00    -0.354 N 
ATOM     46  C   UNL A   1      42.857  27.705  32.005  1.00  0.00     0.074 A 
ATOM     47  C   UNL A   1      43.625  26.747  31.241  1.00  0.00     0.031 C 
ATOM     48  C   UNL A   1      38.480  29.709  27.734  1.00  0.00     0.029 A 
ATOM     49  C   UNL A   1      38.610  30.121  29.130  1.00  0.00     0.049 A 
ATOM     50  H   UNL A   1      40.071  29.528  30.489  1.00  0.00     0.167 HD
ATOM     51  C   UNL A   1      43.124  28.047  33.288  1.00  0.00     0.037 A 
ATOM     52  C   UNL A   1      37.800  30.977  29.781  1.00  0.00     0.037 A 
ATOM     53  C   UNL A   1      42.353  29.002  34.038  1.00  0.00     0.049 A 
ATOM     54  C   UNL A   1      38.050  31.266  31.237  1.00  0.00     0.074 A 
ATOM     55  C   UNL A   1      42.545  29.436  35.339  1.00  0.00     0.029 A 
ATOM     56  N   UNL A   1      41.233  29.663  33.555  1.00  0.00    -0.354 N 
ATOM     57  N   UNL A   1      39.013  30.830  32.014  1.00  0.00    -0.248 NA
ATOM     58  C   UNL A   1      37.094  32.157  31.911  1.00  0.00     0.031 C 
ATOM     59  C   UNL A   1      41.510  30.320  35.658  1.00  0.00     0.029 A 
ATOM     60  C   UNL A   1      40.706  30.479  34.540  1.00  0.00     0.049 A 
ATOM     61  H   UNL A   1      40.869  29.566  32.645  1.00  0.00     0.167 HD
ATOM     62  C   UNL A   1      38.804  31.425  33.252  1.00  0.00     0.074 A 
ATOM     63  C   UNL A   1      37.617  32.245  33.126  1.00  0.00     0.031 C 
ATOM     64  C   UNL A   1      39.535  31.308  34.388  1.00  0.00     0.037 A 
BRANCH  51  65
ATOM     65  C   UNL A   1      44.265  27.347  33.965  1.00  0.00     0.057 A 
ATOM     66  C   UNL A   1      45.573  27.851  33.934  1.00  0.00     0.134 A 
ATOM     67  C   UNL A   1      44.052  26.147  34.655  1.00  0.00     0.134 A 
ATOM     68  F   UNL A   1      45.848  28.988  33.278  1.00  0.00    -0.206 F 
ATOM     69  C   UNL A   1      46.632  27.167  34.536  1.00  0.00     0.040 A 
ATOM     70  C   UNL A   1      45.098  25.470  35.284  1.00  0.00     0.040 A 
ATOM     71  F   UNL A   1      42.825  25.611  34.728  1.00  0.00    -0.206 F 
ATOM     72  C   UNL A   1      46.394  25.975  35.217  1.00  0.00     0.006 A 
ENDBRANCH  51  65
BRANCH  52  73
ATOM     73  C   UNL A   1      36.673  31.620  29.061  1.00  0.00     0.057 A 
ATOM     74  C   UNL A   1      36.739  32.964  28.679  1.00  0.00     0.134 A 
ATOM     75  C   UNL A   1      35.510  30.912  28.734  1.00  0.00     0.134 A 
ATOM     76  F   UNL A   1      37.818  33.699  28.984  1.00  0.00    -0.206 F 
ATOM     77  C   UNL A   1      35.687  33.585  28.004  1.00  0.00     0.040 A 
ATOM     78  C   UNL A   1      34.460  31.514  28.039  1.00  0.00     0.040 A 
ATOM     79  F   UNL A   1      35.385  29.621  29.073  1.00  0.00    -0.206 F 
ATOM     80  C   UNL A   1      34.546  32.856  27.675  1.00  0.00     0.006 A 
ENDBRANCH  52  73
BRANCH  64  81
ATOM     81  C   UNL A   1      39.118  32.130  35.571  1.00  0.00     0.057 A 
ATOM     82  C   UNL A   1      38.299  31.616  36.583  1.00  0.00     0.134 A 
ATOM     83  C   UNL A   1      39.617  33.431  35.737  1.00  0.00     0.134 A 
ATOM     84  F   UNL A   1      37.782  30.383  36.477  1.00  0.00    -0.206 F 
ATOM     85  C   UNL A   1      37.984  32.368  37.715  1.00  0.00     0.040 A 
ATOM     86  C   UNL A   1      39.328  34.182  36.876  1.00  0.00     0.040 A 
ATOM     87  F   UNL A   1      40.414  33.977  34.809  1.00  0.00    -0.206 F 
ATOM     88  C   UNL A   1      38.508  33.651  37.870  1.00  0.00     0.006 A 
ENDBRANCH  64  81
ENDBRANCH  38  39
ENDBRANCH  31  33
ENDBRANCH  30  31
ENDBRANCH  29  30
ENDBRANCH  28  29
ENDBRANCH  27  28
ENDBRANCH  26  27
ENDBRANCH   1  26
TORSDOF 21
ENDMDL
