MODEL 1
REMARK VINA RESULT:     -10.9      0.000      0.000
REMARK SMILES CC1(C)C[C@](CC(=O)OCCOCCOC(=O)c2ccc(-c3c4nc(c(-c5c(F)cccc5F)c5ccc([nH]5)c(-c5c(F)cccc5F)c5nc(c(-c6c(F)cccc6F)c6ccc3[nH]6)C=C5)C=C4)cc2)([NH+]2CCCC2)C(C)(C)O1
REMARK SMILES IDX 12 1 11 2 10 3 9 4 7 5 8 6 6 7 5 8 1 9 2 10 3 11 4 12 80 13
REMARK SMILES IDX 77 14 78 15 79 16 72 17 73 18 76 19 74 21 75 22 13 23 14 24
REMARK SMILES IDX 15 25 16 26 17 27 18 28 19 29 71 30 20 31 70 32 21 33 22 34
REMARK SMILES IDX 23 35 64 36 24 37 69 38 63 39 65 40 25 41 68 42 62 43 61 44
REMARK SMILES IDX 26 46 52 47 35 48 51 49 36 50 39 51 50 52 66 53 37 54 38 55
REMARK SMILES IDX 49 57 67 58 40 59 27 60 28 61 33 62 29 63 30 64 32 65 34 66
REMARK SMILES IDX 31 67 53 68 54 69 59 70 55 71 56 72 58 73 60 74 57 75 41 76
REMARK SMILES IDX 42 77 47 78 43 79 44 80 46 81 48 82 45 83
REMARK H PARENT 72 20 65 45 39 56
REMARK Flexibility Score: inf
ROOT
ATOM      1  O   UNL A   1      35.908  21.488  25.959  1.00  0.00    -0.374 OA
ENDROOT
BRANCH   1   2
ATOM      2  C   UNL A   1      35.337  22.693  25.456  1.00  0.00     0.202 C 
BRANCH   2   3
ATOM      3  C   UNL A   1      33.821  22.848  25.624  1.00  0.00     0.261 C 
BRANCH   3   4
ATOM      4  O   UNL A   1      33.404  23.916  26.509  1.00  0.00    -0.463 OA
BRANCH   4   5
ATOM      5  C   UNL A   1      32.084  23.935  26.807  1.00  0.00     0.312 C 
ATOM      6  O   UNL A   1      31.529  23.080  27.493  1.00  0.00    -0.252 OA
BRANCH   5   7
ATOM      7  C   UNL A   1      31.265  24.990  26.091  1.00  0.00     0.194 C 
BRANCH   7   8
ATOM      8  C   UNL A   1      31.796  26.267  25.356  1.00  0.00     0.140 C 
ATOM      9  C   UNL A   1      29.449  27.816  22.945  1.00  0.00     0.042 C 
ATOM     10  C   UNL A   1      30.661  27.941  23.882  1.00  0.00     0.070 C 
ATOM     11  C   UNL A   1      30.866  29.445  24.141  1.00  0.00     0.042 C 
ATOM     12  C   UNL A   1      30.499  27.140  25.175  1.00  0.00     0.107 C 
ATOM     13  O   UNL A   1      31.800  27.369  23.205  1.00  0.00    -0.363 OA
ATOM     14  C   UNL A   1      32.172  26.100  23.835  1.00  0.00     0.118 C 
ATOM     15  C   UNL A   1      31.384  24.992  23.104  1.00  0.00     0.049 C 
ATOM     16  C   UNL A   1      33.652  25.861  23.514  1.00  0.00     0.049 C 
BRANCH   8  17
ATOM     17  N   UNL A   1      32.734  27.051  26.221  1.00  0.00    -0.327 N 
ATOM     18  C   UNL A   1      33.853  27.721  25.572  1.00  0.00     0.263 C 
ATOM     19  C   UNL A   1      32.229  27.951  27.265  1.00  0.00     0.263 C 
ATOM     20  H   UNL A   1      33.045  26.206  26.700  1.00  0.00     0.348 HD
ATOM     21  C   UNL A   1      34.371  28.718  26.594  1.00  0.00     0.067 C 
ATOM     22  C   UNL A   1      33.104  29.197  27.251  1.00  0.00     0.067 C 
ENDBRANCH   8  17
ENDBRANCH   7   8
ENDBRANCH   5   7
ENDBRANCH   4   5
ENDBRANCH   3   4
ENDBRANCH   2   3
ENDBRANCH   1   2
BRANCH   1  23
ATOM     23  C   UNL A   1      36.246  20.485  25.003  1.00  0.00     0.202 C 
BRANCH  23  24
ATOM     24  C   UNL A   1      37.732  20.122  24.973  1.00  0.00     0.261 C 
BRANCH  24  25
ATOM     25  O   UNL A   1      38.519  21.258  25.375  1.00  0.00    -0.460 OA
BRANCH  25  26
ATOM     26  C   UNL A   1      39.583  20.948  26.144  1.00  0.00     0.338 C 
ATOM     27  O   UNL A   1      40.238  19.917  26.115  1.00  0.00    -0.246 OA
BRANCH  26  28
ATOM     28  C   UNL A   1      40.007  22.155  26.872  1.00  0.00     0.060 A 
ATOM     29  C   UNL A   1      39.409  23.362  26.502  1.00  0.00     0.016 A 
ATOM     30  C   UNL A   1      41.023  22.129  27.830  1.00  0.00     0.016 A 
ATOM     31  C   UNL A   1      39.882  24.562  27.032  1.00  0.00     0.010 A 
ATOM     32  C   UNL A   1      41.485  23.339  28.374  1.00  0.00     0.010 A 
ATOM     33  C   UNL A   1      40.955  24.567  27.937  1.00  0.00    -0.014 A 
BRANCH  33  34
ATOM     34  C   UNL A   1      41.592  25.873  28.262  1.00  0.00     0.031 A 
ATOM     35  C   UNL A   1      42.961  26.190  27.715  1.00  0.00     0.074 A 
ATOM     36  C   UNL A   1      40.912  26.830  28.923  1.00  0.00     0.049 A 
ATOM     37  N   UNL A   1      43.608  27.330  27.707  1.00  0.00    -0.248 NA
ATOM     38  C   UNL A   1      43.698  25.080  27.090  1.00  0.00     0.031 C 
ATOM     39  C   UNL A   1      39.580  26.674  29.504  1.00  0.00     0.029 A 
ATOM     40  N   UNL A   1      41.244  28.137  29.188  1.00  0.00    -0.354 N 
ATOM     41  C   UNL A   1      44.814  27.077  27.062  1.00  0.00     0.074 A 
ATOM     42  C   UNL A   1      44.834  25.667  26.743  1.00  0.00     0.031 C 
ATOM     43  C   UNL A   1      39.195  27.848  30.033  1.00  0.00     0.029 A 
ATOM     44  C   UNL A   1      40.254  28.838  29.834  1.00  0.00     0.049 A 
ATOM     45  H   UNL A   1      42.110  28.535  28.940  1.00  0.00     0.167 HD
ATOM     46  C   UNL A   1      45.806  27.942  26.739  1.00  0.00     0.037 A 
ATOM     47  C   UNL A   1      40.196  30.131  30.208  1.00  0.00     0.037 A 
ATOM     48  C   UNL A   1      45.801  29.348  27.042  1.00  0.00     0.049 A 
ATOM     49  C   UNL A   1      41.331  31.064  29.876  1.00  0.00     0.074 A 
ATOM     50  C   UNL A   1      46.751  30.302  26.720  1.00  0.00     0.029 A 
ATOM     51  N   UNL A   1      44.803  30.002  27.745  1.00  0.00    -0.354 N 
ATOM     52  N   UNL A   1      42.431  30.825  29.205  1.00  0.00    -0.248 NA
ATOM     53  C   UNL A   1      41.208  32.453  30.345  1.00  0.00     0.031 C 
ATOM     54  C   UNL A   1      46.349  31.525  27.267  1.00  0.00     0.029 A 
ATOM     55  C   UNL A   1      45.127  31.341  27.891  1.00  0.00     0.049 A 
ATOM     56  H   UNL A   1      43.984  29.578  28.091  1.00  0.00     0.167 HD
ATOM     57  C   UNL A   1      43.115  32.034  29.148  1.00  0.00     0.074 A 
ATOM     58  C   UNL A   1      42.299  33.010  29.838  1.00  0.00     0.031 C 
ATOM     59  C   UNL A   1      44.311  32.310  28.574  1.00  0.00     0.037 A 
BRANCH  46  60
ATOM     60  C   UNL A   1      46.992  27.385  26.009  1.00  0.00     0.057 A 
ATOM     61  C   UNL A   1      47.059  27.382  24.610  1.00  0.00     0.134 A 
ATOM     62  C   UNL A   1      48.097  26.892  26.712  1.00  0.00     0.134 A 
ATOM     63  F   UNL A   1      46.026  27.831  23.879  1.00  0.00    -0.206 F 
ATOM     64  C   UNL A   1      48.176  26.890  23.935  1.00  0.00     0.040 A 
ATOM     65  C   UNL A   1      49.230  26.419  26.048  1.00  0.00     0.040 A 
ATOM     66  F   UNL A   1      48.099  26.874  28.053  1.00  0.00    -0.206 F 
ATOM     67  C   UNL A   1      49.270  26.413  24.655  1.00  0.00     0.006 A 
ENDBRANCH  46  60
BRANCH  47  68
ATOM     68  C   UNL A   1      39.003  30.644  30.929  1.00  0.00     0.057 A 
ATOM     69  C   UNL A   1      37.955  31.273  30.247  1.00  0.00     0.134 A 
ATOM     70  C   UNL A   1      38.907  30.556  32.322  1.00  0.00     0.134 A 
ATOM     71  F   UNL A   1      38.003  31.411  28.914  1.00  0.00    -0.206 F 
ATOM     72  C   UNL A   1      36.862  31.813  30.926  1.00  0.00     0.040 A 
ATOM     73  C   UNL A   1      37.810  31.072  33.013  1.00  0.00     0.040 A 
ATOM     74  F   UNL A   1      39.881  29.968  33.032  1.00  0.00    -0.206 F 
ATOM     75  C   UNL A   1      36.787  31.710  32.315  1.00  0.00     0.006 A 
ENDBRANCH  47  68
BRANCH  59  76
ATOM     76  C   UNL A   1      44.803  33.726  28.645  1.00  0.00     0.057 A 
ATOM     77  C   UNL A   1      44.396  34.697  27.721  1.00  0.00     0.134 A 
ATOM     78  C   UNL A   1      45.670  34.133  29.668  1.00  0.00     0.134 A 
ATOM     79  F   UNL A   1      43.575  34.373  26.711  1.00  0.00    -0.206 F 
ATOM     80  C   UNL A   1      44.851  36.015  27.798  1.00  0.00     0.040 A 
ATOM     81  C   UNL A   1      46.112  35.453  29.770  1.00  0.00     0.040 A 
ATOM     82  F   UNL A   1      46.093  33.256  30.592  1.00  0.00    -0.206 F 
ATOM     83  C   UNL A   1      45.708  36.397  28.829  1.00  0.00     0.006 A 
ENDBRANCH  59  76
ENDBRANCH  33  34
ENDBRANCH  26  28
ENDBRANCH  25  26
ENDBRANCH  24  25
ENDBRANCH  23  24
ENDBRANCH   1  23
TORSDOF 16
ENDMDL
MODEL 2
REMARK VINA RESULT:     -10.8      3.827      9.123
REMARK SMILES CC1(C)C[C@](CC(=O)OCCOCCOC(=O)c2ccc(-c3c4nc(c(-c5c(F)cccc5F)c5ccc([nH]5)c(-c5c(F)cccc5F)c5nc(c(-c6c(F)cccc6F)c6ccc3[nH]6)C=C5)C=C4)cc2)([NH+]2CCCC2)C(C)(C)O1
REMARK SMILES IDX 12 1 11 2 10 3 9 4 7 5 8 6 6 7 5 8 1 9 2 10 3 11 4 12 80 13
REMARK SMILES IDX 77 14 78 15 79 16 72 17 73 18 76 19 74 21 75 22 13 23 14 24
REMARK SMILES IDX 15 25 16 26 17 27 18 28 19 29 71 30 20 31 70 32 21 33 22 34
REMARK SMILES IDX 23 35 64 36 24 37 69 38 63 39 65 40 25 41 68 42 62 43 61 44
REMARK SMILES IDX 26 46 52 47 35 48 51 49 36 50 39 51 50 52 66 53 37 54 38 55
REMARK SMILES IDX 49 57 67 58 40 59 27 60 28 61 33 62 29 63 30 64 32 65 34 66
REMARK SMILES IDX 31 67 53 68 54 69 59 70 55 71 56 72 58 73 60 74 57 75 41 76
REMARK SMILES IDX 42 77 47 78 43 79 44 80 46 81 48 82 45 83
REMARK H PARENT 72 20 65 45 39 56
REMARK Flexibility Score: inf
ROOT
ATOM      1  O   UNL A   1      31.349  28.406  25.850  1.00  0.00    -0.374 OA
ENDROOT
BRANCH   1   2
ATOM      2  C   UNL A   1      31.868  27.404  26.722  1.00  0.00     0.202 C 
BRANCH   2   3
ATOM      3  C   UNL A   1      31.848  25.967  26.192  1.00  0.00     0.261 C 
BRANCH   3   4
ATOM      4  O   UNL A   1      33.130  25.291  26.193  1.00  0.00    -0.463 OA
BRANCH   4   5
ATOM      5  C   UNL A   1      33.724  25.182  24.982  1.00  0.00     0.312 C 
ATOM      6  O   UNL A   1      34.082  26.146  24.310  1.00  0.00    -0.252 OA
BRANCH   5   7
ATOM      7  C   UNL A   1      33.771  23.784  24.398  1.00  0.00     0.194 C 
BRANCH   7   8
ATOM      8  C   UNL A   1      34.124  22.454  25.146  1.00  0.00     0.140 C 
ATOM      9  C   UNL A   1      32.336  19.433  23.964  1.00  0.00     0.042 C 
ATOM     10  C   UNL A   1      33.544  20.066  24.673  1.00  0.00     0.070 C 
ATOM     11  C   UNL A   1      34.649  18.994  24.705  1.00  0.00     0.042 C 
ATOM     12  C   UNL A   1      34.007  21.367  24.014  1.00  0.00     0.107 C 
ATOM     13  O   UNL A   1      33.130  20.427  26.008  1.00  0.00    -0.363 OA
ATOM     14  C   UNL A   1      33.028  21.883  26.124  1.00  0.00     0.118 C 
ATOM     15  C   UNL A   1      31.581  22.261  25.746  1.00  0.00     0.049 C 
ATOM     16  C   UNL A   1      33.189  22.223  27.611  1.00  0.00     0.049 C 
BRANCH   8  17
ATOM     17  N   UNL A   1      35.546  22.446  25.616  1.00  0.00    -0.327 N 
ATOM     18  C   UNL A   1      36.547  21.867  24.732  1.00  0.00     0.263 C 
ATOM     19  C   UNL A   1      36.144  23.632  26.240  1.00  0.00     0.263 C 
ATOM     20  H   UNL A   1      35.321  21.807  26.378  1.00  0.00     0.348 HD
ATOM     21  C   UNL A   1      37.884  22.342  25.273  1.00  0.00     0.067 C 
ATOM     22  C   UNL A   1      37.571  23.745  25.723  1.00  0.00     0.067 C 
ENDBRANCH   8  17
ENDBRANCH   7   8
ENDBRANCH   5   7
ENDBRANCH   4   5
ENDBRANCH   3   4
ENDBRANCH   2   3
ENDBRANCH   1   2
BRANCH   1  23
ATOM     23  C   UNL A   1      32.226  29.473  25.496  1.00  0.00     0.202 C 
BRANCH  23  24
ATOM     24  C   UNL A   1      31.867  30.818  26.132  1.00  0.00     0.261 C 
BRANCH  24  25
ATOM     25  O   UNL A   1      32.543  30.955  27.395  1.00  0.00    -0.460 OA
BRANCH  25  26
ATOM     26  C   UNL A   1      33.255  32.095  27.519  1.00  0.00     0.338 C 
ATOM     27  O   UNL A   1      32.817  33.233  27.591  1.00  0.00    -0.246 OA
BRANCH  26  28
ATOM     28  C   UNL A   1      34.656  31.748  27.808  1.00  0.00     0.060 A 
ATOM     29  C   UNL A   1      34.947  30.394  28.003  1.00  0.00     0.016 A 
ATOM     30  C   UNL A   1      35.646  32.719  27.973  1.00  0.00     0.016 A 
ATOM     31  C   UNL A   1      36.213  30.014  28.443  1.00  0.00     0.010 A 
ATOM     32  C   UNL A   1      36.926  32.329  28.400  1.00  0.00     0.010 A 
ATOM     33  C   UNL A   1      37.201  30.980  28.692  1.00  0.00    -0.014 A 
BRANCH  33  34
ATOM     34  C   UNL A   1      38.435  30.554  29.409  1.00  0.00     0.031 A 
ATOM     35  C   UNL A   1      38.642  30.971  30.844  1.00  0.00     0.074 A 
ATOM     36  C   UNL A   1      39.302  29.691  28.844  1.00  0.00     0.049 A 
ATOM     37  N   UNL A   1      39.533  30.552  31.709  1.00  0.00    -0.248 NA
ATOM     38  C   UNL A   1      37.724  31.989  31.377  1.00  0.00     0.031 C 
ATOM     39  C   UNL A   1      39.229  29.195  27.472  1.00  0.00     0.029 A 
ATOM     40  N   UNL A   1      40.400  29.057  29.374  1.00  0.00    -0.354 N 
ATOM     41  C   UNL A   1      39.270  31.239  32.888  1.00  0.00     0.074 A 
ATOM     42  C   UNL A   1      38.174  32.142  32.614  1.00  0.00     0.031 C 
ATOM     43  C   UNL A   1      40.222  28.311  27.275  1.00  0.00     0.029 A 
ATOM     44  C   UNL A   1      41.005  28.183  28.503  1.00  0.00     0.049 A 
ATOM     45  H   UNL A   1      40.724  29.215  30.290  1.00  0.00     0.167 HD
ATOM     46  C   UNL A   1      39.865  31.115  34.099  1.00  0.00     0.037 A 
ATOM     47  C   UNL A   1      42.058  27.360  28.678  1.00  0.00     0.037 A 
ATOM     48  C   UNL A   1      40.952  30.220  34.392  1.00  0.00     0.049 A 
ATOM     49  C   UNL A   1      42.731  27.272  30.022  1.00  0.00     0.074 A 
ATOM     50  C   UNL A   1      41.590  30.007  35.602  1.00  0.00     0.029 A 
ATOM     51  N   UNL A   1      41.567  29.393  33.466  1.00  0.00    -0.354 N 
ATOM     52  N   UNL A   1      42.426  27.876  31.144  1.00  0.00    -0.248 NA
ATOM     53  C   UNL A   1      43.893  26.374  30.125  1.00  0.00     0.031 C 
ATOM     54  C   UNL A   1      42.622  29.084  35.399  1.00  0.00     0.029 A 
ATOM     55  C   UNL A   1      42.596  28.690  34.072  1.00  0.00     0.049 A 
ATOM     56  H   UNL A   1      41.312  29.317  32.518  1.00  0.00     0.167 HD
ATOM     57  C   UNL A   1      43.335  27.413  32.088  1.00  0.00     0.074 A 
ATOM     58  C   UNL A   1      44.194  26.465  31.413  1.00  0.00     0.031 C 
ATOM     59  C   UNL A   1      43.447  27.744  33.398  1.00  0.00     0.037 A 
BRANCH  46  60
ATOM     60  C   UNL A   1      39.347  31.978  35.211  1.00  0.00     0.057 A 
ATOM     61  C   UNL A   1      38.432  31.490  36.153  1.00  0.00     0.134 A 
ATOM     62  C   UNL A   1      39.802  33.292  35.370  1.00  0.00     0.134 A 
ATOM     63  F   UNL A   1      37.949  30.242  36.049  1.00  0.00    -0.206 F 
ATOM     64  C   UNL A   1      37.973  32.286  37.204  1.00  0.00     0.040 A 
ATOM     65  C   UNL A   1      39.370  34.089  36.430  1.00  0.00     0.040 A 
ATOM     66  F   UNL A   1      40.684  33.815  34.505  1.00  0.00    -0.206 F 
ATOM     67  C   UNL A   1      38.448  33.588  37.349  1.00  0.00     0.006 A 
ENDBRANCH  46  60
BRANCH  47  68
ATOM     68  C   UNL A   1      42.541  26.521  27.552  1.00  0.00     0.057 A 
ATOM     69  C   UNL A   1      43.449  27.019  26.610  1.00  0.00     0.134 A 
ATOM     70  C   UNL A   1      42.069  25.216  27.368  1.00  0.00     0.134 A 
ATOM     71  F   UNL A   1      43.916  28.272  26.718  1.00  0.00    -0.206 F 
ATOM     72  C   UNL A   1      43.858  26.256  25.515  1.00  0.00     0.040 A 
ATOM     73  C   UNL A   1      42.486  24.434  26.290  1.00  0.00     0.040 A 
ATOM     74  F   UNL A   1      41.195  24.684  28.234  1.00  0.00    -0.206 F 
ATOM     75  C   UNL A   1      43.376  24.958  25.355  1.00  0.00     0.006 A 
ENDBRANCH  47  68
BRANCH  59  76
ATOM     76  C   UNL A   1      44.519  27.062  34.196  1.00  0.00     0.057 A 
ATOM     77  C   UNL A   1      45.794  27.622  34.351  1.00  0.00     0.134 A 
ATOM     78  C   UNL A   1      44.266  25.847  34.846  1.00  0.00     0.134 A 
ATOM     79  F   UNL A   1      46.106  28.779  33.748  1.00  0.00    -0.206 F 
ATOM     80  C   UNL A   1      46.784  26.987  35.104  1.00  0.00     0.040 A 
ATOM     81  C   UNL A   1      45.239  25.215  35.620  1.00  0.00     0.040 A 
ATOM     82  F   UNL A   1      43.063  25.260  34.747  1.00  0.00    -0.206 F 
ATOM     83  C   UNL A   1      46.505  25.782  35.746  1.00  0.00     0.006 A 
ENDBRANCH  59  76
ENDBRANCH  33  34
ENDBRANCH  26  28
ENDBRANCH  25  26
ENDBRANCH  24  25
ENDBRANCH  23  24
ENDBRANCH   1  23
TORSDOF 16
ENDMDL
MODEL 3
REMARK VINA RESULT:     -10.7      1.087      6.446
REMARK SMILES CC1(C)C[C@](CC(=O)OCCOCCOC(=O)c2ccc(-c3c4nc(c(-c5c(F)cccc5F)c5ccc([nH]5)c(-c5c(F)cccc5F)c5nc(c(-c6c(F)cccc6F)c6ccc3[nH]6)C=C5)C=C4)cc2)([NH+]2CCCC2)C(C)(C)O1
REMARK SMILES IDX 12 1 11 2 10 3 9 4 7 5 8 6 6 7 5 8 1 9 2 10 3 11 4 12 80 13
REMARK SMILES IDX 77 14 78 15 79 16 72 17 73 18 76 19 74 21 75 22 13 23 14 24
REMARK SMILES IDX 15 25 16 26 17 27 18 28 19 29 71 30 20 31 70 32 21 33 22 34
REMARK SMILES IDX 23 35 64 36 24 37 69 38 63 39 65 40 25 41 68 42 62 43 61 44
REMARK SMILES IDX 26 46 52 47 35 48 51 49 36 50 39 51 50 52 66 53 37 54 38 55
REMARK SMILES IDX 49 57 67 58 40 59 27 60 28 61 33 62 29 63 30 64 32 65 34 66
REMARK SMILES IDX 31 67 53 68 54 69 59 70 55 71 56 72 58 73 60 74 57 75 41 76
REMARK SMILES IDX 42 77 47 78 43 79 44 80 46 81 48 82 45 83
REMARK H PARENT 72 20 65 45 39 56
REMARK Flexibility Score: inf
ROOT
ATOM      1  O   UNL A   1      35.073  21.432  26.473  1.00  0.00    -0.374 OA
ENDROOT
BRANCH   1   2
ATOM      2  C   UNL A   1      33.793  21.438  27.102  1.00  0.00     0.202 C 
BRANCH   2   3
ATOM      3  C   UNL A   1      32.676  22.178  26.358  1.00  0.00     0.261 C 
BRANCH   3   4
ATOM      4  O   UNL A   1      32.164  23.356  27.027  1.00  0.00    -0.463 OA
BRANCH   4   5
ATOM      5  C   UNL A   1      31.034  23.876  26.494  1.00  0.00     0.312 C 
ATOM      6  O   UNL A   1      29.924  23.765  27.009  1.00  0.00    -0.252 OA
BRANCH   5   7
ATOM      7  C   UNL A   1      31.176  24.468  25.106  1.00  0.00     0.194 C 
BRANCH   7   8
ATOM      8  C   UNL A   1      32.086  25.668  24.674  1.00  0.00     0.140 C 
ATOM      9  C   UNL A   1      31.742  28.746  26.705  1.00  0.00     0.042 C 
ATOM     10  C   UNL A   1      32.578  27.868  25.760  1.00  0.00     0.070 C 
ATOM     11  C   UNL A   1      34.037  28.342  25.891  1.00  0.00     0.042 C 
ATOM     12  C   UNL A   1      32.419  26.373  26.041  1.00  0.00     0.107 C 
ATOM     13  O   UNL A   1      32.082  28.071  24.420  1.00  0.00    -0.363 OA
ATOM     14  C   UNL A   1      31.367  26.877  23.964  1.00  0.00     0.118 C 
ATOM     15  C   UNL A   1      29.889  27.062  24.366  1.00  0.00     0.049 C 
ATOM     16  C   UNL A   1      31.403  26.895  22.431  1.00  0.00     0.049 C 
BRANCH   8  17
ATOM     17  N   UNL A   1      33.384  25.196  24.096  1.00  0.00    -0.327 N 
ATOM     18  C   UNL A   1      34.461  24.875  25.023  1.00  0.00     0.263 C 
ATOM     19  C   UNL A   1      33.416  24.195  23.022  1.00  0.00     0.263 C 
ATOM     20  H   UNL A   1      33.546  26.098  23.649  1.00  0.00     0.348 HD
ATOM     21  C   UNL A   1      35.466  24.078  24.210  1.00  0.00     0.067 C 
ATOM     22  C   UNL A   1      34.580  23.257  23.312  1.00  0.00     0.067 C 
ENDBRANCH   8  17
ENDBRANCH   7   8
ENDBRANCH   5   7
ENDBRANCH   4   5
ENDBRANCH   3   4
ENDBRANCH   2   3
ENDBRANCH   1   2
BRANCH   1  23
ATOM     23  C   UNL A   1      35.261  20.516  25.397  1.00  0.00     0.202 C 
BRANCH  23  24
ATOM     24  C   UNL A   1      36.723  20.303  24.999  1.00  0.00     0.261 C 
BRANCH  24  25
ATOM     25  O   UNL A   1      37.499  21.461  25.361  1.00  0.00    -0.460 OA
BRANCH  25  26
ATOM     26  C   UNL A   1      38.705  21.172  25.891  1.00  0.00     0.338 C 
ATOM     27  O   UNL A   1      39.344  20.141  25.751  1.00  0.00    -0.246 OA
BRANCH  26  28
ATOM     28  C   UNL A   1      39.270  22.399  26.476  1.00  0.00     0.060 A 
ATOM     29  C   UNL A   1      38.664  23.608  26.122  1.00  0.00     0.016 A 
ATOM     30  C   UNL A   1      40.413  22.386  27.279  1.00  0.00     0.016 A 
ATOM     31  C   UNL A   1      39.247  24.814  26.504  1.00  0.00     0.010 A 
ATOM     32  C   UNL A   1      40.988  23.604  27.676  1.00  0.00     0.010 A 
ATOM     33  C   UNL A   1      40.441  24.826  27.245  1.00  0.00    -0.014 A 
BRANCH  33  34
ATOM     34  C   UNL A   1      41.161  26.121  27.395  1.00  0.00     0.031 A 
ATOM     35  C   UNL A   1      40.525  27.238  28.184  1.00  0.00     0.074 A 
ATOM     36  C   UNL A   1      42.426  26.266  26.955  1.00  0.00     0.049 A 
ATOM     37  N   UNL A   1      41.053  28.361  28.605  1.00  0.00    -0.248 NA
ATOM     38  C   UNL A   1      39.112  27.066  28.554  1.00  0.00     0.031 C 
ATOM     39  C   UNL A   1      43.172  25.274  26.184  1.00  0.00     0.029 A 
ATOM     40  N   UNL A   1      43.315  27.300  27.123  1.00  0.00    -0.354 N 
ATOM     41  C   UNL A   1      40.045  29.017  29.302  1.00  0.00     0.074 A 
ATOM     42  C   UNL A   1      38.859  28.195  29.202  1.00  0.00     0.031 C 
ATOM     43  C   UNL A   1      44.417  25.734  25.971  1.00  0.00     0.029 A 
ATOM     44  C   UNL A   1      44.554  27.056  26.582  1.00  0.00     0.049 A 
ATOM     45  H   UNL A   1      43.085  28.138  27.586  1.00  0.00     0.167 HD
ATOM     46  C   UNL A   1      40.101  30.185  29.987  1.00  0.00     0.037 A 
ATOM     47  C   UNL A   1      45.677  27.801  26.592  1.00  0.00     0.037 A 
ATOM     48  C   UNL A   1      41.272  31.013  30.103  1.00  0.00     0.049 A 
ATOM     49  C   UNL A   1      45.703  29.117  27.324  1.00  0.00     0.074 A 
ATOM     50  C   UNL A   1      41.424  32.194  30.808  1.00  0.00     0.029 A 
ATOM     51  N   UNL A   1      42.488  30.753  29.494  1.00  0.00    -0.354 N 
ATOM     52  N   UNL A   1      44.762  29.688  28.036  1.00  0.00    -0.248 NA
ATOM     53  C   UNL A   1      46.956  29.886  27.263  1.00  0.00     0.031 C 
ATOM     54  C   UNL A   1      42.721  32.673  30.589  1.00  0.00     0.029 A 
ATOM     55  C   UNL A   1      43.388  31.766  29.784  1.00  0.00     0.049 A 
ATOM     56  H   UNL A   1      42.685  29.965  28.937  1.00  0.00     0.167 HD
ATOM     57  C   UNL A   1      45.317  30.865  28.528  1.00  0.00     0.074 A 
ATOM     58  C   UNL A   1      46.680  30.919  28.047  1.00  0.00     0.031 C 
ATOM     59  C   UNL A   1      44.746  31.814  29.308  1.00  0.00     0.037 A 
BRANCH  46  60
ATOM     60  C   UNL A   1      38.848  30.640  30.674  1.00  0.00     0.057 A 
ATOM     61  C   UNL A   1      37.890  31.419  30.014  1.00  0.00     0.134 A 
ATOM     62  C   UNL A   1      38.575  30.256  31.992  1.00  0.00     0.134 A 
ATOM     63  F   UNL A   1      38.098  31.829  28.754  1.00  0.00    -0.206 F 
ATOM     64  C   UNL A   1      36.712  31.817  30.647  1.00  0.00     0.040 A 
ATOM     65  C   UNL A   1      37.390  30.627  32.629  1.00  0.00     0.040 A 
ATOM     66  F   UNL A   1      39.450  29.504  32.677  1.00  0.00    -0.206 F 
ATOM     67  C   UNL A   1      36.456  31.414  31.956  1.00  0.00     0.006 A 
ENDBRANCH  46  60
BRANCH  47  68
ATOM     68  C   UNL A   1      46.898  27.315  25.900  1.00  0.00     0.057 A 
ATOM     69  C   UNL A   1      47.095  27.532  24.532  1.00  0.00     0.134 A 
ATOM     70  C   UNL A   1      47.874  26.583  26.586  1.00  0.00     0.134 A 
ATOM     71  F   UNL A   1      46.181  28.203  23.816  1.00  0.00    -0.206 F 
ATOM     72  C   UNL A   1      48.210  27.022  23.864  1.00  0.00     0.040 A 
ATOM     73  C   UNL A   1      49.006  26.086  25.937  1.00  0.00     0.040 A 
ATOM     74  F   UNL A   1      47.741  26.339  27.898  1.00  0.00    -0.206 F 
ATOM     75  C   UNL A   1      49.171  26.299  24.570  1.00  0.00     0.006 A 
ENDBRANCH  47  68
BRANCH  59  76
ATOM     76  C   UNL A   1      45.596  32.983  29.712  1.00  0.00     0.057 A 
ATOM     77  C   UNL A   1      46.416  32.942  30.848  1.00  0.00     0.134 A 
ATOM     78  C   UNL A   1      45.623  34.152  28.941  1.00  0.00     0.134 A 
ATOM     79  F   UNL A   1      46.431  31.857  31.637  1.00  0.00    -0.206 F 
ATOM     80  C   UNL A   1      47.212  34.029  31.214  1.00  0.00     0.040 A 
ATOM     81  C   UNL A   1      46.432  35.236  29.282  1.00  0.00     0.040 A 
ATOM     82  F   UNL A   1      44.869  34.255  27.835  1.00  0.00    -0.206 F 
ATOM     83  C   UNL A   1      47.225  35.179  30.426  1.00  0.00     0.006 A 
ENDBRANCH  59  76
ENDBRANCH  33  34
ENDBRANCH  26  28
ENDBRANCH  25  26
ENDBRANCH  24  25
ENDBRANCH  23  24
ENDBRANCH   1  23
TORSDOF 16
ENDMDL
