MODEL 1
REMARK VINA RESULT:     -11.9      0.000      0.000
REMARK SMILES O=C(OCCOCCOC(=O)c1cc(N2C(=O)[C@H]3[C@@H]4C=C[C@@H]([C@@H]5C[C@H]45)[C@@H]3C2=O)ccc1Cl)c1ccc(-c2c3nc(c(-c4c(F)cccc4F)c4ccc([nH]4)c(-c4c(F)cccc4F)c4nc(c(-c5c(F)cccc5F)c5ccc2[nH]5)C=C4)C=C3)cc1
REMARK SMILES IDX 5 1 4 2 3 3 2 4 1 5 33 6 34 7 86 8 35 9 85 10 36 11 37 12
REMARK SMILES IDX 38 13 79 14 39 15 84 16 78 17 80 18 40 19 83 20 77 21 76 22
REMARK SMILES IDX 41 24 67 25 50 26 66 27 51 28 54 29 65 30 81 31 52 32 53 33
REMARK SMILES IDX 64 35 82 36 55 37 42 38 43 39 48 40 44 41 45 42 47 43 49 44
REMARK SMILES IDX 46 45 68 46 69 47 74 48 70 49 71 50 73 51 75 52 72 53 56 54
REMARK SMILES IDX 57 55 62 56 58 57 59 58 61 59 63 60 60 61 6 62 7 63 8 64
REMARK SMILES IDX 9 65 10 66 11 67 12 68 13 69 31 70 14 71 30 72 32 73 29 74
REMARK SMILES IDX 15 75 16 76 27 77 17 78 18 79 26 80 28 81 19 82 22 83 20 84
REMARK SMILES IDX 25 85 21 86 23 87 24 88
REMARK H PARENT 80 23 54 34
REMARK Flexibility Score: inf
ROOT
ATOM      1  C   UNL A   1      38.123  20.011  24.741  1.00  0.00     0.202 C 
ENDROOT
BRANCH   1   2
ATOM      2  C   UNL A   1      38.915  19.216  25.783  1.00  0.00     0.261 C 
BRANCH   2   3
ATOM      3  O   UNL A   1      40.295  19.099  25.392  1.00  0.00    -0.460 OA
BRANCH   3   4
ATOM      4  C   UNL A   1      41.404  19.403  26.106  1.00  0.00     0.338 C 
ATOM      5  O   UNL A   1      42.222  18.513  26.331  1.00  0.00    -0.246 OA
BRANCH   4   6
ATOM      6  C   UNL A   1      41.691  20.765  26.654  1.00  0.00     0.060 A 
ATOM      7  C   UNL A   1      41.738  21.079  28.010  1.00  0.00     0.016 A 
ATOM      8  C   UNL A   1      42.038  21.771  25.734  1.00  0.00     0.016 A 
ATOM      9  C   UNL A   1      42.066  22.349  28.452  1.00  0.00     0.010 A 
ATOM     10  C   UNL A   1      42.416  23.046  26.171  1.00  0.00     0.010 A 
ATOM     11  C   UNL A   1      42.424  23.335  27.539  1.00  0.00    -0.014 A 
BRANCH  11  12
ATOM     12  C   UNL A   1      42.736  24.668  28.078  1.00  0.00     0.031 A 
ATOM     13  C   UNL A   1      44.169  25.062  28.230  1.00  0.00     0.074 A 
ATOM     14  C   UNL A   1      41.734  25.550  28.248  1.00  0.00     0.049 A 
ATOM     15  N   UNL A   1      44.675  26.187  28.654  1.00  0.00    -0.248 NA
ATOM     16  C   UNL A   1      45.172  24.060  27.827  1.00  0.00     0.031 C 
ATOM     17  C   UNL A   1      40.316  25.275  27.991  1.00  0.00     0.029 A 
ATOM     18  N   UNL A   1      41.751  26.865  28.626  1.00  0.00    -0.354 N 
ATOM     19  C   UNL A   1      46.051  26.027  28.583  1.00  0.00     0.074 A 
ATOM     20  C   UNL A   1      46.305  24.695  28.084  1.00  0.00     0.031 C 
ATOM     21  C   UNL A   1      39.607  26.396  28.191  1.00  0.00     0.029 A 
ATOM     22  C   UNL A   1      40.507  27.445  28.655  1.00  0.00     0.049 A 
ATOM     23  H   UNL A   1      42.578  27.349  28.857  1.00  0.00     0.167 HD
ATOM     24  C   UNL A   1      47.011  26.921  28.914  1.00  0.00     0.037 A 
ATOM     25  C   UNL A   1      40.141  28.679  29.047  1.00  0.00     0.037 A 
ATOM     26  C   UNL A   1      46.722  28.236  29.418  1.00  0.00     0.049 A 
ATOM     27  C   UNL A   1      41.225  29.613  29.513  1.00  0.00     0.074 A 
ATOM     28  C   UNL A   1      47.598  29.202  29.873  1.00  0.00     0.029 A 
ATOM     29  N   UNL A   1      45.442  28.766  29.527  1.00  0.00    -0.354 N 
ATOM     30  N   UNL A   1      42.525  29.429  29.522  1.00  0.00    -0.248 NA
ATOM     31  C   UNL A   1      40.796  30.912  30.042  1.00  0.00     0.031 C 
ATOM     32  C   UNL A   1      46.844  30.304  30.295  1.00  0.00     0.029 A 
ATOM     33  C   UNL A   1      45.503  30.041  30.058  1.00  0.00     0.049 A 
ATOM     34  H   UNL A   1      44.614  28.301  29.265  1.00  0.00     0.167 HD
ATOM     35  C   UNL A   1      43.070  30.591  30.047  1.00  0.00     0.074 A 
ATOM     36  C   UNL A   1      41.960  31.484  30.315  1.00  0.00     0.031 C 
ATOM     37  C   UNL A   1      44.367  30.896  30.301  1.00  0.00     0.037 A 
BRANCH  24  38
ATOM     38  C   UNL A   1      48.434  26.465  28.804  1.00  0.00     0.057 A 
ATOM     39  C   UNL A   1      49.090  25.808  29.854  1.00  0.00     0.134 A 
ATOM     40  C   UNL A   1      49.169  26.716  27.639  1.00  0.00     0.134 A 
ATOM     41  F   UNL A   1      48.453  25.566  31.008  1.00  0.00    -0.206 F 
ATOM     42  C   UNL A   1      50.432  25.434  29.754  1.00  0.00     0.040 A 
ATOM     43  C   UNL A   1      50.504  26.329  27.520  1.00  0.00     0.040 A 
ATOM     44  F   UNL A   1      48.604  27.351  26.601  1.00  0.00    -0.206 F 
ATOM     45  C   UNL A   1      51.142  25.692  28.583  1.00  0.00     0.006 A 
ENDBRANCH  24  38
BRANCH  25  46
ATOM     46  C   UNL A   1      38.708  29.075  29.083  1.00  0.00     0.057 A 
ATOM     47  C   UNL A   1      38.064  29.609  27.961  1.00  0.00     0.134 A 
ATOM     48  C   UNL A   1      37.956  28.970  30.261  1.00  0.00     0.134 A 
ATOM     49  F   UNL A   1      38.729  29.758  26.807  1.00  0.00    -0.206 F 
ATOM     50  C   UNL A   1      36.736  30.043  28.015  1.00  0.00     0.040 A 
ATOM     51  C   UNL A   1      36.621  29.371  30.322  1.00  0.00     0.040 A 
ATOM     52  F   UNL A   1      38.510  28.470  31.377  1.00  0.00    -0.206 F 
ATOM     53  C   UNL A   1      36.010  29.921  29.198  1.00  0.00     0.006 A 
ENDBRANCH  25  46
BRANCH  37  54
ATOM     54  C   UNL A   1      44.636  32.254  30.870  1.00  0.00     0.057 A 
ATOM     55  C   UNL A   1      44.696  32.474  32.252  1.00  0.00     0.134 A 
ATOM     56  C   UNL A   1      44.867  33.346  30.026  1.00  0.00     0.134 A 
ATOM     57  F   UNL A   1      44.468  31.468  33.111  1.00  0.00    -0.206 F 
ATOM     58  C   UNL A   1      44.952  33.741  32.775  1.00  0.00     0.040 A 
ATOM     59  C   UNL A   1      45.152  34.611  30.536  1.00  0.00     0.040 A 
ATOM     60  F   UNL A   1      44.831  33.196  28.693  1.00  0.00    -0.206 F 
ATOM     61  C   UNL A   1      45.188  34.812  31.915  1.00  0.00     0.006 A 
ENDBRANCH  37  54
ENDBRANCH  11  12
ENDBRANCH   4   6
ENDBRANCH   3   4
ENDBRANCH   2   3
ENDBRANCH   1   2
BRANCH   1  62
ATOM     62  O   UNL A   1      37.793  21.344  25.137  1.00  0.00    -0.374 OA
BRANCH  62  63
ATOM     63  C   UNL A   1      36.391  21.625  25.243  1.00  0.00     0.202 C 
BRANCH  63  64
ATOM     64  C   UNL A   1      35.601  20.335  25.025  1.00  0.00     0.261 C 
BRANCH  64  65
ATOM     65  O   UNL A   1      34.472  20.366  25.909  1.00  0.00    -0.460 OA
BRANCH  65  66
ATOM     66  C   UNL A   1      33.275  20.070  25.347  1.00  0.00     0.339 C 
ATOM     67  O   UNL A   1      32.631  19.040  25.458  1.00  0.00    -0.246 OA
BRANCH  66  68
ATOM     68  C   UNL A   1      32.729  21.315  24.783  1.00  0.00     0.080 A 
ATOM     69  C   UNL A   1      32.789  22.460  25.605  1.00  0.00     0.044 A 
ATOM     70  C   UNL A   1      32.251  21.406  23.471  1.00  0.00     0.055 A 
ATOM     71  C   UNL A   1      32.395  23.693  25.095  1.00  0.00     0.053 A 
ATOM     72  C   UNL A   1      31.860  22.646  22.968  1.00  0.00     0.023 A 
ATOM     73  Cl  UNL A   1      32.081  20.043  22.423  1.00  0.00    -0.083 Cl
ATOM     74  C   UNL A   1      31.932  23.781  23.774  1.00  0.00     0.028 A 
BRANCH  71  75
ATOM     75  N   UNL A   1      32.531  24.882  25.841  1.00  0.00    -0.250 N 
ATOM     76  C   UNL A   1      33.693  25.674  25.717  1.00  0.00     0.238 C 
ATOM     77  C   UNL A   1      31.397  25.668  26.135  1.00  0.00     0.238 C 
ATOM     78  O   UNL A   1      34.783  25.382  25.258  1.00  0.00    -0.274 OA
ATOM     79  C   UNL A   1      33.284  26.999  26.288  1.00  0.00     0.100 C 
ATOM     80  C   UNL A   1      31.851  27.031  25.752  1.00  0.00     0.100 C 
ATOM     81  O   UNL A   1      30.260  25.320  26.393  1.00  0.00    -0.274 OA
ATOM     82  C   UNL A   1      33.901  28.403  26.144  1.00  0.00     0.028 C 
ATOM     83  C   UNL A   1      31.290  28.439  25.866  1.00  0.00     0.028 C 
ATOM     84  C   UNL A   1      33.142  29.142  27.278  1.00  0.00    -0.026 C 
ATOM     85  C   UNL A   1      33.517  29.181  24.871  1.00  0.00     0.001 C 
ATOM     86  C   UNL A   1      31.795  29.103  27.155  1.00  0.00    -0.026 C 
ATOM     87  C   UNL A   1      31.990  29.223  24.696  1.00  0.00     0.001 C 
ATOM     88  C   UNL A   1      32.905  28.651  23.609  1.00  0.00     0.009 C 
ENDBRANCH  71  75
ENDBRANCH  66  68
ENDBRANCH  65  66
ENDBRANCH  64  65
ENDBRANCH  63  64
ENDBRANCH  62  63
ENDBRANCH   1  62
TORSDOF 15
ENDMDL
MODEL 2
REMARK VINA RESULT:     -11.9      1.193      2.064
REMARK SMILES O=C(OCCOCCOC(=O)c1cc(N2C(=O)[C@H]3[C@@H]4C=C[C@@H]([C@@H]5C[C@H]45)[C@@H]3C2=O)ccc1Cl)c1ccc(-c2c3nc(c(-c4c(F)cccc4F)c4ccc([nH]4)c(-c4c(F)cccc4F)c4nc(c(-c5c(F)cccc5F)c5ccc2[nH]5)C=C4)C=C3)cc1
REMARK SMILES IDX 5 1 4 2 3 3 2 4 1 5 33 6 34 7 86 8 35 9 85 10 36 11 37 12
REMARK SMILES IDX 38 13 79 14 39 15 84 16 78 17 80 18 40 19 83 20 77 21 76 22
REMARK SMILES IDX 41 24 67 25 50 26 66 27 51 28 54 29 65 30 81 31 52 32 53 33
REMARK SMILES IDX 64 35 82 36 55 37 42 38 43 39 48 40 44 41 45 42 47 43 49 44
REMARK SMILES IDX 46 45 68 46 69 47 74 48 70 49 71 50 73 51 75 52 72 53 56 54
REMARK SMILES IDX 57 55 62 56 58 57 59 58 61 59 63 60 60 61 6 62 7 63 8 64
REMARK SMILES IDX 9 65 10 66 11 67 12 68 13 69 31 70 14 71 30 72 32 73 29 74
REMARK SMILES IDX 15 75 16 76 27 77 17 78 18 79 26 80 28 81 19 82 22 83 20 84
REMARK SMILES IDX 25 85 21 86 23 87 24 88
REMARK H PARENT 80 23 54 34
REMARK Flexibility Score: inf
ROOT
ATOM      1  C   UNL A   1      38.207  19.221  24.887  1.00  0.00     0.202 C 
ENDROOT
BRANCH   1   2
ATOM      2  C   UNL A   1      39.278  19.525  25.940  1.00  0.00     0.261 C 
BRANCH   2   3
ATOM      3  O   UNL A   1      40.507  18.847  25.625  1.00  0.00    -0.460 OA
BRANCH   3   4
ATOM      4  C   UNL A   1      41.773  19.203  25.942  1.00  0.00     0.338 C 
ATOM      5  O   UNL A   1      42.658  18.351  25.884  1.00  0.00    -0.246 OA
BRANCH   4   6
ATOM      6  C   UNL A   1      42.165  20.581  26.372  1.00  0.00     0.060 A 
ATOM      7  C   UNL A   1      42.362  21.655  25.507  1.00  0.00     0.016 A 
ATOM      8  C   UNL A   1      42.236  20.830  27.755  1.00  0.00     0.016 A 
ATOM      9  C   UNL A   1      42.668  22.921  25.975  1.00  0.00     0.010 A 
ATOM     10  C   UNL A   1      42.499  22.115  28.241  1.00  0.00     0.010 A 
ATOM     11  C   UNL A   1      42.722  23.164  27.344  1.00  0.00    -0.014 A 
BRANCH  11  12
ATOM     12  C   UNL A   1      43.077  24.527  27.769  1.00  0.00     0.031 A 
ATOM     13  C   UNL A   1      44.501  24.964  27.655  1.00  0.00     0.074 A 
ATOM     14  C   UNL A   1      42.090  25.389  28.076  1.00  0.00     0.049 A 
ATOM     15  N   UNL A   1      45.035  26.120  27.941  1.00  0.00    -0.248 NA
ATOM     16  C   UNL A   1      45.453  23.972  27.123  1.00  0.00     0.031 C 
ATOM     17  C   UNL A   1      40.660  25.066  28.080  1.00  0.00     0.029 A 
ATOM     18  N   UNL A   1      42.129  26.719  28.395  1.00  0.00    -0.354 N 
ATOM     19  C   UNL A   1      46.383  25.992  27.639  1.00  0.00     0.074 A 
ATOM     20  C   UNL A   1      46.591  24.647  27.155  1.00  0.00     0.031 C 
ATOM     21  C   UNL A   1      39.959  26.176  28.356  1.00  0.00     0.029 A 
ATOM     22  C   UNL A   1      40.890  27.268  28.616  1.00  0.00     0.049 A 
ATOM     23  H   UNL A   1      42.967  27.234  28.460  1.00  0.00     0.167 HD
ATOM     24  C   UNL A   1      47.355  26.925  27.764  1.00  0.00     0.037 A 
ATOM     25  C   UNL A   1      40.556  28.508  29.017  1.00  0.00     0.037 A 
ATOM     26  C   UNL A   1      47.114  28.253  28.259  1.00  0.00     0.049 A 
ATOM     27  C   UNL A   1      41.672  29.489  29.253  1.00  0.00     0.074 A 
ATOM     28  C   UNL A   1      48.023  29.260  28.517  1.00  0.00     0.029 A 
ATOM     29  N   UNL A   1      45.855  28.753  28.567  1.00  0.00    -0.354 N 
ATOM     30  N   UNL A   1      42.960  29.340  29.043  1.00  0.00    -0.248 NA
ATOM     31  C   UNL A   1      41.298  30.798  29.797  1.00  0.00     0.031 C 
ATOM     32  C   UNL A   1      47.316  30.359  29.020  1.00  0.00     0.029 A 
ATOM     33  C   UNL A   1      45.964  30.052  29.030  1.00  0.00     0.049 A 
ATOM     34  H   UNL A   1      45.010  28.256  28.471  1.00  0.00     0.167 HD
ATOM     35  C   UNL A   1      43.549  30.537  29.420  1.00  0.00     0.074 A 
ATOM     36  C   UNL A   1      42.472  31.412  29.841  1.00  0.00     0.031 C 
ATOM     37  C   UNL A   1      44.859  30.887  29.433  1.00  0.00     0.037 A 
BRANCH  24  38
ATOM     38  C   UNL A   1      48.753  26.502  27.426  1.00  0.00     0.057 A 
ATOM     39  C   UNL A   1      49.304  26.698  26.153  1.00  0.00     0.134 A 
ATOM     40  C   UNL A   1      49.548  25.860  28.383  1.00  0.00     0.134 A 
ATOM     41  F   UNL A   1      48.584  27.279  25.182  1.00  0.00    -0.206 F 
ATOM     42  C   UNL A   1      50.590  26.253  25.840  1.00  0.00     0.040 A 
ATOM     43  C   UNL A   1      50.842  25.429  28.088  1.00  0.00     0.040 A 
ATOM     44  F   UNL A   1      49.076  25.631  29.618  1.00  0.00    -0.206 F 
ATOM     45  C   UNL A   1      51.364  25.619  26.810  1.00  0.00     0.006 A 
ENDBRANCH  24  38
BRANCH  25  46
ATOM     46  C   UNL A   1      39.139  28.868  29.286  1.00  0.00     0.057 A 
ATOM     47  C   UNL A   1      38.329  29.452  28.305  1.00  0.00     0.134 A 
ATOM     48  C   UNL A   1      38.569  28.675  30.552  1.00  0.00     0.134 A 
ATOM     49  F   UNL A   1      38.816  29.685  27.078  1.00  0.00    -0.206 F 
ATOM     50  C   UNL A   1      37.018  29.851  28.578  1.00  0.00     0.040 A 
ATOM     51  C   UNL A   1      37.251  29.040  30.832  1.00  0.00     0.040 A 
ATOM     52  F   UNL A   1      39.287  28.122  31.542  1.00  0.00    -0.206 F 
ATOM     53  C   UNL A   1      36.475  29.642  29.845  1.00  0.00     0.006 A 
ENDBRANCH  25  46
BRANCH  37  54
ATOM     54  C   UNL A   1      45.177  32.275  29.894  1.00  0.00     0.057 A 
ATOM     55  C   UNL A   1      45.488  32.553  31.231  1.00  0.00     0.134 A 
ATOM     56  C   UNL A   1      45.201  33.338  28.984  1.00  0.00     0.134 A 
ATOM     57  F   UNL A   1      45.465  31.576  32.151  1.00  0.00    -0.206 F 
ATOM     58  C   UNL A   1      45.788  33.848  31.652  1.00  0.00     0.040 A 
ATOM     59  C   UNL A   1      45.527  34.632  29.388  1.00  0.00     0.040 A 
ATOM     60  F   UNL A   1      44.921  33.133  27.688  1.00  0.00    -0.206 F 
ATOM     61  C   UNL A   1      45.814  34.890  30.727  1.00  0.00     0.006 A 
ENDBRANCH  37  54
ENDBRANCH  11  12
ENDBRANCH   4   6
ENDBRANCH   3   4
ENDBRANCH   2   3
ENDBRANCH   1   2
BRANCH   1  62
ATOM     62  O   UNL A   1      37.338  20.318  24.591  1.00  0.00    -0.374 OA
BRANCH  62  63
ATOM     63  C   UNL A   1      37.671  21.556  25.232  1.00  0.00     0.202 C 
BRANCH  63  64
ATOM     64  C   UNL A   1      36.412  22.155  25.857  1.00  0.00     0.261 C 
BRANCH  64  65
ATOM     65  O   UNL A   1      35.501  21.076  26.109  1.00  0.00    -0.460 OA
BRANCH  65  66
ATOM     66  C   UNL A   1      34.267  21.434  26.538  1.00  0.00     0.339 C 
ATOM     67  O   UNL A   1      33.930  21.753  27.667  1.00  0.00    -0.246 OA
BRANCH  66  68
ATOM     68  C   UNL A   1      33.427  21.643  25.347  1.00  0.00     0.080 A 
ATOM     69  C   UNL A   1      33.079  22.976  25.046  1.00  0.00     0.044 A 
ATOM     70  C   UNL A   1      33.053  20.600  24.492  1.00  0.00     0.055 A 
ATOM     71  C   UNL A   1      32.382  23.257  23.876  1.00  0.00     0.053 A 
ATOM     72  C   UNL A   1      32.357  20.891  23.320  1.00  0.00     0.023 A 
ATOM     73  Cl  UNL A   1      33.380  18.936  24.821  1.00  0.00    -0.083 Cl
ATOM     74  C   UNL A   1      32.024  22.209  23.014  1.00  0.00     0.028 A 
BRANCH  71  75
ATOM     75  N   UNL A   1      32.099  24.581  23.479  1.00  0.00    -0.250 N 
ATOM     76  C   UNL A   1      31.176  25.363  24.206  1.00  0.00     0.238 C 
ATOM     77  C   UNL A   1      33.109  25.376  22.899  1.00  0.00     0.238 C 
ATOM     78  O   UNL A   1      30.326  25.013  25.006  1.00  0.00    -0.274 OA
ATOM     79  C   UNL A   1      31.476  26.766  23.769  1.00  0.00     0.100 C 
ATOM     80  C   UNL A   1      32.998  26.640  23.674  1.00  0.00     0.100 C 
ATOM     81  O   UNL A   1      34.008  25.058  22.144  1.00  0.00    -0.274 OA
ATOM     82  C   UNL A   1      31.126  28.125  24.403  1.00  0.00     0.028 C 
ATOM     83  C   UNL A   1      33.625  28.023  23.600  1.00  0.00     0.028 C 
ATOM     84  C   UNL A   1      31.459  29.065  23.214  1.00  0.00    -0.026 C 
ATOM     85  C   UNL A   1      32.062  28.604  25.530  1.00  0.00     0.001 C 
ATOM     86  C   UNL A   1      32.734  28.960  22.771  1.00  0.00    -0.026 C 
ATOM     87  C   UNL A   1      33.530  28.562  25.075  1.00  0.00     0.001 C 
ATOM     88  C   UNL A   1      33.055  27.801  26.316  1.00  0.00     0.009 C 
ENDBRANCH  71  75
ENDBRANCH  66  68
ENDBRANCH  65  66
ENDBRANCH  64  65
ENDBRANCH  63  64
ENDBRANCH  62  63
ENDBRANCH   1  62
TORSDOF 15
ENDMDL
MODEL 3
REMARK VINA RESULT:     -11.8      4.142      7.874
REMARK SMILES O=C(OCCOCCOC(=O)c1cc(N2C(=O)[C@H]3[C@@H]4C=C[C@@H]([C@@H]5C[C@H]45)[C@@H]3C2=O)ccc1Cl)c1ccc(-c2c3nc(c(-c4c(F)cccc4F)c4ccc([nH]4)c(-c4c(F)cccc4F)c4nc(c(-c5c(F)cccc5F)c5ccc2[nH]5)C=C4)C=C3)cc1
REMARK SMILES IDX 5 1 4 2 3 3 2 4 1 5 33 6 34 7 86 8 35 9 85 10 36 11 37 12
REMARK SMILES IDX 38 13 79 14 39 15 84 16 78 17 80 18 40 19 83 20 77 21 76 22
REMARK SMILES IDX 41 24 67 25 50 26 66 27 51 28 54 29 65 30 81 31 52 32 53 33
REMARK SMILES IDX 64 35 82 36 55 37 42 38 43 39 48 40 44 41 45 42 47 43 49 44
REMARK SMILES IDX 46 45 68 46 69 47 74 48 70 49 71 50 73 51 75 52 72 53 56 54
REMARK SMILES IDX 57 55 62 56 58 57 59 58 61 59 63 60 60 61 6 62 7 63 8 64
REMARK SMILES IDX 9 65 10 66 11 67 12 68 13 69 31 70 14 71 30 72 32 73 29 74
REMARK SMILES IDX 15 75 16 76 27 77 17 78 18 79 26 80 28 81 19 82 22 83 20 84
REMARK SMILES IDX 25 85 21 86 23 87 24 88
REMARK H PARENT 80 23 54 34
REMARK Flexibility Score: inf
ROOT
ATOM      1  C   UNL A   1      38.728  21.834  25.813  1.00  0.00     0.202 C 
ENDROOT
BRANCH   1   2
ATOM      2  C   UNL A   1      38.145  23.215  26.125  1.00  0.00     0.261 C 
BRANCH   2   3
ATOM      3  O   UNL A   1      39.082  24.252  25.782  1.00  0.00    -0.460 OA
BRANCH   3   4
ATOM      4  C   UNL A   1      40.158  24.682  26.480  1.00  0.00     0.338 C 
ATOM      5  O   UNL A   1      41.254  24.175  26.246  1.00  0.00    -0.246 OA
BRANCH   4   6
ATOM      6  C   UNL A   1      40.094  25.738  27.537  1.00  0.00     0.060 A 
ATOM      7  C   UNL A   1      39.271  25.686  28.660  1.00  0.00     0.016 A 
ATOM      8  C   UNL A   1      41.002  26.807  27.439  1.00  0.00     0.016 A 
ATOM      9  C   UNL A   1      39.300  26.671  29.631  1.00  0.00     0.010 A 
ATOM     10  C   UNL A   1      41.074  27.785  28.438  1.00  0.00     0.010 A 
ATOM     11  C   UNL A   1      40.213  27.717  29.537  1.00  0.00    -0.014 A 
BRANCH  11  12
ATOM     12  C   UNL A   1      40.171  28.741  30.592  1.00  0.00     0.031 A 
ATOM     13  C   UNL A   1      39.147  29.825  30.498  1.00  0.00     0.074 A 
ATOM     14  C   UNL A   1      40.928  28.571  31.692  1.00  0.00     0.049 A 
ATOM     15  N   UNL A   1      38.908  30.809  31.320  1.00  0.00    -0.248 NA
ATOM     16  C   UNL A   1      38.252  29.783  29.327  1.00  0.00     0.031 C 
ATOM     17  C   UNL A   1      41.858  27.459  31.911  1.00  0.00     0.029 A 
ATOM     18  N   UNL A   1      41.004  29.298  32.848  1.00  0.00    -0.354 N 
ATOM     19  C   UNL A   1      37.849  31.511  30.764  1.00  0.00     0.074 A 
ATOM     20  C   UNL A   1      37.492  30.849  29.530  1.00  0.00     0.031 C 
ATOM     21  C   UNL A   1      42.386  27.563  33.140  1.00  0.00     0.029 A 
ATOM     22  C   UNL A   1      41.887  28.782  33.765  1.00  0.00     0.049 A 
ATOM     23  H   UNL A   1      40.476  30.115  33.008  1.00  0.00     0.167 HD
ATOM     24  C   UNL A   1      37.238  32.616  31.249  1.00  0.00     0.037 A 
ATOM     25  C   UNL A   1      42.269  29.267  34.960  1.00  0.00     0.037 A 
ATOM     26  C   UNL A   1      37.625  33.256  32.477  1.00  0.00     0.049 A 
ATOM     27  C   UNL A   1      41.648  30.558  35.420  1.00  0.00     0.074 A 
ATOM     28  C   UNL A   1      37.148  34.426  33.033  1.00  0.00     0.029 A 
ATOM     29  N   UNL A   1      38.592  32.761  33.343  1.00  0.00    -0.354 N 
ATOM     30  N   UNL A   1      40.700  31.266  34.852  1.00  0.00    -0.248 NA
ATOM     31  C   UNL A   1      42.158  31.129  36.671  1.00  0.00     0.031 C 
ATOM     32  C   UNL A   1      37.856  34.662  34.217  1.00  0.00     0.029 A 
ATOM     33  C   UNL A   1      38.740  33.612  34.422  1.00  0.00     0.049 A 
ATOM     34  H   UNL A   1      39.099  31.927  33.207  1.00  0.00     0.167 HD
ATOM     35  C   UNL A   1      40.493  32.360  35.679  1.00  0.00     0.074 A 
ATOM     36  C   UNL A   1      41.394  32.203  36.804  1.00  0.00     0.031 C 
ATOM     37  C   UNL A   1      39.648  33.410  35.524  1.00  0.00     0.037 A 
BRANCH  24  38
ATOM     38  C   UNL A   1      36.152  33.218  30.410  1.00  0.00     0.057 A 
ATOM     39  C   UNL A   1      36.429  33.982  29.268  1.00  0.00     0.134 A 
ATOM     40  C   UNL A   1      34.808  33.056  30.768  1.00  0.00     0.134 A 
ATOM     41  F   UNL A   1      37.697  34.202  28.888  1.00  0.00    -0.206 F 
ATOM     42  C   UNL A   1      35.409  34.579  28.525  1.00  0.00     0.040 A 
ATOM     43  C   UNL A   1      33.778  33.630  30.021  1.00  0.00     0.040 A 
ATOM     44  F   UNL A   1      34.475  32.346  31.856  1.00  0.00    -0.206 F 
ATOM     45  C   UNL A   1      34.078  34.401  28.900  1.00  0.00     0.006 A 
ENDBRANCH  24  38
BRANCH  25  46
ATOM     46  C   UNL A   1      43.320  28.585  35.760  1.00  0.00     0.057 A 
ATOM     47  C   UNL A   1      44.672  28.934  35.650  1.00  0.00     0.134 A 
ATOM     48  C   UNL A   1      43.002  27.530  36.627  1.00  0.00     0.134 A 
ATOM     49  F   UNL A   1      45.050  29.919  34.824  1.00  0.00    -0.206 F 
ATOM     50  C   UNL A   1      45.666  28.247  36.352  1.00  0.00     0.040 A 
ATOM     51  C   UNL A   1      43.981  26.855  37.358  1.00  0.00     0.040 A 
ATOM     52  F   UNL A   1      41.727  27.139  36.780  1.00  0.00    -0.206 F 
ATOM     53  C   UNL A   1      45.320  27.206  37.212  1.00  0.00     0.006 A 
ENDBRANCH  25  46
BRANCH  37  54
ATOM     54  C   UNL A   1      39.654  34.439  36.611  1.00  0.00     0.057 A 
ATOM     55  C   UNL A   1      38.887  34.286  37.773  1.00  0.00     0.134 A 
ATOM     56  C   UNL A   1      40.459  35.579  36.506  1.00  0.00     0.134 A 
ATOM     57  F   UNL A   1      38.084  33.221  37.921  1.00  0.00    -0.206 F 
ATOM     58  C   UNL A   1      38.901  35.247  38.783  1.00  0.00     0.040 A 
ATOM     59  C   UNL A   1      40.503  36.532  37.522  1.00  0.00     0.040 A 
ATOM     60  F   UNL A   1      41.223  35.777  35.421  1.00  0.00    -0.206 F 
ATOM     61  C   UNL A   1      39.717  36.370  38.661  1.00  0.00     0.006 A 
ENDBRANCH  37  54
ENDBRANCH  11  12
ENDBRANCH   4   6
ENDBRANCH   3   4
ENDBRANCH   2   3
ENDBRANCH   1   2
BRANCH   1  62
ATOM     62  O   UNL A   1      37.819  20.936  25.170  1.00  0.00    -0.374 OA
BRANCH  62  63
ATOM     63  C   UNL A   1      36.464  21.395  25.080  1.00  0.00     0.202 C 
BRANCH  63  64
ATOM     64  C   UNL A   1      35.535  20.194  24.911  1.00  0.00     0.261 C 
BRANCH  64  65
ATOM     65  O   UNL A   1      34.479  20.328  25.872  1.00  0.00    -0.460 OA
BRANCH  65  66
ATOM     66  C   UNL A   1      33.228  20.085  25.411  1.00  0.00     0.339 C 
ATOM     67  O   UNL A   1      32.528  19.109  25.624  1.00  0.00    -0.246 OA
BRANCH  66  68
ATOM     68  C   UNL A   1      32.726  21.334  24.815  1.00  0.00     0.080 A 
ATOM     69  C   UNL A   1      32.771  22.485  25.628  1.00  0.00     0.044 A 
ATOM     70  C   UNL A   1      32.302  21.419  23.483  1.00  0.00     0.055 A 
ATOM     71  C   UNL A   1      32.418  23.719  25.093  1.00  0.00     0.053 A 
ATOM     72  C   UNL A   1      31.952  22.661  22.955  1.00  0.00     0.023 A 
ATOM     73  Cl  UNL A   1      32.152  20.050  22.441  1.00  0.00    -0.083 Cl
ATOM     74  C   UNL A   1      32.009  23.802  23.753  1.00  0.00     0.028 A 
BRANCH  71  75
ATOM     75  N   UNL A   1      32.543  24.913  25.833  1.00  0.00    -0.250 N 
ATOM     76  C   UNL A   1      33.702  25.709  25.714  1.00  0.00     0.238 C 
ATOM     77  C   UNL A   1      31.404  25.695  26.114  1.00  0.00     0.238 C 
ATOM     78  O   UNL A   1      34.797  25.420  25.264  1.00  0.00    -0.274 OA
ATOM     79  C   UNL A   1      33.283  27.035  26.274  1.00  0.00     0.100 C 
ATOM     80  C   UNL A   1      31.854  27.058  25.727  1.00  0.00     0.100 C 
ATOM     81  O   UNL A   1      30.266  25.344  26.365  1.00  0.00    -0.274 OA
ATOM     82  C   UNL A   1      33.896  28.441  26.128  1.00  0.00     0.028 C 
ATOM     83  C   UNL A   1      31.286  28.464  25.829  1.00  0.00     0.028 C 
ATOM     84  C   UNL A   1      33.125  29.183  27.252  1.00  0.00    -0.026 C 
ATOM     85  C   UNL A   1      33.517  29.211  24.847  1.00  0.00     0.001 C 
ATOM     86  C   UNL A   1      31.778  29.137  27.118  1.00  0.00    -0.026 C 
ATOM     87  C   UNL A   1      31.992  29.245  24.661  1.00  0.00     0.001 C 
ATOM     88  C   UNL A   1      32.917  28.672  23.584  1.00  0.00     0.009 C 
ENDBRANCH  71  75
ENDBRANCH  66  68
ENDBRANCH  65  66
ENDBRANCH  64  65
ENDBRANCH  63  64
ENDBRANCH  62  63
ENDBRANCH   1  62
TORSDOF 15
ENDMDL
