MODEL 1
REMARK VINA RESULT:     -11.1      0.000      0.000
REMARK SMILES O=C(OCCOCCOC(=O)c1cc(-c2ccc(C(F)(F)F)cc2)cc([N+](=O)[O-])c1)c1ccc(-c2c3nc(c(-c4c(F)cccc4F)c4ccc([nH]4)c(-c4c(F)cccc4F)c4nc(c(-c5c(F)cccc5F)c5ccc2[nH]5)C=C4)C=C3)cc1
REMARK SMILES IDX 6 1 5 2 4 3 3 4 2 5 1 6 31 7 32 8 84 9 33 10 83 11 34 12
REMARK SMILES IDX 35 13 36 14 77 15 37 16 82 17 76 18 78 19 38 20 81 21 75 22
REMARK SMILES IDX 74 23 39 25 65 26 48 27 64 28 49 29 52 30 63 31 79 32 50 33
REMARK SMILES IDX 51 34 62 36 80 37 53 38 40 39 41 40 46 41 42 42 43 43 45 44
REMARK SMILES IDX 47 45 44 46 66 47 67 48 72 49 68 50 69 51 71 52 73 53 70 54
REMARK SMILES IDX 54 55 55 56 60 57 56 58 57 59 59 60 61 61 58 62 7 63 8 64
REMARK SMILES IDX 9 65 10 66 11 67 12 68 13 69 30 70 14 71 26 72 25 73 15 74
REMARK SMILES IDX 16 75 24 76 17 77 23 78 18 79 19 80 20 81 21 82 22 83 27 84
REMARK SMILES IDX 28 85 29 86
REMARK H PARENT 78 24 52 35
REMARK Flexibility Score: inf
ROOT
ATOM      1  O   UNL A   1      30.476  28.554  23.939  1.00  0.00    -0.374 OA
ENDROOT
BRANCH   1   2
ATOM      2  C   UNL A   1      30.919  29.754  24.571  1.00  0.00     0.202 C 
BRANCH   2   3
ATOM      3  C   UNL A   1      31.894  29.547  25.734  1.00  0.00     0.261 C 
BRANCH   3   4
ATOM      4  O   UNL A   1      32.813  30.647  25.823  1.00  0.00    -0.460 OA
BRANCH   4   5
ATOM      5  C   UNL A   1      33.267  31.253  26.946  1.00  0.00     0.338 C 
ATOM      6  O   UNL A   1      32.580  32.128  27.469  1.00  0.00    -0.246 OA
BRANCH   5   7
ATOM      7  C   UNL A   1      34.578  30.925  27.579  1.00  0.00     0.060 A 
ATOM      8  C   UNL A   1      35.617  31.840  27.753  1.00  0.00     0.016 A 
ATOM      9  C   UNL A   1      34.721  29.650  28.149  1.00  0.00     0.016 A 
ATOM     10  C   UNL A   1      36.764  31.523  28.449  1.00  0.00     0.010 A 
ATOM     11  C   UNL A   1      35.861  29.328  28.892  1.00  0.00     0.010 A 
ATOM     12  C   UNL A   1      36.874  30.279  29.053  1.00  0.00    -0.014 A 
BRANCH  12  13
ATOM     13  C   UNL A   1      38.097  30.025  29.820  1.00  0.00     0.031 A 
ATOM     14  C   UNL A   1      39.177  29.222  29.182  1.00  0.00     0.074 A 
ATOM     15  C   UNL A   1      38.257  30.644  31.004  1.00  0.00     0.049 A 
ATOM     16  N   UNL A   1      40.306  28.817  29.689  1.00  0.00    -0.248 NA
ATOM     17  C   UNL A   1      38.968  28.837  27.774  1.00  0.00     0.031 C 
ATOM     18  C   UNL A   1      37.294  31.570  31.611  1.00  0.00     0.029 A 
ATOM     19  N   UNL A   1      39.292  30.612  31.897  1.00  0.00    -0.354 N 
ATOM     20  C   UNL A   1      40.923  28.092  28.680  1.00  0.00     0.074 A 
ATOM     21  C   UNL A   1      40.058  28.128  27.524  1.00  0.00     0.031 C 
ATOM     22  C   UNL A   1      37.786  32.017  32.777  1.00  0.00     0.029 A 
ATOM     23  C   UNL A   1      39.051  31.344  33.036  1.00  0.00     0.049 A 
ATOM     24  H   UNL A   1      40.127  30.115  31.741  1.00  0.00     0.167 HD
ATOM     25  C   UNL A   1      42.105  27.440  28.745  1.00  0.00     0.037 A 
ATOM     26  C   UNL A   1      39.756  31.401  34.180  1.00  0.00     0.037 A 
ATOM     27  C   UNL A   1      42.934  27.445  29.918  1.00  0.00     0.049 A 
ATOM     28  C   UNL A   1      41.010  30.572  34.258  1.00  0.00     0.074 A 
ATOM     29  C   UNL A   1      44.138  26.803  30.127  1.00  0.00     0.029 A 
ATOM     30  N   UNL A   1      42.630  28.130  31.088  1.00  0.00    -0.354 N 
ATOM     31  N   UNL A   1      41.577  29.846  33.323  1.00  0.00    -0.248 NA
ATOM     32  C   UNL A   1      41.707  30.544  35.548  1.00  0.00     0.031 C 
ATOM     33  C   UNL A   1      44.531  27.048  31.446  1.00  0.00     0.029 A 
ATOM     34  C   UNL A   1      43.603  27.893  32.039  1.00  0.00     0.049 A 
ATOM     35  H   UNL A   1      41.837  28.701  31.219  1.00  0.00     0.167 HD
ATOM     36  C   UNL A   1      42.702  29.284  33.906  1.00  0.00     0.074 A 
ATOM     37  C   UNL A   1      42.754  29.782  35.268  1.00  0.00     0.031 C 
ATOM     38  C   UNL A   1      43.608  28.423  33.379  1.00  0.00     0.037 A 
BRANCH  25  39
ATOM     39  C   UNL A   1      42.504  26.610  27.567  1.00  0.00     0.057 A 
ATOM     40  C   UNL A   1      42.083  25.285  27.399  1.00  0.00     0.134 A 
ATOM     41  C   UNL A   1      43.326  27.159  26.574  1.00  0.00     0.134 A 
ATOM     42  F   UNL A   1      41.324  24.689  28.330  1.00  0.00    -0.206 F 
ATOM     43  C   UNL A   1      42.472  24.535  26.287  1.00  0.00     0.040 A 
ATOM     44  C   UNL A   1      43.702  26.427  25.448  1.00  0.00     0.040 A 
ATOM     45  F   UNL A   1      43.775  28.418  26.684  1.00  0.00    -0.206 F 
ATOM     46  C   UNL A   1      43.275  25.109  25.303  1.00  0.00     0.006 A 
ENDBRANCH  25  39
BRANCH  26  47
ATOM     47  C   UNL A   1      39.252  32.159  35.357  1.00  0.00     0.057 A 
ATOM     48  C   UNL A   1      38.398  31.573  36.298  1.00  0.00     0.134 A 
ATOM     49  C   UNL A   1      39.559  33.516  35.534  1.00  0.00     0.134 A 
ATOM     50  F   UNL A   1      38.046  30.284  36.180  1.00  0.00    -0.206 F 
ATOM     51  C   UNL A   1      37.840  32.313  37.345  1.00  0.00     0.040 A 
ATOM     52  C   UNL A   1      39.038  34.259  36.596  1.00  0.00     0.040 A 
ATOM     53  F   UNL A   1      40.371  34.147  34.673  1.00  0.00    -0.206 F 
ATOM     54  C   UNL A   1      38.161  33.660  37.496  1.00  0.00     0.006 A 
ENDBRANCH  26  47
BRANCH  38  55
ATOM     55  C   UNL A   1      44.728  27.994  34.277  1.00  0.00     0.057 A 
ATOM     56  C   UNL A   1      44.661  26.808  35.017  1.00  0.00     0.134 A 
ATOM     57  C   UNL A   1      45.907  28.744  34.347  1.00  0.00     0.134 A 
ATOM     58  F   UNL A   1      43.549  26.056  35.000  1.00  0.00    -0.206 F 
ATOM     59  C   UNL A   1      45.726  26.391  35.813  1.00  0.00     0.040 A 
ATOM     60  C   UNL A   1      46.991  28.320  35.114  1.00  0.00     0.040 A 
ATOM     61  F   UNL A   1      46.034  29.884  33.651  1.00  0.00    -0.206 F 
ATOM     62  C   UNL A   1      46.899  27.142  35.853  1.00  0.00     0.006 A 
ENDBRANCH  38  55
ENDBRANCH  12  13
ENDBRANCH   5   7
ENDBRANCH   4   5
ENDBRANCH   3   4
ENDBRANCH   2   3
ENDBRANCH   1   2
BRANCH   1  63
ATOM     63  C   UNL A   1      30.677  28.457  22.525  1.00  0.00     0.202 C 
BRANCH  63  64
ATOM     64  C   UNL A   1      31.356  27.121  22.216  1.00  0.00     0.261 C 
BRANCH  64  65
ATOM     65  O   UNL A   1      32.551  27.043  23.007  1.00  0.00    -0.460 OA
BRANCH  65  66
ATOM     66  C   UNL A   1      33.324  25.957  22.749  1.00  0.00     0.338 C 
ATOM     67  O   UNL A   1      33.889  25.671  21.713  1.00  0.00    -0.246 OA
BRANCH  66  68
ATOM     68  C   UNL A   1      33.537  25.244  24.026  1.00  0.00     0.067 A 
ATOM     69  C   UNL A   1      34.831  24.802  24.340  1.00  0.00     0.025 A 
ATOM     70  C   UNL A   1      32.474  25.000  24.895  1.00  0.00     0.101 A 
ATOM     71  C   UNL A   1      35.080  24.096  25.525  1.00  0.00    -0.011 A 
ATOM     72  C   UNL A   1      32.715  24.285  26.069  1.00  0.00     0.270 A 
ATOM     73  C   UNL A   1      34.007  23.846  26.396  1.00  0.00     0.094 A 
BRANCH  71  74
ATOM     74  C   UNL A   1      36.387  23.475  25.760  1.00  0.00    -0.018 A 
ATOM     75  C   UNL A   1      37.494  24.177  26.254  1.00  0.00     0.009 A 
ATOM     76  C   UNL A   1      36.536  22.113  25.462  1.00  0.00     0.009 A 
ATOM     77  C   UNL A   1      38.720  23.521  26.449  1.00  0.00     0.014 A 
ATOM     78  C   UNL A   1      37.752  21.460  25.652  1.00  0.00     0.014 A 
ATOM     79  C   UNL A   1      38.860  22.156  26.150  1.00  0.00     0.056 A 
BRANCH  79  80
ATOM     80  C   UNL A   1      40.177  21.449  26.358  1.00  0.00     0.416 C 
ATOM     81  F   UNL A   1      40.696  21.665  27.597  1.00  0.00    -0.166 F 
ATOM     82  F   UNL A   1      40.071  20.097  26.225  1.00  0.00    -0.166 F 
ATOM     83  F   UNL A   1      41.144  21.832  25.477  1.00  0.00    -0.166 F 
ENDBRANCH  79  80
ENDBRANCH  71  74
BRANCH  72  84
ATOM     84  N   UNL A   1      31.581  23.916  26.922  1.00  0.00     0.062 N 
ATOM     85  O   UNL A   1      30.605  24.677  26.939  1.00  0.00    -0.258 OA
ATOM     86  O   UNL A   1      31.677  22.875  27.586  1.00  0.00    -0.258 OA
ENDBRANCH  72  84
ENDBRANCH  66  68
ENDBRANCH  65  66
ENDBRANCH  64  65
ENDBRANCH  63  64
ENDBRANCH   1  63
TORSDOF 17
ENDMDL
MODEL 2
REMARK VINA RESULT:     -11.0      2.098      2.762
REMARK SMILES O=C(OCCOCCOC(=O)c1cc(-c2ccc(C(F)(F)F)cc2)cc([N+](=O)[O-])c1)c1ccc(-c2c3nc(c(-c4c(F)cccc4F)c4ccc([nH]4)c(-c4c(F)cccc4F)c4nc(c(-c5c(F)cccc5F)c5ccc2[nH]5)C=C4)C=C3)cc1
REMARK SMILES IDX 6 1 5 2 4 3 3 4 2 5 1 6 31 7 32 8 84 9 33 10 83 11 34 12
REMARK SMILES IDX 35 13 36 14 77 15 37 16 82 17 76 18 78 19 38 20 81 21 75 22
REMARK SMILES IDX 74 23 39 25 65 26 48 27 64 28 49 29 52 30 63 31 79 32 50 33
REMARK SMILES IDX 51 34 62 36 80 37 53 38 40 39 41 40 46 41 42 42 43 43 45 44
REMARK SMILES IDX 47 45 44 46 66 47 67 48 72 49 68 50 69 51 71 52 73 53 70 54
REMARK SMILES IDX 54 55 55 56 60 57 56 58 57 59 59 60 61 61 58 62 7 63 8 64
REMARK SMILES IDX 9 65 10 66 11 67 12 68 13 69 30 70 14 71 26 72 25 73 15 74
REMARK SMILES IDX 16 75 24 76 17 77 23 78 18 79 19 80 20 81 21 82 22 83 27 84
REMARK SMILES IDX 28 85 29 86
REMARK H PARENT 78 24 52 35
REMARK Flexibility Score: inf
ROOT
ATOM      1  O   UNL A   1      30.506  28.149  24.076  1.00  0.00    -0.374 OA
ENDROOT
BRANCH   1   2
ATOM      2  C   UNL A   1      31.731  28.834  24.332  1.00  0.00     0.202 C 
BRANCH   2   3
ATOM      3  C   UNL A   1      31.626  29.983  25.341  1.00  0.00     0.261 C 
BRANCH   3   4
ATOM      4  O   UNL A   1      32.929  30.362  25.810  1.00  0.00    -0.460 OA
BRANCH   4   5
ATOM      5  C   UNL A   1      33.227  31.158  26.864  1.00  0.00     0.338 C 
ATOM      6  O   UNL A   1      32.523  32.142  27.084  1.00  0.00    -0.246 OA
BRANCH   5   7
ATOM      7  C   UNL A   1      34.385  30.913  27.773  1.00  0.00     0.060 A 
ATOM      8  C   UNL A   1      34.711  29.668  28.311  1.00  0.00     0.016 A 
ATOM      9  C   UNL A   1      35.274  31.977  27.992  1.00  0.00     0.016 A 
ATOM     10  C   UNL A   1      35.858  29.466  29.050  1.00  0.00     0.010 A 
ATOM     11  C   UNL A   1      36.460  31.778  28.704  1.00  0.00     0.010 A 
ATOM     12  C   UNL A   1      36.755  30.511  29.216  1.00  0.00    -0.014 A 
BRANCH  12  13
ATOM     13  C   UNL A   1      37.978  30.215  29.969  1.00  0.00     0.031 A 
ATOM     14  C   UNL A   1      39.038  29.406  29.305  1.00  0.00     0.074 A 
ATOM     15  C   UNL A   1      38.157  30.803  31.166  1.00  0.00     0.049 A 
ATOM     16  N   UNL A   1      40.162  28.967  29.795  1.00  0.00    -0.248 NA
ATOM     17  C   UNL A   1      38.812  29.058  27.891  1.00  0.00     0.031 C 
ATOM     18  C   UNL A   1      37.216  31.733  31.801  1.00  0.00     0.029 A 
ATOM     19  N   UNL A   1      39.196  30.730  32.052  1.00  0.00    -0.354 N 
ATOM     20  C   UNL A   1      40.758  28.253  28.766  1.00  0.00     0.074 A 
ATOM     21  C   UNL A   1      39.886  28.333  27.617  1.00  0.00     0.031 C 
ATOM     22  C   UNL A   1      37.725  32.143  32.973  1.00  0.00     0.029 A 
ATOM     23  C   UNL A   1      38.977  31.440  33.208  1.00  0.00     0.049 A 
ATOM     24  H   UNL A   1      40.020  30.220  31.879  1.00  0.00     0.167 HD
ATOM     25  C   UNL A   1      41.926  27.577  28.808  1.00  0.00     0.037 A 
ATOM     26  C   UNL A   1      39.690  31.456  34.349  1.00  0.00     0.037 A 
ATOM     27  C   UNL A   1      42.762  27.538  29.976  1.00  0.00     0.049 A 
ATOM     28  C   UNL A   1      40.928  30.601  34.400  1.00  0.00     0.074 A 
ATOM     29  C   UNL A   1      43.955  26.868  30.162  1.00  0.00     0.029 A 
ATOM     30  N   UNL A   1      42.479  28.202  31.163  1.00  0.00    -0.354 N 
ATOM     31  N   UNL A   1      41.475  29.886  33.444  1.00  0.00    -0.248 NA
ATOM     32  C   UNL A   1      41.632  30.529  35.684  1.00  0.00     0.031 C 
ATOM     33  C   UNL A   1      44.361  27.074  31.483  1.00  0.00     0.029 A 
ATOM     34  C   UNL A   1      43.453  27.924  32.102  1.00  0.00     0.049 A 
ATOM     35  H   UNL A   1      41.699  28.786  31.313  1.00  0.00     0.167 HD
ATOM     36  C   UNL A   1      42.592  29.289  34.006  1.00  0.00     0.074 A 
ATOM     37  C   UNL A   1      42.662  29.754  35.379  1.00  0.00     0.031 C 
ATOM     38  C   UNL A   1      43.477  28.422  33.454  1.00  0.00     0.037 A 
BRANCH  25  39
ATOM     39  C   UNL A   1      42.302  26.767  27.609  1.00  0.00     0.057 A 
ATOM     40  C   UNL A   1      43.078  27.280  26.563  1.00  0.00     0.134 A 
ATOM     41  C   UNL A   1      41.879  25.435  27.507  1.00  0.00     0.134 A 
ATOM     42  F   UNL A   1      43.487  28.558  26.582  1.00  0.00    -0.206 F 
ATOM     43  C   UNL A   1      43.414  26.498  25.455  1.00  0.00     0.040 A 
ATOM     44  C   UNL A   1      42.227  24.638  26.417  1.00  0.00     0.040 A 
ATOM     45  F   UNL A   1      41.120  24.889  28.469  1.00  0.00    -0.206 F 
ATOM     46  C   UNL A   1      42.996  25.170  25.386  1.00  0.00     0.006 A 
ENDBRANCH  25  39
BRANCH  26  47
ATOM     47  C   UNL A   1      39.208  32.196  35.546  1.00  0.00     0.057 A 
ATOM     48  C   UNL A   1      38.314  31.621  36.456  1.00  0.00     0.134 A 
ATOM     49  C   UNL A   1      39.580  33.529  35.776  1.00  0.00     0.134 A 
ATOM     50  F   UNL A   1      37.901  30.356  36.288  1.00  0.00    -0.206 F 
ATOM     51  C   UNL A   1      37.779  32.350  37.522  1.00  0.00     0.040 A 
ATOM     52  C   UNL A   1      39.082  34.259  36.857  1.00  0.00     0.040 A 
ATOM     53  F   UNL A   1      40.434  34.149  34.947  1.00  0.00    -0.206 F 
ATOM     54  C   UNL A   1      38.165  33.673  37.725  1.00  0.00     0.006 A 
ENDBRANCH  26  47
BRANCH  38  55
ATOM     55  C   UNL A   1      44.594  27.950  34.334  1.00  0.00     0.057 A 
ATOM     56  C   UNL A   1      44.494  26.767  35.074  1.00  0.00     0.134 A 
ATOM     57  C   UNL A   1      45.802  28.656  34.386  1.00  0.00     0.134 A 
ATOM     58  F   UNL A   1      43.354  26.058  35.075  1.00  0.00    -0.206 F 
ATOM     59  C   UNL A   1      45.554  26.310  35.854  1.00  0.00     0.040 A 
ATOM     60  C   UNL A   1      46.881  28.190  35.136  1.00  0.00     0.040 A 
ATOM     61  F   UNL A   1      45.960  29.790  33.688  1.00  0.00    -0.206 F 
ATOM     62  C   UNL A   1      46.756  27.016  35.876  1.00  0.00     0.006 A 
ENDBRANCH  38  55
ENDBRANCH  12  13
ENDBRANCH   5   7
ENDBRANCH   4   5
ENDBRANCH   3   4
ENDBRANCH   2   3
ENDBRANCH   1   2
BRANCH   1  63
ATOM     63  C   UNL A   1      30.253  27.765  22.720  1.00  0.00     0.202 C 
BRANCH  63  64
ATOM     64  C   UNL A   1      31.579  27.363  22.068  1.00  0.00     0.261 C 
BRANCH  64  65
ATOM     65  O   UNL A   1      31.581  25.935  21.923  1.00  0.00    -0.460 OA
BRANCH  65  66
ATOM     66  C   UNL A   1      32.735  25.335  22.312  1.00  0.00     0.338 C 
ATOM     67  O   UNL A   1      33.867  25.587  21.952  1.00  0.00    -0.246 OA
BRANCH  66  68
ATOM     68  C   UNL A   1      32.411  24.420  23.428  1.00  0.00     0.067 A 
ATOM     69  C   UNL A   1      32.954  23.127  23.415  1.00  0.00     0.025 A 
ATOM     70  C   UNL A   1      31.571  24.826  24.464  1.00  0.00     0.101 A 
ATOM     71  C   UNL A   1      32.654  22.212  24.435  1.00  0.00    -0.011 A 
ATOM     72  C   UNL A   1      31.257  23.915  25.473  1.00  0.00     0.270 A 
ATOM     73  C   UNL A   1      31.802  22.622  25.474  1.00  0.00     0.094 A 
BRANCH  71  74
ATOM     74  C   UNL A   1      33.067  20.812  24.321  1.00  0.00    -0.018 A 
ATOM     75  C   UNL A   1      34.306  20.336  24.772  1.00  0.00     0.009 A 
ATOM     76  C   UNL A   1      32.181  19.906  23.720  1.00  0.00     0.009 A 
ATOM     77  C   UNL A   1      34.641  18.981  24.626  1.00  0.00     0.014 A 
ATOM     78  C   UNL A   1      32.512  18.560  23.572  1.00  0.00     0.014 A 
ATOM     79  C   UNL A   1      33.746  18.080  24.025  1.00  0.00     0.056 A 
BRANCH  79  80
ATOM     80  C   UNL A   1      34.104  16.623  23.865  1.00  0.00     0.416 C 
ATOM     81  F   UNL A   1      35.096  16.233  24.712  1.00  0.00    -0.166 F 
ATOM     82  F   UNL A   1      33.051  15.795  24.114  1.00  0.00    -0.166 F 
ATOM     83  F   UNL A   1      34.537  16.304  22.613  1.00  0.00    -0.166 F 
ENDBRANCH  79  80
ENDBRANCH  71  74
BRANCH  72  84
ATOM     84  N   UNL A   1      30.276  24.295  26.494  1.00  0.00     0.062 N 
ATOM     85  O   UNL A   1      29.881  23.411  27.266  1.00  0.00    -0.258 OA
ATOM     86  O   UNL A   1      29.890  25.471  26.510  1.00  0.00    -0.258 OA
ENDBRANCH  72  84
ENDBRANCH  66  68
ENDBRANCH  65  66
ENDBRANCH  64  65
ENDBRANCH  63  64
ENDBRANCH   1  63
TORSDOF 17
ENDMDL
MODEL 3
REMARK VINA RESULT:     -11.0      3.819      7.858
REMARK SMILES O=C(OCCOCCOC(=O)c1cc(-c2ccc(C(F)(F)F)cc2)cc([N+](=O)[O-])c1)c1ccc(-c2c3nc(c(-c4c(F)cccc4F)c4ccc([nH]4)c(-c4c(F)cccc4F)c4nc(c(-c5c(F)cccc5F)c5ccc2[nH]5)C=C4)C=C3)cc1
REMARK SMILES IDX 6 1 5 2 4 3 3 4 2 5 1 6 31 7 32 8 84 9 33 10 83 11 34 12
REMARK SMILES IDX 35 13 36 14 77 15 37 16 82 17 76 18 78 19 38 20 81 21 75 22
REMARK SMILES IDX 74 23 39 25 65 26 48 27 64 28 49 29 52 30 63 31 79 32 50 33
REMARK SMILES IDX 51 34 62 36 80 37 53 38 40 39 41 40 46 41 42 42 43 43 45 44
REMARK SMILES IDX 47 45 44 46 66 47 67 48 72 49 68 50 69 51 71 52 73 53 70 54
REMARK SMILES IDX 54 55 55 56 60 57 56 58 57 59 59 60 61 61 58 62 7 63 8 64
REMARK SMILES IDX 9 65 10 66 11 67 12 68 13 69 30 70 14 71 26 72 25 73 15 74
REMARK SMILES IDX 16 75 24 76 17 77 23 78 18 79 19 80 20 81 21 82 22 83 27 84
REMARK SMILES IDX 28 85 29 86
REMARK H PARENT 78 24 52 35
REMARK Flexibility Score: inf
ROOT
ATOM      1  O   UNL A   1      35.119  33.544  28.478  1.00  0.00    -0.374 OA
ENDROOT
BRANCH   1   2
ATOM      2  C   UNL A   1      34.018  33.733  29.365  1.00  0.00     0.202 C 
BRANCH   2   3
ATOM      3  C   UNL A   1      34.394  33.836  30.846  1.00  0.00     0.261 C 
BRANCH   3   4
ATOM      4  O   UNL A   1      34.607  32.530  31.404  1.00  0.00    -0.460 OA
BRANCH   4   5
ATOM      5  C   UNL A   1      35.685  32.096  32.100  1.00  0.00     0.338 C 
ATOM      6  O   UNL A   1      35.726  32.286  33.314  1.00  0.00    -0.246 OA
BRANCH   5   7
ATOM      7  C   UNL A   1      36.846  31.408  31.463  1.00  0.00     0.060 A 
ATOM      8  C   UNL A   1      37.150  31.476  30.103  1.00  0.00     0.016 A 
ATOM      9  C   UNL A   1      37.759  30.759  32.310  1.00  0.00     0.016 A 
ATOM     10  C   UNL A   1      38.299  30.921  29.580  1.00  0.00     0.010 A 
ATOM     11  C   UNL A   1      38.947  30.227  31.800  1.00  0.00     0.010 A 
ATOM     12  C   UNL A   1      39.219  30.328  30.432  1.00  0.00    -0.014 A 
BRANCH  12  13
ATOM     13  C   UNL A   1      40.442  29.803  29.817  1.00  0.00     0.031 A 
ATOM     14  C   UNL A   1      41.637  30.690  29.751  1.00  0.00     0.074 A 
ATOM     15  C   UNL A   1      40.484  28.503  29.472  1.00  0.00     0.049 A 
ATOM     16  N   UNL A   1      42.794  30.467  29.196  1.00  0.00    -0.248 NA
ATOM     17  C   UNL A   1      41.522  32.001  30.415  1.00  0.00     0.031 C 
ATOM     18  C   UNL A   1      39.390  27.542  29.658  1.00  0.00     0.029 A 
ATOM     19  N   UNL A   1      41.488  27.757  28.918  1.00  0.00    -0.354 N 
ATOM     20  C   UNL A   1      43.530  31.625  29.404  1.00  0.00     0.074 A 
ATOM     21  C   UNL A   1      42.702  32.540  30.152  1.00  0.00     0.031 C 
ATOM     22  C   UNL A   1      39.785  26.335  29.225  1.00  0.00     0.029 A 
ATOM     23  C   UNL A   1      41.119  26.458  28.656  1.00  0.00     0.049 A 
ATOM     24  H   UNL A   1      42.385  28.113  28.726  1.00  0.00     0.167 HD
ATOM     25  C   UNL A   1      44.785  31.884  28.975  1.00  0.00     0.037 A 
ATOM     26  C   UNL A   1      41.776  25.506  27.970  1.00  0.00     0.037 A 
ATOM     27  C   UNL A   1      45.571  30.932  28.241  1.00  0.00     0.049 A 
ATOM     28  C   UNL A   1      43.125  25.868  27.409  1.00  0.00     0.074 A 
ATOM     29  C   UNL A   1      46.843  31.078  27.724  1.00  0.00     0.029 A 
ATOM     30  N   UNL A   1      45.145  29.649  27.919  1.00  0.00    -0.354 N 
ATOM     31  N   UNL A   1      43.811  26.977  27.563  1.00  0.00    -0.248 NA
ATOM     32  C   UNL A   1      43.782  24.867  26.563  1.00  0.00     0.031 C 
ATOM     33  C   UNL A   1      47.160  29.906  27.032  1.00  0.00     0.029 A 
ATOM     34  C   UNL A   1      46.112  29.006  27.172  1.00  0.00     0.049 A 
ATOM     35  H   UNL A   1      44.281  29.257  28.185  1.00  0.00     0.167 HD
ATOM     36  C   UNL A   1      44.982  26.805  26.842  1.00  0.00     0.074 A 
ATOM     37  C   UNL A   1      44.927  25.469  26.279  1.00  0.00     0.031 C 
ATOM     38  C   UNL A   1      46.008  27.669  26.644  1.00  0.00     0.037 A 
BRANCH  25  39
ATOM     39  C   UNL A   1      45.324  33.260  29.205  1.00  0.00     0.057 A 
ATOM     40  C   UNL A   1      46.070  33.599  30.340  1.00  0.00     0.134 A 
ATOM     41  C   UNL A   1      45.094  34.266  28.258  1.00  0.00     0.134 A 
ATOM     42  F   UNL A   1      46.297  32.692  31.302  1.00  0.00    -0.206 F 
ATOM     43  C   UNL A   1      46.562  34.893  30.526  1.00  0.00     0.040 A 
ATOM     44  C   UNL A   1      45.599  35.555  28.422  1.00  0.00     0.040 A 
ATOM     45  F   UNL A   1      44.374  34.009  27.156  1.00  0.00    -0.206 F 
ATOM     46  C   UNL A   1      46.335  35.872  29.561  1.00  0.00     0.006 A 
ENDBRANCH  25  39
BRANCH  26  47
ATOM     47  C   UNL A   1      41.143  24.191  27.680  1.00  0.00     0.057 A 
ATOM     48  C   UNL A   1      41.580  23.013  28.295  1.00  0.00     0.134 A 
ATOM     49  C   UNL A   1      40.122  24.070  26.725  1.00  0.00     0.134 A 
ATOM     50  F   UNL A   1      42.565  23.051  29.205  1.00  0.00    -0.206 F 
ATOM     51  C   UNL A   1      41.056  21.764  27.947  1.00  0.00     0.040 A 
ATOM     52  C   UNL A   1      39.565  22.834  26.393  1.00  0.00     0.040 A 
ATOM     53  F   UNL A   1      39.651  25.155  26.093  1.00  0.00    -0.206 F 
ATOM     54  C   UNL A   1      40.045  21.674  26.993  1.00  0.00     0.006 A 
ENDBRANCH  26  47
BRANCH  38  55
ATOM     55  C   UNL A   1      47.148  27.178  25.804  1.00  0.00     0.057 A 
ATOM     56  C   UNL A   1      47.244  27.491  24.444  1.00  0.00     0.134 A 
ATOM     57  C   UNL A   1      48.188  26.441  26.383  1.00  0.00     0.134 A 
ATOM     58  F   UNL A   1      46.269  28.181  23.833  1.00  0.00    -0.206 F 
ATOM     59  C   UNL A   1      48.331  27.070  23.680  1.00  0.00     0.040 A 
ATOM     60  C   UNL A   1      49.296  26.044  25.637  1.00  0.00     0.040 A 
ATOM     61  F   UNL A   1      48.156  26.121  27.685  1.00  0.00    -0.206 F 
ATOM     62  C   UNL A   1      49.366  26.355  24.280  1.00  0.00     0.006 A 
ENDBRANCH  38  55
ENDBRANCH  12  13
ENDBRANCH   5   7
ENDBRANCH   4   5
ENDBRANCH   3   4
ENDBRANCH   2   3
ENDBRANCH   1   2
BRANCH   1  63
ATOM     63  C   UNL A   1      35.082  32.382  27.642  1.00  0.00     0.202 C 
BRANCH  63  64
ATOM     64  C   UNL A   1      34.052  31.402  28.208  1.00  0.00     0.261 C 
BRANCH  64  65
ATOM     65  O   UNL A   1      33.609  30.562  27.133  1.00  0.00    -0.460 OA
BRANCH  65  66
ATOM     66  C   UNL A   1      32.343  30.813  26.711  1.00  0.00     0.338 C 
ATOM     67  O   UNL A   1      31.710  31.844  26.818  1.00  0.00    -0.246 OA
BRANCH  66  68
ATOM     68  C   UNL A   1      31.903  29.658  25.900  1.00  0.00     0.067 A 
ATOM     69  C   UNL A   1      32.311  28.373  26.287  1.00  0.00     0.025 A 
ATOM     70  C   UNL A   1      31.114  29.840  24.765  1.00  0.00     0.101 A 
ATOM     71  C   UNL A   1      31.944  27.247  25.535  1.00  0.00    -0.011 A 
ATOM     72  C   UNL A   1      30.758  28.725  24.006  1.00  0.00     0.270 A 
ATOM     73  C   UNL A   1      31.154  27.434  24.389  1.00  0.00     0.094 A 
BRANCH  71  74
ATOM     74  C   UNL A   1      32.524  25.935  25.832  1.00  0.00    -0.018 A 
ATOM     75  C   UNL A   1      31.772  24.851  26.305  1.00  0.00     0.009 A 
ATOM     76  C   UNL A   1      33.903  25.762  25.643  1.00  0.00     0.009 A 
ATOM     77  C   UNL A   1      32.393  23.622  26.575  1.00  0.00     0.014 A 
ATOM     78  C   UNL A   1      34.522  24.543  25.913  1.00  0.00     0.014 A 
ATOM     79  C   UNL A   1      33.775  23.456  26.381  1.00  0.00     0.056 A 
BRANCH  79  80
ATOM     80  C   UNL A   1      34.445  22.136  26.673  1.00  0.00     0.416 C 
ATOM     81  F   UNL A   1      34.388  21.801  27.991  1.00  0.00    -0.166 F 
ATOM     82  F   UNL A   1      33.875  21.100  25.997  1.00  0.00    -0.166 F 
ATOM     83  F   UNL A   1      35.767  22.112  26.340  1.00  0.00    -0.166 F 
ENDBRANCH  79  80
ENDBRANCH  71  74
BRANCH  72  84
ATOM     84  N   UNL A   1      30.037  28.923  22.745  1.00  0.00     0.062 N 
ATOM     85  O   UNL A   1      30.088  28.014  21.906  1.00  0.00    -0.258 OA
ATOM     86  O   UNL A   1      29.436  29.995  22.591  1.00  0.00    -0.258 OA
ENDBRANCH  72  84
ENDBRANCH  66  68
ENDBRANCH  65  66
ENDBRANCH  64  65
ENDBRANCH  63  64
ENDBRANCH   1  63
TORSDOF 17
ENDMDL
