MODEL 1
REMARK VINA RESULT:     -11.6      0.000      0.000
REMARK SMILES CS(=O)(=O)c1ccc(N2N=C(C(=O)OCCOCCOC(=O)c3ccc(-c4c5nc(c(-c6c(F)cccc6F)c6ccc([nH]6)c(-c6c(F)cccc6F)c6nc(c(-c7c(F)cccc7F)c7ccc4[nH]7)C=C6)C=C5)cc3)C[C@H]2c2cccs2)cc1
REMARK SMILES IDX 17 1 16 2 15 3 14 4 12 5 13 6 11 7 9 8 10 9 78 10 77 11 8 12
REMARK SMILES IDX 5 13 6 14 85 15 7 16 84 17 2 18 1 19 3 20 4 21 79 22 80 23
REMARK SMILES IDX 83 24 81 25 82 26 18 27 19 28 20 29 21 30 22 31 23 32 24 33
REMARK SMILES IDX 76 34 25 35 75 36 26 37 27 38 28 39 69 40 29 41 74 42 68 43
REMARK SMILES IDX 70 44 30 45 73 46 67 47 66 48 31 50 57 51 40 52 56 53 41 54
REMARK SMILES IDX 44 55 55 56 71 57 42 58 43 59 54 61 72 62 45 63 32 64 33 65
REMARK SMILES IDX 38 66 34 67 35 68 37 69 39 70 36 71 58 72 59 73 64 74 60 75
REMARK SMILES IDX 61 76 63 77 65 78 62 79 46 80 47 81 52 82 48 83 49 84 51 85
REMARK SMILES IDX 53 86 50 87
REMARK H PARENT 70 49 44 60
REMARK Flexibility Score: inf
ROOT
ATOM      1  O   UNL A   1      31.509  28.523  24.402  1.00  0.00    -0.374 OA
ENDROOT
BRANCH   1   2
ATOM      2  C   UNL A   1      31.630  28.306  22.993  1.00  0.00     0.202 C 
BRANCH   2   3
ATOM      3  C   UNL A   1      33.074  28.314  22.490  1.00  0.00     0.261 C 
BRANCH   3   4
ATOM      4  O   UNL A   1      33.772  27.207  23.080  1.00  0.00    -0.459 OA
BRANCH   4   5
ATOM      5  C   UNL A   1      33.620  26.034  22.439  1.00  0.00     0.354 C 
ATOM      6  O   UNL A   1      33.483  25.844  21.245  1.00  0.00    -0.245 OA
BRANCH   5   7
ATOM      7  C   UNL A   1      33.761  24.920  23.440  1.00  0.00     0.148 C 
ATOM      8  N   UNL A   1      33.838  22.985  24.282  1.00  0.00    -0.256 N 
ATOM      9  N   UNL A   1      33.767  23.666  23.102  1.00  0.00    -0.169 NA
ATOM     10  C   UNL A   1      33.540  23.842  25.441  1.00  0.00     0.154 C 
ATOM     11  C   UNL A   1      33.992  25.205  24.894  1.00  0.00     0.099 C 
BRANCH   8  12
ATOM     12  C   UNL A   1      33.752  21.605  24.267  1.00  0.00     0.060 A 
ATOM     13  C   UNL A   1      33.519  18.808  24.230  1.00  0.00     0.067 A 
ATOM     14  C   UNL A   1      32.529  19.589  23.635  1.00  0.00     0.022 A 
ATOM     15  C   UNL A   1      34.622  19.403  24.845  1.00  0.00     0.022 A 
ATOM     16  C   UNL A   1      32.652  20.982  23.659  1.00  0.00     0.029 A 
ATOM     17  C   UNL A   1      34.721  20.796  24.874  1.00  0.00     0.029 A 
BRANCH  13  18
ATOM     18  S   UNL A   1      33.389  17.037  24.212  1.00  0.00     0.175 S 
ATOM     19  C   UNL A   1      34.875  16.476  25.003  1.00  0.00     0.163 C 
ATOM     20  O   UNL A   1      33.429  16.630  22.820  1.00  0.00    -0.224 OA
ATOM     21  O   UNL A   1      32.276  16.666  25.067  1.00  0.00    -0.224 OA
ENDBRANCH  13  18
ENDBRANCH   8  12
BRANCH  10  22
ATOM     22  C   UNL A   1      32.101  23.835  25.942  1.00  0.00     0.030 A 
ATOM     23  C   UNL A   1      31.446  22.791  26.576  1.00  0.00     0.017 A 
ATOM     24  S   UNL A   1      31.036  25.171  25.729  1.00  0.00    -0.147 S 
ATOM     25  C   UNL A   1      30.089  23.096  26.886  1.00  0.00     0.012 A 
ATOM     26  C   UNL A   1      29.747  24.371  26.502  1.00  0.00     0.065 A 
ENDBRANCH  10  22
ENDBRANCH   5   7
ENDBRANCH   4   5
ENDBRANCH   3   4
ENDBRANCH   2   3
ENDBRANCH   1   2
BRANCH   1  27
ATOM     27  C   UNL A   1      32.426  29.448  24.992  1.00  0.00     0.202 C 
BRANCH  27  28
ATOM     28  C   UNL A   1      31.770  30.532  25.853  1.00  0.00     0.261 C 
BRANCH  28  29
ATOM     29  O   UNL A   1      32.404  30.628  27.143  1.00  0.00    -0.460 OA
BRANCH  29  30
ATOM     30  C   UNL A   1      33.154  31.743  27.324  1.00  0.00     0.338 C 
ATOM     31  O   UNL A   1      32.781  32.902  27.266  1.00  0.00    -0.246 OA
BRANCH  30  32
ATOM     32  C   UNL A   1      34.510  31.373  27.780  1.00  0.00     0.060 A 
ATOM     33  C   UNL A   1      34.747  30.019  28.045  1.00  0.00     0.016 A 
ATOM     34  C   UNL A   1      35.511  32.323  28.002  1.00  0.00     0.016 A 
ATOM     35  C   UNL A   1      35.970  29.615  28.576  1.00  0.00     0.010 A 
ATOM     36  C   UNL A   1      36.737  31.916  28.542  1.00  0.00     0.010 A 
ATOM     37  C   UNL A   1      36.960  30.564  28.860  1.00  0.00    -0.014 A 
BRANCH  37  38
ATOM     38  C   UNL A   1      38.176  30.140  29.596  1.00  0.00     0.031 A 
ATOM     39  C   UNL A   1      38.393  30.622  31.003  1.00  0.00     0.074 A 
ATOM     40  C   UNL A   1      39.056  29.294  29.033  1.00  0.00     0.049 A 
ATOM     41  N   UNL A   1      39.357  30.330  31.839  1.00  0.00    -0.248 NA
ATOM     42  C   UNL A   1      37.389  31.554  31.541  1.00  0.00     0.031 C 
ATOM     43  C   UNL A   1      38.953  28.741  27.684  1.00  0.00     0.029 A 
ATOM     44  N   UNL A   1      40.213  28.750  29.533  1.00  0.00    -0.354 N 
ATOM     45  C   UNL A   1      39.074  31.035  33.002  1.00  0.00     0.074 A 
ATOM     46  C   UNL A   1      37.867  31.795  32.753  1.00  0.00     0.031 C 
ATOM     47  C   UNL A   1      40.007  27.937  27.462  1.00  0.00     0.029 A 
ATOM     48  C   UNL A   1      40.863  27.930  28.646  1.00  0.00     0.049 A 
ATOM     49  H   UNL A   1      40.543  28.931  30.443  1.00  0.00     0.167 HD
ATOM     50  C   UNL A   1      39.750  31.040  34.176  1.00  0.00     0.037 A 
ATOM     51  C   UNL A   1      42.022  27.255  28.774  1.00  0.00     0.037 A 
ATOM     52  C   UNL A   1      40.949  30.287  34.429  1.00  0.00     0.049 A 
ATOM     53  C   UNL A   1      42.782  27.317  30.070  1.00  0.00     0.074 A 
ATOM     54  C   UNL A   1      41.683  30.202  35.600  1.00  0.00     0.029 A 
ATOM     55  N   UNL A   1      41.597  29.497  33.494  1.00  0.00    -0.354 N 
ATOM     56  N   UNL A   1      42.478  27.949  31.178  1.00  0.00    -0.248 NA
ATOM     57  C   UNL A   1      44.044  26.565  30.135  1.00  0.00     0.031 C 
ATOM     58  C   UNL A   1      42.798  29.391  35.361  1.00  0.00     0.029 A 
ATOM     59  C   UNL A   1      42.737  28.943  34.052  1.00  0.00     0.049 A 
ATOM     60  H   UNL A   1      41.292  29.351  32.569  1.00  0.00     0.167 HD
ATOM     61  C   UNL A   1      43.498  27.658  32.074  1.00  0.00     0.074 A 
ATOM     62  C   UNL A   1      44.424  26.782  31.387  1.00  0.00     0.031 C 
ATOM     63  C   UNL A   1      43.653  28.078  33.354  1.00  0.00     0.037 A 
BRANCH  50  64
ATOM     64  C   UNL A   1      39.208  31.901  35.275  1.00  0.00     0.057 A 
ATOM     65  C   UNL A   1      39.544  33.257  35.379  1.00  0.00     0.134 A 
ATOM     66  C   UNL A   1      38.318  31.378  36.221  1.00  0.00     0.134 A 
ATOM     67  F   UNL A   1      40.403  33.813  34.512  1.00  0.00    -0.206 F 
ATOM     68  C   UNL A   1      39.027  34.058  36.398  1.00  0.00     0.040 A 
ATOM     69  C   UNL A   1      37.779  32.174  37.232  1.00  0.00     0.040 A 
ATOM     70  F   UNL A   1      37.956  30.087  36.173  1.00  0.00    -0.206 F 
ATOM     71  C   UNL A   1      38.137  33.518  37.325  1.00  0.00     0.006 A 
ENDBRANCH  50  64
BRANCH  51  72
ATOM     72  C   UNL A   1      42.538  26.457  27.636  1.00  0.00     0.057 A 
ATOM     73  C   UNL A   1      43.400  27.018  26.689  1.00  0.00     0.134 A 
ATOM     74  C   UNL A   1      42.167  25.118  27.464  1.00  0.00     0.134 A 
ATOM     75  F   UNL A   1      43.769  28.303  26.789  1.00  0.00    -0.206 F 
ATOM     76  C   UNL A   1      43.868  26.278  25.601  1.00  0.00     0.040 A 
ATOM     77  C   UNL A   1      42.643  24.361  26.393  1.00  0.00     0.040 A 
ATOM     78  F   UNL A   1      41.343  24.526  28.341  1.00  0.00    -0.206 F 
ATOM     79  C   UNL A   1      43.493  24.944  25.455  1.00  0.00     0.006 A 
ENDBRANCH  51  72
BRANCH  63  80
ATOM     80  C   UNL A   1      44.860  27.586  34.095  1.00  0.00     0.057 A 
ATOM     81  C   UNL A   1      46.094  28.243  34.006  1.00  0.00     0.134 A 
ATOM     82  C   UNL A   1      44.780  26.466  34.931  1.00  0.00     0.134 A 
ATOM     83  F   UNL A   1      46.238  29.314  33.211  1.00  0.00    -0.206 F 
ATOM     84  C   UNL A   1      47.211  27.791  34.710  1.00  0.00     0.040 A 
ATOM     85  C   UNL A   1      45.884  26.017  35.656  1.00  0.00     0.040 A 
ATOM     86  F   UNL A   1      43.625  25.797  35.065  1.00  0.00    -0.206 F 
ATOM     87  C   UNL A   1      47.106  26.678  35.543  1.00  0.00     0.006 A 
ENDBRANCH  63  80
ENDBRANCH  37  38
ENDBRANCH  30  32
ENDBRANCH  29  30
ENDBRANCH  28  29
ENDBRANCH  27  28
ENDBRANCH   1  27
TORSDOF 17
ENDMDL
MODEL 2
REMARK VINA RESULT:     -11.5      3.868      6.693
REMARK SMILES CS(=O)(=O)c1ccc(N2N=C(C(=O)OCCOCCOC(=O)c3ccc(-c4c5nc(c(-c6c(F)cccc6F)c6ccc([nH]6)c(-c6c(F)cccc6F)c6nc(c(-c7c(F)cccc7F)c7ccc4[nH]7)C=C6)C=C5)cc3)C[C@H]2c2cccs2)cc1
REMARK SMILES IDX 17 1 16 2 15 3 14 4 12 5 13 6 11 7 9 8 10 9 78 10 77 11 8 12
REMARK SMILES IDX 5 13 6 14 85 15 7 16 84 17 2 18 1 19 3 20 4 21 79 22 80 23
REMARK SMILES IDX 83 24 81 25 82 26 18 27 19 28 20 29 21 30 22 31 23 32 24 33
REMARK SMILES IDX 76 34 25 35 75 36 26 37 27 38 28 39 69 40 29 41 74 42 68 43
REMARK SMILES IDX 70 44 30 45 73 46 67 47 66 48 31 50 57 51 40 52 56 53 41 54
REMARK SMILES IDX 44 55 55 56 71 57 42 58 43 59 54 61 72 62 45 63 32 64 33 65
REMARK SMILES IDX 38 66 34 67 35 68 37 69 39 70 36 71 58 72 59 73 64 74 60 75
REMARK SMILES IDX 61 76 63 77 65 78 62 79 46 80 47 81 52 82 48 83 49 84 51 85
REMARK SMILES IDX 53 86 50 87
REMARK H PARENT 70 49 44 60
REMARK Flexibility Score: inf
ROOT
ATOM      1  O   UNL A   1      33.639  34.026  30.334  1.00  0.00    -0.374 OA
ENDROOT
BRANCH   1   2
ATOM      2  C   UNL A   1      34.017  33.614  29.017  1.00  0.00     0.202 C 
BRANCH   2   3
ATOM      3  C   UNL A   1      34.562  32.187  28.950  1.00  0.00     0.261 C 
BRANCH   3   4
ATOM      4  O   UNL A   1      33.990  31.530  27.810  1.00  0.00    -0.459 OA
BRANCH   4   5
ATOM      5  C   UNL A   1      34.641  30.424  27.407  1.00  0.00     0.354 C 
ATOM      6  O   UNL A   1      35.841  30.225  27.386  1.00  0.00    -0.245 OA
BRANCH   5   7
ATOM      7  C   UNL A   1      33.624  29.367  27.068  1.00  0.00     0.148 C 
ATOM      8  N   UNL A   1      32.767  27.505  26.565  1.00  0.00    -0.256 N 
ATOM      9  N   UNL A   1      33.930  28.112  26.940  1.00  0.00    -0.169 NA
ATOM     10  C   UNL A   1      31.748  28.471  26.124  1.00  0.00     0.154 C 
ATOM     11  C   UNL A   1      32.168  29.701  26.945  1.00  0.00     0.099 C 
BRANCH   8  12
ATOM     12  C   UNL A   1      32.786  26.161  26.240  1.00  0.00     0.060 A 
ATOM     13  C   UNL A   1      32.781  23.422  25.621  1.00  0.00     0.067 A 
ATOM     14  C   UNL A   1      31.646  24.003  26.186  1.00  0.00     0.022 A 
ATOM     15  C   UNL A   1      33.919  24.189  25.363  1.00  0.00     0.022 A 
ATOM     16  C   UNL A   1      31.657  25.368  26.493  1.00  0.00     0.029 A 
ATOM     17  C   UNL A   1      33.919  25.547  25.690  1.00  0.00     0.029 A 
BRANCH  13  18
ATOM     18  S   UNL A   1      32.793  21.693  25.219  1.00  0.00     0.175 S 
ATOM     19  C   UNL A   1      33.749  20.945  26.513  1.00  0.00     0.163 C 
ATOM     20  O   UNL A   1      33.522  21.558  23.973  1.00  0.00    -0.224 OA
ATOM     21  O   UNL A   1      31.433  21.200  25.346  1.00  0.00    -0.224 OA
ENDBRANCH  13  18
ENDBRANCH   8  12
BRANCH  10  22
ATOM     22  C   UNL A   1      31.666  28.739  24.626  1.00  0.00     0.030 A 
ATOM     23  C   UNL A   1      32.726  28.818  23.736  1.00  0.00     0.017 A 
ATOM     24  S   UNL A   1      30.178  29.042  23.817  1.00  0.00    -0.147 S 
ATOM     25  C   UNL A   1      32.310  29.118  22.406  1.00  0.00     0.012 A 
ATOM     26  C   UNL A   1      30.944  29.238  22.308  1.00  0.00     0.065 A 
ENDBRANCH  10  22
ENDBRANCH   5   7
ENDBRANCH   4   5
ENDBRANCH   3   4
ENDBRANCH   2   3
ENDBRANCH   1   2
BRANCH   1  27
ATOM     27  C   UNL A   1      34.696  34.417  31.215  1.00  0.00     0.202 C 
BRANCH  27  28
ATOM     28  C   UNL A   1      34.626  33.787  32.610  1.00  0.00     0.261 C 
BRANCH  28  29
ATOM     29  O   UNL A   1      35.114  32.432  32.595  1.00  0.00    -0.460 OA
BRANCH  29  30
ATOM     30  C   UNL A   1      36.290  32.246  33.243  1.00  0.00     0.338 C 
ATOM     31  O   UNL A   1      36.535  32.480  34.413  1.00  0.00    -0.246 OA
BRANCH  30  32
ATOM     32  C   UNL A   1      37.247  31.542  32.364  1.00  0.00     0.060 A 
ATOM     33  C   UNL A   1      38.332  30.905  32.981  1.00  0.00     0.016 A 
ATOM     34  C   UNL A   1      37.131  31.550  30.972  1.00  0.00     0.016 A 
ATOM     35  C   UNL A   1      39.327  30.313  32.207  1.00  0.00     0.010 A 
ATOM     36  C   UNL A   1      38.136  30.959  30.194  1.00  0.00     0.010 A 
ATOM     37  C   UNL A   1      39.253  30.366  30.809  1.00  0.00    -0.014 A 
BRANCH  37  38
ATOM     38  C   UNL A   1      40.410  29.898  30.008  1.00  0.00     0.031 A 
ATOM     39  C   UNL A   1      41.555  30.835  29.747  1.00  0.00     0.074 A 
ATOM     40  C   UNL A   1      40.464  28.632  29.558  1.00  0.00     0.049 A 
ATOM     41  N   UNL A   1      42.682  30.613  29.119  1.00  0.00    -0.248 NA
ATOM     42  C   UNL A   1      41.414  32.206  30.265  1.00  0.00     0.031 C 
ATOM     43  C   UNL A   1      39.428  27.620  29.757  1.00  0.00     0.029 A 
ATOM     44  N   UNL A   1      41.436  27.984  28.838  1.00  0.00    -0.354 N 
ATOM     45  C   UNL A   1      43.386  31.810  29.171  1.00  0.00     0.074 A 
ATOM     46  C   UNL A   1      42.546  32.765  29.863  1.00  0.00     0.031 C 
ATOM     47  C   UNL A   1      39.820  26.476  29.170  1.00  0.00     0.029 A 
ATOM     48  C   UNL A   1      41.125  26.680  28.544  1.00  0.00     0.049 A 
ATOM     49  H   UNL A   1      42.277  28.413  28.561  1.00  0.00     0.167 HD
ATOM     50  C   UNL A   1      44.624  32.085  28.698  1.00  0.00     0.037 A 
ATOM     51  C   UNL A   1      41.813  25.758  27.844  1.00  0.00     0.037 A 
ATOM     52  C   UNL A   1      45.464  31.140  28.010  1.00  0.00     0.049 A 
ATOM     53  C   UNL A   1      43.165  26.104  27.283  1.00  0.00     0.074 A 
ATOM     54  C   UNL A   1      46.749  31.320  27.527  1.00  0.00     0.029 A 
ATOM     55  N   UNL A   1      45.098  29.841  27.699  1.00  0.00    -0.354 N 
ATOM     56  N   UNL A   1      43.839  27.224  27.381  1.00  0.00    -0.248 NA
ATOM     57  C   UNL A   1      43.855  25.053  26.519  1.00  0.00     0.031 C 
ATOM     58  C   UNL A   1      47.146  30.140  26.887  1.00  0.00     0.029 A 
ATOM     59  C   UNL A   1      46.121  29.216  27.005  1.00  0.00     0.049 A 
ATOM     60  H   UNL A   1      44.238  29.424  27.936  1.00  0.00     0.167 HD
ATOM     61  C   UNL A   1      45.036  27.008  26.710  1.00  0.00     0.074 A 
ATOM     62  C   UNL A   1      45.002  25.646  26.218  1.00  0.00     0.031 C 
ATOM     63  C   UNL A   1      46.071  27.862  26.518  1.00  0.00     0.037 A 
BRANCH  50  64
ATOM     64  C   UNL A   1      45.142  33.476  28.900  1.00  0.00     0.057 A 
ATOM     65  C   UNL A   1      45.909  33.819  30.021  1.00  0.00     0.134 A 
ATOM     66  C   UNL A   1      44.897  34.475  27.950  1.00  0.00     0.134 A 
ATOM     67  F   UNL A   1      46.166  32.910  30.973  1.00  0.00    -0.206 F 
ATOM     68  C   UNL A   1      46.400  35.114  30.197  1.00  0.00     0.040 A 
ATOM     69  C   UNL A   1      45.399  35.768  28.106  1.00  0.00     0.040 A 
ATOM     70  F   UNL A   1      44.171  34.208  26.854  1.00  0.00    -0.206 F 
ATOM     71  C   UNL A   1      46.149  36.091  29.235  1.00  0.00     0.006 A 
ENDBRANCH  50  64
BRANCH  51  72
ATOM     72  C   UNL A   1      41.232  24.411  27.631  1.00  0.00     0.057 A 
ATOM     73  C   UNL A   1      41.684  23.304  28.355  1.00  0.00     0.134 A 
ATOM     74  C   UNL A   1      40.223  24.199  26.685  1.00  0.00     0.134 A 
ATOM     75  F   UNL A   1      42.667  23.442  29.258  1.00  0.00    -0.206 F 
ATOM     76  C   UNL A   1      41.159  22.028  28.140  1.00  0.00     0.040 A 
ATOM     77  C   UNL A   1      39.675  22.933  26.473  1.00  0.00     0.040 A 
ATOM     78  F   UNL A   1      39.750  25.223  25.959  1.00  0.00    -0.206 F 
ATOM     79  C   UNL A   1      40.148  21.842  27.200  1.00  0.00     0.006 A 
ENDBRANCH  51  72
BRANCH  63  80
ATOM     80  C   UNL A   1      47.254  27.344  25.756  1.00  0.00     0.057 A 
ATOM     81  C   UNL A   1      47.375  27.529  24.373  1.00  0.00     0.134 A 
ATOM     82  C   UNL A   1      48.298  26.684  26.416  1.00  0.00     0.134 A 
ATOM     83  F   UNL A   1      46.402  28.141  23.682  1.00  0.00    -0.206 F 
ATOM     84  C   UNL A   1      48.486  27.059  23.671  1.00  0.00     0.040 A 
ATOM     85  C   UNL A   1      49.423  26.228  25.728  1.00  0.00     0.040 A 
ATOM     86  F   UNL A   1      48.246  26.482  27.741  1.00  0.00    -0.206 F 
ATOM     87  C   UNL A   1      49.517  26.411  24.349  1.00  0.00     0.006 A 
ENDBRANCH  63  80
ENDBRANCH  37  38
ENDBRANCH  30  32
ENDBRANCH  29  30
ENDBRANCH  28  29
ENDBRANCH  27  28
ENDBRANCH   1  27
TORSDOF 17
ENDMDL
MODEL 3
REMARK VINA RESULT:     -11.3      0.838      5.997
REMARK SMILES CS(=O)(=O)c1ccc(N2N=C(C(=O)OCCOCCOC(=O)c3ccc(-c4c5nc(c(-c6c(F)cccc6F)c6ccc([nH]6)c(-c6c(F)cccc6F)c6nc(c(-c7c(F)cccc7F)c7ccc4[nH]7)C=C6)C=C5)cc3)C[C@H]2c2cccs2)cc1
REMARK SMILES IDX 17 1 16 2 15 3 14 4 12 5 13 6 11 7 9 8 10 9 78 10 77 11 8 12
REMARK SMILES IDX 5 13 6 14 85 15 7 16 84 17 2 18 1 19 3 20 4 21 79 22 80 23
REMARK SMILES IDX 83 24 81 25 82 26 18 27 19 28 20 29 21 30 22 31 23 32 24 33
REMARK SMILES IDX 76 34 25 35 75 36 26 37 27 38 28 39 69 40 29 41 74 42 68 43
REMARK SMILES IDX 70 44 30 45 73 46 67 47 66 48 31 50 57 51 40 52 56 53 41 54
REMARK SMILES IDX 44 55 55 56 71 57 42 58 43 59 54 61 72 62 45 63 32 64 33 65
REMARK SMILES IDX 38 66 34 67 35 68 37 69 39 70 36 71 58 72 59 73 64 74 60 75
REMARK SMILES IDX 61 76 63 77 65 78 62 79 46 80 47 81 52 82 48 83 49 84 51 85
REMARK SMILES IDX 53 86 50 87
REMARK H PARENT 70 49 44 60
REMARK Flexibility Score: inf
ROOT
ATOM      1  O   UNL A   1      31.305  28.570  24.630  1.00  0.00    -0.374 OA
ENDROOT
BRANCH   1   2
ATOM      2  C   UNL A   1      31.416  28.068  23.295  1.00  0.00     0.202 C 
BRANCH   2   3
ATOM      3  C   UNL A   1      32.794  28.283  22.669  1.00  0.00     0.261 C 
BRANCH   3   4
ATOM      4  O   UNL A   1      33.686  27.273  23.162  1.00  0.00    -0.459 OA
BRANCH   4   5
ATOM      5  C   UNL A   1      33.615  26.092  22.522  1.00  0.00     0.354 C 
ATOM      6  O   UNL A   1      33.504  25.891  21.328  1.00  0.00    -0.245 OA
BRANCH   5   7
ATOM      7  C   UNL A   1      33.814  24.990  23.528  1.00  0.00     0.148 C 
ATOM      8  N   UNL A   1      33.991  23.066  24.377  1.00  0.00    -0.256 N 
ATOM      9  N   UNL A   1      33.885  23.737  23.195  1.00  0.00    -0.169 NA
ATOM     10  C   UNL A   1      33.650  23.911  25.533  1.00  0.00     0.154 C 
ATOM     11  C   UNL A   1      34.029  25.293  24.981  1.00  0.00     0.099 C 
BRANCH   8  12
ATOM     12  C   UNL A   1      33.978  21.683  24.368  1.00  0.00     0.060 A 
ATOM     13  C   UNL A   1      33.890  18.877  24.349  1.00  0.00     0.067 A 
ATOM     14  C   UNL A   1      32.799  19.603  23.872  1.00  0.00     0.022 A 
ATOM     15  C   UNL A   1      35.022  19.532  24.837  1.00  0.00     0.022 A 
ATOM     16  C   UNL A   1      32.850  21.001  23.886  1.00  0.00     0.029 A 
ATOM     17  C   UNL A   1      35.050  20.928  24.859  1.00  0.00     0.029 A 
BRANCH  13  18
ATOM     18  S   UNL A   1      33.853  17.102  24.340  1.00  0.00     0.175 S 
ATOM     19  C   UNL A   1      32.529  16.682  25.444  1.00  0.00     0.163 C 
ATOM     20  O   UNL A   1      35.100  16.655  24.929  1.00  0.00    -0.224 OA
ATOM     21  O   UNL A   1      33.459  16.674  23.009  1.00  0.00    -0.224 OA
ENDBRANCH  13  18
ENDBRANCH   8  12
BRANCH  10  22
ATOM     22  C   UNL A   1      32.212  23.831  26.034  1.00  0.00     0.030 A 
ATOM     23  C   UNL A   1      31.626  22.775  26.714  1.00  0.00     0.017 A 
ATOM     24  S   UNL A   1      31.063  25.083  25.764  1.00  0.00    -0.147 S 
ATOM     25  C   UNL A   1      30.251  23.002  27.010  1.00  0.00     0.012 A 
ATOM     26  C   UNL A   1      29.827  24.234  26.572  1.00  0.00     0.065 A 
ENDBRANCH  10  22
ENDBRANCH   5   7
ENDBRANCH   4   5
ENDBRANCH   3   4
ENDBRANCH   2   3
ENDBRANCH   1   2
BRANCH   1  27
ATOM     27  C   UNL A   1      32.173  29.649  24.987  1.00  0.00     0.202 C 
BRANCH  27  28
ATOM     28  C   UNL A   1      31.508  30.753  25.816  1.00  0.00     0.261 C 
BRANCH  28  29
ATOM     29  O   UNL A   1      32.127  30.877  27.111  1.00  0.00    -0.460 OA
BRANCH  29  30
ATOM     30  C   UNL A   1      32.819  32.027  27.300  1.00  0.00     0.338 C 
ATOM     31  O   UNL A   1      32.399  33.167  27.205  1.00  0.00    -0.246 OA
BRANCH  30  32
ATOM     32  C   UNL A   1      34.171  31.726  27.815  1.00  0.00     0.060 A 
ATOM     33  C   UNL A   1      34.448  30.392  28.140  1.00  0.00     0.016 A 
ATOM     34  C   UNL A   1      35.128  32.720  28.034  1.00  0.00     0.016 A 
ATOM     35  C   UNL A   1      35.665  30.055  28.728  1.00  0.00     0.010 A 
ATOM     36  C   UNL A   1      36.349  32.380  28.631  1.00  0.00     0.010 A 
ATOM     37  C   UNL A   1      36.609  31.051  29.008  1.00  0.00    -0.014 A 
BRANCH  37  38
ATOM     38  C   UNL A   1      37.813  30.700  29.800  1.00  0.00     0.031 A 
ATOM     39  C   UNL A   1      38.897  29.873  29.169  1.00  0.00     0.074 A 
ATOM     40  C   UNL A   1      37.963  31.156  31.056  1.00  0.00     0.049 A 
ATOM     41  N   UNL A   1      40.050  29.500  29.664  1.00  0.00    -0.248 NA
ATOM     42  C   UNL A   1      38.651  29.405  27.795  1.00  0.00     0.031 C 
ATOM     43  C   UNL A   1      36.995  31.981  31.777  1.00  0.00     0.029 A 
ATOM     44  N   UNL A   1      38.993  30.989  31.947  1.00  0.00    -0.354 N 
ATOM     45  C   UNL A   1      40.669  28.761  28.664  1.00  0.00     0.074 A 
ATOM     46  C   UNL A   1      39.751  28.709  27.545  1.00  0.00     0.031 C 
ATOM     47  C   UNL A   1      37.477  32.246  33.003  1.00  0.00     0.029 A 
ATOM     48  C   UNL A   1      38.779  31.599  33.157  1.00  0.00     0.049 A 
ATOM     49  H   UNL A   1      39.809  30.480  31.737  1.00  0.00     0.167 HD
ATOM     50  C   UNL A   1      41.896  28.188  28.670  1.00  0.00     0.037 A 
ATOM     51  C   UNL A   1      39.543  31.627  34.266  1.00  0.00     0.037 A 
ATOM     52  C   UNL A   1      42.813  28.236  29.778  1.00  0.00     0.049 A 
ATOM     53  C   UNL A   1      40.881  30.939  34.266  1.00  0.00     0.074 A 
ATOM     54  C   UNL A   1      44.093  27.715  29.861  1.00  0.00     0.029 A 
ATOM     55  N   UNL A   1      42.544  28.832  30.999  1.00  0.00    -0.354 N 
ATOM     56  N   UNL A   1      41.474  30.284  33.297  1.00  0.00    -0.248 NA
ATOM     57  C   UNL A   1      41.657  30.999  35.514  1.00  0.00     0.031 C 
ATOM     58  C   UNL A   1      44.584  27.962  31.148  1.00  0.00     0.029 A 
ATOM     59  C   UNL A   1      43.623  28.668  31.853  1.00  0.00     0.049 A 
ATOM     60  H   UNL A   1      41.710  29.303  31.227  1.00  0.00     0.167 HD
ATOM     61  C   UNL A   1      42.698  29.872  33.811  1.00  0.00     0.074 A 
ATOM     62  C   UNL A   1      42.768  30.360  35.172  1.00  0.00     0.031 C 
ATOM     63  C   UNL A   1      43.676  29.154  33.207  1.00  0.00     0.037 A 
BRANCH  50  64
ATOM     64  C   UNL A   1      42.313  27.446  27.438  1.00  0.00     0.057 A 
ATOM     65  C   UNL A   1      42.928  28.097  26.360  1.00  0.00     0.134 A 
ATOM     66  C   UNL A   1      42.125  26.062  27.339  1.00  0.00     0.134 A 
ATOM     67  F   UNL A   1      43.122  29.424  26.389  1.00  0.00    -0.206 F 
ATOM     68  C   UNL A   1      43.326  27.398  25.219  1.00  0.00     0.040 A 
ATOM     69  C   UNL A   1      42.537  25.350  26.212  1.00  0.00     0.040 A 
ATOM     70  F   UNL A   1      41.545  25.381  28.339  1.00  0.00    -0.206 F 
ATOM     71  C   UNL A   1      43.136  26.019  25.146  1.00  0.00     0.006 A 
ENDBRANCH  50  64
BRANCH  51  72
ATOM     72  C   UNL A   1      39.061  32.334  35.476  1.00  0.00     0.057 A 
ATOM     73  C   UNL A   1      39.335  33.690  35.680  1.00  0.00     0.134 A 
ATOM     74  C   UNL A   1      38.328  31.665  36.462  1.00  0.00     0.134 A 
ATOM     75  F   UNL A   1      40.055  34.377  34.781  1.00  0.00    -0.206 F 
ATOM     76  C   UNL A   1      38.906  34.355  36.830  1.00  0.00     0.040 A 
ATOM     77  C   UNL A   1      37.876  32.321  37.607  1.00  0.00     0.040 A 
ATOM     78  F   UNL A   1      38.034  30.363  36.320  1.00  0.00    -0.206 F 
ATOM     79  C   UNL A   1      38.169  33.670  37.795  1.00  0.00     0.006 A 
ENDBRANCH  51  72
BRANCH  63  80
ATOM     80  C   UNL A   1      44.908  28.865  34.010  1.00  0.00     0.057 A 
ATOM     81  C   UNL A   1      45.991  29.753  34.040  1.00  0.00     0.134 A 
ATOM     82  C   UNL A   1      45.000  27.704  34.789  1.00  0.00     0.134 A 
ATOM     83  F   UNL A   1      45.969  30.876  33.305  1.00  0.00    -0.206 F 
ATOM     84  C   UNL A   1      47.130  29.488  34.802  1.00  0.00     0.040 A 
ATOM     85  C   UNL A   1      46.125  27.438  35.571  1.00  0.00     0.040 A 
ATOM     86  F   UNL A   1      43.995  26.817  34.810  1.00  0.00    -0.206 F 
ATOM     87  C   UNL A   1      47.197  28.330  35.575  1.00  0.00     0.006 A 
ENDBRANCH  63  80
ENDBRANCH  37  38
ENDBRANCH  30  32
ENDBRANCH  29  30
ENDBRANCH  28  29
ENDBRANCH  27  28
ENDBRANCH   1  27
TORSDOF 17
ENDMDL
