MODEL 1
REMARK VINA RESULT:     -10.7      0.000      0.000
REMARK SMILES O=C(C[C@@H]1CN(C(=O)[C@H]2C[C@H](O)C[NH2+]2)CCO1)OCCOCCOC(=O)c1ccc(-c2c3nc(c(-c4c(F)cccc4F)c4ccc([nH]4)c(-c4c(F)cccc4F)c4nc(c(-c5c(F)cccc5F)c5ccc2[nH]5)C=C4)C=C3)cc1
REMARK SMILES IDX 20 1 19 2 18 3 2 4 1 5 3 6 4 7 5 8 17 9 6 10 16 11 15 12
REMARK SMILES IDX 7 13 8 14 9 15 10 16 14 17 11 18 13 19 12 22 21 24 22 25
REMARK SMILES IDX 23 26 24 27 25 28 26 29 27 30 28 31 80 32 29 33 79 34 30 35
REMARK SMILES IDX 31 36 32 37 73 38 33 39 78 40 72 41 74 42 34 43 77 44 71 45
REMARK SMILES IDX 70 46 35 48 61 49 44 50 60 51 45 52 48 53 59 54 75 55 46 56
REMARK SMILES IDX 47 57 58 59 76 60 49 61 36 62 37 63 42 64 38 65 39 66 41 67
REMARK SMILES IDX 43 68 40 69 62 70 63 71 68 72 64 73 65 74 67 75 69 76 66 77
REMARK SMILES IDX 50 78 51 79 56 80 52 81 53 82 55 83 57 84 54 85
REMARK H PARENT 14 20 14 21 12 23 74 47 48 58
REMARK Flexibility Score: inf
ROOT
ATOM      1  C   UNL A   1      33.418  34.539  29.230  1.00  0.00     0.202 C 
ENDROOT
BRANCH   1   2
ATOM      2  C   UNL A   1      34.395  33.613  28.502  1.00  0.00     0.261 C 
BRANCH   2   3
ATOM      3  O   UNL A   1      34.300  32.202  28.737  1.00  0.00    -0.463 OA
BRANCH   3   4
ATOM      4  C   UNL A   1      34.243  31.235  27.803  1.00  0.00     0.308 C 
ATOM      5  O   UNL A   1      35.281  30.722  27.393  1.00  0.00    -0.252 OA
BRANCH   4   6
ATOM      6  C   UNL A   1      32.911  30.791  27.280  1.00  0.00     0.156 C 
BRANCH   6   7
ATOM      7  C   UNL A   1      32.958  29.613  26.316  1.00  0.00     0.148 C 
ATOM      8  C   UNL A   1      31.830  29.620  25.265  1.00  0.00     0.152 C 
ATOM      9  O   UNL A   1      32.895  28.412  27.113  1.00  0.00    -0.374 OA
ATOM     10  N   UNL A   1      31.875  28.411  24.444  1.00  0.00    -0.333 N 
ATOM     11  C   UNL A   1      33.009  27.238  26.296  1.00  0.00     0.182 C 
ATOM     12  C   UNL A   1      31.891  27.182  25.251  1.00  0.00     0.148 C 
BRANCH  10  13
ATOM     13  C   UNL A   1      31.788  28.303  23.064  1.00  0.00     0.281 C 
ATOM     14  O   UNL A   1      32.786  27.992  22.402  1.00  0.00    -0.268 OA
BRANCH  13  15
ATOM     15  C   UNL A   1      30.485  28.640  22.297  1.00  0.00     0.275 C 
ATOM     16  C   UNL A   1      29.142  28.442  22.996  1.00  0.00     0.113 C 
ATOM     17  N   UNL A   1      30.515  30.027  21.761  1.00  0.00    -0.334 N 
ATOM     18  C   UNL A   1      28.384  29.747  22.763  1.00  0.00     0.175 C 
ATOM     19  C   UNL A   1      29.107  30.388  21.584  1.00  0.00     0.293 C 
ATOM     20  H   UNL A   1      31.009  30.058  20.869  1.00  0.00     0.347 HD
ATOM     21  H   UNL A   1      31.003  30.671  22.383  1.00  0.00     0.347 HD
BRANCH  18  22
ATOM     22  O   UNL A   1      27.008  29.533  22.510  1.00  0.00    -0.387 OA
ATOM     23  H   UNL A   1      26.531  29.462  23.352  1.00  0.00     0.211 HD
ENDBRANCH  18  22
ENDBRANCH  13  15
ENDBRANCH  10  13
ENDBRANCH   6   7
ENDBRANCH   4   6
ENDBRANCH   3   4
ENDBRANCH   2   3
ENDBRANCH   1   2
BRANCH   1  24
ATOM     24  O   UNL A   1      33.914  35.506  30.136  1.00  0.00    -0.374 OA
BRANCH  24  25
ATOM     25  C   UNL A   1      33.801  35.297  31.538  1.00  0.00     0.202 C 
BRANCH  25  26
ATOM     26  C   UNL A   1      35.039  34.845  32.312  1.00  0.00     0.261 C 
BRANCH  26  27
ATOM     27  O   UNL A   1      35.802  33.829  31.636  1.00  0.00    -0.460 OA
BRANCH  27  28
ATOM     28  C   UNL A   1      36.089  32.737  32.384  1.00  0.00     0.338 C 
ATOM     29  O   UNL A   1      35.538  32.377  33.408  1.00  0.00    -0.246 OA
BRANCH  28  30
ATOM     30  C   UNL A   1      37.128  31.927  31.723  1.00  0.00     0.060 A 
ATOM     31  C   UNL A   1      38.079  31.286  32.528  1.00  0.00     0.016 A 
ATOM     32  C   UNL A   1      37.234  31.894  30.331  1.00  0.00     0.016 A 
ATOM     33  C   UNL A   1      39.164  30.637  31.938  1.00  0.00     0.010 A 
ATOM     34  C   UNL A   1      38.328  31.252  29.744  1.00  0.00     0.010 A 
ATOM     35  C   UNL A   1      39.312  30.645  30.544  1.00  0.00    -0.014 A 
BRANCH  35  36
ATOM     36  C   UNL A   1      40.540  30.101  29.919  1.00  0.00     0.031 A 
ATOM     37  C   UNL A   1      41.712  31.010  29.676  1.00  0.00     0.074 A 
ATOM     38  C   UNL A   1      40.598  28.809  29.553  1.00  0.00     0.049 A 
ATOM     39  N   UNL A   1      42.842  30.759  29.066  1.00  0.00    -0.248 NA
ATOM     40  C   UNL A   1      41.595  32.386  30.186  1.00  0.00     0.031 C 
ATOM     41  C   UNL A   1      39.534  27.828  29.754  1.00  0.00     0.029 A 
ATOM     42  N   UNL A   1      41.591  28.106  28.918  1.00  0.00    -0.354 N 
ATOM     43  C   UNL A   1      43.566  31.944  29.108  1.00  0.00     0.074 A 
ATOM     44  C   UNL A   1      42.743  32.919  29.790  1.00  0.00     0.031 C 
ATOM     45  C   UNL A   1      39.924  26.651  29.234  1.00  0.00     0.029 A 
ATOM     46  C   UNL A   1      41.245  26.808  28.630  1.00  0.00     0.049 A 
ATOM     47  H   UNL A   1      42.466  28.494  28.689  1.00  0.00     0.167 HD
ATOM     48  C   UNL A   1      44.806  32.192  28.624  1.00  0.00     0.037 A 
ATOM     49  C   UNL A   1      41.905  25.868  27.927  1.00  0.00     0.037 A 
ATOM     50  C   UNL A   1      45.625  31.219  27.949  1.00  0.00     0.049 A 
ATOM     51  C   UNL A   1      43.252  26.193  27.340  1.00  0.00     0.074 A 
ATOM     52  C   UNL A   1      46.912  31.366  27.461  1.00  0.00     0.029 A 
ATOM     53  N   UNL A   1      45.232  29.923  27.658  1.00  0.00    -0.354 N 
ATOM     54  N   UNL A   1      43.945  27.304  27.421  1.00  0.00    -0.248 NA
ATOM     55  C   UNL A   1      43.908  25.136  26.557  1.00  0.00     0.031 C 
ATOM     56  C   UNL A   1      47.280  30.172  26.832  1.00  0.00     0.029 A 
ATOM     57  C   UNL A   1      46.239  29.269  26.968  1.00  0.00     0.049 A 
ATOM     58  H   UNL A   1      44.366  29.526  27.906  1.00  0.00     0.167 HD
ATOM     59  C   UNL A   1      45.121  27.072  26.719  1.00  0.00     0.074 A 
ATOM     60  C   UNL A   1      45.057  25.709  26.234  1.00  0.00     0.031 C 
ATOM     61  C   UNL A   1      46.159  27.912  26.493  1.00  0.00     0.037 A 
BRANCH  48  62
ATOM     62  C   UNL A   1      45.355  33.578  28.787  1.00  0.00     0.057 A 
ATOM     63  C   UNL A   1      46.140  33.935  29.889  1.00  0.00     0.134 A 
ATOM     64  C   UNL A   1      45.149  34.546  27.796  1.00  0.00     0.134 A 
ATOM     65  F   UNL A   1      46.365  33.057  30.877  1.00  0.00    -0.206 F 
ATOM     66  C   UNL A   1      46.696  35.211  30.005  1.00  0.00     0.040 A 
ATOM     67  C   UNL A   1      45.715  35.818  27.890  1.00  0.00     0.040 A 
ATOM     68  F   UNL A   1      44.409  34.265  26.713  1.00  0.00    -0.206 F 
ATOM     69  C   UNL A   1      46.490  36.154  28.999  1.00  0.00     0.006 A 
ENDBRANCH  48  62
BRANCH  49  70
ATOM     70  C   UNL A   1      41.288  24.537  27.697  1.00  0.00     0.057 A 
ATOM     71  C   UNL A   1      41.687  23.416  28.433  1.00  0.00     0.134 A 
ATOM     72  C   UNL A   1      40.315  24.348  26.709  1.00  0.00     0.134 A 
ATOM     73  F   UNL A   1      42.634  23.530  29.376  1.00  0.00    -0.206 F 
ATOM     74  C   UNL A   1      41.155  22.150  28.180  1.00  0.00     0.040 A 
ATOM     75  C   UNL A   1      39.756  23.094  26.462  1.00  0.00     0.040 A 
ATOM     76  F   UNL A   1      39.888  25.384  25.971  1.00  0.00    -0.206 F 
ATOM     77  C   UNL A   1      40.184  21.988  27.194  1.00  0.00     0.006 A 
ENDBRANCH  49  70
BRANCH  61  78
ATOM     78  C   UNL A   1      47.318  27.375  25.705  1.00  0.00     0.057 A 
ATOM     79  C   UNL A   1      47.396  27.526  24.316  1.00  0.00     0.134 A 
ATOM     80  C   UNL A   1      48.384  26.734  26.349  1.00  0.00     0.134 A 
ATOM     81  F   UNL A   1      46.400  28.119  23.639  1.00  0.00    -0.206 F 
ATOM     82  C   UNL A   1      48.485  27.040  23.590  1.00  0.00     0.040 A 
ATOM     83  C   UNL A   1      49.489  26.266  25.636  1.00  0.00     0.040 A 
ATOM     84  F   UNL A   1      48.375  26.565  27.679  1.00  0.00    -0.206 F 
ATOM     85  C   UNL A   1      49.539  26.414  24.252  1.00  0.00     0.006 A 
ENDBRANCH  61  78
ENDBRANCH  35  36
ENDBRANCH  28  30
ENDBRANCH  27  28
ENDBRANCH  26  27
ENDBRANCH  25  26
ENDBRANCH  24  25
ENDBRANCH   1  24
TORSDOF 18
ENDMDL
MODEL 2
REMARK VINA RESULT:     -10.6      5.757     11.387
REMARK SMILES O=C(C[C@@H]1CN(C(=O)[C@H]2C[C@H](O)C[NH2+]2)CCO1)OCCOCCOC(=O)c1ccc(-c2c3nc(c(-c4c(F)cccc4F)c4ccc([nH]4)c(-c4c(F)cccc4F)c4nc(c(-c5c(F)cccc5F)c5ccc2[nH]5)C=C4)C=C3)cc1
REMARK SMILES IDX 20 1 19 2 18 3 2 4 1 5 3 6 4 7 5 8 17 9 6 10 16 11 15 12
REMARK SMILES IDX 7 13 8 14 9 15 10 16 14 17 11 18 13 19 12 22 21 24 22 25
REMARK SMILES IDX 23 26 24 27 25 28 26 29 27 30 28 31 80 32 29 33 79 34 30 35
REMARK SMILES IDX 31 36 32 37 73 38 33 39 78 40 72 41 74 42 34 43 77 44 71 45
REMARK SMILES IDX 70 46 35 48 61 49 44 50 60 51 45 52 48 53 59 54 75 55 46 56
REMARK SMILES IDX 47 57 58 59 76 60 49 61 36 62 37 63 42 64 38 65 39 66 41 67
REMARK SMILES IDX 43 68 40 69 62 70 63 71 68 72 64 73 65 74 67 75 69 76 66 77
REMARK SMILES IDX 50 78 51 79 56 80 52 81 53 82 55 83 57 84 54 85
REMARK H PARENT 14 20 14 21 12 23 74 47 48 58
REMARK Flexibility Score: inf
ROOT
ATOM      1  C   UNL A   1      45.943  19.404  24.512  1.00  0.00     0.202 C 
ENDROOT
BRANCH   1   2
ATOM      2  C   UNL A   1      44.435  19.185  24.377  1.00  0.00     0.261 C 
BRANCH   2   3
ATOM      3  O   UNL A   1      43.599  19.495  25.498  1.00  0.00    -0.463 OA
BRANCH   3   4
ATOM      4  C   UNL A   1      42.833  18.633  26.191  1.00  0.00     0.308 C 
ATOM      5  O   UNL A   1      42.615  17.511  25.739  1.00  0.00    -0.252 OA
BRANCH   4   6
ATOM      6  C   UNL A   1      42.259  19.051  27.511  1.00  0.00     0.156 C 
BRANCH   6   7
ATOM      7  C   UNL A   1      41.101  20.036  27.425  1.00  0.00     0.148 C 
ATOM      8  C   UNL A   1      40.450  20.113  26.030  1.00  0.00     0.152 C 
ATOM      9  O   UNL A   1      41.615  21.328  27.812  1.00  0.00    -0.374 OA
ATOM     10  N   UNL A   1      39.418  21.150  25.993  1.00  0.00    -0.333 N 
ATOM     11  C   UNL A   1      40.575  22.316  27.834  1.00  0.00     0.182 C 
ATOM     12  C   UNL A   1      39.913  22.453  26.460  1.00  0.00     0.148 C 
BRANCH  10  13
ATOM     13  C   UNL A   1      38.132  21.068  25.480  1.00  0.00     0.281 C 
ATOM     14  O   UNL A   1      37.723  20.004  25.000  1.00  0.00    -0.268 OA
BRANCH  13  15
ATOM     15  C   UNL A   1      37.197  22.302  25.413  1.00  0.00     0.275 C 
ATOM     16  C   UNL A   1      36.746  22.815  24.048  1.00  0.00     0.113 C 
ATOM     17  N   UNL A   1      35.981  22.105  26.246  1.00  0.00    -0.334 N 
ATOM     18  C   UNL A   1      35.232  22.976  24.172  1.00  0.00     0.175 C 
ATOM     19  C   UNL A   1      34.988  23.017  25.676  1.00  0.00     0.293 C 
ATOM     20  H   UNL A   1      36.170  22.342  27.221  1.00  0.00     0.347 HD
ATOM     21  H   UNL A   1      35.662  21.136  26.241  1.00  0.00     0.347 HD
BRANCH  18  22
ATOM     22  O   UNL A   1      34.758  24.134  23.510  1.00  0.00    -0.387 OA
ATOM     23  H   UNL A   1      35.505  24.611  23.116  1.00  0.00     0.211 HD
ENDBRANCH  18  22
ENDBRANCH  13  15
ENDBRANCH  10  13
ENDBRANCH   6   7
ENDBRANCH   4   6
ENDBRANCH   3   4
ENDBRANCH   2   3
ENDBRANCH   1   2
BRANCH   1  24
ATOM     24  O   UNL A   1      46.432  20.368  25.425  1.00  0.00    -0.374 OA
BRANCH  24  25
ATOM     25  C   UNL A   1      46.112  21.743  25.254  1.00  0.00     0.202 C 
BRANCH  25  26
ATOM     26  C   UNL A   1      45.340  22.457  26.363  1.00  0.00     0.261 C 
BRANCH  26  27
ATOM     27  O   UNL A   1      44.130  23.090  25.909  1.00  0.00    -0.460 OA
BRANCH  27  28
ATOM     28  C   UNL A   1      44.284  24.354  25.448  1.00  0.00     0.338 C 
ATOM     29  O   UNL A   1      44.830  24.704  24.418  1.00  0.00    -0.246 OA
BRANCH  28  30
ATOM     30  C   UNL A   1      43.582  25.305  26.329  1.00  0.00     0.060 A 
ATOM     31  C   UNL A   1      44.096  26.603  26.445  1.00  0.00     0.016 A 
ATOM     32  C   UNL A   1      42.506  24.892  27.116  1.00  0.00     0.016 A 
ATOM     33  C   UNL A   1      43.552  27.484  27.379  1.00  0.00     0.010 A 
ATOM     34  C   UNL A   1      41.971  25.774  28.059  1.00  0.00     0.010 A 
ATOM     35  C   UNL A   1      42.508  27.064  28.214  1.00  0.00    -0.014 A 
BRANCH  35  36
ATOM     36  C   UNL A   1      42.034  27.934  29.317  1.00  0.00     0.031 A 
ATOM     37  C   UNL A   1      42.733  27.889  30.647  1.00  0.00     0.074 A 
ATOM     38  C   UNL A   1      40.976  28.741  29.134  1.00  0.00     0.049 A 
ATOM     39  N   UNL A   1      42.426  28.499  31.763  1.00  0.00    -0.248 NA
ATOM     40  C   UNL A   1      43.934  27.044  30.732  1.00  0.00     0.031 C 
ATOM     41  C   UNL A   1      40.230  28.884  27.885  1.00  0.00     0.029 A 
ATOM     42  N   UNL A   1      40.333  29.580  30.009  1.00  0.00    -0.354 N 
ATOM     43  C   UNL A   1      43.387  28.106  32.686  1.00  0.00     0.074 A 
ATOM     44  C   UNL A   1      44.279  27.192  32.004  1.00  0.00     0.031 C 
ATOM     45  C   UNL A   1      39.218  29.746  28.079  1.00  0.00     0.029 A 
ATOM     46  C   UNL A   1      39.221  30.183  29.473  1.00  0.00     0.049 A 
ATOM     47  H   UNL A   1      40.638  29.735  30.932  1.00  0.00     0.167 HD
ATOM     48  C   UNL A   1      43.514  28.476  33.982  1.00  0.00     0.037 A 
ATOM     49  C   UNL A   1      38.293  30.967  30.054  1.00  0.00     0.037 A 
ATOM     50  C   UNL A   1      42.628  29.389  34.657  1.00  0.00     0.049 A 
ATOM     51  C   UNL A   1      38.420  31.307  31.514  1.00  0.00     0.074 A 
ATOM     52  C   UNL A   1      42.701  29.857  35.957  1.00  0.00     0.029 A 
ATOM     53  N   UNL A   1      41.502  29.961  34.087  1.00  0.00    -0.354 N 
ATOM     54  N   UNL A   1      39.355  30.962  32.367  1.00  0.00    -0.248 NA
ATOM     55  C   UNL A   1      37.358  32.141  32.097  1.00  0.00     0.031 C 
ATOM     56  C   UNL A   1      41.591  30.677  36.190  1.00  0.00     0.029 A 
ATOM     57  C   UNL A   1      40.853  30.753  35.020  1.00  0.00     0.049 A 
ATOM     58  H   UNL A   1      41.208  29.825  33.158  1.00  0.00     0.167 HD
ATOM     59  C   UNL A   1      39.005  31.550  33.576  1.00  0.00     0.074 A 
ATOM     60  C   UNL A   1      37.783  32.290  33.343  1.00  0.00     0.031 C 
ATOM     61  C   UNL A   1      39.637  31.482  34.772  1.00  0.00     0.037 A 
BRANCH  48  62
ATOM     62  C   UNL A   1      44.643  27.883  34.771  1.00  0.00     0.057 A 
ATOM     63  C   UNL A   1      45.891  28.510  34.859  1.00  0.00     0.134 A 
ATOM     64  C   UNL A   1      44.456  26.704  35.504  1.00  0.00     0.134 A 
ATOM     65  F   UNL A   1      46.136  29.636  34.172  1.00  0.00    -0.206 F 
ATOM     66  C   UNL A   1      46.919  27.981  35.642  1.00  0.00     0.040 A 
ATOM     67  C   UNL A   1      45.469  26.176  36.307  1.00  0.00     0.040 A 
ATOM     68  F   UNL A   1      43.282  26.057  35.466  1.00  0.00    -0.206 F 
ATOM     69  C   UNL A   1      46.705  26.814  36.375  1.00  0.00     0.006 A 
ENDBRANCH  48  62
BRANCH  49  70
ATOM     70  C   UNL A   1      37.131  31.455  29.269  1.00  0.00     0.057 A 
ATOM     71  C   UNL A   1      37.102  32.754  28.748  1.00  0.00     0.134 A 
ATOM     72  C   UNL A   1      36.007  30.649  29.056  1.00  0.00     0.134 A 
ATOM     73  F   UNL A   1      38.140  33.582  28.940  1.00  0.00    -0.206 F 
ATOM     74  C   UNL A   1      35.988  33.240  28.061  1.00  0.00     0.040 A 
ATOM     75  C   UNL A   1      34.896  31.113  28.350  1.00  0.00     0.040 A 
ATOM     76  F   UNL A   1      35.974  29.394  29.528  1.00  0.00    -0.206 F 
ATOM     77  C   UNL A   1      34.882  32.417  27.858  1.00  0.00     0.006 A 
ENDBRANCH  49  70
BRANCH  61  78
ATOM     78  C   UNL A   1      39.030  32.244  35.913  1.00  0.00     0.057 A 
ATOM     79  C   UNL A   1      38.154  31.635  36.820  1.00  0.00     0.134 A 
ATOM     80  C   UNL A   1      39.355  33.590  36.129  1.00  0.00     0.134 A 
ATOM     81  F   UNL A   1      37.793  30.353  36.660  1.00  0.00    -0.206 F 
ATOM     82  C   UNL A   1      37.606  32.343  37.891  1.00  0.00     0.040 A 
ATOM     83  C   UNL A   1      38.831  34.301  37.210  1.00  0.00     0.040 A 
ATOM     84  F   UNL A   1      40.194  34.229  35.302  1.00  0.00    -0.206 F 
ATOM     85  C   UNL A   1      37.950  33.679  38.091  1.00  0.00     0.006 A 
ENDBRANCH  61  78
ENDBRANCH  35  36
ENDBRANCH  28  30
ENDBRANCH  27  28
ENDBRANCH  26  27
ENDBRANCH  25  26
ENDBRANCH  24  25
ENDBRANCH   1  24
TORSDOF 18
ENDMDL
MODEL 3
REMARK VINA RESULT:     -10.5      5.782     11.505
REMARK SMILES O=C(C[C@@H]1CN(C(=O)[C@H]2C[C@H](O)C[NH2+]2)CCO1)OCCOCCOC(=O)c1ccc(-c2c3nc(c(-c4c(F)cccc4F)c4ccc([nH]4)c(-c4c(F)cccc4F)c4nc(c(-c5c(F)cccc5F)c5ccc2[nH]5)C=C4)C=C3)cc1
REMARK SMILES IDX 20 1 19 2 18 3 2 4 1 5 3 6 4 7 5 8 17 9 6 10 16 11 15 12
REMARK SMILES IDX 7 13 8 14 9 15 10 16 14 17 11 18 13 19 12 22 21 24 22 25
REMARK SMILES IDX 23 26 24 27 25 28 26 29 27 30 28 31 80 32 29 33 79 34 30 35
REMARK SMILES IDX 31 36 32 37 73 38 33 39 78 40 72 41 74 42 34 43 77 44 71 45
REMARK SMILES IDX 70 46 35 48 61 49 44 50 60 51 45 52 48 53 59 54 75 55 46 56
REMARK SMILES IDX 47 57 58 59 76 60 49 61 36 62 37 63 42 64 38 65 39 66 41 67
REMARK SMILES IDX 43 68 40 69 62 70 63 71 68 72 64 73 65 74 67 75 69 76 66 77
REMARK SMILES IDX 50 78 51 79 56 80 52 81 53 82 55 83 57 84 54 85
REMARK H PARENT 14 20 14 21 12 23 74 47 48 58
REMARK Flexibility Score: inf
ROOT
ATOM      1  C   UNL A   1      45.971  19.820  24.500  1.00  0.00     0.202 C 
ENDROOT
BRANCH   1   2
ATOM      2  C   UNL A   1      44.588  19.166  24.450  1.00  0.00     0.261 C 
BRANCH   2   3
ATOM      3  O   UNL A   1      43.631  19.522  25.455  1.00  0.00    -0.463 OA
BRANCH   3   4
ATOM      4  C   UNL A   1      42.861  18.677  26.166  1.00  0.00     0.308 C 
ATOM      5  O   UNL A   1      42.622  17.555  25.728  1.00  0.00    -0.252 OA
BRANCH   4   6
ATOM      6  C   UNL A   1      42.310  19.116  27.490  1.00  0.00     0.156 C 
BRANCH   6   7
ATOM      7  C   UNL A   1      41.163  20.113  27.409  1.00  0.00     0.148 C 
ATOM      8  C   UNL A   1      40.494  20.184  26.021  1.00  0.00     0.152 C 
ATOM      9  O   UNL A   1      41.695  21.402  27.777  1.00  0.00    -0.374 OA
ATOM     10  N   UNL A   1      39.474  21.231  25.987  1.00  0.00    -0.333 N 
ATOM     11  C   UNL A   1      40.666  22.402  27.804  1.00  0.00     0.182 C 
ATOM     12  C   UNL A   1      39.988  22.534  26.437  1.00  0.00     0.148 C 
BRANCH  10  13
ATOM     13  C   UNL A   1      38.181  21.159  25.491  1.00  0.00     0.281 C 
ATOM     14  O   UNL A   1      37.761  20.101  25.008  1.00  0.00    -0.268 OA
BRANCH  13  15
ATOM     15  C   UNL A   1      37.250  22.397  25.447  1.00  0.00     0.275 C 
ATOM     16  C   UNL A   1      36.781  22.923  24.092  1.00  0.00     0.113 C 
ATOM     17  N   UNL A   1      36.045  22.198  26.296  1.00  0.00    -0.334 N 
ATOM     18  C   UNL A   1      35.270  23.089  24.240  1.00  0.00     0.175 C 
ATOM     19  C   UNL A   1      35.048  23.119  25.747  1.00  0.00     0.293 C 
ATOM     20  H   UNL A   1      36.248  22.427  27.269  1.00  0.00     0.347 HD
ATOM     21  H   UNL A   1      35.722  21.231  26.288  1.00  0.00     0.347 HD
BRANCH  18  22
ATOM     22  O   UNL A   1      34.791  24.253  23.593  1.00  0.00    -0.387 OA
ATOM     23  H   UNL A   1      34.158  24.003  22.902  1.00  0.00     0.211 HD
ENDBRANCH  18  22
ENDBRANCH  13  15
ENDBRANCH  10  13
ENDBRANCH   6   7
ENDBRANCH   4   6
ENDBRANCH   3   4
ENDBRANCH   2   3
ENDBRANCH   1   2
BRANCH   1  24
ATOM     24  O   UNL A   1      46.273  20.741  25.530  1.00  0.00    -0.374 OA
BRANCH  24  25
ATOM     25  C   UNL A   1      46.085  22.135  25.322  1.00  0.00     0.202 C 
BRANCH  25  26
ATOM     26  C   UNL A   1      45.155  22.896  26.266  1.00  0.00     0.261 C 
BRANCH  26  27
ATOM     27  O   UNL A   1      44.180  23.708  25.587  1.00  0.00    -0.460 OA
BRANCH  27  28
ATOM     28  C   UNL A   1      44.502  25.019  25.481  1.00  0.00     0.338 C 
ATOM     29  O   UNL A   1      45.241  25.536  24.663  1.00  0.00    -0.246 OA
BRANCH  28  30
ATOM     30  C   UNL A   1      43.728  25.813  26.453  1.00  0.00     0.060 A 
ATOM     31  C   UNL A   1      44.211  27.079  26.808  1.00  0.00     0.016 A 
ATOM     32  C   UNL A   1      42.609  25.272  27.090  1.00  0.00     0.016 A 
ATOM     33  C   UNL A   1      43.593  27.796  27.832  1.00  0.00     0.010 A 
ATOM     34  C   UNL A   1      41.999  25.989  28.124  1.00  0.00     0.010 A 
ATOM     35  C   UNL A   1      42.504  27.241  28.518  1.00  0.00    -0.014 A 
BRANCH  35  36
ATOM     36  C   UNL A   1      41.944  27.920  29.710  1.00  0.00     0.031 A 
ATOM     37  C   UNL A   1      40.710  28.766  29.569  1.00  0.00     0.074 A 
ATOM     38  C   UNL A   1      42.547  27.795  30.905  1.00  0.00     0.049 A 
ATOM     39  N   UNL A   1      40.111  29.511  30.462  1.00  0.00    -0.248 NA
ATOM     40  C   UNL A   1      40.066  28.775  28.246  1.00  0.00     0.031 C 
ATOM     41  C   UNL A   1      43.737  26.989  31.168  1.00  0.00     0.029 A 
ATOM     42  N   UNL A   1      42.250  28.365  32.117  1.00  0.00    -0.354 N 
ATOM     43  C   UNL A   1      39.028  30.087  29.810  1.00  0.00     0.074 A 
ATOM     44  C   UNL A   1      39.060  29.617  28.442  1.00  0.00     0.031 C 
ATOM     45  C   UNL A   1      44.081  27.129  32.461  1.00  0.00     0.029 A 
ATOM     46  C   UNL A   1      43.160  28.066  33.101  1.00  0.00     0.049 A 
ATOM     47  H   UNL A   1      41.461  28.935  32.267  1.00  0.00     0.167 HD
ATOM     48  C   UNL A   1      38.093  30.928  30.310  1.00  0.00     0.037 A 
ATOM     49  C   UNL A   1      43.259  28.526  34.363  1.00  0.00     0.037 A 
ATOM     50  C   UNL A   1      38.060  31.392  31.673  1.00  0.00     0.049 A 
ATOM     51  C   UNL A   1      42.245  29.514  34.871  1.00  0.00     0.074 A 
ATOM     52  C   UNL A   1      37.127  32.212  32.283  1.00  0.00     0.029 A 
ATOM     53  N   UNL A   1      39.011  31.084  32.632  1.00  0.00    -0.354 N 
ATOM     54  N   UNL A   1      41.201  30.020  34.259  1.00  0.00    -0.248 NA
ATOM     55  C   UNL A   1      42.424  30.002  36.247  1.00  0.00     0.031 C 
ATOM     56  C   UNL A   1      37.539  32.439  33.600  1.00  0.00     0.029 A 
ATOM     57  C   UNL A   1      38.704  31.724  33.822  1.00  0.00     0.049 A 
ATOM     58  H   UNL A   1      39.788  30.496  32.491  1.00  0.00     0.167 HD
ATOM     59  C   UNL A   1      40.593  30.867  35.177  1.00  0.00     0.074 A 
ATOM     60  C   UNL A   1      41.372  30.794  36.395  1.00  0.00     0.031 C 
ATOM     61  C   UNL A   1      39.490  31.640  35.025  1.00  0.00     0.037 A 
BRANCH  48  62
ATOM     62  C   UNL A   1      37.028  31.423  29.376  1.00  0.00     0.057 A 
ATOM     63  C   UNL A   1      35.913  30.643  29.049  1.00  0.00     0.134 A 
ATOM     64  C   UNL A   1      37.089  32.721  28.853  1.00  0.00     0.134 A 
ATOM     65  F   UNL A   1      35.802  29.388  29.509  1.00  0.00    -0.206 F 
ATOM     66  C   UNL A   1      34.898  31.133  28.224  1.00  0.00     0.040 A 
ATOM     67  C   UNL A   1      36.071  33.229  28.044  1.00  0.00     0.040 A 
ATOM     68  F   UNL A   1      38.128  33.520  29.132  1.00  0.00    -0.206 F 
ATOM     69  C   UNL A   1      34.972  32.433  27.727  1.00  0.00     0.006 A 
ENDBRANCH  48  62
BRANCH  49  70
ATOM     70  C   UNL A   1      44.384  28.093  35.230  1.00  0.00     0.057 A 
ATOM     71  C   UNL A   1      44.264  26.984  36.075  1.00  0.00     0.134 A 
ATOM     72  C   UNL A   1      45.590  28.803  35.263  1.00  0.00     0.134 A 
ATOM     73  F   UNL A   1      43.123  26.279  36.105  1.00  0.00    -0.206 F 
ATOM     74  C   UNL A   1      45.296  26.608  36.937  1.00  0.00     0.040 A 
ATOM     75  C   UNL A   1      46.640  28.424  36.101  1.00  0.00     0.040 A 
ATOM     76  F   UNL A   1      45.768  29.874  34.475  1.00  0.00    -0.206 F 
ATOM     77  C   UNL A   1      46.490  27.328  36.948  1.00  0.00     0.006 A 
ENDBRANCH  49  70
BRANCH  61  78
ATOM     78  C   UNL A   1      39.050  32.448  36.209  1.00  0.00     0.057 A 
ATOM     79  C   UNL A   1      39.465  33.772  36.391  1.00  0.00     0.134 A 
ATOM     80  C   UNL A   1      38.171  31.908  37.157  1.00  0.00     0.134 A 
ATOM     81  F   UNL A   1      40.318  34.343  35.526  1.00  0.00    -0.206 F 
ATOM     82  C   UNL A   1      39.039  34.526  37.486  1.00  0.00     0.040 A 
ATOM     83  C   UNL A   1      37.718  32.660  38.242  1.00  0.00     0.040 A 
ATOM     84  F   UNL A   1      37.729  30.648  37.036  1.00  0.00    -0.206 F 
ATOM     85  C   UNL A   1      38.157  33.971  38.412  1.00  0.00     0.006 A 
ENDBRANCH  61  78
ENDBRANCH  35  36
ENDBRANCH  28  30
ENDBRANCH  27  28
ENDBRANCH  26  27
ENDBRANCH  25  26
ENDBRANCH  24  25
ENDBRANCH   1  24
TORSDOF 18
ENDMDL
