MODEL 1
REMARK VINA RESULT:     -11.3      0.000      0.000
REMARK SMILES O=C(COc1ccccc1/C=C1/SC(=O)N(c2ccc(F)cc2)C1=O)OCCOCCOC(=O)c1ccc(-c2c3nc(c(-c4c(F)cccc4F)c4ccc([nH]4)c(-c4c(F)cccc4F)c4nc(c(-c5c(F)cccc5F)c5ccc2[nH]5)C=C4)C=C3)cc1
REMARK SMILES IDX 28 1 27 2 26 3 2 4 1 5 3 6 4 7 5 8 6 9 10 10 7 11 9 12 8 13
REMARK SMILES IDX 11 14 12 15 13 16 24 17 14 18 16 19 25 20 15 21 17 22 18 23
REMARK SMILES IDX 23 24 19 25 22 26 20 27 21 28 29 29 30 30 31 31 32 32 33 33
REMARK SMILES IDX 34 34 35 35 36 36 88 37 37 38 87 39 38 40 39 41 40 42 81 43
REMARK SMILES IDX 41 44 86 45 80 46 82 47 42 48 85 49 79 50 78 51 43 53 69 54
REMARK SMILES IDX 52 55 68 56 53 57 56 58 67 59 83 60 54 61 55 62 66 64 84 65
REMARK SMILES IDX 57 66 44 67 45 68 50 69 46 70 47 71 49 72 51 73 48 74 70 75
REMARK SMILES IDX 71 76 76 77 72 78 73 79 75 80 77 81 74 82 58 83 59 84 64 85
REMARK SMILES IDX 60 86 61 87 63 88 65 89 62 90
REMARK H PARENT 82 52 56 63
REMARK Flexibility Score: inf
ROOT
ATOM      1  C   UNL A   1      30.622  30.423  24.910  1.00  0.00     0.202 C 
ENDROOT
BRANCH   1   2
ATOM      2  C   UNL A   1      29.901  30.150  23.587  1.00  0.00     0.261 C 
BRANCH   2   3
ATOM      3  O   UNL A   1      30.724  29.786  22.470  1.00  0.00    -0.461 OA
BRANCH   3   4
ATOM      4  C   UNL A   1      31.450  28.649  22.360  1.00  0.00     0.344 C 
ATOM      5  O   UNL A   1      30.911  27.618  21.958  1.00  0.00    -0.248 OA
BRANCH   4   6
ATOM      6  C   UNL A   1      32.920  28.685  22.723  1.00  0.00     0.351 C 
BRANCH   6   7
ATOM      7  O   UNL A   1      33.300  27.629  23.601  1.00  0.00    -0.481 OA
BRANCH   7   8
ATOM      8  C   UNL A   1      32.926  27.852  24.899  1.00  0.00     0.127 A 
ATOM      9  C   UNL A   1      33.684  28.766  25.632  1.00  0.00     0.047 A 
ATOM     10  C   UNL A   1      31.916  27.099  25.522  1.00  0.00     0.018 A 
ATOM     11  C   UNL A   1      33.413  28.964  26.983  1.00  0.00     0.004 A 
ATOM     12  C   UNL A   1      31.639  27.323  26.874  1.00  0.00     0.012 A 
ATOM     13  C   UNL A   1      32.387  28.249  27.602  1.00  0.00     0.001 A 
BRANCH  10  14
ATOM     14  C   UNL A   1      31.153  26.060  24.828  1.00  0.00     0.033 C 
ATOM     15  C   UNL A   1      31.575  24.803  24.643  1.00  0.00     0.084 C 
ATOM     16  S   UNL A   1      30.754  23.702  23.606  1.00  0.00    -0.022 SA
ATOM     17  C   UNL A   1      32.854  24.188  25.113  1.00  0.00     0.272 C 
ATOM     18  C   UNL A   1      32.218  22.772  23.365  1.00  0.00     0.298 C 
ATOM     19  N   UNL A   1      33.168  23.117  24.291  1.00  0.00    -0.236 N 
ATOM     20  O   UNL A   1      33.514  24.612  26.049  1.00  0.00    -0.268 OA
ATOM     21  O   UNL A   1      32.303  21.950  22.458  1.00  0.00    -0.260 OA
BRANCH  19  22
ATOM     22  C   UNL A   1      34.438  22.487  24.353  1.00  0.00     0.053 A 
ATOM     23  C   UNL A   1      34.626  21.327  25.113  1.00  0.00     0.030 A 
ATOM     24  C   UNL A   1      35.538  23.037  23.679  1.00  0.00     0.030 A 
ATOM     25  C   UNL A   1      35.885  20.719  25.175  1.00  0.00     0.041 A 
ATOM     26  C   UNL A   1      36.805  22.460  23.781  1.00  0.00     0.041 A 
ATOM     27  C   UNL A   1      36.965  21.298  24.520  1.00  0.00     0.123 A 
ATOM     28  F   UNL A   1      38.175  20.733  24.606  1.00  0.00    -0.207 F 
ENDBRANCH  19  22
ENDBRANCH  10  14
ENDBRANCH   7   8
ENDBRANCH   6   7
ENDBRANCH   4   6
ENDBRANCH   3   4
ENDBRANCH   2   3
ENDBRANCH   1   2
BRANCH   1  29
ATOM     29  O   UNL A   1      30.669  31.754  25.382  1.00  0.00    -0.374 OA
BRANCH  29  30
ATOM     30  C   UNL A   1      31.344  32.014  26.611  1.00  0.00     0.202 C 
BRANCH  30  31
ATOM     31  C   UNL A   1      32.128  33.323  26.786  1.00  0.00     0.261 C 
BRANCH  31  32
ATOM     32  O   UNL A   1      32.194  33.841  28.130  1.00  0.00    -0.460 OA
BRANCH  32  33
ATOM     33  C   UNL A   1      33.306  34.576  28.399  1.00  0.00     0.338 C 
ATOM     34  O   UNL A   1      33.392  35.794  28.423  1.00  0.00    -0.246 OA
BRANCH  33  35
ATOM     35  C   UNL A   1      34.456  33.721  28.745  1.00  0.00     0.060 A 
ATOM     36  C   UNL A   1      34.206  32.448  29.269  1.00  0.00     0.016 A 
ATOM     37  C   UNL A   1      35.760  34.220  28.705  1.00  0.00     0.016 A 
ATOM     38  C   UNL A   1      35.264  31.654  29.723  1.00  0.00     0.010 A 
ATOM     39  C   UNL A   1      36.817  33.432  29.185  1.00  0.00     0.010 A 
ATOM     40  C   UNL A   1      36.576  32.146  29.700  1.00  0.00    -0.014 A 
BRANCH  40  41
ATOM     41  C   UNL A   1      37.676  31.370  30.334  1.00  0.00     0.031 A 
ATOM     42  C   UNL A   1      38.014  31.632  31.773  1.00  0.00     0.074 A 
ATOM     43  C   UNL A   1      38.364  30.437  29.649  1.00  0.00     0.049 A 
ATOM     44  N   UNL A   1      38.972  31.124  32.506  1.00  0.00    -0.248 NA
ATOM     45  C   UNL A   1      37.153  32.591  32.483  1.00  0.00     0.031 C 
ATOM     46  C   UNL A   1      38.103  30.038  28.271  1.00  0.00     0.029 A 
ATOM     47  N   UNL A   1      39.437  29.661  30.021  1.00  0.00    -0.354 N 
ATOM     48  C   UNL A   1      38.827  31.696  33.763  1.00  0.00     0.074 A 
ATOM     49  C   UNL A   1      37.701  32.603  33.690  1.00  0.00     0.031 C 
ATOM     50  C   UNL A   1      39.006  29.115  27.898  1.00  0.00     0.029 A 
ATOM     51  C   UNL A   1      39.930  28.877  29.005  1.00  0.00     0.049 A 
ATOM     52  H   UNL A   1      39.817  29.667  30.929  1.00  0.00     0.167 HD
ATOM     53  C   UNL A   1      39.565  31.484  34.878  1.00  0.00     0.037 A 
ATOM     54  C   UNL A   1      41.018  28.084  28.962  1.00  0.00     0.037 A 
ATOM     55  C   UNL A   1      40.696  30.599  34.952  1.00  0.00     0.049 A 
ATOM     56  C   UNL A   1      41.886  27.950  30.187  1.00  0.00     0.074 A 
ATOM     57  C   UNL A   1      41.500  30.321  36.044  1.00  0.00     0.029 A 
ATOM     58  N   UNL A   1      41.191  29.860  33.891  1.00  0.00    -0.354 N 
ATOM     59  N   UNL A   1      41.726  28.478  31.376  1.00  0.00    -0.248 NA
ATOM     60  C   UNL A   1      43.090  27.114  30.060  1.00  0.00     0.031 C 
ATOM     61  C   UNL A   1      42.511  29.447  35.631  1.00  0.00     0.029 A 
ATOM     62  C   UNL A   1      42.310  29.149  34.293  1.00  0.00     0.049 A 
ATOM     63  H   UNL A   1      40.804  29.842  32.985  1.00  0.00     0.167 HD
ATOM     64  C   UNL A   1      42.791  28.020  32.142  1.00  0.00     0.074 A 
ATOM     65  C   UNL A   1      43.583  27.160  31.290  1.00  0.00     0.031 C 
ATOM     66  C   UNL A   1      43.087  28.291  33.437  1.00  0.00     0.037 A 
BRANCH  53  67
ATOM     67  C   UNL A   1      39.187  32.253  36.106  1.00  0.00     0.057 A 
ATOM     68  C   UNL A   1      39.725  33.517  36.377  1.00  0.00     0.134 A 
ATOM     69  C   UNL A   1      38.248  31.739  37.008  1.00  0.00     0.134 A 
ATOM     70  F   UNL A   1      40.640  34.057  35.558  1.00  0.00    -0.206 F 
ATOM     71  C   UNL A   1      39.351  34.237  37.512  1.00  0.00     0.040 A 
ATOM     72  C   UNL A   1      37.853  32.457  38.136  1.00  0.00     0.040 A 
ATOM     73  F   UNL A   1      37.696  30.533  36.801  1.00  0.00    -0.206 F 
ATOM     74  C   UNL A   1      38.407  33.709  38.393  1.00  0.00     0.006 A 
ENDBRANCH  53  67
BRANCH  54  75
ATOM     75  C   UNL A   1      41.392  27.380  27.708  1.00  0.00     0.057 A 
ATOM     76  C   UNL A   1      42.129  28.021  26.705  1.00  0.00     0.134 A 
ATOM     77  C   UNL A   1      40.963  26.071  27.455  1.00  0.00     0.134 A 
ATOM     78  F   UNL A   1      42.543  29.285  26.875  1.00  0.00    -0.206 F 
ATOM     79  C   UNL A   1      42.405  27.396  25.488  1.00  0.00     0.040 A 
ATOM     80  C   UNL A   1      41.253  25.426  26.251  1.00  0.00     0.040 A 
ATOM     81  F   UNL A   1      40.248  25.402  28.370  1.00  0.00    -0.206 F 
ATOM     82  C   UNL A   1      41.967  26.093  25.258  1.00  0.00     0.006 A 
ENDBRANCH  54  75
BRANCH  66  83
ATOM     83  C   UNL A   1      44.303  27.634  34.018  1.00  0.00     0.057 A 
ATOM     84  C   UNL A   1      45.554  28.265  34.015  1.00  0.00     0.134 A 
ATOM     85  C   UNL A   1      44.215  26.376  34.628  1.00  0.00     0.134 A 
ATOM     86  F   UNL A   1      45.708  29.464  33.434  1.00  0.00    -0.206 F 
ATOM     87  C   UNL A   1      46.676  27.661  34.584  1.00  0.00     0.040 A 
ATOM     88  C   UNL A   1      45.324  25.772  35.221  1.00  0.00     0.040 A 
ATOM     89  F   UNL A   1      43.045  25.721  34.670  1.00  0.00    -0.206 F 
ATOM     90  C   UNL A   1      46.561  26.414  35.196  1.00  0.00     0.006 A 
ENDBRANCH  66  83
ENDBRANCH  40  41
ENDBRANCH  33  35
ENDBRANCH  32  33
ENDBRANCH  31  32
ENDBRANCH  30  31
ENDBRANCH  29  30
ENDBRANCH   1  29
TORSDOF 18
ENDMDL
MODEL 2
REMARK VINA RESULT:     -11.0      0.529      5.993
REMARK SMILES O=C(COc1ccccc1/C=C1/SC(=O)N(c2ccc(F)cc2)C1=O)OCCOCCOC(=O)c1ccc(-c2c3nc(c(-c4c(F)cccc4F)c4ccc([nH]4)c(-c4c(F)cccc4F)c4nc(c(-c5c(F)cccc5F)c5ccc2[nH]5)C=C4)C=C3)cc1
REMARK SMILES IDX 28 1 27 2 26 3 2 4 1 5 3 6 4 7 5 8 6 9 10 10 7 11 9 12 8 13
REMARK SMILES IDX 11 14 12 15 13 16 24 17 14 18 16 19 25 20 15 21 17 22 18 23
REMARK SMILES IDX 23 24 19 25 22 26 20 27 21 28 29 29 30 30 31 31 32 32 33 33
REMARK SMILES IDX 34 34 35 35 36 36 88 37 37 38 87 39 38 40 39 41 40 42 81 43
REMARK SMILES IDX 41 44 86 45 80 46 82 47 42 48 85 49 79 50 78 51 43 53 69 54
REMARK SMILES IDX 52 55 68 56 53 57 56 58 67 59 83 60 54 61 55 62 66 64 84 65
REMARK SMILES IDX 57 66 44 67 45 68 50 69 46 70 47 71 49 72 51 73 48 74 70 75
REMARK SMILES IDX 71 76 76 77 72 78 73 79 75 80 77 81 74 82 58 83 59 84 64 85
REMARK SMILES IDX 60 86 61 87 63 88 65 89 62 90
REMARK H PARENT 82 52 56 63
REMARK Flexibility Score: inf
ROOT
ATOM      1  C   UNL A   1      30.949  30.519  24.959  1.00  0.00     0.202 C 
ENDROOT
BRANCH   1   2
ATOM      2  C   UNL A   1      30.039  30.166  23.780  1.00  0.00     0.261 C 
BRANCH   2   3
ATOM      3  O   UNL A   1      30.687  29.741  22.573  1.00  0.00    -0.461 OA
BRANCH   3   4
ATOM      4  C   UNL A   1      31.438  28.625  22.429  1.00  0.00     0.344 C 
ATOM      5  O   UNL A   1      30.916  27.584  22.032  1.00  0.00    -0.248 OA
BRANCH   4   6
ATOM      6  C   UNL A   1      32.917  28.696  22.751  1.00  0.00     0.351 C 
BRANCH   6   7
ATOM      7  O   UNL A   1      33.348  27.647  23.614  1.00  0.00    -0.481 OA
BRANCH   7   8
ATOM      8  C   UNL A   1      32.979  27.841  24.918  1.00  0.00     0.127 A 
ATOM      9  C   UNL A   1      33.729  28.751  25.662  1.00  0.00     0.047 A 
ATOM     10  C   UNL A   1      31.981  27.064  25.533  1.00  0.00     0.018 A 
ATOM     11  C   UNL A   1      33.464  28.921  27.019  1.00  0.00     0.004 A 
ATOM     12  C   UNL A   1      31.710  27.260  26.890  1.00  0.00     0.012 A 
ATOM     13  C   UNL A   1      32.451  28.183  27.631  1.00  0.00     0.001 A 
BRANCH  10  14
ATOM     14  C   UNL A   1      31.229  26.028  24.824  1.00  0.00     0.033 C 
ATOM     15  C   UNL A   1      31.647  24.768  24.650  1.00  0.00     0.084 C 
ATOM     16  S   UNL A   1      30.842  23.670  23.597  1.00  0.00    -0.022 SA
ATOM     17  C   UNL A   1      32.913  24.148  25.148  1.00  0.00     0.272 C 
ATOM     18  C   UNL A   1      32.306  22.732  23.389  1.00  0.00     0.298 C 
ATOM     19  N   UNL A   1      33.238  23.074  24.334  1.00  0.00    -0.236 N 
ATOM     20  O   UNL A   1      33.555  24.569  26.097  1.00  0.00    -0.268 OA
ATOM     21  O   UNL A   1      32.406  21.908  22.486  1.00  0.00    -0.260 OA
BRANCH  19  22
ATOM     22  C   UNL A   1      34.503  22.437  24.424  1.00  0.00     0.053 A 
ATOM     23  C   UNL A   1      35.592  22.896  23.674  1.00  0.00     0.030 A 
ATOM     24  C   UNL A   1      34.675  21.310  25.243  1.00  0.00     0.030 A 
ATOM     25  C   UNL A   1      36.832  22.255  23.763  1.00  0.00     0.041 A 
ATOM     26  C   UNL A   1      35.898  20.640  25.294  1.00  0.00     0.041 A 
ATOM     27  C   UNL A   1      36.970  21.125  24.561  1.00  0.00     0.123 A 
ATOM     28  F   UNL A   1      38.149  20.493  24.621  1.00  0.00    -0.207 F 
ENDBRANCH  19  22
ENDBRANCH  10  14
ENDBRANCH   7   8
ENDBRANCH   6   7
ENDBRANCH   4   6
ENDBRANCH   3   4
ENDBRANCH   2   3
ENDBRANCH   1   2
BRANCH   1  29
ATOM     29  O   UNL A   1      30.752  31.759  25.608  1.00  0.00    -0.374 OA
BRANCH  29  30
ATOM     30  C   UNL A   1      31.400  31.981  26.859  1.00  0.00     0.202 C 
BRANCH  30  31
ATOM     31  C   UNL A   1      32.334  33.188  27.027  1.00  0.00     0.261 C 
BRANCH  31  32
ATOM     32  O   UNL A   1      32.199  33.919  28.264  1.00  0.00    -0.460 OA
BRANCH  32  33
ATOM     33  C   UNL A   1      33.265  34.703  28.575  1.00  0.00     0.338 C 
ATOM     34  O   UNL A   1      33.299  35.924  28.587  1.00  0.00    -0.246 OA
BRANCH  33  35
ATOM     35  C   UNL A   1      34.431  33.902  28.988  1.00  0.00     0.060 A 
ATOM     36  C   UNL A   1      34.237  32.869  29.912  1.00  0.00     0.016 A 
ATOM     37  C   UNL A   1      35.724  34.259  28.597  1.00  0.00     0.016 A 
ATOM     38  C   UNL A   1      35.333  32.165  30.422  1.00  0.00     0.010 A 
ATOM     39  C   UNL A   1      36.823  33.569  29.130  1.00  0.00     0.010 A 
ATOM     40  C   UNL A   1      36.636  32.521  30.048  1.00  0.00    -0.014 A 
BRANCH  40  41
ATOM     41  C   UNL A   1      37.804  31.885  30.714  1.00  0.00     0.031 A 
ATOM     42  C   UNL A   1      38.559  30.810  29.986  1.00  0.00     0.074 A 
ATOM     43  C   UNL A   1      38.200  32.256  31.946  1.00  0.00     0.049 A 
ATOM     44  N   UNL A   1      39.562  30.077  30.397  1.00  0.00    -0.248 NA
ATOM     45  C   UNL A   1      38.131  30.530  28.607  1.00  0.00     0.031 C 
ATOM     46  C   UNL A   1      37.600  33.323  32.739  1.00  0.00     0.029 A 
ATOM     47  N   UNL A   1      39.200  31.765  32.753  1.00  0.00    -0.354 N 
ATOM     48  C   UNL A   1      39.887  29.252  29.329  1.00  0.00     0.074 A 
ATOM     49  C   UNL A   1      38.966  29.563  28.256  1.00  0.00     0.031 C 
ATOM     50  C   UNL A   1      38.218  33.391  33.931  1.00  0.00     0.029 A 
ATOM     51  C   UNL A   1      39.243  32.351  33.996  1.00  0.00     0.049 A 
ATOM     52  H   UNL A   1      39.825  31.061  32.467  1.00  0.00     0.167 HD
ATOM     53  C   UNL A   1      40.867  28.321  29.248  1.00  0.00     0.037 A 
ATOM     54  C   UNL A   1      39.999  32.061  35.073  1.00  0.00     0.037 A 
ATOM     55  C   UNL A   1      41.773  27.995  30.315  1.00  0.00     0.049 A 
ATOM     56  C   UNL A   1      41.008  30.945  34.990  1.00  0.00     0.074 A 
ATOM     57  C   UNL A   1      42.800  27.066  30.319  1.00  0.00     0.029 A 
ATOM     58  N   UNL A   1      41.754  28.577  31.572  1.00  0.00    -0.354 N 
ATOM     59  N   UNL A   1      41.324  30.189  33.968  1.00  0.00    -0.248 NA
ATOM     60  C   UNL A   1      41.764  30.640  36.216  1.00  0.00     0.031 C 
ATOM     61  C   UNL A   1      43.373  27.054  31.595  1.00  0.00     0.029 A 
ATOM     62  C   UNL A   1      42.731  28.004  32.372  1.00  0.00     0.049 A 
ATOM     63  H   UNL A   1      41.139  29.291  31.856  1.00  0.00     0.167 HD
ATOM     64  C   UNL A   1      42.326  29.338  34.418  1.00  0.00     0.074 A 
ATOM     65  C   UNL A   1      42.578  29.680  35.801  1.00  0.00     0.031 C 
ATOM     66  C   UNL A   1      42.977  28.358  33.745  1.00  0.00     0.037 A 
BRANCH  53  67
ATOM     67  C   UNL A   1      40.986  27.562  27.962  1.00  0.00     0.057 A 
ATOM     68  C   UNL A   1      41.786  28.020  26.909  1.00  0.00     0.134 A 
ATOM     69  C   UNL A   1      40.319  26.344  27.791  1.00  0.00     0.134 A 
ATOM     70  F   UNL A   1      42.439  29.188  27.008  1.00  0.00    -0.206 F 
ATOM     71  C   UNL A   1      41.909  27.296  25.722  1.00  0.00     0.040 A 
ATOM     72  C   UNL A   1      40.448  25.603  26.617  1.00  0.00     0.040 A 
ATOM     73  F   UNL A   1      39.538  25.852  28.765  1.00  0.00    -0.206 F 
ATOM     74  C   UNL A   1      41.243  26.080  25.576  1.00  0.00     0.006 A 
ENDBRANCH  53  67
BRANCH  54  75
ATOM     75  C   UNL A   1      39.813  32.800  36.348  1.00  0.00     0.057 A 
ATOM     76  C   UNL A   1      38.836  32.417  37.276  1.00  0.00     0.134 A 
ATOM     77  C   UNL A   1      40.562  33.946  36.640  1.00  0.00     0.134 A 
ATOM     78  F   UNL A   1      38.065  31.346  37.041  1.00  0.00    -0.206 F 
ATOM     79  C   UNL A   1      38.595  33.160  38.433  1.00  0.00     0.040 A 
ATOM     80  C   UNL A   1      40.348  34.685  37.805  1.00  0.00     0.040 A 
ATOM     81  F   UNL A   1      41.510  34.371  35.791  1.00  0.00    -0.206 F 
ATOM     82  C   UNL A   1      39.353  34.298  38.701  1.00  0.00     0.006 A 
ENDBRANCH  54  75
BRANCH  66  83
ATOM     83  C   UNL A   1      44.041  27.603  34.485  1.00  0.00     0.057 A 
ATOM     84  C   UNL A   1      43.753  26.428  35.193  1.00  0.00     0.134 A 
ATOM     85  C   UNL A   1      45.374  28.028  34.453  1.00  0.00     0.134 A 
ATOM     86  F   UNL A   1      42.493  25.976  35.274  1.00  0.00    -0.206 F 
ATOM     87  C   UNL A   1      44.752  25.714  35.855  1.00  0.00     0.040 A 
ATOM     88  C   UNL A   1      46.386  27.310  35.091  1.00  0.00     0.040 A 
ATOM     89  F   UNL A   1      45.718  29.141  33.787  1.00  0.00    -0.206 F 
ATOM     90  C   UNL A   1      46.074  26.150  35.799  1.00  0.00     0.006 A 
ENDBRANCH  66  83
ENDBRANCH  40  41
ENDBRANCH  33  35
ENDBRANCH  32  33
ENDBRANCH  31  32
ENDBRANCH  30  31
ENDBRANCH  29  30
ENDBRANCH   1  29
TORSDOF 18
ENDMDL
MODEL 3
REMARK VINA RESULT:     -11.0      2.893      8.447
REMARK SMILES O=C(COc1ccccc1/C=C1/SC(=O)N(c2ccc(F)cc2)C1=O)OCCOCCOC(=O)c1ccc(-c2c3nc(c(-c4c(F)cccc4F)c4ccc([nH]4)c(-c4c(F)cccc4F)c4nc(c(-c5c(F)cccc5F)c5ccc2[nH]5)C=C4)C=C3)cc1
REMARK SMILES IDX 28 1 27 2 26 3 2 4 1 5 3 6 4 7 5 8 6 9 10 10 7 11 9 12 8 13
REMARK SMILES IDX 11 14 12 15 13 16 24 17 14 18 16 19 25 20 15 21 17 22 18 23
REMARK SMILES IDX 23 24 19 25 22 26 20 27 21 28 29 29 30 30 31 31 32 32 33 33
REMARK SMILES IDX 34 34 35 35 36 36 88 37 37 38 87 39 38 40 39 41 40 42 81 43
REMARK SMILES IDX 41 44 86 45 80 46 82 47 42 48 85 49 79 50 78 51 43 53 69 54
REMARK SMILES IDX 52 55 68 56 53 57 56 58 67 59 83 60 54 61 55 62 66 64 84 65
REMARK SMILES IDX 57 66 44 67 45 68 50 69 46 70 47 71 49 72 51 73 48 74 70 75
REMARK SMILES IDX 71 76 76 77 72 78 73 79 75 80 77 81 74 82 58 83 59 84 64 85
REMARK SMILES IDX 60 86 61 87 63 88 65 89 62 90
REMARK H PARENT 82 52 56 63
REMARK Flexibility Score: inf
ROOT
ATOM      1  C   UNL A   1      40.830  21.311  27.130  1.00  0.00     0.202 C 
ENDROOT
BRANCH   1   2
ATOM      2  C   UNL A   1      39.698  22.252  26.711  1.00  0.00     0.261 C 
BRANCH   2   3
ATOM      3  O   UNL A   1      38.856  21.809  25.638  1.00  0.00    -0.461 OA
BRANCH   3   4
ATOM      4  C   UNL A   1      37.644  22.321  25.321  1.00  0.00     0.344 C 
ATOM      5  O   UNL A   1      37.245  23.339  25.886  1.00  0.00    -0.248 OA
BRANCH   4   6
ATOM      6  C   UNL A   1      36.814  21.627  24.261  1.00  0.00     0.351 C 
BRANCH   6   7
ATOM      7  O   UNL A   1      35.696  22.402  23.836  1.00  0.00    -0.481 OA
BRANCH   7   8
ATOM      8  C   UNL A   1      34.502  21.913  24.292  1.00  0.00     0.127 A 
ATOM      9  C   UNL A   1      34.550  20.977  25.325  1.00  0.00     0.047 A 
ATOM     10  C   UNL A   1      33.282  22.224  23.665  1.00  0.00     0.018 A 
ATOM     11  C   UNL A   1      33.376  20.372  25.767  1.00  0.00     0.004 A 
ATOM     12  C   UNL A   1      32.108  21.626  24.133  1.00  0.00     0.012 A 
ATOM     13  C   UNL A   1      32.155  20.701  25.177  1.00  0.00     0.001 A 
BRANCH  10  14
ATOM     14  C   UNL A   1      33.184  23.125  22.516  1.00  0.00     0.033 C 
ATOM     15  C   UNL A   1      33.189  24.461  22.595  1.00  0.00     0.084 C 
ATOM     16  S   UNL A   1      32.817  25.463  21.245  1.00  0.00    -0.022 SA
ATOM     17  C   UNL A   1      33.323  25.305  23.822  1.00  0.00     0.272 C 
ATOM     18  C   UNL A   1      32.326  26.772  22.299  1.00  0.00     0.298 C 
ATOM     19  N   UNL A   1      32.743  26.541  23.584  1.00  0.00    -0.236 N 
ATOM     20  O   UNL A   1      33.831  24.921  24.864  1.00  0.00    -0.268 OA
ATOM     21  O   UNL A   1      31.686  27.726  21.867  1.00  0.00    -0.260 OA
BRANCH  19  22
ATOM     22  C   UNL A   1      32.517  27.465  24.637  1.00  0.00     0.053 A 
ATOM     23  C   UNL A   1      31.772  27.098  25.765  1.00  0.00     0.030 A 
ATOM     24  C   UNL A   1      33.007  28.776  24.551  1.00  0.00     0.030 A 
ATOM     25  C   UNL A   1      31.547  28.019  26.793  1.00  0.00     0.041 A 
ATOM     26  C   UNL A   1      32.741  29.711  25.553  1.00  0.00     0.041 A 
ATOM     27  C   UNL A   1      32.022  29.320  26.672  1.00  0.00     0.123 A 
ATOM     28  F   UNL A   1      31.778  30.210  27.642  1.00  0.00    -0.207 F 
ENDBRANCH  19  22
ENDBRANCH  10  14
ENDBRANCH   7   8
ENDBRANCH   6   7
ENDBRANCH   4   6
ENDBRANCH   3   4
ENDBRANCH   2   3
ENDBRANCH   1   2
BRANCH   1  29
ATOM     29  O   UNL A   1      41.493  20.574  26.122  1.00  0.00    -0.374 OA
BRANCH  29  30
ATOM     30  C   UNL A   1      42.919  20.557  26.122  1.00  0.00     0.202 C 
BRANCH  30  31
ATOM     31  C   UNL A   1      43.693  21.753  25.549  1.00  0.00     0.261 C 
BRANCH  31  32
ATOM     32  O   UNL A   1      42.917  22.946  25.310  1.00  0.00    -0.460 OA
BRANCH  32  33
ATOM     33  C   UNL A   1      43.642  24.096  25.286  1.00  0.00     0.338 C 
ATOM     34  O   UNL A   1      44.383  24.478  24.394  1.00  0.00    -0.246 OA
BRANCH  33  35
ATOM     35  C   UNL A   1      43.387  24.927  26.476  1.00  0.00     0.060 A 
ATOM     36  C   UNL A   1      42.401  24.514  27.379  1.00  0.00     0.016 A 
ATOM     37  C   UNL A   1      43.995  26.176  26.625  1.00  0.00     0.016 A 
ATOM     38  C   UNL A   1      42.043  25.333  28.455  1.00  0.00     0.010 A 
ATOM     39  C   UNL A   1      43.617  27.008  27.690  1.00  0.00     0.010 A 
ATOM     40  C   UNL A   1      42.637  26.594  28.609  1.00  0.00    -0.014 A 
BRANCH  40  41
ATOM     41  C   UNL A   1      42.140  27.530  29.653  1.00  0.00     0.031 A 
ATOM     42  C   UNL A   1      42.822  27.554  30.991  1.00  0.00     0.074 A 
ATOM     43  C   UNL A   1      41.103  28.358  29.421  1.00  0.00     0.049 A 
ATOM     44  N   UNL A   1      42.518  28.239  32.064  1.00  0.00    -0.248 NA
ATOM     45  C   UNL A   1      44.009  26.698  31.135  1.00  0.00     0.031 C 
ATOM     46  C   UNL A   1      40.391  28.483  28.154  1.00  0.00     0.029 A 
ATOM     47  N   UNL A   1      40.460  29.244  30.252  1.00  0.00    -0.354 N 
ATOM     48  C   UNL A   1      43.476  27.899  33.010  1.00  0.00     0.074 A 
ATOM     49  C   UNL A   1      44.362  26.936  32.391  1.00  0.00     0.031 C 
ATOM     50  C   UNL A   1      39.390  29.368  28.294  1.00  0.00     0.029 A 
ATOM     51  C   UNL A   1      39.373  29.854  29.672  1.00  0.00     0.049 A 
ATOM     52  H   UNL A   1      40.751  29.424  31.175  1.00  0.00     0.167 HD
ATOM     53  C   UNL A   1      43.608  28.351  34.279  1.00  0.00     0.037 A 
ATOM     54  C   UNL A   1      38.451  30.682  30.201  1.00  0.00     0.037 A 
ATOM     55  C   UNL A   1      42.721  29.293  34.907  1.00  0.00     0.049 A 
ATOM     56  C   UNL A   1      38.559  31.084  31.649  1.00  0.00     0.074 A 
ATOM     57  C   UNL A   1      42.782  29.809  36.190  1.00  0.00     0.029 A 
ATOM     58  N   UNL A   1      41.607  29.851  34.303  1.00  0.00    -0.354 N 
ATOM     59  N   UNL A   1      39.482  30.775  32.527  1.00  0.00    -0.248 NA
ATOM     60  C   UNL A   1      37.491  31.946  32.182  1.00  0.00     0.031 C 
ATOM     61  C   UNL A   1      41.676  30.645  36.378  1.00  0.00     0.029 A 
ATOM     62  C   UNL A   1      40.951  30.681  35.197  1.00  0.00     0.049 A 
ATOM     63  H   UNL A   1      41.322  29.682  33.375  1.00  0.00     0.167 HD
ATOM     64  C   UNL A   1      39.121  31.422  33.703  1.00  0.00     0.074 A 
ATOM     65  C   UNL A   1      37.903  32.152  33.425  1.00  0.00     0.031 C 
ATOM     66  C   UNL A   1      39.743  31.408  34.907  1.00  0.00     0.037 A 
BRANCH  53  67
ATOM     67  C   UNL A   1      44.742  27.800  35.088  1.00  0.00     0.057 A 
ATOM     68  C   UNL A   1      44.608  26.626  35.839  1.00  0.00     0.134 A 
ATOM     69  C   UNL A   1      45.990  28.434  35.087  1.00  0.00     0.134 A 
ATOM     70  F   UNL A   1      43.433  25.981  35.891  1.00  0.00    -0.206 F 
ATOM     71  C   UNL A   1      45.676  26.107  36.572  1.00  0.00     0.040 A 
ATOM     72  C   UNL A   1      47.070  27.915  35.802  1.00  0.00     0.040 A 
ATOM     73  F   UNL A   1      46.180  29.562  34.386  1.00  0.00    -0.206 F 
ATOM     74  C   UNL A   1      46.914  26.749  36.550  1.00  0.00     0.006 A 
ENDBRANCH  53  67
BRANCH  54  75
ATOM     75  C   UNL A   1      37.309  31.163  29.381  1.00  0.00     0.057 A 
ATOM     76  C   UNL A   1      36.218  30.334  29.094  1.00  0.00     0.134 A 
ATOM     77  C   UNL A   1      37.312  32.442  28.811  1.00  0.00     0.134 A 
ATOM     78  F   UNL A   1      36.170  29.088  29.586  1.00  0.00    -0.206 F 
ATOM     79  C   UNL A   1      35.186  30.749  28.250  1.00  0.00     0.040 A 
ATOM     80  C   UNL A   1      36.274  32.878  27.984  1.00  0.00     0.040 A 
ATOM     81  F   UNL A   1      38.329  33.285  29.041  1.00  0.00    -0.206 F 
ATOM     82  C   UNL A   1      35.212  32.026  27.694  1.00  0.00     0.006 A 
ENDBRANCH  54  75
BRANCH  66  83
ATOM     83  C   UNL A   1      39.133  32.224  36.007  1.00  0.00     0.057 A 
ATOM     84  C   UNL A   1      39.479  33.567  36.206  1.00  0.00     0.134 A 
ATOM     85  C   UNL A   1      38.157  31.676  36.849  1.00  0.00     0.134 A 
ATOM     86  F   UNL A   1      40.418  34.147  35.444  1.00  0.00    -0.206 F 
ATOM     87  C   UNL A   1      38.887  34.330  37.213  1.00  0.00     0.040 A 
ATOM     88  C   UNL A   1      37.540  32.436  37.843  1.00  0.00     0.040 A 
ATOM     89  F   UNL A   1      37.775  30.398  36.706  1.00  0.00    -0.206 F 
ATOM     90  C   UNL A   1      37.908  33.767  38.031  1.00  0.00     0.006 A 
ENDBRANCH  66  83
ENDBRANCH  40  41
ENDBRANCH  33  35
ENDBRANCH  32  33
ENDBRANCH  31  32
ENDBRANCH  30  31
ENDBRANCH  29  30
ENDBRANCH   1  29
TORSDOF 18
ENDMDL
