MODEL 1
REMARK VINA RESULT:     -10.6      0.000      0.000
REMARK SMILES CC(C)CC1(CNc2ccnc(C(=O)OCCOCCOC(=O)c3ccc(-c4c5nc(c(-c6c(F)cccc6F)c6ccc([nH]6)c(-c6c(F)cccc6F)c6nc(c(-c7c(F)cccc7F)c7ccc4[nH]7)C=C6)C=C5)cc3)c2)CCCC1
REMARK SMILES IDX 16 1 15 2 13 3 14 4 12 5 8 6 9 7 78 8 10 9 11 10 7 11 6 13
REMARK SMILES IDX 5 14 79 15 82 16 80 17 81 18 4 19 2 20 1 21 3 22 17 23 18 24
REMARK SMILES IDX 19 25 20 26 21 27 22 28 23 29 24 30 25 31 77 32 26 33 76 34
REMARK SMILES IDX 27 35 28 36 29 37 70 38 30 39 75 40 69 41 71 42 31 43 74 44
REMARK SMILES IDX 68 45 67 46 32 48 58 49 41 50 57 51 42 52 45 53 56 54 72 55
REMARK SMILES IDX 43 56 44 57 55 59 73 60 46 61 33 62 34 63 39 64 35 65 36 66
REMARK SMILES IDX 38 67 40 68 37 69 59 70 60 71 65 72 61 73 62 74 64 75 66 76
REMARK SMILES IDX 63 77 47 78 48 79 53 80 49 81 50 82 52 83 54 84 51 85
REMARK H PARENT 7 12 71 47 45 58
REMARK Flexibility Score: inf
ROOT
ATOM      1  C   UNL A   1      41.777  19.452  25.956  1.00  0.00     0.261 C 
ENDROOT
BRANCH   1   2
ATOM      2  O   UNL A   1      41.214  20.757  25.729  1.00  0.00    -0.459 OA
BRANCH   2   3
ATOM      3  C   UNL A   1      40.722  21.381  26.834  1.00  0.00     0.357 C 
ATOM      4  O   UNL A   1      41.267  21.443  27.924  1.00  0.00    -0.244 OA
BRANCH   3   5
ATOM      5  C   UNL A   1      39.463  22.102  26.479  1.00  0.00     0.150 A 
ATOM      6  C   UNL A   1      37.283  22.199  25.454  1.00  0.00     0.038 A 
ATOM      7  C   UNL A   1      37.248  23.544  25.819  1.00  0.00     0.046 A 
ATOM      8  C   UNL A   1      38.434  21.473  25.785  1.00  0.00     0.061 A 
ATOM      9  C   UNL A   1      38.319  24.095  26.505  1.00  0.00     0.114 A 
ATOM     10  N   UNL A   1      39.423  23.407  26.847  1.00  0.00    -0.249 NA
BRANCH   6  11
ATOM     11  N   UNL A   1      36.288  21.574  24.730  1.00  0.00    -0.384 N 
ATOM     12  H   UNL A   1      36.426  20.623  24.514  1.00  0.00     0.160 HD
BRANCH  11  13
ATOM     13  C   UNL A   1      35.053  22.185  24.253  1.00  0.00     0.119 C 
BRANCH  13  14
ATOM     14  C   UNL A   1      33.807  21.581  24.987  1.00  0.00    -0.012 C 
ATOM     15  C   UNL A   1      32.721  22.660  25.150  1.00  0.00     0.009 C 
ATOM     16  C   UNL A   1      34.118  21.290  26.472  1.00  0.00     0.009 C 
ATOM     17  C   UNL A   1      33.226  23.561  26.273  1.00  0.00     0.001 C 
ATOM     18  C   UNL A   1      34.037  22.644  27.185  1.00  0.00     0.001 C 
BRANCH  14  19
ATOM     19  C   UNL A   1      33.359  20.317  24.196  1.00  0.00     0.012 C 
BRANCH  19  20
ATOM     20  C   UNL A   1      33.456  18.921  24.849  1.00  0.00    -0.017 C 
ATOM     21  C   UNL A   1      32.443  17.926  24.273  1.00  0.00     0.007 C 
ATOM     22  C   UNL A   1      34.862  18.352  24.600  1.00  0.00     0.007 C 
ENDBRANCH  19  20
ENDBRANCH  14  19
ENDBRANCH  13  14
ENDBRANCH  11  13
ENDBRANCH   6  11
ENDBRANCH   3   5
ENDBRANCH   2   3
ENDBRANCH   1   2
BRANCH   1  23
ATOM     23  C   UNL A   1      43.304  19.490  25.824  1.00  0.00     0.202 C 
BRANCH  23  24
ATOM     24  O   UNL A   1      43.804  20.156  24.664  1.00  0.00    -0.374 OA
BRANCH  24  25
ATOM     25  C   UNL A   1      44.977  20.954  24.839  1.00  0.00     0.202 C 
BRANCH  25  26
ATOM     26  C   UNL A   1      44.809  22.179  25.744  1.00  0.00     0.261 C 
BRANCH  26  27
ATOM     27  O   UNL A   1      44.070  23.230  25.092  1.00  0.00    -0.460 OA
BRANCH  27  28
ATOM     28  C   UNL A   1      44.594  24.468  25.244  1.00  0.00     0.338 C 
ATOM     29  O   UNL A   1      45.532  24.959  24.630  1.00  0.00    -0.246 OA
BRANCH  28  30
ATOM     30  C   UNL A   1      43.772  25.260  26.178  1.00  0.00     0.060 A 
ATOM     31  C   UNL A   1      44.184  26.572  26.438  1.00  0.00     0.016 A 
ATOM     32  C   UNL A   1      42.669  24.719  26.845  1.00  0.00     0.016 A 
ATOM     33  C   UNL A   1      43.528  27.331  27.404  1.00  0.00     0.010 A 
ATOM     34  C   UNL A   1      42.013  25.483  27.819  1.00  0.00     0.010 A 
ATOM     35  C   UNL A   1      42.461  26.779  28.128  1.00  0.00    -0.014 A 
BRANCH  35  36
ATOM     36  C   UNL A   1      41.910  27.533  29.280  1.00  0.00     0.031 A 
ATOM     37  C   UNL A   1      42.597  27.453  30.616  1.00  0.00     0.074 A 
ATOM     38  C   UNL A   1      40.841  28.335  29.123  1.00  0.00     0.049 A 
ATOM     39  N   UNL A   1      42.317  28.077  31.732  1.00  0.00    -0.248 NA
ATOM     40  C   UNL A   1      43.755  26.551  30.706  1.00  0.00     0.031 C 
ATOM     41  C   UNL A   1      40.097  28.516  27.878  1.00  0.00     0.029 A 
ATOM     42  N   UNL A   1      40.201  29.153  30.021  1.00  0.00    -0.354 N 
ATOM     43  C   UNL A   1      43.264  27.648  32.654  1.00  0.00     0.074 A 
ATOM     44  C   UNL A   1      44.103  26.681  31.977  1.00  0.00     0.031 C 
ATOM     45  C   UNL A   1      39.102  29.395  28.088  1.00  0.00     0.029 A 
ATOM     46  C   UNL A   1      39.128  29.822  29.487  1.00  0.00     0.049 A 
ATOM     47  H   UNL A   1      40.484  29.249  30.959  1.00  0.00     0.167 HD
ATOM     48  C   UNL A   1      43.429  28.033  33.943  1.00  0.00     0.037 A 
ATOM     49  C   UNL A   1      38.263  30.680  30.060  1.00  0.00     0.037 A 
ATOM     50  C   UNL A   1      42.597  28.995  34.618  1.00  0.00     0.049 A 
ATOM     51  C   UNL A   1      38.441  31.057  31.506  1.00  0.00     0.074 A 
ATOM     52  C   UNL A   1      42.704  29.467  35.916  1.00  0.00     0.029 A 
ATOM     53  N   UNL A   1      41.500  29.626  34.053  1.00  0.00    -0.354 N 
ATOM     54  N   UNL A   1      39.364  30.675  32.355  1.00  0.00    -0.248 NA
ATOM     55  C   UNL A   1      37.460  31.996  32.071  1.00  0.00     0.031 C 
ATOM     56  C   UNL A   1      41.644  30.351  36.149  1.00  0.00     0.029 A 
ATOM     57  C   UNL A   1      40.905  30.465  34.982  1.00  0.00     0.049 A 
ATOM     58  H   UNL A   1      41.190  29.498  33.128  1.00  0.00     0.167 HD
ATOM     59  C   UNL A   1      39.090  31.342  33.543  1.00  0.00     0.074 A 
ATOM     60  C   UNL A   1      37.925  32.167  33.300  1.00  0.00     0.031 C 
ATOM     61  C   UNL A   1      39.743  31.277  34.730  1.00  0.00     0.037 A 
BRANCH  48  62
ATOM     62  C   UNL A   1      44.549  27.398  34.713  1.00  0.00     0.057 A 
ATOM     63  C   UNL A   1      45.822  27.979  34.783  1.00  0.00     0.134 A 
ATOM     64  C   UNL A   1      44.343  26.209  35.424  1.00  0.00     0.134 A 
ATOM     65  F   UNL A   1      46.089  29.111  34.114  1.00  0.00    -0.206 F 
ATOM     66  C   UNL A   1      46.855  27.389  35.513  1.00  0.00     0.040 A 
ATOM     67  C   UNL A   1      45.360  25.622  36.178  1.00  0.00     0.040 A 
ATOM     68  F   UNL A   1      43.145  25.602  35.404  1.00  0.00    -0.206 F 
ATOM     69  C   UNL A   1      46.623  26.210  36.218  1.00  0.00     0.006 A 
ENDBRANCH  48  62
BRANCH  49  70
ATOM     70  C   UNL A   1      37.146  31.248  29.266  1.00  0.00     0.057 A 
ATOM     71  C   UNL A   1      36.007  30.491  28.966  1.00  0.00     0.134 A 
ATOM     72  C   UNL A   1      37.202  32.555  28.769  1.00  0.00     0.134 A 
ATOM     73  F   UNL A   1      35.907  29.225  29.393  1.00  0.00    -0.206 F 
ATOM     74  C   UNL A   1      34.972  31.008  28.185  1.00  0.00     0.040 A 
ATOM     75  C   UNL A   1      36.164  33.093  28.006  1.00  0.00     0.040 A 
ATOM     76  F   UNL A   1      38.266  33.332  29.023  1.00  0.00    -0.206 F 
ATOM     77  C   UNL A   1      35.048  32.315  27.706  1.00  0.00     0.006 A 
ENDBRANCH  49  70
BRANCH  61  78
ATOM     78  C   UNL A   1      39.224  32.139  35.843  1.00  0.00     0.057 A 
ATOM     79  C   UNL A   1      38.272  31.671  36.760  1.00  0.00     0.134 A 
ATOM     80  C   UNL A   1      39.691  33.449  36.012  1.00  0.00     0.134 A 
ATOM     81  F   UNL A   1      37.774  30.430  36.646  1.00  0.00    -0.206 F 
ATOM     82  C   UNL A   1      37.782  32.484  37.782  1.00  0.00     0.040 A 
ATOM     83  C   UNL A   1      39.228  34.262  37.047  1.00  0.00     0.040 A 
ATOM     84  F   UNL A   1      40.610  33.957  35.177  1.00  0.00    -0.206 F 
ATOM     85  C   UNL A   1      38.264  33.783  37.931  1.00  0.00     0.006 A 
ENDBRANCH  61  78
ENDBRANCH  35  36
ENDBRANCH  28  30
ENDBRANCH  27  28
ENDBRANCH  26  27
ENDBRANCH  25  26
ENDBRANCH  24  25
ENDBRANCH  23  24
ENDBRANCH   1  23
TORSDOF 19
ENDMDL
MODEL 2
REMARK VINA RESULT:     -10.3      5.647     10.826
REMARK SMILES CC(C)CC1(CNc2ccnc(C(=O)OCCOCCOC(=O)c3ccc(-c4c5nc(c(-c6c(F)cccc6F)c6ccc([nH]6)c(-c6c(F)cccc6F)c6nc(c(-c7c(F)cccc7F)c7ccc4[nH]7)C=C6)C=C5)cc3)c2)CCCC1
REMARK SMILES IDX 16 1 15 2 13 3 14 4 12 5 8 6 9 7 78 8 10 9 11 10 7 11 6 13
REMARK SMILES IDX 5 14 79 15 82 16 80 17 81 18 4 19 2 20 1 21 3 22 17 23 18 24
REMARK SMILES IDX 19 25 20 26 21 27 22 28 23 29 24 30 25 31 77 32 26 33 76 34
REMARK SMILES IDX 27 35 28 36 29 37 70 38 30 39 75 40 69 41 71 42 31 43 74 44
REMARK SMILES IDX 68 45 67 46 32 48 58 49 41 50 57 51 42 52 45 53 56 54 72 55
REMARK SMILES IDX 43 56 44 57 55 59 73 60 46 61 33 62 34 63 39 64 35 65 36 66
REMARK SMILES IDX 38 67 40 68 37 69 59 70 60 71 65 72 61 73 62 74 64 75 66 76
REMARK SMILES IDX 63 77 47 78 48 79 53 80 49 81 50 82 52 83 54 84 51 85
REMARK H PARENT 7 12 71 47 45 58
REMARK Flexibility Score: inf
ROOT
ATOM      1  C   UNL A   1      34.350  34.006  30.153  1.00  0.00     0.261 C 
ENDROOT
BRANCH   1   2
ATOM      2  O   UNL A   1      34.421  34.101  28.719  1.00  0.00    -0.459 OA
BRANCH   2   3
ATOM      3  C   UNL A   1      33.571  33.286  28.036  1.00  0.00     0.357 C 
ATOM      4  O   UNL A   1      32.496  33.611  27.558  1.00  0.00    -0.244 OA
BRANCH   3   5
ATOM      5  C   UNL A   1      34.212  31.952  27.839  1.00  0.00     0.150 A 
ATOM      6  C   UNL A   1      34.101  29.559  27.559  1.00  0.00     0.038 A 
ATOM      7  C   UNL A   1      35.495  29.565  27.562  1.00  0.00     0.046 A 
ATOM      8  C   UNL A   1      33.453  30.790  27.718  1.00  0.00     0.061 A 
ATOM      9  C   UNL A   1      36.174  30.766  27.693  1.00  0.00     0.114 A 
ATOM     10  N   UNL A   1      35.568  31.958  27.828  1.00  0.00    -0.249 NA
BRANCH   6  11
ATOM     11  N   UNL A   1      33.338  28.412  27.482  1.00  0.00    -0.384 N 
ATOM     12  H   UNL A   1      33.776  27.569  27.741  1.00  0.00     0.160 HD
BRANCH  11  13
ATOM     13  C   UNL A   1      31.947  28.326  27.054  1.00  0.00     0.119 C 
BRANCH  13  14
ATOM     14  C   UNL A   1      31.838  27.712  25.616  1.00  0.00    -0.012 C 
ATOM     15  C   UNL A   1      30.854  26.528  25.625  1.00  0.00     0.009 C 
ATOM     16  C   UNL A   1      33.137  26.976  25.221  1.00  0.00     0.009 C 
ATOM     17  C   UNL A   1      31.614  25.388  26.296  1.00  0.00     0.001 C 
ATOM     18  C   UNL A   1      33.080  25.622  25.937  1.00  0.00     0.001 C 
BRANCH  14  19
ATOM     19  C   UNL A   1      31.466  28.865  24.637  1.00  0.00     0.012 C 
BRANCH  19  20
ATOM     20  C   UNL A   1      30.193  28.760  23.769  1.00  0.00    -0.017 C 
ATOM     21  C   UNL A   1      29.598  30.130  23.422  1.00  0.00     0.007 C 
ATOM     22  C   UNL A   1      30.550  28.060  22.448  1.00  0.00     0.007 C 
ENDBRANCH  19  20
ENDBRANCH  14  19
ENDBRANCH  13  14
ENDBRANCH  11  13
ENDBRANCH   6  11
ENDBRANCH   3   5
ENDBRANCH   2   3
ENDBRANCH   1   2
BRANCH   1  23
ATOM     23  C   UNL A   1      33.755  35.285  30.752  1.00  0.00     0.202 C 
BRANCH  23  24
ATOM     24  O   UNL A   1      33.755  35.352  32.179  1.00  0.00    -0.374 OA
BRANCH  24  25
ATOM     25  C   UNL A   1      33.639  34.112  32.880  1.00  0.00     0.202 C 
BRANCH  25  26
ATOM     26  C   UNL A   1      34.883  33.682  33.665  1.00  0.00     0.261 C 
BRANCH  26  27
ATOM     27  O   UNL A   1      35.534  32.548  33.060  1.00  0.00    -0.460 OA
BRANCH  27  28
ATOM     28  C   UNL A   1      36.690  32.177  33.655  1.00  0.00     0.338 C 
ATOM     29  O   UNL A   1      36.972  32.249  34.844  1.00  0.00    -0.246 OA
BRANCH  28  30
ATOM     30  C   UNL A   1      37.569  31.498  32.684  1.00  0.00     0.060 A 
ATOM     31  C   UNL A   1      38.603  30.707  33.201  1.00  0.00     0.016 A 
ATOM     32  C   UNL A   1      37.442  31.683  31.305  1.00  0.00     0.016 A 
ATOM     33  C   UNL A   1      39.543  30.142  32.345  1.00  0.00     0.010 A 
ATOM     34  C   UNL A   1      38.391  31.116  30.445  1.00  0.00     0.010 A 
ATOM     35  C   UNL A   1      39.467  30.372  30.964  1.00  0.00    -0.014 A 
BRANCH  35  36
ATOM     36  C   UNL A   1      40.585  29.925  30.098  1.00  0.00     0.031 A 
ATOM     37  C   UNL A   1      41.723  30.868  29.811  1.00  0.00     0.074 A 
ATOM     38  C   UNL A   1      40.620  28.668  29.622  1.00  0.00     0.049 A 
ATOM     39  N   UNL A   1      42.823  30.658  29.133  1.00  0.00    -0.248 NA
ATOM     40  C   UNL A   1      41.607  32.225  30.364  1.00  0.00     0.031 C 
ATOM     41  C   UNL A   1      39.591  27.653  29.843  1.00  0.00     0.029 A 
ATOM     42  N   UNL A   1      41.565  28.030  28.857  1.00  0.00    -0.354 N 
ATOM     43  C   UNL A   1      43.531  31.853  29.181  1.00  0.00     0.074 A 
ATOM     44  C   UNL A   1      42.718  32.795  29.922  1.00  0.00     0.031 C 
ATOM     45  C   UNL A   1      39.963  26.515  29.230  1.00  0.00     0.029 A 
ATOM     46  C   UNL A   1      41.245  26.729  28.559  1.00  0.00     0.049 A 
ATOM     47  H   UNL A   1      42.394  28.465  28.551  1.00  0.00     0.167 HD
ATOM     48  C   UNL A   1      44.752  32.137  28.667  1.00  0.00     0.037 A 
ATOM     49  C   UNL A   1      41.907  25.814  27.826  1.00  0.00     0.037 A 
ATOM     50  C   UNL A   1      45.563  31.203  27.930  1.00  0.00     0.049 A 
ATOM     51  C   UNL A   1      43.242  26.169  27.227  1.00  0.00     0.074 A 
ATOM     52  C   UNL A   1      46.825  31.392  27.392  1.00  0.00     0.029 A 
ATOM     53  N   UNL A   1      45.188  29.904  27.621  1.00  0.00    -0.354 N 
ATOM     54  N   UNL A   1      43.918  27.289  27.314  1.00  0.00    -0.248 NA
ATOM     55  C   UNL A   1      43.911  25.126  26.436  1.00  0.00     0.031 C 
ATOM     56  C   UNL A   1      47.194  30.222  26.719  1.00  0.00     0.029 A 
ATOM     57  C   UNL A   1      46.184  29.288  26.878  1.00  0.00     0.049 A 
ATOM     58  H   UNL A   1      44.341  29.482  27.889  1.00  0.00     0.167 HD
ATOM     59  C   UNL A   1      45.098  27.078  26.610  1.00  0.00     0.074 A 
ATOM     60  C   UNL A   1      45.053  25.717  26.119  1.00  0.00     0.031 C 
ATOM     61  C   UNL A   1      46.126  27.935  26.390  1.00  0.00     0.037 A 
BRANCH  48  62
ATOM     62  C   UNL A   1      45.279  33.526  28.872  1.00  0.00     0.057 A 
ATOM     63  C   UNL A   1      46.071  33.861  29.978  1.00  0.00     0.134 A 
ATOM     64  C   UNL A   1      45.022  34.534  27.934  1.00  0.00     0.134 A 
ATOM     65  F   UNL A   1      46.344  32.946  30.920  1.00  0.00    -0.206 F 
ATOM     66  C   UNL A   1      46.570  35.153  30.154  1.00  0.00     0.040 A 
ATOM     67  C   UNL A   1      45.534  35.823  28.087  1.00  0.00     0.040 A 
ATOM     68  F   UNL A   1      44.273  34.280  26.849  1.00  0.00    -0.206 F 
ATOM     69  C   UNL A   1      46.306  36.137  29.204  1.00  0.00     0.006 A 
ENDBRANCH  48  62
BRANCH  49  70
ATOM     70  C   UNL A   1      41.323  24.467  27.617  1.00  0.00     0.057 A 
ATOM     71  C   UNL A   1      40.269  24.262  26.719  1.00  0.00     0.134 A 
ATOM     72  C   UNL A   1      41.790  23.356  28.328  1.00  0.00     0.134 A 
ATOM     73  F   UNL A   1      39.762  25.292  26.027  1.00  0.00    -0.206 F 
ATOM     74  C   UNL A   1      39.689  23.004  26.548  1.00  0.00     0.040 A 
ATOM     75  C   UNL A   1      41.235  22.087  28.151  1.00  0.00     0.040 A 
ATOM     76  F   UNL A   1      42.799  23.486  29.203  1.00  0.00    -0.206 F 
ATOM     77  C   UNL A   1      40.176  21.911  27.264  1.00  0.00     0.006 A 
ENDBRANCH  49  70
BRANCH  61  78
ATOM     78  C   UNL A   1      47.293  27.413  25.603  1.00  0.00     0.057 A 
ATOM     79  C   UNL A   1      48.329  26.689  26.208  1.00  0.00     0.134 A 
ATOM     80  C   UNL A   1      47.374  27.624  24.220  1.00  0.00     0.134 A 
ATOM     81  F   UNL A   1      48.318  26.465  27.530  1.00  0.00    -0.206 F 
ATOM     82  C   UNL A   1      49.419  26.222  25.472  1.00  0.00     0.040 A 
ATOM     83  C   UNL A   1      48.445  27.138  23.470  1.00  0.00     0.040 A 
ATOM     84  F   UNL A   1      46.411  28.299  23.576  1.00  0.00    -0.206 F 
ATOM     85  C   UNL A   1      49.477  26.442  24.097  1.00  0.00     0.006 A 
ENDBRANCH  61  78
ENDBRANCH  35  36
ENDBRANCH  28  30
ENDBRANCH  27  28
ENDBRANCH  26  27
ENDBRANCH  25  26
ENDBRANCH  24  25
ENDBRANCH  23  24
ENDBRANCH   1  23
TORSDOF 19
ENDMDL
MODEL 3
REMARK VINA RESULT:     -10.0      5.713     10.809
REMARK SMILES CC(C)CC1(CNc2ccnc(C(=O)OCCOCCOC(=O)c3ccc(-c4c5nc(c(-c6c(F)cccc6F)c6ccc([nH]6)c(-c6c(F)cccc6F)c6nc(c(-c7c(F)cccc7F)c7ccc4[nH]7)C=C6)C=C5)cc3)c2)CCCC1
REMARK SMILES IDX 16 1 15 2 13 3 14 4 12 5 8 6 9 7 78 8 10 9 11 10 7 11 6 13
REMARK SMILES IDX 5 14 79 15 82 16 80 17 81 18 4 19 2 20 1 21 3 22 17 23 18 24
REMARK SMILES IDX 19 25 20 26 21 27 22 28 23 29 24 30 25 31 77 32 26 33 76 34
REMARK SMILES IDX 27 35 28 36 29 37 70 38 30 39 75 40 69 41 71 42 31 43 74 44
REMARK SMILES IDX 68 45 67 46 32 48 58 49 41 50 57 51 42 52 45 53 56 54 72 55
REMARK SMILES IDX 43 56 44 57 55 59 73 60 46 61 33 62 34 63 39 64 35 65 36 66
REMARK SMILES IDX 38 67 40 68 37 69 59 70 60 71 65 72 61 73 62 74 64 75 66 76
REMARK SMILES IDX 63 77 47 78 48 79 53 80 49 81 50 82 52 83 54 84 51 85
REMARK H PARENT 7 12 71 47 45 58
REMARK Flexibility Score: inf
ROOT
ATOM      1  C   UNL A   1      33.898  35.075  28.959  1.00  0.00     0.261 C 
ENDROOT
BRANCH   1   2
ATOM      2  O   UNL A   1      33.993  33.642  28.871  1.00  0.00    -0.459 OA
BRANCH   2   3
ATOM      3  C   UNL A   1      33.138  33.053  27.991  1.00  0.00     0.357 C 
ATOM      4  O   UNL A   1      32.168  33.581  27.470  1.00  0.00    -0.244 OA
BRANCH   3   5
ATOM      5  C   UNL A   1      33.640  31.690  27.646  1.00  0.00     0.150 A 
ATOM      6  C   UNL A   1      33.361  29.504  26.667  1.00  0.00     0.038 A 
ATOM      7  C   UNL A   1      34.636  29.205  27.144  1.00  0.00     0.046 A 
ATOM      8  C   UNL A   1      32.854  30.780  26.945  1.00  0.00     0.061 A 
ATOM      9  C   UNL A   1      35.351  30.168  27.838  1.00  0.00     0.114 A 
ATOM     10  N   UNL A   1      34.887  31.403  28.097  1.00  0.00    -0.249 NA
BRANCH   6  11
ATOM     11  N   UNL A   1      32.555  28.598  26.008  1.00  0.00    -0.384 N 
ATOM     12  H   UNL A   1      32.745  27.643  26.159  1.00  0.00     0.160 HD
BRANCH  11  13
ATOM     13  C   UNL A   1      31.452  28.916  25.110  1.00  0.00     0.119 C 
BRANCH  13  14
ATOM     14  C   UNL A   1      31.317  27.837  23.981  1.00  0.00    -0.012 C 
ATOM     15  C   UNL A   1      31.445  28.505  22.600  1.00  0.00     0.009 C 
ATOM     16  C   UNL A   1      29.871  27.303  23.885  1.00  0.00     0.009 C 
ATOM     17  C   UNL A   1      30.116  29.220  22.382  1.00  0.00     0.001 C 
ATOM     18  C   UNL A   1      29.083  28.375  23.125  1.00  0.00     0.001 C 
BRANCH  14  19
ATOM     19  C   UNL A   1      32.365  26.721  24.268  1.00  0.00     0.012 C 
BRANCH  19  20
ATOM     20  C   UNL A   1      32.825  25.783  23.131  1.00  0.00    -0.017 C 
ATOM     21  C   UNL A   1      34.019  24.908  23.532  1.00  0.00     0.007 C 
ATOM     22  C   UNL A   1      31.664  24.845  22.762  1.00  0.00     0.007 C 
ENDBRANCH  19  20
ENDBRANCH  14  19
ENDBRANCH  13  14
ENDBRANCH  11  13
ENDBRANCH   6  11
ENDBRANCH   3   5
ENDBRANCH   2   3
ENDBRANCH   1   2
BRANCH   1  23
ATOM     23  C   UNL A   1      33.989  35.537  30.418  1.00  0.00     0.202 C 
BRANCH  23  24
ATOM     24  O   UNL A   1      33.073  34.912  31.318  1.00  0.00    -0.374 OA
BRANCH  24  25
ATOM     25  C   UNL A   1      33.586  34.541  32.600  1.00  0.00     0.202 C 
BRANCH  25  26
ATOM     26  C   UNL A   1      34.359  33.218  32.639  1.00  0.00     0.261 C 
BRANCH  26  27
ATOM     27  O   UNL A   1      35.770  33.414  32.430  1.00  0.00    -0.460 OA
BRANCH  27  28
ATOM     28  C   UNL A   1      36.568  32.598  33.156  1.00  0.00     0.338 C 
ATOM     29  O   UNL A   1      36.506  32.373  34.358  1.00  0.00    -0.246 OA
BRANCH  28  30
ATOM     30  C   UNL A   1      37.477  31.849  32.268  1.00  0.00     0.060 A 
ATOM     31  C   UNL A   1      38.560  31.194  32.866  1.00  0.00     0.016 A 
ATOM     32  C   UNL A   1      37.326  31.844  30.879  1.00  0.00     0.016 A 
ATOM     33  C   UNL A   1      39.524  30.576  32.075  1.00  0.00     0.010 A 
ATOM     34  C   UNL A   1      38.300  31.225  30.084  1.00  0.00     0.010 A 
ATOM     35  C   UNL A   1      39.422  30.619  30.677  1.00  0.00    -0.014 A 
BRANCH  35  36
ATOM     36  C   UNL A   1      40.557  30.127  29.859  1.00  0.00     0.031 A 
ATOM     37  C   UNL A   1      41.712  31.046  29.565  1.00  0.00     0.074 A 
ATOM     38  C   UNL A   1      40.591  28.851  29.434  1.00  0.00     0.049 A 
ATOM     39  N   UNL A   1      42.826  30.799  28.924  1.00  0.00    -0.248 NA
ATOM     40  C   UNL A   1      41.596  32.426  30.061  1.00  0.00     0.031 C 
ATOM     41  C   UNL A   1      39.546  27.856  29.668  1.00  0.00     0.029 A 
ATOM     42  N   UNL A   1      41.548  28.175  28.720  1.00  0.00    -0.354 N 
ATOM     43  C   UNL A   1      43.545  31.988  28.943  1.00  0.00     0.074 A 
ATOM     44  C   UNL A   1      42.724  32.966  29.625  1.00  0.00     0.031 C 
ATOM     45  C   UNL A   1      39.921  26.691  29.111  1.00  0.00     0.029 A 
ATOM     46  C   UNL A   1      41.221  26.866  28.465  1.00  0.00     0.049 A 
ATOM     47  H   UNL A   1      42.388  28.589  28.418  1.00  0.00     0.167 HD
ATOM     48  C   UNL A   1      44.782  32.240  28.449  1.00  0.00     0.037 A 
ATOM     49  C   UNL A   1      41.893  25.916  27.786  1.00  0.00     0.037 A 
ATOM     50  C   UNL A   1      45.601  31.269  27.771  1.00  0.00     0.049 A 
ATOM     51  C   UNL A   1      43.246  26.234  27.208  1.00  0.00     0.074 A 
ATOM     52  C   UNL A   1      46.878  31.425  27.259  1.00  0.00     0.029 A 
ATOM     53  N   UNL A   1      45.221  29.963  27.504  1.00  0.00    -0.354 N 
ATOM     54  N   UNL A   1      43.931  27.350  27.267  1.00  0.00    -0.248 NA
ATOM     55  C   UNL A   1      43.923  25.154  26.476  1.00  0.00     0.031 C 
ATOM     56  C   UNL A   1      47.253  30.226  26.642  1.00  0.00     0.029 A 
ATOM     57  C   UNL A   1      46.228  29.309  26.812  1.00  0.00     0.049 A 
ATOM     58  H   UNL A   1      44.363  29.560  27.767  1.00  0.00     0.167 HD
ATOM     59  C   UNL A   1      45.126  27.100  26.603  1.00  0.00     0.074 A 
ATOM     60  C   UNL A   1      45.079  25.721  26.165  1.00  0.00     0.031 C 
ATOM     61  C   UNL A   1      46.168  27.938  26.376  1.00  0.00     0.037 A 
BRANCH  48  62
ATOM     62  C   UNL A   1      45.319  33.631  28.613  1.00  0.00     0.057 A 
ATOM     63  C   UNL A   1      45.130  34.617  27.636  1.00  0.00     0.134 A 
ATOM     64  C   UNL A   1      46.003  34.000  29.778  1.00  0.00     0.134 A 
ATOM     65  F   UNL A   1      44.494  34.326  26.491  1.00  0.00    -0.206 F 
ATOM     66  C   UNL A   1      45.622  35.913  27.802  1.00  0.00     0.040 A 
ATOM     67  C   UNL A   1      46.478  35.298  29.966  1.00  0.00     0.040 A 
ATOM     68  F   UNL A   1      46.215  33.105  30.756  1.00  0.00    -0.206 F 
ATOM     69  C   UNL A   1      46.293  36.258  28.973  1.00  0.00     0.006 A 
ENDBRANCH  48  62
BRANCH  49  70
ATOM     70  C   UNL A   1      41.300  24.567  27.614  1.00  0.00     0.057 A 
ATOM     71  C   UNL A   1      41.753  23.473  28.360  1.00  0.00     0.134 A 
ATOM     72  C   UNL A   1      40.281  24.336  26.683  1.00  0.00     0.134 A 
ATOM     73  F   UNL A   1      42.744  23.626  29.250  1.00  0.00    -0.206 F 
ATOM     74  C   UNL A   1      41.227  22.194  28.173  1.00  0.00     0.040 A 
ATOM     75  C   UNL A   1      39.729  23.067  26.502  1.00  0.00     0.040 A 
ATOM     76  F   UNL A   1      39.802  25.344  25.938  1.00  0.00    -0.206 F 
ATOM     77  C   UNL A   1      40.208  21.990  27.244  1.00  0.00     0.006 A 
ENDBRANCH  49  70
BRANCH  61  78
ATOM     78  C   UNL A   1      47.349  27.374  25.641  1.00  0.00     0.057 A 
ATOM     79  C   UNL A   1      48.390  26.714  26.307  1.00  0.00     0.134 A 
ATOM     80  C   UNL A   1      47.440  27.479  24.246  1.00  0.00     0.134 A 
ATOM     81  F   UNL A   1      48.370  26.591  27.643  1.00  0.00    -0.206 F 
ATOM     82  C   UNL A   1      49.492  26.207  25.617  1.00  0.00     0.040 A 
ATOM     83  C   UNL A   1      48.524  26.953  23.544  1.00  0.00     0.040 A 
ATOM     84  F   UNL A   1      46.474  28.090  23.544  1.00  0.00    -0.206 F 
ATOM     85  C   UNL A   1      49.559  26.322  24.230  1.00  0.00     0.006 A 
ENDBRANCH  61  78
ENDBRANCH  35  36
ENDBRANCH  28  30
ENDBRANCH  27  28
ENDBRANCH  26  27
ENDBRANCH  25  26
ENDBRANCH  24  25
ENDBRANCH  23  24
ENDBRANCH   1  23
TORSDOF 19
ENDMDL
