MODEL 1
REMARK VINA RESULT:     -11.1      0.000      0.000
REMARK SMILES COCCNC(=O)c1cccc(NC(=O)[C@@H]2CCCC[C@H]2C(=O)OCCOCCOC(=O)c2ccc(-c3c4nc(c(-c5c(F)cccc5F)c5ccc([nH]5)c(-c5c(F)cccc5F)c5nc(c(-c6c(F)cccc6F)c6ccc3[nH]6)C=C5)C=C4)cc2)c1
REMARK SMILES IDX 25 1 24 2 22 3 23 4 21 5 16 6 17 7 18 8 20 9 19 10 14 11
REMARK SMILES IDX 13 12 15 14 12 15 8 16 9 17 87 18 10 19 11 20 6 21 5 22 7 24
REMARK SMILES IDX 4 25 3 26 2 27 1 28 26 29 27 30 28 31 29 32 30 33 31 34
REMARK SMILES IDX 32 35 33 36 34 37 86 38 35 39 85 40 36 41 37 42 38 43 79 44
REMARK SMILES IDX 39 45 84 46 78 47 80 48 40 49 83 50 77 51 76 52 41 54 67 55
REMARK SMILES IDX 50 56 66 57 51 58 54 59 65 60 81 61 52 62 53 63 64 65 82 66
REMARK SMILES IDX 55 67 42 68 43 69 48 70 44 71 45 72 47 73 49 74 46 75 68 76
REMARK SMILES IDX 69 77 74 78 70 79 71 80 73 81 75 82 72 83 56 84 57 85 62 86
REMARK SMILES IDX 58 87 59 88 61 89 63 90 60 91
REMARK H PARENT 13 13 5 23 80 53 54 64
REMARK Flexibility Score: inf
ROOT
ATOM      1  C   UNL A   1      32.582  28.200  25.873  1.00  0.00     0.261 C 
ENDROOT
BRANCH   1   2
ATOM      2  O   UNL A   1      33.219  27.091  26.511  1.00  0.00    -0.463 OA
BRANCH   2   3
ATOM      3  C   UNL A   1      32.488  25.958  26.477  1.00  0.00     0.309 C 
ATOM      4  O   UNL A   1      31.399  25.828  27.019  1.00  0.00    -0.252 OA
BRANCH   3   5
ATOM      5  C   UNL A   1      33.167  24.807  25.777  1.00  0.00     0.111 C 
ATOM      6  C   UNL A   1      32.508  24.020  24.633  1.00  0.00     0.093 C 
ATOM      7  C   UNL A   1      33.164  22.620  24.705  1.00  0.00     0.014 C 
ATOM      8  C   UNL A   1      34.656  22.728  24.382  1.00  0.00     0.001 C 
ATOM      9  C   UNL A   1      34.588  25.139  25.308  1.00  0.00     0.016 C 
ATOM     10  C   UNL A   1      35.389  23.837  25.156  1.00  0.00     0.001 C 
BRANCH   6  11
ATOM     11  C   UNL A   1      31.011  23.890  24.647  1.00  0.00     0.228 C 
ATOM     12  N   UNL A   1      30.172  24.821  24.111  1.00  0.00    -0.326 N 
ATOM     13  H   UNL A   1      29.239  24.505  24.105  1.00  0.00     0.169 HD
ATOM     14  O   UNL A   1      30.474  22.942  25.234  1.00  0.00    -0.274 OA
BRANCH  12  15
ATOM     15  C   UNL A   1      30.282  26.115  23.561  1.00  0.00     0.041 A 
ATOM     16  C   UNL A   1      28.982  28.176  23.016  1.00  0.00     0.041 A 
ATOM     17  C   UNL A   1      30.134  28.669  22.410  1.00  0.00     0.014 A 
ATOM     18  C   UNL A   1      29.106  26.911  23.567  1.00  0.00     0.040 A 
ATOM     19  C   UNL A   1      31.327  27.915  22.391  1.00  0.00     0.003 A 
ATOM     20  C   UNL A   1      31.407  26.637  22.964  1.00  0.00     0.026 A 
BRANCH  16  21
ATOM     21  C   UNL A   1      27.681  28.934  22.901  1.00  0.00     0.251 C 
ATOM     22  N   UNL A   1      27.446  30.134  22.258  1.00  0.00    -0.350 N 
ATOM     23  H   UNL A   1      26.773  30.668  22.739  1.00  0.00     0.163 HD
ATOM     24  O   UNL A   1      26.722  28.499  23.547  1.00  0.00    -0.269 OA
BRANCH  22  25
ATOM     25  C   UNL A   1      27.920  30.838  21.058  1.00  0.00     0.144 C 
BRANCH  25  26
ATOM     26  C   UNL A   1      28.109  32.352  21.287  1.00  0.00     0.181 C 
BRANCH  26  27
ATOM     27  O   UNL A   1      27.974  32.753  22.653  1.00  0.00    -0.383 OA
ATOM     28  C   UNL A   1      29.054  33.528  23.145  1.00  0.00     0.194 C 
ENDBRANCH  26  27
ENDBRANCH  25  26
ENDBRANCH  22  25
ENDBRANCH  16  21
ENDBRANCH  12  15
ENDBRANCH   6  11
ENDBRANCH   3   5
ENDBRANCH   2   3
ENDBRANCH   1   2
BRANCH   1  29
ATOM     29  C   UNL A   1      32.976  29.602  26.377  1.00  0.00     0.202 C 
BRANCH  29  30
ATOM     30  O   UNL A   1      32.197  30.445  27.241  1.00  0.00    -0.374 OA
BRANCH  30  31
ATOM     31  C   UNL A   1      31.812  31.787  26.891  1.00  0.00     0.202 C 
BRANCH  31  32
ATOM     32  C   UNL A   1      32.811  33.013  27.178  1.00  0.00     0.261 C 
BRANCH  32  33
ATOM     33  O   UNL A   1      32.219  34.191  27.895  1.00  0.00    -0.460 OA
BRANCH  33  34
ATOM     34  C   UNL A   1      33.010  35.001  28.690  1.00  0.00     0.338 C 
ATOM     35  O   UNL A   1      32.668  36.097  29.080  1.00  0.00    -0.246 OA
BRANCH  34  36
ATOM     36  C   UNL A   1      34.240  34.289  29.287  1.00  0.00     0.060 A 
ATOM     37  C   UNL A   1      35.463  34.452  28.611  1.00  0.00     0.016 A 
ATOM     38  C   UNL A   1      34.284  33.528  30.464  1.00  0.00     0.016 A 
ATOM     39  C   UNL A   1      36.695  33.962  29.120  1.00  0.00     0.010 A 
ATOM     40  C   UNL A   1      35.521  32.970  30.943  1.00  0.00     0.010 A 
ATOM     41  C   UNL A   1      36.753  33.185  30.285  1.00  0.00    -0.014 A 
BRANCH  41  42
ATOM     42  C   UNL A   1      38.031  32.414  30.592  1.00  0.00     0.031 A 
ATOM     43  C   UNL A   1      38.916  32.943  31.707  1.00  0.00     0.074 A 
ATOM     44  C   UNL A   1      38.408  31.232  30.042  1.00  0.00     0.049 A 
ATOM     45  N   UNL A   1      40.021  32.452  32.218  1.00  0.00    -0.248 NA
ATOM     46  C   UNL A   1      38.468  34.191  32.339  1.00  0.00     0.031 C 
ATOM     47  C   UNL A   1      37.671  30.483  29.032  1.00  0.00     0.029 A 
ATOM     48  N   UNL A   1      39.522  30.435  30.281  1.00  0.00    -0.354 N 
ATOM     49  C   UNL A   1      40.386  33.319  33.244  1.00  0.00     0.074 A 
ATOM     50  C   UNL A   1      39.396  34.376  33.264  1.00  0.00     0.031 C 
ATOM     51  C   UNL A   1      38.340  29.349  28.738  1.00  0.00     0.029 A 
ATOM     52  C   UNL A   1      39.581  29.286  29.516  1.00  0.00     0.049 A 
ATOM     53  H   UNL A   1      40.213  30.670  30.941  1.00  0.00     0.167 HD
ATOM     54  C   UNL A   1      41.436  33.263  34.101  1.00  0.00     0.037 A 
ATOM     55  C   UNL A   1      40.514  28.304  29.433  1.00  0.00     0.037 A 
ATOM     56  C   UNL A   1      42.468  32.261  34.101  1.00  0.00     0.049 A 
ATOM     57  C   UNL A   1      41.761  28.337  30.300  1.00  0.00     0.074 A 
ATOM     58  C   UNL A   1      43.581  32.176  34.922  1.00  0.00     0.029 A 
ATOM     59  N   UNL A   1      42.530  31.182  33.236  1.00  0.00    -0.354 N 
ATOM     60  N   UNL A   1      42.083  29.168  31.261  1.00  0.00    -0.248 NA
ATOM     61  C   UNL A   1      42.779  27.294  30.065  1.00  0.00     0.031 C 
ATOM     62  C   UNL A   1      44.350  31.081  34.513  1.00  0.00     0.029 A 
ATOM     63  C   UNL A   1      43.681  30.447  33.481  1.00  0.00     0.049 A 
ATOM     64  H   UNL A   1      41.858  30.969  32.549  1.00  0.00     0.167 HD
ATOM     65  C   UNL A   1      43.308  28.728  31.760  1.00  0.00     0.074 A 
ATOM     66  C   UNL A   1      43.674  27.551  31.009  1.00  0.00     0.031 C 
ATOM     67  C   UNL A   1      44.057  29.261  32.756  1.00  0.00     0.037 A 
BRANCH  54  68
ATOM     68  C   UNL A   1      41.550  34.379  35.097  1.00  0.00     0.057 A 
ATOM     69  C   UNL A   1      42.237  35.566  34.807  1.00  0.00     0.134 A 
ATOM     70  C   UNL A   1      40.959  34.264  36.362  1.00  0.00     0.134 A 
ATOM     71  F   UNL A   1      42.838  35.729  33.618  1.00  0.00    -0.206 F 
ATOM     72  C   UNL A   1      42.361  36.584  35.752  1.00  0.00     0.040 A 
ATOM     73  C   UNL A   1      41.051  35.288  37.305  1.00  0.00     0.040 A 
ATOM     74  F   UNL A   1      40.280  33.157  36.699  1.00  0.00    -0.206 F 
ATOM     75  C   UNL A   1      41.763  36.447  37.004  1.00  0.00     0.006 A 
ENDBRANCH  54  68
BRANCH  55  76
ATOM     76  C   UNL A   1      40.370  27.183  28.451  1.00  0.00     0.057 A 
ATOM     77  C   UNL A   1      40.945  27.239  27.171  1.00  0.00     0.134 A 
ATOM     78  C   UNL A   1      39.552  26.080  28.727  1.00  0.00     0.134 A 
ATOM     79  F   UNL A   1      41.695  28.292  26.814  1.00  0.00    -0.206 F 
ATOM     80  C   UNL A   1      40.697  26.258  26.204  1.00  0.00     0.040 A 
ATOM     81  C   UNL A   1      39.318  25.077  27.780  1.00  0.00     0.040 A 
ATOM     82  F   UNL A   1      38.944  25.969  29.917  1.00  0.00    -0.206 F 
ATOM     83  C   UNL A   1      39.884  25.169  26.511  1.00  0.00     0.006 A 
ENDBRANCH  55  76
BRANCH  67  84
ATOM     84  C   UNL A   1      45.338  28.571  33.146  1.00  0.00     0.057 A 
ATOM     85  C   UNL A   1      46.581  28.956  32.628  1.00  0.00     0.134 A 
ATOM     86  C   UNL A   1      45.336  27.552  34.109  1.00  0.00     0.134 A 
ATOM     87  F   UNL A   1      46.662  29.921  31.698  1.00  0.00    -0.206 F 
ATOM     88  C   UNL A   1      47.770  28.347  33.043  1.00  0.00     0.040 A 
ATOM     89  C   UNL A   1      46.518  26.953  34.550  1.00  0.00     0.040 A 
ATOM     90  F   UNL A   1      44.184  27.136  34.658  1.00  0.00    -0.206 F 
ATOM     91  C   UNL A   1      47.741  27.347  34.013  1.00  0.00     0.006 A 
ENDBRANCH  67  84
ENDBRANCH  41  42
ENDBRANCH  34  36
ENDBRANCH  33  34
ENDBRANCH  32  33
ENDBRANCH  31  32
ENDBRANCH  30  31
ENDBRANCH  29  30
ENDBRANCH   1  29
TORSDOF 20
ENDMDL
MODEL 2
REMARK VINA RESULT:     -10.9      1.107      6.039
REMARK SMILES COCCNC(=O)c1cccc(NC(=O)[C@@H]2CCCC[C@H]2C(=O)OCCOCCOC(=O)c2ccc(-c3c4nc(c(-c5c(F)cccc5F)c5ccc([nH]5)c(-c5c(F)cccc5F)c5nc(c(-c6c(F)cccc6F)c6ccc3[nH]6)C=C5)C=C4)cc2)c1
REMARK SMILES IDX 25 1 24 2 22 3 23 4 21 5 16 6 17 7 18 8 20 9 19 10 14 11
REMARK SMILES IDX 13 12 15 14 12 15 8 16 9 17 87 18 10 19 11 20 6 21 5 22 7 24
REMARK SMILES IDX 4 25 3 26 2 27 1 28 26 29 27 30 28 31 29 32 30 33 31 34
REMARK SMILES IDX 32 35 33 36 34 37 86 38 35 39 85 40 36 41 37 42 38 43 79 44
REMARK SMILES IDX 39 45 84 46 78 47 80 48 40 49 83 50 77 51 76 52 41 54 67 55
REMARK SMILES IDX 50 56 66 57 51 58 54 59 65 60 81 61 52 62 53 63 64 65 82 66
REMARK SMILES IDX 55 67 42 68 43 69 48 70 44 71 45 72 47 73 49 74 46 75 68 76
REMARK SMILES IDX 69 77 74 78 70 79 71 80 73 81 75 82 72 83 56 84 57 85 62 86
REMARK SMILES IDX 58 87 59 88 61 89 63 90 60 91
REMARK H PARENT 13 13 5 23 80 53 54 64
REMARK Flexibility Score: inf
ROOT
ATOM      1  C   UNL A   1      32.609  27.942  25.841  1.00  0.00     0.261 C 
ENDROOT
BRANCH   1   2
ATOM      2  O   UNL A   1      33.270  26.829  26.447  1.00  0.00    -0.463 OA
BRANCH   2   3
ATOM      3  C   UNL A   1      32.531  25.700  26.449  1.00  0.00     0.309 C 
ATOM      4  O   UNL A   1      31.435  25.600  26.982  1.00  0.00    -0.252 OA
BRANCH   3   5
ATOM      5  C   UNL A   1      33.211  24.517  25.804  1.00  0.00     0.111 C 
ATOM      6  C   UNL A   1      32.552  23.678  24.698  1.00  0.00     0.093 C 
ATOM      7  C   UNL A   1      33.208  22.282  24.835  1.00  0.00     0.014 C 
ATOM      8  C   UNL A   1      34.700  22.375  24.509  1.00  0.00     0.001 C 
ATOM      9  C   UNL A   1      34.631  24.827  25.321  1.00  0.00     0.016 C 
ATOM     10  C   UNL A   1      35.432  23.519  25.231  1.00  0.00     0.001 C 
BRANCH   6  11
ATOM     11  C   UNL A   1      31.055  23.549  24.717  1.00  0.00     0.228 C 
ATOM     12  N   UNL A   1      30.216  24.469  24.162  1.00  0.00    -0.326 N 
ATOM     13  H   UNL A   1      29.283  24.154  24.165  1.00  0.00     0.169 HD
ATOM     14  O   UNL A   1      30.518  22.614  25.324  1.00  0.00    -0.274 OA
BRANCH  12  15
ATOM     15  C   UNL A   1      30.326  25.751  23.585  1.00  0.00     0.041 A 
ATOM     16  C   UNL A   1      29.050  27.841  23.091  1.00  0.00     0.041 A 
ATOM     17  C   UNL A   1      30.173  28.292  22.403  1.00  0.00     0.014 A 
ATOM     18  C   UNL A   1      29.174  26.581  23.654  1.00  0.00     0.040 A 
ATOM     19  C   UNL A   1      31.341  27.503  22.320  1.00  0.00     0.003 A 
ATOM     20  C   UNL A   1      31.422  26.232  22.908  1.00  0.00     0.026 A 
BRANCH  16  21
ATOM     21  C   UNL A   1      27.765  28.633  23.048  1.00  0.00     0.251 C 
ATOM     22  N   UNL A   1      27.514  29.816  22.378  1.00  0.00    -0.350 N 
ATOM     23  H   UNL A   1      26.896  30.387  22.889  1.00  0.00     0.163 HD
ATOM     24  O   UNL A   1      26.849  28.253  23.783  1.00  0.00    -0.269 OA
BRANCH  22  25
ATOM     25  C   UNL A   1      27.911  30.460  21.118  1.00  0.00     0.144 C 
BRANCH  25  26
ATOM     26  C   UNL A   1      28.717  31.757  21.336  1.00  0.00     0.181 C 
BRANCH  26  27
ATOM     27  O   UNL A   1      29.054  32.007  22.704  1.00  0.00    -0.383 OA
ATOM     28  C   UNL A   1      28.926  33.362  23.100  1.00  0.00     0.194 C 
ENDBRANCH  26  27
ENDBRANCH  25  26
ENDBRANCH  22  25
ENDBRANCH  16  21
ENDBRANCH  12  15
ENDBRANCH   6  11
ENDBRANCH   3   5
ENDBRANCH   2   3
ENDBRANCH   1   2
BRANCH   1  29
ATOM     29  C   UNL A   1      33.036  29.341  26.325  1.00  0.00     0.202 C 
BRANCH  29  30
ATOM     30  O   UNL A   1      32.322  30.175  27.251  1.00  0.00    -0.374 OA
BRANCH  30  31
ATOM     31  C   UNL A   1      31.811  31.476  26.905  1.00  0.00     0.202 C 
BRANCH  31  32
ATOM     32  C   UNL A   1      32.742  32.776  27.070  1.00  0.00     0.261 C 
BRANCH  32  33
ATOM     33  O   UNL A   1      32.161  33.903  27.874  1.00  0.00    -0.460 OA
BRANCH  33  34
ATOM     34  C   UNL A   1      32.987  34.782  28.552  1.00  0.00     0.338 C 
ATOM     35  O   UNL A   1      32.641  35.890  28.904  1.00  0.00    -0.246 OA
BRANCH  34  36
ATOM     36  C   UNL A   1      34.284  34.143  29.085  1.00  0.00     0.060 A 
ATOM     37  C   UNL A   1      34.144  33.040  29.947  1.00  0.00     0.016 A 
ATOM     38  C   UNL A   1      35.598  34.513  28.767  1.00  0.00     0.016 A 
ATOM     39  C   UNL A   1      35.251  32.277  30.406  1.00  0.00     0.010 A 
ATOM     40  C   UNL A   1      36.723  33.784  29.289  1.00  0.00     0.010 A 
ATOM     41  C   UNL A   1      36.571  32.645  30.112  1.00  0.00    -0.014 A 
BRANCH  41  42
ATOM     42  C   UNL A   1      37.706  32.001  30.898  1.00  0.00     0.031 A 
ATOM     43  C   UNL A   1      38.492  30.896  30.213  1.00  0.00     0.074 A 
ATOM     44  C   UNL A   1      38.164  32.390  32.115  1.00  0.00     0.049 A 
ATOM     45  N   UNL A   1      39.543  30.223  30.622  1.00  0.00    -0.248 NA
ATOM     46  C   UNL A   1      38.029  30.521  28.870  1.00  0.00     0.031 C 
ATOM     47  C   UNL A   1      37.640  33.489  32.915  1.00  0.00     0.029 A 
ATOM     48  N   UNL A   1      39.209  31.901  32.890  1.00  0.00    -0.354 N 
ATOM     49  C   UNL A   1      39.877  29.364  29.579  1.00  0.00     0.074 A 
ATOM     50  C   UNL A   1      38.902  29.587  28.531  1.00  0.00     0.031 C 
ATOM     51  C   UNL A   1      38.352  33.593  34.056  1.00  0.00     0.029 A 
ATOM     52  C   UNL A   1      39.382  32.550  34.097  1.00  0.00     0.049 A 
ATOM     53  H   UNL A   1      39.780  31.152  32.602  1.00  0.00     0.167 HD
ATOM     54  C   UNL A   1      40.890  28.469  29.476  1.00  0.00     0.037 A 
ATOM     55  C   UNL A   1      40.246  32.335  35.121  1.00  0.00     0.037 A 
ATOM     56  C   UNL A   1      41.861  28.179  30.498  1.00  0.00     0.049 A 
ATOM     57  C   UNL A   1      41.282  31.227  35.049  1.00  0.00     0.074 A 
ATOM     58  C   UNL A   1      42.889  27.250  30.465  1.00  0.00     0.029 A 
ATOM     59  N   UNL A   1      41.920  28.793  31.737  1.00  0.00    -0.354 N 
ATOM     60  N   UNL A   1      41.577  30.429  34.053  1.00  0.00    -0.248 NA
ATOM     61  C   UNL A   1      42.105  30.988  36.252  1.00  0.00     0.031 C 
ATOM     62  C   UNL A   1      43.532  27.258  31.708  1.00  0.00     0.029 A 
ATOM     63  C   UNL A   1      42.946  28.237  32.489  1.00  0.00     0.049 A 
ATOM     64  H   UNL A   1      41.323  29.514  32.039  1.00  0.00     0.167 HD
ATOM     65  C   UNL A   1      42.629  29.629  34.494  1.00  0.00     0.074 A 
ATOM     66  C   UNL A   1      42.937  30.039  35.844  1.00  0.00     0.031 C 
ATOM     67  C   UNL A   1      43.280  28.642  33.830  1.00  0.00     0.037 A 
BRANCH  54  68
ATOM     68  C   UNL A   1      40.964  27.680  28.202  1.00  0.00     0.057 A 
ATOM     69  C   UNL A   1      40.311  26.448  28.053  1.00  0.00     0.134 A 
ATOM     70  C   UNL A   1      41.695  28.163  27.110  1.00  0.00     0.134 A 
ATOM     71  F   UNL A   1      39.608  25.925  29.070  1.00  0.00    -0.206 F 
ATOM     72  C   UNL A   1      40.411  25.711  26.874  1.00  0.00     0.040 A 
ATOM     73  C   UNL A   1      41.778  27.447  25.915  1.00  0.00     0.040 A 
ATOM     74  F   UNL A   1      42.336  29.339  27.185  1.00  0.00    -0.206 F 
ATOM     75  C   UNL A   1      41.144  26.213  25.799  1.00  0.00     0.006 A 
ENDBRANCH  54  68
BRANCH  55  76
ATOM     76  C   UNL A   1      40.175  33.151  36.375  1.00  0.00     0.057 A 
ATOM     77  C   UNL A   1      39.250  32.869  37.392  1.00  0.00     0.134 A 
ATOM     78  C   UNL A   1      40.951  34.307  36.531  1.00  0.00     0.134 A 
ATOM     79  F   UNL A   1      38.432  31.812  37.287  1.00  0.00    -0.206 F 
ATOM     80  C   UNL A   1      39.087  33.711  38.499  1.00  0.00     0.040 A 
ATOM     81  C   UNL A   1      40.820  35.142  37.646  1.00  0.00     0.040 A 
ATOM     82  F   UNL A   1      41.838  34.659  35.589  1.00  0.00    -0.206 F 
ATOM     83  C   UNL A   1      39.878  34.849  38.630  1.00  0.00     0.006 A 
ENDBRANCH  55  76
BRANCH  67  84
ATOM     84  C   UNL A   1      44.426  27.945  34.514  1.00  0.00     0.057 A 
ATOM     85  C   UNL A   1      44.257  26.748  35.222  1.00  0.00     0.134 A 
ATOM     86  C   UNL A   1      45.734  28.440  34.400  1.00  0.00     0.134 A 
ATOM     87  F   UNL A   1      43.034  26.216  35.377  1.00  0.00    -0.206 F 
ATOM     88  C   UNL A   1      45.340  26.079  35.803  1.00  0.00     0.040 A 
ATOM     89  C   UNL A   1      46.826  27.768  34.954  1.00  0.00     0.040 A 
ATOM     90  F   UNL A   1      45.976  29.576  33.728  1.00  0.00    -0.206 F 
ATOM     91  C   UNL A   1      46.630  26.585  35.662  1.00  0.00     0.006 A 
ENDBRANCH  67  84
ENDBRANCH  41  42
ENDBRANCH  34  36
ENDBRANCH  33  34
ENDBRANCH  32  33
ENDBRANCH  31  32
ENDBRANCH  30  31
ENDBRANCH  29  30
ENDBRANCH   1  29
TORSDOF 20
ENDMDL
MODEL 3
REMARK VINA RESULT:     -10.7      2.704      7.412
REMARK SMILES COCCNC(=O)c1cccc(NC(=O)[C@@H]2CCCC[C@H]2C(=O)OCCOCCOC(=O)c2ccc(-c3c4nc(c(-c5c(F)cccc5F)c5ccc([nH]5)c(-c5c(F)cccc5F)c5nc(c(-c6c(F)cccc6F)c6ccc3[nH]6)C=C5)C=C4)cc2)c1
REMARK SMILES IDX 25 1 24 2 22 3 23 4 21 5 16 6 17 7 18 8 20 9 19 10 14 11
REMARK SMILES IDX 13 12 15 14 12 15 8 16 9 17 87 18 10 19 11 20 6 21 5 22 7 24
REMARK SMILES IDX 4 25 3 26 2 27 1 28 26 29 27 30 28 31 29 32 30 33 31 34
REMARK SMILES IDX 32 35 33 36 34 37 86 38 35 39 85 40 36 41 37 42 38 43 79 44
REMARK SMILES IDX 39 45 84 46 78 47 80 48 40 49 83 50 77 51 76 52 41 54 67 55
REMARK SMILES IDX 50 56 66 57 51 58 54 59 65 60 81 61 52 62 53 63 64 65 82 66
REMARK SMILES IDX 55 67 42 68 43 69 48 70 44 71 45 72 47 73 49 74 46 75 68 76
REMARK SMILES IDX 69 77 74 78 70 79 71 80 73 81 75 82 72 83 56 84 57 85 62 86
REMARK SMILES IDX 58 87 59 88 61 89 63 90 60 91
REMARK H PARENT 13 13 5 23 80 53 54 64
REMARK Flexibility Score: inf
ROOT
ATOM      1  C   UNL A   1      36.439  23.565  25.188  1.00  0.00     0.261 C 
ENDROOT
BRANCH   1   2
ATOM      2  O   UNL A   1      35.341  23.769  26.080  1.00  0.00    -0.463 OA
BRANCH   2   3
ATOM      3  C   UNL A   1      34.493  22.721  26.138  1.00  0.00     0.309 C 
ATOM      4  O   UNL A   1      34.656  21.745  26.857  1.00  0.00    -0.252 OA
BRANCH   3   5
ATOM      5  C   UNL A   1      33.345  22.804  25.162  1.00  0.00     0.111 C 
ATOM      6  C   UNL A   1      32.259  23.888  25.242  1.00  0.00     0.093 C 
ATOM      7  C   UNL A   1      31.016  23.233  24.590  1.00  0.00     0.014 C 
ATOM      8  C   UNL A   1      31.286  22.968  23.108  1.00  0.00     0.001 C 
ATOM      9  C   UNL A   1      33.793  22.750  23.697  1.00  0.00     0.016 C 
ATOM     10  C   UNL A   1      32.624  22.262  22.828  1.00  0.00     0.001 C 
BRANCH   6  11
ATOM     11  C   UNL A   1      31.907  24.425  26.600  1.00  0.00     0.228 C 
ATOM     12  N   UNL A   1      31.811  25.756  26.879  1.00  0.00    -0.326 N 
ATOM     13  H   UNL A   1      31.453  25.909  27.784  1.00  0.00     0.169 HD
ATOM     14  O   UNL A   1      31.765  23.653  27.557  1.00  0.00    -0.274 OA
BRANCH  12  15
ATOM     15  C   UNL A   1      32.088  26.971  26.220  1.00  0.00     0.041 A 
ATOM     16  C   UNL A   1      31.325  28.464  24.369  1.00  0.00     0.041 A 
ATOM     17  C   UNL A   1      32.446  29.250  24.623  1.00  0.00     0.014 A 
ATOM     18  C   UNL A   1      31.195  27.350  25.183  1.00  0.00     0.040 A 
ATOM     19  C   UNL A   1      33.353  28.914  25.652  1.00  0.00     0.003 A 
ATOM     20  C   UNL A   1      33.179  27.776  26.453  1.00  0.00     0.026 A 
BRANCH  16  21
ATOM     21  C   UNL A   1      30.447  28.757  23.176  1.00  0.00     0.251 C 
ATOM     22  N   UNL A   1      29.413  29.669  23.081  1.00  0.00    -0.350 N 
ATOM     23  H   UNL A   1      28.695  29.329  22.500  1.00  0.00     0.163 HD
ATOM     24  O   UNL A   1      30.584  28.027  22.189  1.00  0.00    -0.269 OA
BRANCH  22  25
ATOM     25  C   UNL A   1      29.084  31.002  23.606  1.00  0.00     0.144 C 
BRANCH  25  26
ATOM     26  C   UNL A   1      27.720  31.522  23.106  1.00  0.00     0.181 C 
BRANCH  26  27
ATOM     27  O   UNL A   1      27.806  32.728  22.340  1.00  0.00    -0.383 OA
ATOM     28  C   UNL A   1      28.075  32.529  20.963  1.00  0.00     0.194 C 
ENDBRANCH  26  27
ENDBRANCH  25  26
ENDBRANCH  22  25
ENDBRANCH  16  21
ENDBRANCH  12  15
ENDBRANCH   6  11
ENDBRANCH   3   5
ENDBRANCH   2   3
ENDBRANCH   1   2
BRANCH   1  29
ATOM     29  C   UNL A   1      37.674  22.850  25.770  1.00  0.00     0.202 C 
BRANCH  29  30
ATOM     30  O   UNL A   1      38.036  21.475  25.564  1.00  0.00    -0.374 OA
BRANCH  30  31
ATOM     31  C   UNL A   1      39.366  20.971  25.786  1.00  0.00     0.202 C 
BRANCH  31  32
ATOM     32  C   UNL A   1      40.544  21.973  26.223  1.00  0.00     0.261 C 
BRANCH  32  33
ATOM     33  O   UNL A   1      41.873  21.754  25.561  1.00  0.00    -0.460 OA
BRANCH  33  34
ATOM     34  C   UNL A   1      42.697  22.826  25.264  1.00  0.00     0.338 C 
ATOM     35  O   UNL A   1      43.393  22.881  24.273  1.00  0.00    -0.246 OA
BRANCH  34  36
ATOM     36  C   UNL A   1      42.444  24.073  26.133  1.00  0.00     0.060 A 
ATOM     37  C   UNL A   1      42.257  23.863  27.512  1.00  0.00     0.016 A 
ATOM     38  C   UNL A   1      42.425  25.409  25.706  1.00  0.00     0.016 A 
ATOM     39  C   UNL A   1      42.145  24.928  28.444  1.00  0.00     0.010 A 
ATOM     40  C   UNL A   1      42.241  26.486  26.642  1.00  0.00     0.010 A 
ATOM     41  C   UNL A   1      42.107  26.267  28.031  1.00  0.00    -0.014 A 
BRANCH  41  42
ATOM     42  C   UNL A   1      41.652  27.330  29.024  1.00  0.00     0.031 A 
ATOM     43  C   UNL A   1      42.512  27.550  30.257  1.00  0.00     0.074 A 
ATOM     44  C   UNL A   1      40.609  28.184  28.865  1.00  0.00     0.049 A 
ATOM     45  N   UNL A   1      42.395  28.428  31.226  1.00  0.00    -0.248 NA
ATOM     46  C   UNL A   1      43.674  26.662  30.391  1.00  0.00     0.031 C 
ATOM     47  C   UNL A   1      39.709  28.233  27.720  1.00  0.00     0.029 A 
ATOM     48  N   UNL A   1      40.141  29.207  29.682  1.00  0.00    -0.354 N 
ATOM     49  C   UNL A   1      43.480  28.210  32.070  1.00  0.00     0.074 A 
ATOM     50  C   UNL A   1      44.226  27.103  31.509  1.00  0.00     0.031 C 
ATOM     51  C   UNL A   1      38.806  29.219  27.901  1.00  0.00     0.029 A 
ATOM     52  C   UNL A   1      39.034  29.872  29.194  1.00  0.00     0.049 A 
ATOM     53  H   UNL A   1      40.565  29.438  30.540  1.00  0.00     0.167 HD
ATOM     54  C   UNL A   1      43.843  28.854  33.208  1.00  0.00     0.037 A 
ATOM     55  C   UNL A   1      38.280  30.873  29.714  1.00  0.00     0.037 A 
ATOM     56  C   UNL A   1      43.121  29.931  33.831  1.00  0.00     0.049 A 
ATOM     57  C   UNL A   1      38.619  31.484  31.063  1.00  0.00     0.074 A 
ATOM     58  C   UNL A   1      43.420  30.597  35.008  1.00  0.00     0.029 A 
ATOM     59  N   UNL A   1      41.951  30.490  33.345  1.00  0.00    -0.354 N 
ATOM     60  N   UNL A   1      39.648  31.261  31.841  1.00  0.00    -0.248 NA
ATOM     61  C   UNL A   1      37.682  32.488  31.608  1.00  0.00     0.031 C 
ATOM     62  C   UNL A   1      42.399  31.517  35.268  1.00  0.00     0.029 A 
ATOM     63  C   UNL A   1      41.499  31.469  34.219  1.00  0.00     0.049 A 
ATOM     64  H   UNL A   1      41.507  30.231  32.506  1.00  0.00     0.167 HD
ATOM     65  C   UNL A   1      39.500  32.112  32.936  1.00  0.00     0.074 A 
ATOM     66  C   UNL A   1      38.289  32.869  32.723  1.00  0.00     0.031 C 
ATOM     67  C   UNL A   1      40.304  32.247  34.018  1.00  0.00     0.037 A 
BRANCH  54  68
ATOM     68  C   UNL A   1      45.080  28.357  33.896  1.00  0.00     0.057 A 
ATOM     69  C   UNL A   1      46.345  28.900  33.632  1.00  0.00     0.134 A 
ATOM     70  C   UNL A   1      45.001  27.325  34.839  1.00  0.00     0.134 A 
ATOM     71  F   UNL A   1      46.488  29.880  32.727  1.00  0.00    -0.206 F 
ATOM     72  C   UNL A   1      47.491  28.409  34.258  1.00  0.00     0.040 A 
ATOM     73  C   UNL A   1      46.136  26.845  35.492  1.00  0.00     0.040 A 
ATOM     74  F   UNL A   1      43.818  26.768  35.143  1.00  0.00    -0.206 F 
ATOM     75  C   UNL A   1      47.387  27.381  35.194  1.00  0.00     0.006 A 
ENDBRANCH  54  68
BRANCH  55  76
ATOM     76  C   UNL A   1      37.064  31.376  29.000  1.00  0.00     0.057 A 
ATOM     77  C   UNL A   1      37.001  32.672  28.463  1.00  0.00     0.134 A 
ATOM     78  C   UNL A   1      35.890  30.613  28.945  1.00  0.00     0.134 A 
ATOM     79  F   UNL A   1      38.068  33.482  28.529  1.00  0.00    -0.206 F 
ATOM     80  C   UNL A   1      35.821  33.192  27.920  1.00  0.00     0.040 A 
ATOM     81  C   UNL A   1      34.711  31.109  28.378  1.00  0.00     0.040 A 
ATOM     82  F   UNL A   1      35.862  29.377  29.462  1.00  0.00    -0.206 F 
ATOM     83  C   UNL A   1      34.671  32.406  27.873  1.00  0.00     0.006 A 
ENDBRANCH  55  76
BRANCH  67  84
ATOM     84  C   UNL A   1      39.950  33.278  35.057  1.00  0.00     0.057 A 
ATOM     85  C   UNL A   1      39.308  32.940  36.256  1.00  0.00     0.134 A 
ATOM     86  C   UNL A   1      40.321  34.620  34.889  1.00  0.00     0.134 A 
ATOM     87  F   UNL A   1      38.918  31.677  36.486  1.00  0.00    -0.206 F 
ATOM     88  C   UNL A   1      39.037  33.898  37.239  1.00  0.00     0.040 A 
ATOM     89  C   UNL A   1      40.079  35.580  35.874  1.00  0.00     0.040 A 
ATOM     90  F   UNL A   1      40.949  35.017  33.771  1.00  0.00    -0.206 F 
ATOM     91  C   UNL A   1      39.431  35.221  37.053  1.00  0.00     0.006 A 
ENDBRANCH  67  84
ENDBRANCH  41  42
ENDBRANCH  34  36
ENDBRANCH  33  34
ENDBRANCH  32  33
ENDBRANCH  31  32
ENDBRANCH  30  31
ENDBRANCH  29  30
ENDBRANCH   1  29
TORSDOF 20
ENDMDL
