MODEL 1
REMARK VINA RESULT:      -9.6      0.000      0.000
REMARK SMILES Cc1cc(Br)cc([N+](=O)[O-])c1OCCC[C@@](C)([NH3+])C(=O)OCCOCCOC(=O)c1ccc(-c2c3nc(c(-c4c(F)cccc4F)c4ccc([nH]4)c(-c4c(F)cccc4F)c4nc(c(-c5c(F)cccc5F)c5ccc2[nH]5)C=C4)C=C3)cc1
REMARK SMILES IDX 22 1 21 2 19 3 20 4 16 5 17 6 15 7 14 8 13 9 12 10 11 11
REMARK SMILES IDX 1 12 2 13 3 14 4 15 7 16 5 17 6 18 8 19 9 20 10 21 18 22
REMARK SMILES IDX 23 26 24 27 25 28 26 29 27 30 28 31 29 32 30 33 31 34 83 35
REMARK SMILES IDX 32 36 82 37 33 38 34 39 35 40 76 41 36 42 81 43 75 44 77 45
REMARK SMILES IDX 37 46 80 47 74 48 73 49 38 51 64 52 47 53 63 54 48 55 51 56
REMARK SMILES IDX 62 57 78 58 49 59 50 60 61 62 79 63 52 64 39 65 40 66 45 67
REMARK SMILES IDX 41 68 42 69 44 70 46 71 43 72 65 73 66 74 71 75 67 76 68 77
REMARK SMILES IDX 70 78 72 79 69 80 53 81 54 82 59 83 55 84 56 85 58 86 60 87
REMARK SMILES IDX 57 88
REMARK H PARENT 18 23 18 24 18 25 77 50 51 61
REMARK Flexibility Score: inf
ROOT
ATOM      1  C   UNL A   1      36.435  21.968  24.647  1.00  0.00     0.261 C 
ENDROOT
BRANCH   1   2
ATOM      2  O   UNL A   1      35.261  21.131  24.699  1.00  0.00    -0.459 OA
BRANCH   2   3
ATOM      3  C   UNL A   1      34.201  21.683  25.368  1.00  0.00     0.367 C 
ATOM      4  O   UNL A   1      34.238  22.033  26.541  1.00  0.00    -0.245 OA
BRANCH   3   5
ATOM      5  C   UNL A   1      32.938  21.830  24.478  1.00  0.00     0.190 C 
ATOM      6  C   UNL A   1      31.740  21.861  25.444  1.00  0.00     0.092 C 
BRANCH   5   7
ATOM      7  C   UNL A   1      32.926  23.121  23.586  1.00  0.00     0.084 C 
BRANCH   7   8
ATOM      8  C   UNL A   1      33.790  24.353  23.954  1.00  0.00     0.049 C 
BRANCH   8   9
ATOM      9  C   UNL A   1      33.354  25.302  25.096  1.00  0.00     0.230 C 
BRANCH   9  10
ATOM     10  O   UNL A   1      33.906  26.621  24.921  1.00  0.00    -0.487 OA
BRANCH  10  11
ATOM     11  C   UNL A   1      33.060  27.665  24.623  1.00  0.00     0.200 A 
ATOM     12  C   UNL A   1      33.828  27.668  22.200  1.00  0.00     0.049 C 
ATOM     13  C   UNL A   1      32.828  27.956  23.263  1.00  0.00    -0.001 A 
ATOM     14  C   UNL A   1      31.679  28.647  22.852  1.00  0.00     0.023 A 
ATOM     15  C   UNL A   1      30.827  29.200  23.791  1.00  0.00     0.025 A 
ATOM     16  C   UNL A   1      32.203  28.270  25.565  1.00  0.00     0.312 A 
ATOM     17  Br  UNL A   1      29.365  30.237  23.201  1.00  0.00    -0.051 Br
ATOM     18  C   UNL A   1      31.105  29.059  25.143  1.00  0.00     0.105 A 
BRANCH  16  19
ATOM     19  N   UNL A   1      32.466  28.225  27.009  1.00  0.00     0.066 N 
ATOM     20  O   UNL A   1      33.527  28.729  27.408  1.00  0.00    -0.258 OA
ATOM     21  O   UNL A   1      31.669  27.625  27.738  1.00  0.00    -0.258 OA
ENDBRANCH  16  19
ENDBRANCH  10  11
ENDBRANCH   9  10
ENDBRANCH   8   9
ENDBRANCH   7   8
ENDBRANCH   5   7
BRANCH   5  22
ATOM     22  N   UNL A   1      32.676  20.593  23.689  1.00  0.00    -0.344 N 
ATOM     23  H   UNL A   1      31.929  20.058  24.133  1.00  0.00     0.345 HD
ATOM     24  H   UNL A   1      33.524  20.026  23.653  1.00  0.00     0.345 HD
ATOM     25  H   UNL A   1      32.396  20.846  22.742  1.00  0.00     0.345 HD
ENDBRANCH   5  22
ENDBRANCH   3   5
ENDBRANCH   2   3
ENDBRANCH   1   2
BRANCH   1  26
ATOM     26  C   UNL A   1      37.711  21.200  25.009  1.00  0.00     0.202 C 
BRANCH  26  27
ATOM     27  O   UNL A   1      38.492  21.769  26.062  1.00  0.00    -0.374 OA
BRANCH  27  28
ATOM     28  C   UNL A   1      39.838  21.320  26.148  1.00  0.00     0.202 C 
BRANCH  28  29
ATOM     29  C   UNL A   1      40.876  22.359  26.571  1.00  0.00     0.261 C 
BRANCH  29  30
ATOM     30  O   UNL A   1      40.288  23.642  26.747  1.00  0.00    -0.460 OA
BRANCH  30  31
ATOM     31  C   UNL A   1      41.154  24.647  26.519  1.00  0.00     0.338 C 
ATOM     32  O   UNL A   1      42.022  24.719  25.658  1.00  0.00    -0.246 OA
BRANCH  31  33
ATOM     33  C   UNL A   1      40.769  25.772  27.363  1.00  0.00     0.060 A 
ATOM     34  C   UNL A   1      41.437  26.977  27.132  1.00  0.00     0.016 A 
ATOM     35  C   UNL A   1      39.800  25.646  28.364  1.00  0.00     0.016 A 
ATOM     36  C   UNL A   1      41.204  28.047  27.974  1.00  0.00     0.010 A 
ATOM     37  C   UNL A   1      39.561  26.728  29.206  1.00  0.00     0.010 A 
ATOM     38  C   UNL A   1      40.310  27.904  29.044  1.00  0.00    -0.014 A 
BRANCH  38  39
ATOM     39  C   UNL A   1      40.330  28.941  30.088  1.00  0.00     0.031 A 
ATOM     40  C   UNL A   1      39.272  30.005  30.052  1.00  0.00     0.074 A 
ATOM     41  C   UNL A   1      41.199  28.835  31.105  1.00  0.00     0.049 A 
ATOM     42  N   UNL A   1      39.010  30.940  30.925  1.00  0.00    -0.248 NA
ATOM     43  C   UNL A   1      38.383  30.015  28.877  1.00  0.00     0.031 C 
ATOM     44  C   UNL A   1      42.229  27.802  31.225  1.00  0.00     0.029 A 
ATOM     45  N   UNL A   1      41.333  29.585  32.239  1.00  0.00    -0.354 N 
ATOM     46  C   UNL A   1      37.930  31.643  30.409  1.00  0.00     0.074 A 
ATOM     47  C   UNL A   1      37.610  31.060  29.127  1.00  0.00     0.031 C 
ATOM     48  C   UNL A   1      42.877  27.972  32.388  1.00  0.00     0.029 A 
ATOM     49  C   UNL A   1      42.326  29.137  33.072  1.00  0.00     0.049 A 
ATOM     50  H   UNL A   1      40.772  30.368  32.439  1.00  0.00     0.167 HD
ATOM     51  C   UNL A   1      37.256  32.674  30.969  1.00  0.00     0.037 A 
ATOM     52  C   UNL A   1      42.736  29.625  34.256  1.00  0.00     0.037 A 
ATOM     53  C   UNL A   1      37.599  33.238  32.248  1.00  0.00     0.049 A 
ATOM     54  C   UNL A   1      42.003  30.805  34.833  1.00  0.00     0.074 A 
ATOM     55  C   UNL A   1      37.000  34.287  32.921  1.00  0.00     0.029 A 
ATOM     56  N   UNL A   1      38.648  32.796  33.044  1.00  0.00    -0.354 N 
ATOM     57  N   UNL A   1      40.970  31.456  34.347  1.00  0.00    -0.248 NA
ATOM     58  C   UNL A   1      42.479  31.309  36.124  1.00  0.00     0.031 C 
ATOM     59  C   UNL A   1      37.721  34.514  34.097  1.00  0.00     0.029 A 
ATOM     60  C   UNL A   1      38.727  33.564  34.192  1.00  0.00     0.049 A 
ATOM     61  H   UNL A   1      39.246  32.045  32.824  1.00  0.00     0.167 HD
ATOM     62  C   UNL A   1      40.655  32.428  35.286  1.00  0.00     0.074 A 
ATOM     63  C   UNL A   1      41.596  32.263  36.379  1.00  0.00     0.031 C 
ATOM     64  C   UNL A   1      39.681  33.372  35.257  1.00  0.00     0.037 A 
BRANCH  51  65
ATOM     65  C   UNL A   1      36.121  33.270  30.187  1.00  0.00     0.057 A 
ATOM     66  C   UNL A   1      36.332  34.111  29.085  1.00  0.00     0.134 A 
ATOM     67  C   UNL A   1      34.794  32.992  30.535  1.00  0.00     0.134 A 
ATOM     68  F   UNL A   1      37.578  34.437  28.707  1.00  0.00    -0.206 F 
ATOM     69  C   UNL A   1      35.267  34.673  28.376  1.00  0.00     0.040 A 
ATOM     70  C   UNL A   1      33.720  33.524  29.819  1.00  0.00     0.040 A 
ATOM     71  F   UNL A   1      34.516  32.199  31.581  1.00  0.00    -0.206 F 
ATOM     72  C   UNL A   1      33.955  34.374  28.739  1.00  0.00     0.006 A 
ENDBRANCH  51  65
BRANCH  52  73
ATOM     73  C   UNL A   1      43.879  28.995  34.964  1.00  0.00     0.057 A 
ATOM     74  C   UNL A   1      45.190  29.453  34.792  1.00  0.00     0.134 A 
ATOM     75  C   UNL A   1      43.683  27.915  35.834  1.00  0.00     0.134 A 
ATOM     76  F   UNL A   1      45.445  30.475  33.963  1.00  0.00    -0.206 F 
ATOM     77  C   UNL A   1      46.266  28.848  35.443  1.00  0.00     0.040 A 
ATOM     78  C   UNL A   1      44.747  27.320  36.514  1.00  0.00     0.040 A 
ATOM     79  F   UNL A   1      42.451  27.434  36.051  1.00  0.00    -0.206 F 
ATOM     80  C   UNL A   1      46.045  27.781  36.312  1.00  0.00     0.006 A 
ENDBRANCH  52  73
BRANCH  64  81
ATOM     81  C   UNL A   1      39.569  34.264  36.460  1.00  0.00     0.057 A 
ATOM     82  C   UNL A   1      40.144  35.541  36.494  1.00  0.00     0.134 A 
ATOM     83  C   UNL A   1      38.866  33.838  37.594  1.00  0.00     0.134 A 
ATOM     84  F   UNL A   1      40.839  36.003  35.444  1.00  0.00    -0.206 F 
ATOM     85  C   UNL A   1      40.059  36.346  37.630  1.00  0.00     0.040 A 
ATOM     86  C   UNL A   1      38.744  34.649  38.723  1.00  0.00     0.040 A 
ATOM     87  F   UNL A   1      38.280  32.632  37.621  1.00  0.00    -0.206 F 
ATOM     88  C   UNL A   1      39.353  35.901  38.748  1.00  0.00     0.006 A 
ENDBRANCH  64  81
ENDBRANCH  38  39
ENDBRANCH  31  33
ENDBRANCH  30  31
ENDBRANCH  29  30
ENDBRANCH  28  29
ENDBRANCH  27  28
ENDBRANCH  26  27
ENDBRANCH   1  26
TORSDOF 21
ENDMDL
MODEL 2
REMARK VINA RESULT:      -9.2      6.190     11.348
REMARK SMILES Cc1cc(Br)cc([N+](=O)[O-])c1OCCC[C@@](C)([NH3+])C(=O)OCCOCCOC(=O)c1ccc(-c2c3nc(c(-c4c(F)cccc4F)c4ccc([nH]4)c(-c4c(F)cccc4F)c4nc(c(-c5c(F)cccc5F)c5ccc2[nH]5)C=C4)C=C3)cc1
REMARK SMILES IDX 22 1 21 2 19 3 20 4 16 5 17 6 15 7 14 8 13 9 12 10 11 11
REMARK SMILES IDX 1 12 2 13 3 14 4 15 7 16 5 17 6 18 8 19 9 20 10 21 18 22
REMARK SMILES IDX 23 26 24 27 25 28 26 29 27 30 28 31 29 32 30 33 31 34 83 35
REMARK SMILES IDX 32 36 82 37 33 38 34 39 35 40 76 41 36 42 81 43 75 44 77 45
REMARK SMILES IDX 37 46 80 47 74 48 73 49 38 51 64 52 47 53 63 54 48 55 51 56
REMARK SMILES IDX 62 57 78 58 49 59 50 60 61 62 79 63 52 64 39 65 40 66 45 67
REMARK SMILES IDX 41 68 42 69 44 70 46 71 43 72 65 73 66 74 71 75 67 76 68 77
REMARK SMILES IDX 70 78 72 79 69 80 53 81 54 82 59 83 55 84 56 85 58 86 60 87
REMARK SMILES IDX 57 88
REMARK H PARENT 18 23 18 24 18 25 77 50 51 61
REMARK Flexibility Score: inf
ROOT
ATOM      1  C   UNL A   1      40.735  34.538  32.824  1.00  0.00     0.261 C 
ENDROOT
BRANCH   1   2
ATOM      2  O   UNL A   1      39.349  34.461  33.218  1.00  0.00    -0.459 OA
BRANCH   2   3
ATOM      3  C   UNL A   1      39.129  34.661  34.555  1.00  0.00     0.367 C 
ATOM      4  O   UNL A   1      39.348  35.719  35.134  1.00  0.00    -0.245 OA
BRANCH   3   5
ATOM      5  C   UNL A   1      38.559  33.406  35.266  1.00  0.00     0.190 C 
ATOM      6  C   UNL A   1      38.473  33.768  36.760  1.00  0.00     0.092 C 
BRANCH   5   7
ATOM      7  C   UNL A   1      37.144  32.962  34.753  1.00  0.00     0.084 C 
BRANCH   7   8
ATOM      8  C   UNL A   1      35.876  33.783  35.097  1.00  0.00     0.049 C 
BRANCH   8   9
ATOM      9  C   UNL A   1      34.843  34.126  33.997  1.00  0.00     0.230 C 
BRANCH   9  10
ATOM     10  O   UNL A   1      35.402  35.017  33.012  1.00  0.00    -0.487 OA
BRANCH  10  11
ATOM     11  C   UNL A   1      34.952  34.944  31.714  1.00  0.00     0.200 A 
ATOM     12  C   UNL A   1      36.937  33.502  31.050  1.00  0.00     0.049 C 
ATOM     13  C   UNL A   1      35.541  33.983  30.867  1.00  0.00    -0.001 A 
ATOM     14  C   UNL A   1      34.875  33.513  29.725  1.00  0.00     0.023 A 
ATOM     15  C   UNL A   1      33.693  34.103  29.318  1.00  0.00     0.025 A 
ATOM     16  C   UNL A   1      33.768  35.559  31.262  1.00  0.00     0.312 A 
ATOM     17  Br  UNL A   1      32.896  33.535  27.705  1.00  0.00    -0.051 Br
ATOM     18  C   UNL A   1      33.159  35.154  30.049  1.00  0.00     0.105 A 
BRANCH  16  19
ATOM     19  N   UNL A   1      33.178  36.721  31.940  1.00  0.00     0.066 N 
ATOM     20  O   UNL A   1      33.933  37.670  32.198  1.00  0.00    -0.258 OA
ATOM     21  O   UNL A   1      31.993  36.665  32.288  1.00  0.00    -0.258 OA
ENDBRANCH  16  19
ENDBRANCH  10  11
ENDBRANCH   9  10
ENDBRANCH   8   9
ENDBRANCH   7   8
ENDBRANCH   5   7
BRANCH   5  22
ATOM     22  N   UNL A   1      39.540  32.284  35.269  1.00  0.00    -0.344 N 
ATOM     23  H   UNL A   1      39.888  32.134  34.322  1.00  0.00     0.345 HD
ATOM     24  H   UNL A   1      39.084  31.434  35.601  1.00  0.00     0.345 HD
ATOM     25  H   UNL A   1      40.319  32.515  35.885  1.00  0.00     0.345 HD
ENDBRANCH   5  22
ENDBRANCH   3   5
ENDBRANCH   2   3
ENDBRANCH   1   2
BRANCH   1  26
ATOM     26  C   UNL A   1      40.936  34.205  31.342  1.00  0.00     0.202 C 
BRANCH  26  27
ATOM     27  O   UNL A   1      42.061  34.830  30.720  1.00  0.00    -0.374 OA
BRANCH  27  28
ATOM     28  C   UNL A   1      41.800  35.495  29.491  1.00  0.00     0.202 C 
BRANCH  28  29
ATOM     29  C   UNL A   1      42.897  36.425  28.974  1.00  0.00     0.261 C 
BRANCH  29  30
ATOM     30  O   UNL A   1      43.954  36.559  29.916  1.00  0.00    -0.460 OA
BRANCH  30  31
ATOM     31  C   UNL A   1      45.159  36.261  29.394  1.00  0.00     0.338 C 
ATOM     32  O   UNL A   1      46.089  37.020  29.154  1.00  0.00    -0.246 OA
BRANCH  31  33
ATOM     33  C   UNL A   1      45.272  34.808  29.326  1.00  0.00     0.060 A 
ATOM     34  C   UNL A   1      45.174  34.238  28.055  1.00  0.00     0.016 A 
ATOM     35  C   UNL A   1      45.448  34.028  30.473  1.00  0.00     0.016 A 
ATOM     36  C   UNL A   1      45.153  32.863  27.935  1.00  0.00     0.010 A 
ATOM     37  C   UNL A   1      45.435  32.642  30.349  1.00  0.00     0.010 A 
ATOM     38  C   UNL A   1      45.227  32.066  29.086  1.00  0.00    -0.014 A 
BRANCH  38  39
ATOM     39  C   UNL A   1      44.886  30.641  28.948  1.00  0.00     0.031 A 
ATOM     40  C   UNL A   1      43.445  30.240  29.065  1.00  0.00     0.074 A 
ATOM     41  C   UNL A   1      45.842  29.768  28.594  1.00  0.00     0.049 A 
ATOM     42  N   UNL A   1      42.891  29.076  28.857  1.00  0.00    -0.248 NA
ATOM     43  C   UNL A   1      42.496  31.294  29.466  1.00  0.00     0.031 C 
ATOM     44  C   UNL A   1      47.258  30.096  28.422  1.00  0.00     0.029 A 
ATOM     45  N   UNL A   1      45.759  28.439  28.288  1.00  0.00    -0.354 N 
ATOM     46  C   UNL A   1      41.535  29.258  29.097  1.00  0.00     0.074 A 
ATOM     47  C   UNL A   1      41.352  30.630  29.509  1.00  0.00     0.031 C 
ATOM     48  C   UNL A   1      47.910  28.995  28.017  1.00  0.00     0.029 A 
ATOM     49  C   UNL A   1      46.964  27.888  27.930  1.00  0.00     0.049 A 
ATOM     50  H   UNL A   1      44.920  27.927  28.321  1.00  0.00     0.167 HD
ATOM     51  C   UNL A   1      40.533  28.358  28.964  1.00  0.00     0.037 A 
ATOM     52  C   UNL A   1      47.256  26.625  27.575  1.00  0.00     0.037 A 
ATOM     53  C   UNL A   1      40.746  26.996  28.554  1.00  0.00     0.049 A 
ATOM     54  C   UNL A   1      46.130  25.631  27.486  1.00  0.00     0.074 A 
ATOM     55  C   UNL A   1      39.816  25.986  28.389  1.00  0.00     0.029 A 
ATOM     56  N   UNL A   1      41.988  26.453  28.251  1.00  0.00    -0.354 N 
ATOM     57  N   UNL A   1      44.847  25.813  27.697  1.00  0.00    -0.248 NA
ATOM     58  C   UNL A   1      46.489  24.264  27.097  1.00  0.00     0.031 C 
ATOM     59  C   UNL A   1      40.504  24.819  28.039  1.00  0.00     0.029 A 
ATOM     60  C   UNL A   1      41.853  25.116  27.920  1.00  0.00     0.049 A 
ATOM     61  H   UNL A   1      42.840  26.947  28.268  1.00  0.00     0.167 HD
ATOM     62  C   UNL A   1      44.240  24.592  27.440  1.00  0.00     0.074 A 
ATOM     63  C   UNL A   1      45.299  23.685  27.035  1.00  0.00     0.031 C 
ATOM     64  C   UNL A   1      42.932  24.243  27.525  1.00  0.00     0.037 A 
BRANCH  51  65
ATOM     65  C   UNL A   1      39.143  28.813  29.302  1.00  0.00     0.057 A 
ATOM     66  C   UNL A   1      38.298  29.407  28.353  1.00  0.00     0.134 A 
ATOM     67  C   UNL A   1      38.635  28.650  30.597  1.00  0.00     0.134 A 
ATOM     68  F   UNL A   1      38.726  29.615  27.098  1.00  0.00    -0.206 F 
ATOM     69  C   UNL A   1      37.013  29.842  28.685  1.00  0.00     0.040 A 
ATOM     70  C   UNL A   1      37.343  29.054  30.935  1.00  0.00     0.040 A 
ATOM     71  F   UNL A   1      39.388  28.093  31.558  1.00  0.00    -0.206 F 
ATOM     72  C   UNL A   1      36.529  29.659  29.979  1.00  0.00     0.006 A 
ENDBRANCH  51  65
BRANCH  52  73
ATOM     73  C   UNL A   1      48.658  26.243  27.273  1.00  0.00     0.057 A 
ATOM     74  C   UNL A   1      49.171  26.299  25.973  1.00  0.00     0.134 A 
ATOM     75  C   UNL A   1      49.524  25.812  28.287  1.00  0.00     0.134 A 
ATOM     76  F   UNL A   1      48.390  26.692  24.956  1.00  0.00    -0.206 F 
ATOM     77  C   UNL A   1      50.484  25.922  25.687  1.00  0.00     0.040 A 
ATOM     78  C   UNL A   1      50.848  25.459  28.020  1.00  0.00     0.040 A 
ATOM     79  F   UNL A   1      49.100  25.744  29.557  1.00  0.00    -0.206 F 
ATOM     80  C   UNL A   1      51.328  25.506  26.714  1.00  0.00     0.006 A 
ENDBRANCH  52  73
BRANCH  64  81
ATOM     81  C   UNL A   1      42.581  22.836  27.136  1.00  0.00     0.057 A 
ATOM     82  C   UNL A   1      42.560  22.419  25.799  1.00  0.00     0.134 A 
ATOM     83  C   UNL A   1      42.272  21.886  28.117  1.00  0.00     0.134 A 
ATOM     84  F   UNL A   1      42.837  23.283  24.811  1.00  0.00    -0.206 F 
ATOM     85  C   UNL A   1      42.202  21.116  25.450  1.00  0.00     0.040 A 
ATOM     86  C   UNL A   1      41.947  20.572  27.782  1.00  0.00     0.040 A 
ATOM     87  F   UNL A   1      42.288  22.217  29.417  1.00  0.00    -0.206 F 
ATOM     88  C   UNL A   1      41.899  20.187  26.444  1.00  0.00     0.006 A 
ENDBRANCH  64  81
ENDBRANCH  38  39
ENDBRANCH  31  33
ENDBRANCH  30  31
ENDBRANCH  29  30
ENDBRANCH  28  29
ENDBRANCH  27  28
ENDBRANCH  26  27
ENDBRANCH   1  26
TORSDOF 21
ENDMDL
MODEL 3
REMARK VINA RESULT:      -9.2      5.513     10.429
REMARK SMILES Cc1cc(Br)cc([N+](=O)[O-])c1OCCC[C@@](C)([NH3+])C(=O)OCCOCCOC(=O)c1ccc(-c2c3nc(c(-c4c(F)cccc4F)c4ccc([nH]4)c(-c4c(F)cccc4F)c4nc(c(-c5c(F)cccc5F)c5ccc2[nH]5)C=C4)C=C3)cc1
REMARK SMILES IDX 22 1 21 2 19 3 20 4 16 5 17 6 15 7 14 8 13 9 12 10 11 11
REMARK SMILES IDX 1 12 2 13 3 14 4 15 7 16 5 17 6 18 8 19 9 20 10 21 18 22
REMARK SMILES IDX 23 26 24 27 25 28 26 29 27 30 28 31 29 32 30 33 31 34 83 35
REMARK SMILES IDX 32 36 82 37 33 38 34 39 35 40 76 41 36 42 81 43 75 44 77 45
REMARK SMILES IDX 37 46 80 47 74 48 73 49 38 51 64 52 47 53 63 54 48 55 51 56
REMARK SMILES IDX 62 57 78 58 49 59 50 60 61 62 79 63 52 64 39 65 40 66 45 67
REMARK SMILES IDX 41 68 42 69 44 70 46 71 43 72 65 73 66 74 71 75 67 76 68 77
REMARK SMILES IDX 70 78 72 79 69 80 53 81 54 82 59 83 55 84 56 85 58 86 60 87
REMARK SMILES IDX 57 88
REMARK H PARENT 18 23 18 24 18 25 77 50 51 61
REMARK Flexibility Score: inf
ROOT
ATOM      1  C   UNL A   1      32.123  28.818  23.884  1.00  0.00     0.261 C 
ENDROOT
BRANCH   1   2
ATOM      2  O   UNL A   1      32.886  27.617  23.647  1.00  0.00    -0.459 OA
BRANCH   2   3
ATOM      3  C   UNL A   1      32.202  26.455  23.883  1.00  0.00     0.367 C 
ATOM      4  O   UNL A   1      31.011  26.300  23.639  1.00  0.00    -0.245 OA
BRANCH   3   5
ATOM      5  C   UNL A   1      33.096  25.342  24.490  1.00  0.00     0.190 C 
ATOM      6  C   UNL A   1      34.330  26.059  25.069  1.00  0.00     0.092 C 
BRANCH   5   7
ATOM      7  C   UNL A   1      32.401  24.501  25.618  1.00  0.00     0.084 C 
BRANCH   7   8
ATOM      8  C   UNL A   1      33.203  23.990  26.841  1.00  0.00     0.049 C 
BRANCH   8   9
ATOM      9  C   UNL A   1      33.917  22.618  26.791  1.00  0.00     0.230 C 
BRANCH   9  10
ATOM     10  O   UNL A   1      34.575  22.415  25.525  1.00  0.00    -0.487 OA
BRANCH  10  11
ATOM     11  C   UNL A   1      34.506  21.179  24.927  1.00  0.00     0.200 A 
ATOM     12  C   UNL A   1      37.038  20.958  24.964  1.00  0.00     0.049 C 
ATOM     13  C   UNL A   1      35.667  20.379  24.932  1.00  0.00    -0.001 A 
ATOM     14  C   UNL A   1      35.594  18.986  24.786  1.00  0.00     0.023 A 
ATOM     15  C   UNL A   1      34.390  18.383  24.472  1.00  0.00     0.025 A 
ATOM     16  C   UNL A   1      33.296  20.551  24.567  1.00  0.00     0.312 A 
ATOM     17  Br  UNL A   1      34.355  16.523  24.152  1.00  0.00    -0.051 Br
ATOM     18  C   UNL A   1      33.250  19.158  24.313  1.00  0.00     0.105 A 
BRANCH  16  19
ATOM     19  N   UNL A   1      32.064  21.308  24.312  1.00  0.00     0.066 N 
ATOM     20  O   UNL A   1      32.004  21.955  23.256  1.00  0.00    -0.258 OA
ATOM     21  O   UNL A   1      31.190  21.329  25.187  1.00  0.00    -0.258 OA
ENDBRANCH  16  19
ENDBRANCH  10  11
ENDBRANCH   9  10
ENDBRANCH   8   9
ENDBRANCH   7   8
ENDBRANCH   5   7
BRANCH   5  22
ATOM     22  N   UNL A   1      33.698  24.483  23.431  1.00  0.00    -0.344 N 
ATOM     23  H   UNL A   1      33.226  24.657  22.544  1.00  0.00     0.345 HD
ATOM     24  H   UNL A   1      33.590  23.502  23.687  1.00  0.00     0.345 HD
ATOM     25  H   UNL A   1      34.690  24.703  23.338  1.00  0.00     0.345 HD
ENDBRANCH   5  22
ENDBRANCH   3   5
ENDBRANCH   2   3
ENDBRANCH   1   2
BRANCH   1  26
ATOM     26  C   UNL A   1      31.752  28.988  25.361  1.00  0.00     0.202 C 
BRANCH  26  27
ATOM     27  O   UNL A   1      32.552  29.921  26.091  1.00  0.00    -0.374 OA
BRANCH  27  28
ATOM     28  C   UNL A   1      33.916  29.562  26.270  1.00  0.00     0.202 C 
BRANCH  28  29
ATOM     29  C   UNL A   1      34.414  29.481  27.712  1.00  0.00     0.261 C 
BRANCH  29  30
ATOM     30  O   UNL A   1      35.816  29.703  27.794  1.00  0.00    -0.460 OA
BRANCH  30  31
ATOM     31  C   UNL A   1      36.279  29.654  29.057  1.00  0.00     0.338 C 
ATOM     32  O   UNL A   1      35.643  29.492  30.091  1.00  0.00    -0.246 OA
BRANCH  31  33
ATOM     33  C   UNL A   1      37.736  29.631  29.001  1.00  0.00     0.060 A 
ATOM     34  C   UNL A   1      38.306  29.597  27.726  1.00  0.00     0.016 A 
ATOM     35  C   UNL A   1      38.519  29.623  30.160  1.00  0.00     0.016 A 
ATOM     36  C   UNL A   1      39.675  29.454  27.605  1.00  0.00     0.010 A 
ATOM     37  C   UNL A   1      39.898  29.487  30.035  1.00  0.00     0.010 A 
ATOM     38  C   UNL A   1      40.463  29.342  28.759  1.00  0.00    -0.014 A 
BRANCH  38  39
ATOM     39  C   UNL A   1      41.850  28.879  28.590  1.00  0.00     0.031 A 
ATOM     40  C   UNL A   1      42.081  27.437  28.242  1.00  0.00     0.074 A 
ATOM     41  C   UNL A   1      42.850  29.772  28.621  1.00  0.00     0.049 A 
ATOM     42  N   UNL A   1      43.192  26.831  27.923  1.00  0.00    -0.248 NA
ATOM     43  C   UNL A   1      40.898  26.559  28.248  1.00  0.00     0.031 C 
ATOM     44  C   UNL A   1      42.695  31.198  28.913  1.00  0.00     0.029 A 
ATOM     45  N   UNL A   1      44.185  29.618  28.375  1.00  0.00    -0.354 N 
ATOM     46  C   UNL A   1      42.843  25.508  27.687  1.00  0.00     0.074 A 
ATOM     47  C   UNL A   1      41.427  25.385  27.943  1.00  0.00     0.031 C 
ATOM     48  C   UNL A   1      43.892  31.795  28.806  1.00  0.00     0.029 A 
ATOM     49  C   UNL A   1      44.894  30.789  28.468  1.00  0.00     0.049 A 
ATOM     50  H   UNL A   1      44.598  28.753  28.153  1.00  0.00     0.167 HD
ATOM     51  C   UNL A   1      43.638  24.492  27.276  1.00  0.00     0.037 A 
ATOM     52  C   UNL A   1      46.209  31.010  28.296  1.00  0.00     0.037 A 
ATOM     53  C   UNL A   1      45.048  24.644  27.032  1.00  0.00     0.049 A 
ATOM     54  C   UNL A   1      47.079  29.853  27.890  1.00  0.00     0.074 A 
ATOM     55  C   UNL A   1      45.963  23.693  26.619  1.00  0.00     0.029 A 
ATOM     56  N   UNL A   1      45.747  25.834  27.188  1.00  0.00    -0.354 N 
ATOM     57  N   UNL A   1      46.741  28.607  27.652  1.00  0.00    -0.248 NA
ATOM     58  C   UNL A   1      48.507  30.134  27.714  1.00  0.00     0.031 C 
ATOM     59  C   UNL A   1      47.225  24.295  26.581  1.00  0.00     0.029 A 
ATOM     60  C   UNL A   1      47.087  25.637  26.902  1.00  0.00     0.049 A 
ATOM     61  H   UNL A   1      45.348  26.692  27.462  1.00  0.00     0.167 HD
ATOM     62  C   UNL A   1      47.908  27.959  27.271  1.00  0.00     0.074 A 
ATOM     63  C   UNL A   1      48.957  28.962  27.290  1.00  0.00     0.031 C 
ATOM     64  C   UNL A   1      48.104  26.660  26.935  1.00  0.00     0.037 A 
BRANCH  51  65
ATOM     65  C   UNL A   1      43.006  23.141  27.107  1.00  0.00     0.057 A 
ATOM     66  C   UNL A   1      42.726  22.305  28.198  1.00  0.00     0.134 A 
ATOM     67  C   UNL A   1      42.666  22.668  25.834  1.00  0.00     0.134 A 
ATOM     68  F   UNL A   1      43.045  22.684  29.445  1.00  0.00    -0.206 F 
ATOM     69  C   UNL A   1      42.155  21.042  28.026  1.00  0.00     0.040 A 
ATOM     70  C   UNL A   1      42.069  21.420  25.650  1.00  0.00     0.040 A 
ATOM     71  F   UNL A   1      42.909  23.412  24.745  1.00  0.00    -0.206 F 
ATOM     72  C   UNL A   1      41.817  20.599  26.749  1.00  0.00     0.006 A 
ENDBRANCH  51  65
BRANCH  52  73
ATOM     73  C   UNL A   1      46.766  32.371  28.499  1.00  0.00     0.057 A 
ATOM     74  C   UNL A   1      46.841  33.297  27.453  1.00  0.00     0.134 A 
ATOM     75  C   UNL A   1      47.238  32.779  29.754  1.00  0.00     0.134 A 
ATOM     76  F   UNL A   1      46.418  32.964  26.225  1.00  0.00    -0.206 F 
ATOM     77  C   UNL A   1      47.383  34.570  27.640  1.00  0.00     0.040 A 
ATOM     78  C   UNL A   1      47.755  34.059  29.962  1.00  0.00     0.040 A 
ATOM     79  F   UNL A   1      47.186  31.945  30.802  1.00  0.00    -0.206 F 
ATOM     80  C   UNL A   1      47.837  34.955  28.899  1.00  0.00     0.006 A 
ENDBRANCH  52  73
BRANCH  64  81
ATOM     81  C   UNL A   1      49.495  26.271  26.525  1.00  0.00     0.057 A 
ATOM     82  C   UNL A   1      50.388  25.659  27.414  1.00  0.00     0.134 A 
ATOM     83  C   UNL A   1      49.939  26.503  25.217  1.00  0.00     0.134 A 
ATOM     84  F   UNL A   1      50.027  25.418  28.684  1.00  0.00    -0.206 F 
ATOM     85  C   UNL A   1      51.688  25.331  27.028  1.00  0.00     0.040 A 
ATOM     86  C   UNL A   1      51.225  26.148  24.810  1.00  0.00     0.040 A 
ATOM     87  F   UNL A   1      49.129  27.072  24.312  1.00  0.00    -0.206 F 
ATOM     88  C   UNL A   1      52.108  25.572  25.721  1.00  0.00     0.006 A 
ENDBRANCH  64  81
ENDBRANCH  38  39
ENDBRANCH  31  33
ENDBRANCH  30  31
ENDBRANCH  29  30
ENDBRANCH  28  29
ENDBRANCH  27  28
ENDBRANCH  26  27
ENDBRANCH   1  26
TORSDOF 21
ENDMDL
