MODEL 1
REMARK VINA RESULT:     -11.2      0.000      0.000
REMARK SMILES O=C(OCCOCCOC(=O)c1cccnc1Nc1cccc(C(F)(F)F)c1)c1ccc(-c2c3nc(c(-c4c(F)cccc4F)c4ccc([nH]4)c(-c4c(F)cccc4F)c4nc(c(-c5c(F)cccc5F)c5ccc2[nH]5)C=C4)C=C3)cc1
REMARK SMILES IDX 7 1 6 2 5 3 4 4 3 5 2 6 1 7 29 8 30 9 82 10 31 11 81 12
REMARK SMILES IDX 32 13 33 14 34 15 75 16 35 17 80 18 74 19 76 20 36 21 79 22
REMARK SMILES IDX 73 23 72 24 37 26 63 27 46 28 62 29 47 30 50 31 61 32 77 33
REMARK SMILES IDX 48 34 49 35 60 37 78 38 51 39 38 40 39 41 44 42 40 43 41 44
REMARK SMILES IDX 43 45 45 46 42 47 64 48 65 49 70 50 66 51 67 52 69 53 71 54
REMARK SMILES IDX 68 55 52 56 53 57 58 58 54 59 55 60 57 61 59 62 56 63 8 64
REMARK SMILES IDX 9 65 10 66 11 67 12 68 13 69 17 70 14 71 16 72 15 73 18 74
REMARK SMILES IDX 19 76 20 77 28 78 21 79 23 80 22 81 24 82 25 83 26 84 27 85
REMARK H PARENT 76 25 50 36 18 75
REMARK Flexibility Score: inf
ROOT
ATOM      1  C   UNL A   1      32.939  29.292  27.208  1.00  0.00     0.202 C 
ENDROOT
BRANCH   1   2
ATOM      2  O   UNL A   1      32.091  30.009  26.319  1.00  0.00    -0.374 OA
BRANCH   2   3
ATOM      3  C   UNL A   1      31.785  31.358  26.638  1.00  0.00     0.202 C 
BRANCH   3   4
ATOM      4  C   UNL A   1      32.889  32.126  27.358  1.00  0.00     0.261 C 
BRANCH   4   5
ATOM      5  O   UNL A   1      32.512  33.494  27.560  1.00  0.00    -0.460 OA
BRANCH   5   6
ATOM      6  C   UNL A   1      33.048  34.332  28.479  1.00  0.00     0.338 C 
ATOM      7  O   UNL A   1      32.502  35.406  28.719  1.00  0.00    -0.246 OA
BRANCH   6   8
ATOM      8  C   UNL A   1      34.289  33.991  29.226  1.00  0.00     0.060 A 
ATOM      9  C   UNL A   1      34.296  33.164  30.347  1.00  0.00     0.016 A 
ATOM     10  C   UNL A   1      35.517  34.413  28.710  1.00  0.00     0.016 A 
ATOM     11  C   UNL A   1      35.455  32.787  30.982  1.00  0.00     0.010 A 
ATOM     12  C   UNL A   1      36.710  33.968  29.290  1.00  0.00     0.010 A 
ATOM     13  C   UNL A   1      36.668  33.129  30.413  1.00  0.00    -0.014 A 
BRANCH  13  14
ATOM     14  C   UNL A   1      37.866  32.564  31.041  1.00  0.00     0.031 A 
ATOM     15  C   UNL A   1      38.564  31.448  30.351  1.00  0.00     0.074 A 
ATOM     16  C   UNL A   1      38.351  33.152  32.152  1.00  0.00     0.049 A 
ATOM     17  N   UNL A   1      39.540  30.705  30.783  1.00  0.00    -0.248 NA
ATOM     18  C   UNL A   1      38.107  31.128  28.987  1.00  0.00     0.031 C 
ATOM     19  C   UNL A   1      37.797  34.355  32.788  1.00  0.00     0.029 A 
ATOM     20  N   UNL A   1      39.427  32.838  32.934  1.00  0.00    -0.354 N 
ATOM     21  C   UNL A   1      39.775  29.786  29.772  1.00  0.00     0.074 A 
ATOM     22  C   UNL A   1      38.862  30.080  28.692  1.00  0.00     0.031 C 
ATOM     23  C   UNL A   1      38.539  34.674  33.859  1.00  0.00     0.029 A 
ATOM     24  C   UNL A   1      39.548  33.643  34.042  1.00  0.00     0.049 A 
ATOM     25  H   UNL A   1      40.053  32.107  32.725  1.00  0.00     0.167 HD
ATOM     26  C   UNL A   1      40.665  28.772  29.785  1.00  0.00     0.037 A 
ATOM     27  C   UNL A   1      40.340  33.503  35.120  1.00  0.00     0.037 A 
ATOM     28  C   UNL A   1      41.563  28.542  30.883  1.00  0.00     0.049 A 
ATOM     29  C   UNL A   1      41.248  32.304  35.148  1.00  0.00     0.074 A 
ATOM     30  C   UNL A   1      42.501  27.542  31.036  1.00  0.00     0.029 A 
ATOM     31  N   UNL A   1      41.622  29.335  32.023  1.00  0.00    -0.354 N 
ATOM     32  N   UNL A   1      41.442  31.396  34.219  1.00  0.00    -0.248 NA
ATOM     33  C   UNL A   1      42.020  32.086  36.375  1.00  0.00     0.031 C 
ATOM     34  C   UNL A   1      43.085  27.694  32.297  1.00  0.00     0.029 A 
ATOM     35  C   UNL A   1      42.553  28.822  32.906  1.00  0.00     0.049 A 
ATOM     36  H   UNL A   1      41.081  30.143  32.178  1.00  0.00     0.167 HD
ATOM     37  C   UNL A   1      42.362  30.504  34.744  1.00  0.00     0.074 A 
ATOM     38  C   UNL A   1      42.712  30.999  36.061  1.00  0.00     0.031 C 
ATOM     39  C   UNL A   1      42.868  29.368  34.202  1.00  0.00     0.037 A 
BRANCH  26  40
ATOM     40  C   UNL A   1      40.630  27.806  28.644  1.00  0.00     0.057 A 
ATOM     41  C   UNL A   1      41.404  27.969  27.491  1.00  0.00     0.134 A 
ATOM     42  C   UNL A   1      39.789  26.687  28.709  1.00  0.00     0.134 A 
ATOM     43  F   UNL A   1      42.202  29.039  27.352  1.00  0.00    -0.206 F 
ATOM     44  C   UNL A   1      41.339  27.055  26.436  1.00  0.00     0.040 A 
ATOM     45  C   UNL A   1      39.732  25.756  27.673  1.00  0.00     0.040 A 
ATOM     46  F   UNL A   1      39.008  26.483  29.779  1.00  0.00    -0.206 F 
ATOM     47  C   UNL A   1      40.507  25.941  26.530  1.00  0.00     0.006 A 
ENDBRANCH  26  40
BRANCH  27  48
ATOM     48  C   UNL A   1      40.227  34.423  36.284  1.00  0.00     0.057 A 
ATOM     49  C   UNL A   1      39.305  34.195  37.311  1.00  0.00     0.134 A 
ATOM     50  C   UNL A   1      41.003  35.590  36.373  1.00  0.00     0.134 A 
ATOM     51  F   UNL A   1      38.520  33.108  37.283  1.00  0.00    -0.206 F 
ATOM     52  C   UNL A   1      39.134  35.103  38.359  1.00  0.00     0.040 A 
ATOM     53  C   UNL A   1      40.866  36.488  37.432  1.00  0.00     0.040 A 
ATOM     54  F   UNL A   1      41.910  35.876  35.427  1.00  0.00    -0.206 F 
ATOM     55  C   UNL A   1      39.917  36.254  38.422  1.00  0.00     0.006 A 
ENDBRANCH  27  48
BRANCH  39  56
ATOM     56  C   UNL A   1      43.858  28.612  35.030  1.00  0.00     0.057 A 
ATOM     57  C   UNL A   1      45.231  28.868  34.943  1.00  0.00     0.134 A 
ATOM     58  C   UNL A   1      43.423  27.677  35.976  1.00  0.00     0.134 A 
ATOM     59  F   UNL A   1      45.706  29.741  34.042  1.00  0.00    -0.206 F 
ATOM     60  C   UNL A   1      46.143  28.209  35.764  1.00  0.00     0.040 A 
ATOM     61  C   UNL A   1      44.322  27.035  36.826  1.00  0.00     0.040 A 
ATOM     62  F   UNL A   1      42.117  27.400  36.111  1.00  0.00    -0.206 F 
ATOM     63  C   UNL A   1      45.686  27.299  36.718  1.00  0.00     0.006 A 
ENDBRANCH  39  56
ENDBRANCH  13  14
ENDBRANCH   6   8
ENDBRANCH   5   6
ENDBRANCH   4   5
ENDBRANCH   3   4
ENDBRANCH   2   3
ENDBRANCH   1   2
BRANCH   1  64
ATOM     64  C   UNL A   1      33.970  28.562  26.348  1.00  0.00     0.261 C 
BRANCH  64  65
ATOM     65  O   UNL A   1      33.805  27.146  26.553  1.00  0.00    -0.460 OA
BRANCH  65  66
ATOM     66  C   UNL A   1      32.649  26.595  26.089  1.00  0.00     0.341 C 
ATOM     67  O   UNL A   1      31.595  26.454  26.677  1.00  0.00    -0.246 OA
BRANCH  66  68
ATOM     68  C   UNL A   1      32.836  26.295  24.657  1.00  0.00     0.102 A 
ATOM     69  C   UNL A   1      33.635  25.201  24.294  1.00  0.00     0.021 A 
ATOM     70  C   UNL A   1      32.241  27.082  23.659  1.00  0.00     0.144 A 
ATOM     71  C   UNL A   1      33.828  24.913  22.954  1.00  0.00     0.021 A 
ATOM     72  N   UNL A   1      32.440  26.787  22.349  1.00  0.00    -0.238 NA
ATOM     73  C   UNL A   1      33.208  25.724  22.026  1.00  0.00     0.113 A 
BRANCH  70  74
ATOM     74  N   UNL A   1      31.549  28.276  23.958  1.00  0.00    -0.340 N 
ATOM     75  H   UNL A   1      32.059  28.992  24.400  1.00  0.00     0.168 HD
BRANCH  74  76
ATOM     76  C   UNL A   1      30.192  28.531  23.679  1.00  0.00     0.040 A 
ATOM     77  C   UNL A   1      29.253  27.494  23.628  1.00  0.00     0.026 A 
ATOM     78  C   UNL A   1      29.783  29.821  23.329  1.00  0.00     0.039 A 
ATOM     79  C   UNL A   1      27.919  27.752  23.292  1.00  0.00     0.003 A 
ATOM     80  C   UNL A   1      28.453  30.096  22.977  1.00  0.00     0.058 A 
ATOM     81  C   UNL A   1      27.520  29.048  22.971  1.00  0.00     0.013 A 
BRANCH  80  82
ATOM     82  C   UNL A   1      28.034  31.495  22.615  1.00  0.00     0.416 C 
ATOM     83  F   UNL A   1      27.119  32.006  23.487  1.00  0.00    -0.166 F 
ATOM     84  F   UNL A   1      29.076  32.371  22.614  1.00  0.00    -0.166 F 
ATOM     85  F   UNL A   1      27.462  31.593  21.381  1.00  0.00    -0.166 F 
ENDBRANCH  80  82
ENDBRANCH  74  76
ENDBRANCH  70  74
ENDBRANCH  66  68
ENDBRANCH  65  66
ENDBRANCH  64  65
ENDBRANCH   1  64
TORSDOF 17
ENDMDL
MODEL 2
REMARK VINA RESULT:     -11.2      6.150     10.891
REMARK SMILES O=C(OCCOCCOC(=O)c1cccnc1Nc1cccc(C(F)(F)F)c1)c1ccc(-c2c3nc(c(-c4c(F)cccc4F)c4ccc([nH]4)c(-c4c(F)cccc4F)c4nc(c(-c5c(F)cccc5F)c5ccc2[nH]5)C=C4)C=C3)cc1
REMARK SMILES IDX 7 1 6 2 5 3 4 4 3 5 2 6 1 7 29 8 30 9 82 10 31 11 81 12
REMARK SMILES IDX 32 13 33 14 34 15 75 16 35 17 80 18 74 19 76 20 36 21 79 22
REMARK SMILES IDX 73 23 72 24 37 26 63 27 46 28 62 29 47 30 50 31 61 32 77 33
REMARK SMILES IDX 48 34 49 35 60 37 78 38 51 39 38 40 39 41 44 42 40 43 41 44
REMARK SMILES IDX 43 45 45 46 42 47 64 48 65 49 70 50 66 51 67 52 69 53 71 54
REMARK SMILES IDX 68 55 52 56 53 57 58 58 54 59 55 60 57 61 59 62 56 63 8 64
REMARK SMILES IDX 9 65 10 66 11 67 12 68 13 69 17 70 14 71 16 72 15 73 18 74
REMARK SMILES IDX 19 76 20 77 28 78 21 79 23 80 22 81 24 82 25 83 26 84 27 85
REMARK H PARENT 76 25 50 36 18 75
REMARK Flexibility Score: inf
ROOT
ATOM      1  C   UNL A   1      37.336  22.660  25.513  1.00  0.00     0.202 C 
ENDROOT
BRANCH   1   2
ATOM      2  O   UNL A   1      36.928  21.397  24.999  1.00  0.00    -0.374 OA
BRANCH   2   3
ATOM      3  C   UNL A   1      37.874  20.339  25.012  1.00  0.00     0.202 C 
BRANCH   3   4
ATOM      4  C   UNL A   1      39.135  20.600  25.831  1.00  0.00     0.261 C 
BRANCH   4   5
ATOM      5  O   UNL A   1      40.014  19.468  25.789  1.00  0.00    -0.460 OA
BRANCH   5   6
ATOM      6  C   UNL A   1      41.354  19.504  25.983  1.00  0.00     0.338 C 
ATOM      7  O   UNL A   1      42.024  18.488  25.818  1.00  0.00    -0.246 OA
BRANCH   6   8
ATOM      8  C   UNL A   1      42.059  20.752  26.387  1.00  0.00     0.060 A 
ATOM      9  C   UNL A   1      42.386  21.763  25.486  1.00  0.00     0.016 A 
ATOM     10  C   UNL A   1      42.288  20.979  27.747  1.00  0.00     0.016 A 
ATOM     11  C   UNL A   1      42.961  22.948  25.880  1.00  0.00     0.010 A 
ATOM     12  C   UNL A   1      42.791  22.213  28.174  1.00  0.00     0.010 A 
ATOM     13  C   UNL A   1      43.099  23.204  27.232  1.00  0.00    -0.014 A 
BRANCH  13  14
ATOM     14  C   UNL A   1      43.566  24.545  27.597  1.00  0.00     0.031 A 
ATOM     15  C   UNL A   1      42.567  25.532  28.083  1.00  0.00     0.074 A 
ATOM     16  C   UNL A   1      44.891  24.792  27.590  1.00  0.00     0.049 A 
ATOM     17  N   UNL A   1      42.721  26.801  28.319  1.00  0.00    -0.248 NA
ATOM     18  C   UNL A   1      41.210  25.020  28.347  1.00  0.00     0.031 C 
ATOM     19  C   UNL A   1      45.937  23.809  27.274  1.00  0.00     0.029 A 
ATOM     20  N   UNL A   1      45.591  25.931  27.872  1.00  0.00    -0.354 N 
ATOM     21  C   UNL A   1      41.468  27.257  28.698  1.00  0.00     0.074 A 
ATOM     22  C   UNL A   1      40.570  26.127  28.690  1.00  0.00     0.031 C 
ATOM     23  C   UNL A   1      47.140  24.390  27.383  1.00  0.00     0.029 A 
ATOM     24  C   UNL A   1      46.945  25.802  27.670  1.00  0.00     0.049 A 
ATOM     25  H   UNL A   1      45.167  26.761  28.189  1.00  0.00     0.167 HD
ATOM     26  C   UNL A   1      41.120  28.528  28.991  1.00  0.00     0.037 A 
ATOM     27  C   UNL A   1      47.900  26.748  27.645  1.00  0.00     0.037 A 
ATOM     28  C   UNL A   1      42.066  29.610  29.001  1.00  0.00     0.049 A 
ATOM     29  C   UNL A   1      47.461  28.168  27.875  1.00  0.00     0.074 A 
ATOM     30  C   UNL A   1      41.846  30.946  29.263  1.00  0.00     0.029 A 
ATOM     31  N   UNL A   1      43.421  29.464  28.731  1.00  0.00    -0.354 N 
ATOM     32  N   UNL A   1      46.267  28.621  28.183  1.00  0.00    -0.248 NA
ATOM     33  C   UNL A   1      48.481  29.211  27.725  1.00  0.00     0.031 C 
ATOM     34  C   UNL A   1      43.059  31.620  29.088  1.00  0.00     0.029 A 
ATOM     35  C   UNL A   1      44.046  30.695  28.776  1.00  0.00     0.049 A 
ATOM     36  H   UNL A   1      43.871  28.609  28.536  1.00  0.00     0.167 HD
ATOM     37  C   UNL A   1      46.391  29.997  28.271  1.00  0.00     0.074 A 
ATOM     38  C   UNL A   1      47.787  30.302  28.016  1.00  0.00     0.031 C 
ATOM     39  C   UNL A   1      45.445  30.935  28.524  1.00  0.00     0.037 A 
BRANCH  26  40
ATOM     40  C   UNL A   1      39.670  28.813  29.217  1.00  0.00     0.057 A 
ATOM     41  C   UNL A   1      38.814  29.236  28.195  1.00  0.00     0.134 A 
ATOM     42  C   UNL A   1      39.125  28.661  30.499  1.00  0.00     0.134 A 
ATOM     43  F   UNL A   1      39.282  29.436  26.954  1.00  0.00    -0.206 F 
ATOM     44  C   UNL A   1      37.465  29.507  28.442  1.00  0.00     0.040 A 
ATOM     45  C   UNL A   1      37.776  28.905  30.753  1.00  0.00     0.040 A 
ATOM     46  F   UNL A   1      39.897  28.275  31.526  1.00  0.00    -0.206 F 
ATOM     47  C   UNL A   1      36.942  29.333  29.722  1.00  0.00     0.006 A 
ENDBRANCH  26  40
BRANCH  27  48
ATOM     48  C   UNL A   1      49.303  26.417  27.277  1.00  0.00     0.057 A 
ATOM     49  C   UNL A   1      49.704  26.307  25.941  1.00  0.00     0.134 A 
ATOM     50  C   UNL A   1      50.271  26.144  28.256  1.00  0.00     0.134 A 
ATOM     51  F   UNL A   1      48.828  26.538  24.953  1.00  0.00    -0.206 F 
ATOM     52  C   UNL A   1      50.997  25.908  25.593  1.00  0.00     0.040 A 
ATOM     53  C   UNL A   1      51.576  25.777  27.922  1.00  0.00     0.040 A 
ATOM     54  F   UNL A   1      49.963  26.229  29.559  1.00  0.00    -0.206 F 
ATOM     55  C   UNL A   1      51.938  25.642  26.585  1.00  0.00     0.006 A 
ENDBRANCH  27  48
BRANCH  39  56
ATOM     56  C   UNL A   1      45.901  32.359  28.554  1.00  0.00     0.057 A 
ATOM     57  C   UNL A   1      45.845  33.170  27.415  1.00  0.00     0.134 A 
ATOM     58  C   UNL A   1      46.327  32.942  29.754  1.00  0.00     0.134 A 
ATOM     59  F   UNL A   1      45.462  32.660  26.234  1.00  0.00    -0.206 F 
ATOM     60  C   UNL A   1      46.209  34.514  27.465  1.00  0.00     0.040 A 
ATOM     61  C   UNL A   1      46.662  34.291  29.824  1.00  0.00     0.040 A 
ATOM     62  F   UNL A   1      46.391  32.214  30.880  1.00  0.00    -0.206 F 
ATOM     63  C   UNL A   1      46.606  35.081  28.677  1.00  0.00     0.006 A 
ENDBRANCH  39  56
ENDBRANCH  13  14
ENDBRANCH   6   8
ENDBRANCH   5   6
ENDBRANCH   4   5
ENDBRANCH   3   4
ENDBRANCH   2   3
ENDBRANCH   1   2
BRANCH   1  64
ATOM     64  C   UNL A   1      36.601  23.727  24.704  1.00  0.00     0.261 C 
BRANCH  64  65
ATOM     65  O   UNL A   1      35.502  23.096  24.020  1.00  0.00    -0.460 OA
BRANCH  65  66
ATOM     66  C   UNL A   1      34.432  23.886  23.728  1.00  0.00     0.341 C 
ATOM     67  O   UNL A   1      34.190  24.471  22.691  1.00  0.00    -0.246 OA
BRANCH  66  68
ATOM     68  C   UNL A   1      33.499  23.821  24.869  1.00  0.00     0.102 A 
ATOM     69  C   UNL A   1      32.882  25.002  25.305  1.00  0.00     0.021 A 
ATOM     70  C   UNL A   1      33.228  22.611  25.527  1.00  0.00     0.144 A 
ATOM     71  C   UNL A   1      32.011  24.959  26.381  1.00  0.00     0.021 A 
ATOM     72  N   UNL A   1      32.373  22.585  26.580  1.00  0.00    -0.238 NA
ATOM     73  C   UNL A   1      31.785  23.734  26.976  1.00  0.00     0.113 A 
BRANCH  70  74
ATOM     74  N   UNL A   1      33.927  21.421  25.228  1.00  0.00    -0.340 N 
ATOM     75  H   UNL A   1      34.808  21.300  25.650  1.00  0.00     0.168 HD
BRANCH  74  76
ATOM     76  C   UNL A   1      33.473  20.392  24.379  1.00  0.00     0.040 A 
ATOM     77  C   UNL A   1      32.476  20.624  23.425  1.00  0.00     0.026 A 
ATOM     78  C   UNL A   1      33.934  19.085  24.561  1.00  0.00     0.039 A 
ATOM     79  C   UNL A   1      31.991  19.581  22.627  1.00  0.00     0.003 A 
ATOM     80  C   UNL A   1      33.451  18.025  23.779  1.00  0.00     0.058 A 
ATOM     81  C   UNL A   1      32.479  18.287  22.801  1.00  0.00     0.013 A 
BRANCH  80  82
ATOM     82  C   UNL A   1      33.970  16.628  23.984  1.00  0.00     0.416 C 
ATOM     83  F   UNL A   1      34.429  16.069  22.829  1.00  0.00    -0.166 F 
ATOM     84  F   UNL A   1      35.012  16.579  24.860  1.00  0.00    -0.166 F 
ATOM     85  F   UNL A   1      33.035  15.761  24.467  1.00  0.00    -0.166 F 
ENDBRANCH  80  82
ENDBRANCH  74  76
ENDBRANCH  70  74
ENDBRANCH  66  68
ENDBRANCH  65  66
ENDBRANCH  64  65
ENDBRANCH   1  64
TORSDOF 17
ENDMDL
MODEL 3
REMARK VINA RESULT:     -11.1      0.834      1.702
REMARK SMILES O=C(OCCOCCOC(=O)c1cccnc1Nc1cccc(C(F)(F)F)c1)c1ccc(-c2c3nc(c(-c4c(F)cccc4F)c4ccc([nH]4)c(-c4c(F)cccc4F)c4nc(c(-c5c(F)cccc5F)c5ccc2[nH]5)C=C4)C=C3)cc1
REMARK SMILES IDX 7 1 6 2 5 3 4 4 3 5 2 6 1 7 29 8 30 9 82 10 31 11 81 12
REMARK SMILES IDX 32 13 33 14 34 15 75 16 35 17 80 18 74 19 76 20 36 21 79 22
REMARK SMILES IDX 73 23 72 24 37 26 63 27 46 28 62 29 47 30 50 31 61 32 77 33
REMARK SMILES IDX 48 34 49 35 60 37 78 38 51 39 38 40 39 41 44 42 40 43 41 44
REMARK SMILES IDX 43 45 45 46 42 47 64 48 65 49 70 50 66 51 67 52 69 53 71 54
REMARK SMILES IDX 68 55 52 56 53 57 58 58 54 59 55 60 57 61 59 62 56 63 8 64
REMARK SMILES IDX 9 65 10 66 11 67 12 68 13 69 17 70 14 71 16 72 15 73 18 74
REMARK SMILES IDX 19 76 20 77 28 78 21 79 23 80 22 81 24 82 25 83 26 84 27 85
REMARK H PARENT 76 25 50 36 18 75
REMARK Flexibility Score: inf
ROOT
ATOM      1  C   UNL A   1      32.722  29.553  26.334  1.00  0.00     0.202 C 
ENDROOT
BRANCH   1   2
ATOM      2  O   UNL A   1      31.579  30.338  26.653  1.00  0.00    -0.374 OA
BRANCH   2   3
ATOM      3  C   UNL A   1      31.692  31.748  26.542  1.00  0.00     0.202 C 
BRANCH   3   4
ATOM      4  C   UNL A   1      32.684  32.402  27.499  1.00  0.00     0.261 C 
BRANCH   4   5
ATOM      5  O   UNL A   1      32.420  33.806  27.627  1.00  0.00    -0.460 OA
BRANCH   5   6
ATOM      6  C   UNL A   1      32.969  34.629  28.552  1.00  0.00     0.338 C 
ATOM      7  O   UNL A   1      32.443  35.713  28.794  1.00  0.00    -0.246 OA
BRANCH   6   8
ATOM      8  C   UNL A   1      34.200  34.261  29.304  1.00  0.00     0.060 A 
ATOM      9  C   UNL A   1      34.171  33.557  30.506  1.00  0.00     0.016 A 
ATOM     10  C   UNL A   1      35.442  34.518  28.718  1.00  0.00     0.016 A 
ATOM     11  C   UNL A   1      35.314  33.148  31.151  1.00  0.00     0.010 A 
ATOM     12  C   UNL A   1      36.610  34.033  29.317  1.00  0.00     0.010 A 
ATOM     13  C   UNL A   1      36.532  33.322  30.522  1.00  0.00    -0.014 A 
BRANCH  13  14
ATOM     14  C   UNL A   1      37.697  32.723  31.180  1.00  0.00     0.031 A 
ATOM     15  C   UNL A   1      38.376  31.582  30.512  1.00  0.00     0.074 A 
ATOM     16  C   UNL A   1      38.176  33.301  32.300  1.00  0.00     0.049 A 
ATOM     17  N   UNL A   1      39.317  30.810  30.969  1.00  0.00    -0.248 NA
ATOM     18  C   UNL A   1      37.940  31.269  29.138  1.00  0.00     0.031 C 
ATOM     19  C   UNL A   1      37.645  34.524  32.917  1.00  0.00     0.029 A 
ATOM     20  N   UNL A   1      39.223  32.957  33.107  1.00  0.00    -0.354 N 
ATOM     21  C   UNL A   1      39.546  29.880  29.967  1.00  0.00     0.074 A 
ATOM     22  C   UNL A   1      38.668  30.197  28.866  1.00  0.00     0.031 C 
ATOM     23  C   UNL A   1      38.372  34.824  34.003  1.00  0.00     0.029 A 
ATOM     24  C   UNL A   1      39.344  33.764  34.215  1.00  0.00     0.049 A 
ATOM     25  H   UNL A   1      39.830  32.206  32.916  1.00  0.00     0.167 HD
ATOM     26  C   UNL A   1      40.403  28.838  30.006  1.00  0.00     0.037 A 
ATOM     27  C   UNL A   1      40.107  33.605  35.311  1.00  0.00     0.037 A 
ATOM     28  C   UNL A   1      41.268  28.585  31.125  1.00  0.00     0.049 A 
ATOM     29  C   UNL A   1      40.975  32.377  35.365  1.00  0.00     0.074 A 
ATOM     30  C   UNL A   1      42.170  27.557  31.303  1.00  0.00     0.029 A 
ATOM     31  N   UNL A   1      41.326  29.382  32.262  1.00  0.00    -0.354 N 
ATOM     32  N   UNL A   1      41.161  31.459  34.444  1.00  0.00    -0.248 NA
ATOM     33  C   UNL A   1      41.712  32.141  36.610  1.00  0.00     0.031 C 
ATOM     34  C   UNL A   1      42.730  27.697  32.577  1.00  0.00     0.029 A 
ATOM     35  C   UNL A   1      42.220  28.844  33.169  1.00  0.00     0.049 A 
ATOM     36  H   UNL A   1      40.808  30.207  32.402  1.00  0.00     0.167 HD
ATOM     37  C   UNL A   1      42.041  30.541  34.994  1.00  0.00     0.074 A 
ATOM     38  C   UNL A   1      42.375  31.032  36.317  1.00  0.00     0.031 C 
ATOM     39  C   UNL A   1      42.522  29.387  34.469  1.00  0.00     0.037 A 
BRANCH  26  40
ATOM     40  C   UNL A   1      40.363  27.868  28.868  1.00  0.00     0.057 A 
ATOM     41  C   UNL A   1      39.595  26.699  28.897  1.00  0.00     0.134 A 
ATOM     42  C   UNL A   1      41.124  28.116  27.718  1.00  0.00     0.134 A 
ATOM     43  F   UNL A   1      38.874  26.385  29.983  1.00  0.00    -0.206 F 
ATOM     44  C   UNL A   1      39.590  25.806  27.822  1.00  0.00     0.040 A 
ATOM     45  C   UNL A   1      41.109  27.245  26.630  1.00  0.00     0.040 A 
ATOM     46  F   UNL A   1      41.896  29.210  27.636  1.00  0.00    -0.206 F 
ATOM     47  C   UNL A   1      40.342  26.083  26.682  1.00  0.00     0.006 A 
ENDBRANCH  26  40
BRANCH  27  48
ATOM     48  C   UNL A   1      39.996  34.533  36.468  1.00  0.00     0.057 A 
ATOM     49  C   UNL A   1      40.790  35.681  36.565  1.00  0.00     0.134 A 
ATOM     50  C   UNL A   1      39.130  34.266  37.540  1.00  0.00     0.134 A 
ATOM     51  F   UNL A   1      41.652  35.989  35.585  1.00  0.00    -0.206 F 
ATOM     52  C   UNL A   1      40.754  36.506  37.692  1.00  0.00     0.040 A 
ATOM     53  C   UNL A   1      39.059  35.100  38.656  1.00  0.00     0.040 A 
ATOM     54  F   UNL A   1      38.336  33.185  37.519  1.00  0.00    -0.206 F 
ATOM     55  C   UNL A   1      39.885  36.217  38.742  1.00  0.00     0.006 A 
ENDBRANCH  27  48
BRANCH  39  56
ATOM     56  C   UNL A   1      43.469  28.605  35.323  1.00  0.00     0.057 A 
ATOM     57  C   UNL A   1      44.850  28.827  35.277  1.00  0.00     0.134 A 
ATOM     58  C   UNL A   1      42.984  27.677  36.252  1.00  0.00     0.134 A 
ATOM     59  F   UNL A   1      45.372  29.691  34.394  1.00  0.00    -0.206 F 
ATOM     60  C   UNL A   1      45.721  28.143  36.123  1.00  0.00     0.040 A 
ATOM     61  C   UNL A   1      43.841  27.011  37.125  1.00  0.00     0.040 A 
ATOM     62  F   UNL A   1      41.668  27.431  36.347  1.00  0.00    -0.206 F 
ATOM     63  C   UNL A   1      45.214  27.242  37.059  1.00  0.00     0.006 A 
ENDBRANCH  39  56
ENDBRANCH  13  14
ENDBRANCH   6   8
ENDBRANCH   5   6
ENDBRANCH   4   5
ENDBRANCH   3   4
ENDBRANCH   2   3
ENDBRANCH   1   2
BRANCH   1  64
ATOM     64  C   UNL A   1      32.805  28.443  27.381  1.00  0.00     0.261 C 
BRANCH  64  65
ATOM     65  O   UNL A   1      33.292  27.252  26.735  1.00  0.00    -0.460 OA
BRANCH  65  66
ATOM     66  C   UNL A   1      32.366  26.300  26.433  1.00  0.00     0.341 C 
ATOM     67  O   UNL A   1      31.262  26.146  26.917  1.00  0.00    -0.246 OA
BRANCH  66  68
ATOM     68  C   UNL A   1      32.873  25.525  25.286  1.00  0.00     0.102 A 
ATOM     69  C   UNL A   1      34.180  25.019  25.337  1.00  0.00     0.021 A 
ATOM     70  C   UNL A   1      32.082  25.293  24.149  1.00  0.00     0.144 A 
ATOM     71  C   UNL A   1      34.674  24.297  24.264  1.00  0.00     0.021 A 
ATOM     72  N   UNL A   1      32.581  24.585  23.105  1.00  0.00    -0.238 NA
ATOM     73  C   UNL A   1      33.840  24.101  23.182  1.00  0.00     0.113 A 
BRANCH  70  74
ATOM     74  N   UNL A   1      30.817  25.898  23.980  1.00  0.00    -0.340 N 
ATOM     75  H   UNL A   1      30.035  25.407  24.319  1.00  0.00     0.168 HD
BRANCH  74  76
ATOM     76  C   UNL A   1      30.578  27.144  23.367  1.00  0.00     0.040 A 
ATOM     77  C   UNL A   1      31.627  27.908  22.840  1.00  0.00     0.026 A 
ATOM     78  C   UNL A   1      29.293  27.693  23.382  1.00  0.00     0.039 A 
ATOM     79  C   UNL A   1      31.385  29.170  22.286  1.00  0.00     0.003 A 
ATOM     80  C   UNL A   1      29.034  28.962  22.843  1.00  0.00     0.058 A 
ATOM     81  C   UNL A   1      30.093  29.694  22.285  1.00  0.00     0.013 A 
BRANCH  80  82
ATOM     82  C   UNL A   1      27.640  29.527  22.860  1.00  0.00     0.416 C 
ATOM     83  F   UNL A   1      26.690  28.565  23.026  1.00  0.00    -0.166 F 
ATOM     84  F   UNL A   1      27.448  30.418  23.873  1.00  0.00    -0.166 F 
ATOM     85  F   UNL A   1      27.302  30.186  21.715  1.00  0.00    -0.166 F 
ENDBRANCH  80  82
ENDBRANCH  74  76
ENDBRANCH  70  74
ENDBRANCH  66  68
ENDBRANCH  65  66
ENDBRANCH  64  65
ENDBRANCH   1  64
TORSDOF 17
ENDMDL
