MODEL 1
REMARK VINA RESULT:     -10.7      0.000      0.000
REMARK SMILES C[NH2+][C@]1(C(=O)OCCOCCOC(=O)c2ccc(-c3c4nc(c(-c5c(F)cccc5F)c5ccc([nH]5)c(-c5c(F)cccc5F)c5nc(c(-c6c(F)cccc6F)c6ccc3[nH]6)C=C5)C=C4)cc2)CCC[C@H]1CCOC1C[C@@H](C)C[C@H](C)C1
REMARK SMILES IDX 8 1 7 2 6 3 4 4 5 5 3 6 69 7 72 8 70 9 71 10 2 11 1 12 73 15
REMARK SMILES IDX 74 16 75 17 76 18 77 19 83 20 78 21 81 22 79 23 80 24 82 25
REMARK SMILES IDX 9 26 10 27 11 28 12 29 13 30 14 31 15 32 16 33 68 34 17 35
REMARK SMILES IDX 67 36 18 37 19 38 20 39 61 40 21 41 66 42 60 43 62 44 22 45
REMARK SMILES IDX 65 46 59 47 58 48 23 50 49 51 32 52 48 53 33 54 36 55 47 56
REMARK SMILES IDX 63 57 34 58 35 59 46 61 64 62 37 63 24 64 25 65 30 66 26 67
REMARK SMILES IDX 27 68 29 69 31 70 28 71 50 72 51 73 56 74 52 75 53 76 55 77
REMARK SMILES IDX 57 78 54 79 38 80 39 81 44 82 40 83 41 84 43 85 45 86 42 87
REMARK H PARENT 2 13 2 14 62 49 36 60
REMARK Flexibility Score: inf
ROOT
ATOM      1  C   UNL A   1      39.842  20.621  26.181  1.00  0.00     0.202 C 
ENDROOT
BRANCH   1   2
ATOM      2  C   UNL A   1      38.765  21.484  25.518  1.00  0.00     0.261 C 
BRANCH   2   3
ATOM      3  O   UNL A   1      37.374  21.039  25.473  1.00  0.00    -0.459 OA
BRANCH   3   4
ATOM      4  C   UNL A   1      36.547  21.828  24.708  1.00  0.00     0.368 C 
ATOM      5  O   UNL A   1      36.926  22.246  23.613  1.00  0.00    -0.245 OA
BRANCH   4   6
ATOM      6  C   UNL A   1      35.130  22.195  25.333  1.00  0.00     0.197 C 
ATOM      7  C   UNL A   1      35.278  22.392  26.860  1.00  0.00     0.081 C 
ATOM      8  C   UNL A   1      34.180  23.488  24.886  1.00  0.00     0.065 C 
ATOM      9  C   UNL A   1      33.897  22.840  27.317  1.00  0.00     0.008 C 
ATOM     10  C   UNL A   1      33.531  23.885  26.284  1.00  0.00     0.011 C 
BRANCH   6  11
ATOM     11  N   UNL A   1      34.201  20.964  25.304  1.00  0.00    -0.334 N 
ATOM     12  C   UNL A   1      33.198  20.811  24.259  1.00  0.00     0.331 C 
ATOM     13  H   UNL A   1      34.805  20.144  25.249  1.00  0.00     0.347 HD
ATOM     14  H   UNL A   1      33.637  21.086  26.144  1.00  0.00     0.347 HD
ENDBRANCH   6  11
BRANCH   8  15
ATOM     15  C   UNL A   1      34.433  24.938  24.212  1.00  0.00     0.039 C 
BRANCH  15  16
ATOM     16  C   UNL A   1      33.641  26.094  23.416  1.00  0.00     0.161 C 
BRANCH  16  17
ATOM     17  O   UNL A   1      32.468  26.818  23.779  1.00  0.00    -0.378 OA
BRANCH  17  18
ATOM     18  C   UNL A   1      31.550  26.744  24.887  1.00  0.00     0.118 C 
ATOM     19  C   UNL A   1      31.854  27.152  26.330  1.00  0.00     0.035 C 
ATOM     20  C   UNL A   1      30.356  27.592  24.455  1.00  0.00     0.035 C 
ATOM     21  C   UNL A   1      32.412  28.549  26.382  1.00  0.00    -0.011 C 
ATOM     22  C   UNL A   1      30.917  28.979  24.183  1.00  0.00    -0.011 C 
ATOM     23  C   UNL A   1      33.912  28.304  26.249  1.00  0.00     0.008 C 
ATOM     24  C   UNL A   1      31.569  29.523  25.482  1.00  0.00     0.006 C 
ATOM     25  C   UNL A   1      29.899  29.887  23.497  1.00  0.00     0.008 C 
ENDBRANCH  17  18
ENDBRANCH  16  17
ENDBRANCH  15  16
ENDBRANCH   8  15
ENDBRANCH   4   6
ENDBRANCH   3   4
ENDBRANCH   2   3
ENDBRANCH   1   2
BRANCH   1  26
ATOM     26  O   UNL A   1      41.048  21.221  26.617  1.00  0.00    -0.374 OA
BRANCH  26  27
ATOM     27  C   UNL A   1      42.267  20.643  26.180  1.00  0.00     0.202 C 
BRANCH  27  28
ATOM     28  C   UNL A   1      43.311  21.560  25.525  1.00  0.00     0.261 C 
BRANCH  28  29
ATOM     29  O   UNL A   1      42.781  22.721  24.852  1.00  0.00    -0.460 OA
BRANCH  29  30
ATOM     30  C   UNL A   1      43.496  23.848  24.994  1.00  0.00     0.338 C 
ATOM     31  O   UNL A   1      44.617  24.090  24.503  1.00  0.00    -0.246 OA
BRANCH  30  32
ATOM     32  C   UNL A   1      42.740  24.888  25.701  1.00  0.00     0.060 A 
ATOM     33  C   UNL A   1      43.289  26.176  25.810  1.00  0.00     0.016 A 
ATOM     34  C   UNL A   1      41.579  24.556  26.405  1.00  0.00     0.016 A 
ATOM     35  C   UNL A   1      42.727  27.108  26.675  1.00  0.00     0.010 A 
ATOM     36  C   UNL A   1      41.029  25.487  27.291  1.00  0.00     0.010 A 
ATOM     37  C   UNL A   1      41.634  26.745  27.470  1.00  0.00    -0.014 A 
BRANCH  37  38
ATOM     38  C   UNL A   1      41.274  27.591  28.633  1.00  0.00     0.031 A 
ATOM     39  C   UNL A   1      42.098  27.476  29.889  1.00  0.00     0.074 A 
ATOM     40  C   UNL A   1      40.273  28.484  28.562  1.00  0.00     0.049 A 
ATOM     41  N   UNL A   1      41.946  28.078  31.042  1.00  0.00    -0.248 NA
ATOM     42  C   UNL A   1      43.249  26.559  29.837  1.00  0.00     0.031 C 
ATOM     43  C   UNL A   1      39.446  28.735  27.384  1.00  0.00     0.029 A 
ATOM     44  N   UNL A   1      39.781  29.343  29.511  1.00  0.00    -0.354 N 
ATOM     45  C   UNL A   1      42.971  27.604  31.852  1.00  0.00     0.074 A 
ATOM     46  C   UNL A   1      43.724  26.647  31.070  1.00  0.00     0.031 C 
ATOM     47  C   UNL A   1      38.537  29.678  27.684  1.00  0.00     0.029 A 
ATOM     48  C   UNL A   1      38.697  30.070  29.083  1.00  0.00     0.049 A 
ATOM     49  H   UNL A   1      40.167  29.432  30.411  1.00  0.00     0.167 HD
ATOM     50  C   UNL A   1      43.265  27.942  33.130  1.00  0.00     0.037 A 
ATOM     51  C   UNL A   1      37.909  30.932  29.756  1.00  0.00     0.037 A 
ATOM     52  C   UNL A   1      42.520  28.899  33.904  1.00  0.00     0.049 A 
ATOM     53  C   UNL A   1      38.207  31.231  31.201  1.00  0.00     0.074 A 
ATOM     54  C   UNL A   1      42.744  29.319  35.203  1.00  0.00     0.029 A 
ATOM     55  N   UNL A   1      41.403  29.583  33.448  1.00  0.00    -0.354 N 
ATOM     56  N   UNL A   1      39.180  30.784  31.957  1.00  0.00    -0.248 NA
ATOM     57  C   UNL A   1      37.295  32.160  31.886  1.00  0.00     0.031 C 
ATOM     58  C   UNL A   1      41.732  30.220  35.550  1.00  0.00     0.029 A 
ATOM     59  C   UNL A   1      40.910  30.403  34.449  1.00  0.00     0.049 A 
ATOM     60  H   UNL A   1      41.019  29.499  32.545  1.00  0.00     0.167 HD
ATOM     61  C   UNL A   1      39.015  31.394  33.194  1.00  0.00     0.074 A 
ATOM     62  C   UNL A   1      37.856  32.254  33.084  1.00  0.00     0.031 C 
ATOM     63  C   UNL A   1      39.758  31.258  34.320  1.00  0.00     0.037 A 
BRANCH  50  64
ATOM     64  C   UNL A   1      44.424  27.245  33.782  1.00  0.00     0.057 A 
ATOM     65  C   UNL A   1      44.279  26.014  34.436  1.00  0.00     0.134 A 
ATOM     66  C   UNL A   1      45.709  27.800  33.729  1.00  0.00     0.134 A 
ATOM     67  F   UNL A   1      43.073  25.435  34.536  1.00  0.00    -0.206 F 
ATOM     68  C   UNL A   1      45.366  25.372  35.031  1.00  0.00     0.040 A 
ATOM     69  C   UNL A   1      46.809  27.154  34.298  1.00  0.00     0.040 A 
ATOM     70  F   UNL A   1      45.919  28.974  33.116  1.00  0.00    -0.206 F 
ATOM     71  C   UNL A   1      46.637  25.939  34.957  1.00  0.00     0.006 A 
ENDBRANCH  50  64
BRANCH  51  72
ATOM     72  C   UNL A   1      36.748  31.557  29.076  1.00  0.00     0.057 A 
ATOM     73  C   UNL A   1      35.577  30.834  28.820  1.00  0.00     0.134 A 
ATOM     74  C   UNL A   1      36.788  32.890  28.648  1.00  0.00     0.134 A 
ATOM     75  F   UNL A   1      35.487  29.547  29.183  1.00  0.00    -0.206 F 
ATOM     76  C   UNL A   1      34.495  31.409  28.151  1.00  0.00     0.040 A 
ATOM     77  C   UNL A   1      35.704  33.486  28.003  1.00  0.00     0.040 A 
ATOM     78  F   UNL A   1      37.881  33.638  28.863  1.00  0.00    -0.206 F 
ATOM     79  C   UNL A   1      34.554  32.741  27.745  1.00  0.00     0.006 A 
ENDBRANCH  51  72
BRANCH  63  80
ATOM     80  C   UNL A   1      39.363  32.084  35.511  1.00  0.00     0.057 A 
ATOM     81  C   UNL A   1      39.832  33.389  35.696  1.00  0.00     0.134 A 
ATOM     82  C   UNL A   1      38.467  31.577  36.463  1.00  0.00     0.134 A 
ATOM     83  F   UNL A   1      40.700  33.930  34.827  1.00  0.00    -0.206 F 
ATOM     84  C   UNL A   1      39.442  34.154  36.798  1.00  0.00     0.040 A 
ATOM     85  C   UNL A   1      38.051  32.341  37.553  1.00  0.00     0.040 A 
ATOM     86  F   UNL A   1      37.972  30.336  36.339  1.00  0.00    -0.206 F 
ATOM     87  C   UNL A   1      38.544  33.631  37.727  1.00  0.00     0.006 A 
ENDBRANCH  63  80
ENDBRANCH  37  38
ENDBRANCH  30  32
ENDBRANCH  29  30
ENDBRANCH  28  29
ENDBRANCH  27  28
ENDBRANCH  26  27
ENDBRANCH   1  26
TORSDOF 19
ENDMDL
MODEL 2
REMARK VINA RESULT:     -10.0      3.935      8.986
REMARK SMILES C[NH2+][C@]1(C(=O)OCCOCCOC(=O)c2ccc(-c3c4nc(c(-c5c(F)cccc5F)c5ccc([nH]5)c(-c5c(F)cccc5F)c5nc(c(-c6c(F)cccc6F)c6ccc3[nH]6)C=C5)C=C4)cc2)CCC[C@H]1CCOC1C[C@@H](C)C[C@H](C)C1
REMARK SMILES IDX 8 1 7 2 6 3 4 4 5 5 3 6 69 7 72 8 70 9 71 10 2 11 1 12 73 15
REMARK SMILES IDX 74 16 75 17 76 18 77 19 83 20 78 21 81 22 79 23 80 24 82 25
REMARK SMILES IDX 9 26 10 27 11 28 12 29 13 30 14 31 15 32 16 33 68 34 17 35
REMARK SMILES IDX 67 36 18 37 19 38 20 39 61 40 21 41 66 42 60 43 62 44 22 45
REMARK SMILES IDX 65 46 59 47 58 48 23 50 49 51 32 52 48 53 33 54 36 55 47 56
REMARK SMILES IDX 63 57 34 58 35 59 46 61 64 62 37 63 24 64 25 65 30 66 26 67
REMARK SMILES IDX 27 68 29 69 31 70 28 71 50 72 51 73 56 74 52 75 53 76 55 77
REMARK SMILES IDX 57 78 54 79 38 80 39 81 44 82 40 83 41 84 43 85 45 86 42 87
REMARK H PARENT 2 13 2 14 62 49 36 60
REMARK Flexibility Score: inf
ROOT
ATOM      1  C   UNL A   1      31.327  29.463  24.666  1.00  0.00     0.202 C 
ENDROOT
BRANCH   1   2
ATOM      2  C   UNL A   1      30.584  28.201  24.216  1.00  0.00     0.261 C 
BRANCH   2   3
ATOM      3  O   UNL A   1      30.873  26.907  24.828  1.00  0.00    -0.459 OA
BRANCH   3   4
ATOM      4  C   UNL A   1      31.273  25.934  23.942  1.00  0.00     0.368 C 
ATOM      5  O   UNL A   1      30.445  25.358  23.235  1.00  0.00    -0.245 OA
BRANCH   4   6
ATOM      6  C   UNL A   1      32.824  25.577  23.925  1.00  0.00     0.197 C 
ATOM      7  C   UNL A   1      33.294  25.262  25.365  1.00  0.00     0.081 C 
ATOM      8  C   UNL A   1      33.528  24.358  23.034  1.00  0.00     0.065 C 
ATOM      9  C   UNL A   1      34.745  24.835  25.202  1.00  0.00     0.008 C 
ATOM     10  C   UNL A   1      34.680  23.884  24.025  1.00  0.00     0.011 C 
BRANCH   6  11
ATOM     11  N   UNL A   1      33.659  26.842  23.636  1.00  0.00    -0.334 N 
ATOM     12  C   UNL A   1      33.668  27.441  22.308  1.00  0.00     0.331 C 
ATOM     13  H   UNL A   1      33.327  27.563  24.277  1.00  0.00     0.347 HD
ATOM     14  H   UNL A   1      34.617  26.510  23.743  1.00  0.00     0.347 HD
ENDBRANCH   6  11
BRANCH   8  15
ATOM     15  C   UNL A   1      33.038  22.953  22.396  1.00  0.00     0.039 C 
BRANCH  15  16
ATOM     16  C   UNL A   1      32.210  21.630  22.792  1.00  0.00     0.161 C 
BRANCH  16  17
ATOM     17  O   UNL A   1      32.655  20.417  23.395  1.00  0.00    -0.378 OA
BRANCH  17  18
ATOM     18  C   UNL A   1      32.550  19.862  24.720  1.00  0.00     0.118 C 
ATOM     19  C   UNL A   1      32.606  18.374  25.074  1.00  0.00     0.035 C 
ATOM     20  C   UNL A   1      33.680  20.522  25.506  1.00  0.00     0.035 C 
ATOM     21  C   UNL A   1      33.831  17.732  24.480  1.00  0.00    -0.011 C 
ATOM     22  C   UNL A   1      34.958  20.162  24.763  1.00  0.00    -0.011 C 
ATOM     23  C   UNL A   1      33.330  17.278  23.113  1.00  0.00     0.008 C 
ATOM     24  C   UNL A   1      35.105  18.617  24.731  1.00  0.00     0.006 C 
ATOM     25  C   UNL A   1      36.161  20.953  25.272  1.00  0.00     0.008 C 
ENDBRANCH  17  18
ENDBRANCH  16  17
ENDBRANCH  15  16
ENDBRANCH   8  15
ENDBRANCH   4   6
ENDBRANCH   3   4
ENDBRANCH   2   3
ENDBRANCH   1   2
BRANCH   1  26
ATOM     26  O   UNL A   1      31.532  29.698  26.047  1.00  0.00    -0.374 OA
BRANCH  26  27
ATOM     27  C   UNL A   1      31.813  31.026  26.456  1.00  0.00     0.202 C 
BRANCH  27  28
ATOM     28  C   UNL A   1      32.968  31.253  27.442  1.00  0.00     0.261 C 
BRANCH  28  29
ATOM     29  O   UNL A   1      34.252  30.747  27.020  1.00  0.00    -0.460 OA
BRANCH  29  30
ATOM     30  C   UNL A   1      34.656  29.620  27.626  1.00  0.00     0.338 C 
ATOM     31  O   UNL A   1      34.034  28.540  27.690  1.00  0.00    -0.246 OA
BRANCH  30  32
ATOM     32  C   UNL A   1      36.035  29.728  28.114  1.00  0.00     0.060 A 
ATOM     33  C   UNL A   1      37.054  30.067  27.209  1.00  0.00     0.016 A 
ATOM     34  C   UNL A   1      36.354  29.327  29.415  1.00  0.00     0.016 A 
ATOM     35  C   UNL A   1      38.390  29.936  27.574  1.00  0.00     0.010 A 
ATOM     36  C   UNL A   1      37.696  29.175  29.773  1.00  0.00     0.010 A 
ATOM     37  C   UNL A   1      38.716  29.425  28.836  1.00  0.00    -0.014 A 
BRANCH  37  38
ATOM     38  C   UNL A   1      40.097  28.945  29.084  1.00  0.00     0.031 A 
ATOM     39  C   UNL A   1      41.060  29.858  29.797  1.00  0.00     0.074 A 
ATOM     40  C   UNL A   1      40.477  27.705  28.733  1.00  0.00     0.049 A 
ATOM     41  N   UNL A   1      42.324  29.676  30.083  1.00  0.00    -0.248 NA
ATOM     42  C   UNL A   1      40.522  31.152  30.250  1.00  0.00     0.031 C 
ATOM     43  C   UNL A   1      39.621  26.707  28.097  1.00  0.00     0.029 A 
ATOM     44  N   UNL A   1      41.691  27.079  28.862  1.00  0.00    -0.354 N 
ATOM     45  C   UNL A   1      42.734  30.833  30.736  1.00  0.00     0.074 A 
ATOM     46  C   UNL A   1      41.593  31.721  30.782  1.00  0.00     0.031 C 
ATOM     47  C   UNL A   1      40.341  25.593  27.878  1.00  0.00     0.029 A 
ATOM     48  C   UNL A   1      41.715  25.815  28.327  1.00  0.00     0.049 A 
ATOM     49  H   UNL A   1      42.469  27.495  29.297  1.00  0.00     0.167 HD
ATOM     50  C   UNL A   1      43.949  31.125  31.258  1.00  0.00     0.037 A 
ATOM     51  C   UNL A   1      42.738  24.949  28.190  1.00  0.00     0.037 A 
ATOM     52  C   UNL A   1      45.080  30.237  31.217  1.00  0.00     0.049 A 
ATOM     53  C   UNL A   1      44.101  25.328  28.707  1.00  0.00     0.074 A 
ATOM     54  C   UNL A   1      46.351  30.434  31.727  1.00  0.00     0.029 A 
ATOM     55  N   UNL A   1      45.075  28.981  30.629  1.00  0.00    -0.354 N 
ATOM     56  N   UNL A   1      44.478  26.420  29.327  1.00  0.00    -0.248 NA
ATOM     57  C   UNL A   1      45.181  24.351  28.505  1.00  0.00     0.031 C 
ATOM     58  C   UNL A   1      47.130  29.319  31.402  1.00  0.00     0.029 A 
ATOM     59  C   UNL A   1      46.329  28.403  30.738  1.00  0.00     0.049 A 
ATOM     60  H   UNL A   1      44.295  28.562  30.197  1.00  0.00     0.167 HD
ATOM     61  C   UNL A   1      45.828  26.251  29.613  1.00  0.00     0.074 A 
ATOM     62  C   UNL A   1      46.200  24.946  29.110  1.00  0.00     0.031 C 
ATOM     63  C   UNL A   1      46.681  27.099  30.238  1.00  0.00     0.037 A 
BRANCH  50  64
ATOM     64  C   UNL A   1      44.126  32.476  31.888  1.00  0.00     0.057 A 
ATOM     65  C   UNL A   1      44.604  33.577  31.166  1.00  0.00     0.134 A 
ATOM     66  C   UNL A   1      43.782  32.684  33.230  1.00  0.00     0.134 A 
ATOM     67  F   UNL A   1      44.965  33.442  29.880  1.00  0.00    -0.206 F 
ATOM     68  C   UNL A   1      44.756  34.830  31.762  1.00  0.00     0.040 A 
ATOM     69  C   UNL A   1      43.905  33.939  33.830  1.00  0.00     0.040 A 
ATOM     70  F   UNL A   1      43.315  31.674  33.979  1.00  0.00    -0.206 F 
ATOM     71  C   UNL A   1      44.399  35.015  33.096  1.00  0.00     0.006 A 
ENDBRANCH  50  64
BRANCH  51  72
ATOM     72  C   UNL A   1      42.520  23.645  27.517  1.00  0.00     0.057 A 
ATOM     73  C   UNL A   1      42.228  22.487  28.247  1.00  0.00     0.134 A 
ATOM     74  C   UNL A   1      42.618  23.521  26.125  1.00  0.00     0.134 A 
ATOM     75  F   UNL A   1      42.146  22.536  29.584  1.00  0.00    -0.206 F 
ATOM     76  C   UNL A   1      42.055  21.252  27.620  1.00  0.00     0.040 A 
ATOM     77  C   UNL A   1      42.420  22.298  25.482  1.00  0.00     0.040 A 
ATOM     78  F   UNL A   1      42.895  24.593  25.367  1.00  0.00    -0.206 F 
ATOM     79  C   UNL A   1      42.145  21.156  26.233  1.00  0.00     0.006 A 
ENDBRANCH  51  72
BRANCH  63  80
ATOM     80  C   UNL A   1      48.092  26.627  30.447  1.00  0.00     0.057 A 
ATOM     81  C   UNL A   1      48.458  25.853  31.553  1.00  0.00     0.134 A 
ATOM     82  C   UNL A   1      49.087  26.919  29.503  1.00  0.00     0.134 A 
ATOM     83  F   UNL A   1      47.556  25.547  32.499  1.00  0.00    -0.206 F 
ATOM     84  C   UNL A   1      49.769  25.404  31.727  1.00  0.00     0.040 A 
ATOM     85  C   UNL A   1      50.394  26.454  29.652  1.00  0.00     0.040 A 
ATOM     86  F   UNL A   1      48.799  27.648  28.414  1.00  0.00    -0.206 F 
ATOM     87  C   UNL A   1      50.739  25.700  30.771  1.00  0.00     0.006 A 
ENDBRANCH  63  80
ENDBRANCH  37  38
ENDBRANCH  30  32
ENDBRANCH  29  30
ENDBRANCH  28  29
ENDBRANCH  27  28
ENDBRANCH  26  27
ENDBRANCH   1  26
TORSDOF 19
ENDMDL
MODEL 3
REMARK VINA RESULT:     -10.0      2.957      8.228
REMARK SMILES C[NH2+][C@]1(C(=O)OCCOCCOC(=O)c2ccc(-c3c4nc(c(-c5c(F)cccc5F)c5ccc([nH]5)c(-c5c(F)cccc5F)c5nc(c(-c6c(F)cccc6F)c6ccc3[nH]6)C=C5)C=C4)cc2)CCC[C@H]1CCOC1C[C@@H](C)C[C@H](C)C1
REMARK SMILES IDX 8 1 7 2 6 3 4 4 5 5 3 6 69 7 72 8 70 9 71 10 2 11 1 12 73 15
REMARK SMILES IDX 74 16 75 17 76 18 77 19 83 20 78 21 81 22 79 23 80 24 82 25
REMARK SMILES IDX 9 26 10 27 11 28 12 29 13 30 14 31 15 32 16 33 68 34 17 35
REMARK SMILES IDX 67 36 18 37 19 38 20 39 61 40 21 41 66 42 60 43 62 44 22 45
REMARK SMILES IDX 65 46 59 47 58 48 23 50 49 51 32 52 48 53 33 54 36 55 47 56
REMARK SMILES IDX 63 57 34 58 35 59 46 61 64 62 37 63 24 64 25 65 30 66 26 67
REMARK SMILES IDX 27 68 29 69 31 70 28 71 50 72 51 73 56 74 52 75 53 76 55 77
REMARK SMILES IDX 57 78 54 79 38 80 39 81 44 82 40 83 41 84 43 85 45 86 42 87
REMARK H PARENT 2 13 2 14 62 49 36 60
REMARK Flexibility Score: inf
ROOT
ATOM      1  C   UNL A   1      31.949  29.139  27.110  1.00  0.00     0.202 C 
ENDROOT
BRANCH   1   2
ATOM      2  C   UNL A   1      32.969  28.005  27.240  1.00  0.00     0.261 C 
BRANCH   2   3
ATOM      3  O   UNL A   1      33.232  27.105  26.120  1.00  0.00    -0.459 OA
BRANCH   3   4
ATOM      4  C   UNL A   1      33.273  27.722  24.891  1.00  0.00     0.368 C 
ATOM      5  O   UNL A   1      34.090  28.617  24.672  1.00  0.00    -0.245 OA
BRANCH   4   6
ATOM      6  C   UNL A   1      32.196  27.250  23.818  1.00  0.00     0.197 C 
ATOM      7  C   UNL A   1      32.918  26.569  22.631  1.00  0.00     0.081 C 
ATOM      8  C   UNL A   1      30.922  26.219  24.114  1.00  0.00     0.065 C 
ATOM      9  C   UNL A   1      31.789  26.072  21.740  1.00  0.00     0.008 C 
ATOM     10  C   UNL A   1      30.841  25.432  22.733  1.00  0.00     0.011 C 
BRANCH   6  11
ATOM     11  N   UNL A   1      31.586  28.474  23.102  1.00  0.00    -0.334 N 
ATOM     12  C   UNL A   1      30.462  29.193  23.683  1.00  0.00     0.331 C 
ATOM     13  H   UNL A   1      32.340  29.152  22.993  1.00  0.00     0.347 HD
ATOM     14  H   UNL A   1      31.184  28.065  22.259  1.00  0.00     0.347 HD
ENDBRANCH   6  11
BRANCH   8  15
ATOM     15  C   UNL A   1      30.598  25.048  25.184  1.00  0.00     0.039 C 
BRANCH  15  16
ATOM     16  C   UNL A   1      31.310  24.205  26.357  1.00  0.00     0.161 C 
BRANCH  16  17
ATOM     17  O   UNL A   1      32.604  23.609  26.400  1.00  0.00    -0.378 OA
BRANCH  17  18
ATOM     18  C   UNL A   1      33.079  22.260  26.573  1.00  0.00     0.118 C 
ATOM     19  C   UNL A   1      32.988  21.139  25.534  1.00  0.00     0.035 C 
ATOM     20  C   UNL A   1      34.563  22.411  26.896  1.00  0.00     0.035 C 
ATOM     21  C   UNL A   1      33.562  21.587  24.217  1.00  0.00    -0.011 C 
ATOM     22  C   UNL A   1      35.165  23.153  25.712  1.00  0.00    -0.011 C 
ATOM     23  C   UNL A   1      32.345  22.187  23.519  1.00  0.00     0.008 C 
ATOM     24  C   UNL A   1      34.939  22.315  24.425  1.00  0.00     0.006 C 
ATOM     25  C   UNL A   1      36.596  23.610  25.988  1.00  0.00     0.008 C 
ENDBRANCH  17  18
ENDBRANCH  16  17
ENDBRANCH  15  16
ENDBRANCH   8  15
ENDBRANCH   4   6
ENDBRANCH   3   4
ENDBRANCH   2   3
ENDBRANCH   1   2
BRANCH   1  26
ATOM     26  O   UNL A   1      32.385  30.484  27.184  1.00  0.00    -0.374 OA
BRANCH  26  27
ATOM     27  C   UNL A   1      31.569  31.477  26.585  1.00  0.00     0.202 C 
BRANCH  27  28
ATOM     28  C   UNL A   1      31.800  32.943  26.983  1.00  0.00     0.261 C 
BRANCH  28  29
ATOM     29  O   UNL A   1      33.154  33.281  27.348  1.00  0.00    -0.460 OA
BRANCH  29  30
ATOM     30  C   UNL A   1      33.278  34.193  28.325  1.00  0.00     0.338 C 
ATOM     31  O   UNL A   1      32.505  35.142  28.565  1.00  0.00    -0.246 OA
BRANCH  30  32
ATOM     32  C   UNL A   1      34.391  33.877  29.228  1.00  0.00     0.060 A 
ATOM     33  C   UNL A   1      35.697  34.233  28.853  1.00  0.00     0.016 A 
ATOM     34  C   UNL A   1      34.175  33.077  30.354  1.00  0.00     0.016 A 
ATOM     35  C   UNL A   1      36.789  33.734  29.553  1.00  0.00     0.010 A 
ATOM     36  C   UNL A   1      35.275  32.559  31.043  1.00  0.00     0.010 A 
ATOM     37  C   UNL A   1      36.585  32.840  30.611  1.00  0.00    -0.014 A 
BRANCH  37  38
ATOM     38  C   UNL A   1      37.728  32.037  31.107  1.00  0.00     0.031 A 
ATOM     39  C   UNL A   1      38.264  32.321  32.486  1.00  0.00     0.074 A 
ATOM     40  C   UNL A   1      38.247  31.038  30.373  1.00  0.00     0.049 A 
ATOM     41  N   UNL A   1      39.280  31.783  33.111  1.00  0.00    -0.248 NA
ATOM     42  C   UNL A   1      37.557  33.353  33.264  1.00  0.00     0.031 C 
ATOM     43  C   UNL A   1      37.775  30.624  29.055  1.00  0.00     0.029 A 
ATOM     44  N   UNL A   1      39.295  30.194  30.640  1.00  0.00    -0.354 N 
ATOM     45  C   UNL A   1      39.341  32.417  34.347  1.00  0.00     0.074 A 
ATOM     46  C   UNL A   1      38.277  33.397  34.375  1.00  0.00     0.031 C 
ATOM     47  C   UNL A   1      38.540  29.609  28.619  1.00  0.00     0.029 A 
ATOM     48  C   UNL A   1      39.575  29.328  29.612  1.00  0.00     0.049 A 
ATOM     49  H   UNL A   1      39.797  30.206  31.486  1.00  0.00     0.167 HD
ATOM     50  C   UNL A   1      40.200  32.196  35.370  1.00  0.00     0.037 A 
ATOM     51  C   UNL A   1      40.572  28.431  29.479  1.00  0.00     0.037 A 
ATOM     52  C   UNL A   1      41.253  31.216  35.343  1.00  0.00     0.049 A 
ATOM     53  C   UNL A   1      41.565  28.259  30.599  1.00  0.00     0.074 A 
ATOM     54  C   UNL A   1      42.169  30.907  36.333  1.00  0.00     0.029 A 
ATOM     55  N   UNL A   1      41.530  30.386  34.267  1.00  0.00    -0.354 N 
ATOM     56  N   UNL A   1      41.612  28.858  31.764  1.00  0.00    -0.248 NA
ATOM     57  C   UNL A   1      42.644  27.284  30.382  1.00  0.00     0.031 C 
ATOM     58  C   UNL A   1      43.034  29.926  35.836  1.00  0.00     0.029 A 
ATOM     59  C   UNL A   1      42.621  29.585  34.558  1.00  0.00     0.049 A 
ATOM     60  H   UNL A   1      41.026  30.370  33.421  1.00  0.00     0.167 HD
ATOM     61  C   UNL A   1      42.704  28.314  32.430  1.00  0.00     0.074 A 
ATOM     62  C   UNL A   1      43.285  27.328  31.542  1.00  0.00     0.031 C 
ATOM     63  C   UNL A   1      43.182  28.603  33.665  1.00  0.00     0.037 A 
BRANCH  50  64
ATOM     64  C   UNL A   1      40.057  33.055  36.593  1.00  0.00     0.057 A 
ATOM     65  C   UNL A   1      39.136  32.759  37.606  1.00  0.00     0.134 A 
ATOM     66  C   UNL A   1      40.874  34.178  36.772  1.00  0.00     0.134 A 
ATOM     67  F   UNL A   1      38.313  31.705  37.490  1.00  0.00    -0.206 F 
ATOM     68  C   UNL A   1      39.019  33.560  38.743  1.00  0.00     0.040 A 
ATOM     69  C   UNL A   1      40.784  34.973  37.917  1.00  0.00     0.040 A 
ATOM     70  F   UNL A   1      41.779  34.518  35.842  1.00  0.00    -0.206 F 
ATOM     71  C   UNL A   1      39.850  34.667  38.904  1.00  0.00     0.006 A 
ENDBRANCH  50  64
BRANCH  51  72
ATOM     72  C   UNL A   1      40.696  27.640  28.230  1.00  0.00     0.057 A 
ATOM     73  C   UNL A   1      40.106  26.377  28.105  1.00  0.00     0.134 A 
ATOM     74  C   UNL A   1      41.425  28.121  27.135  1.00  0.00     0.134 A 
ATOM     75  F   UNL A   1      39.416  25.852  29.127  1.00  0.00    -0.206 F 
ATOM     76  C   UNL A   1      40.247  25.616  26.944  1.00  0.00     0.040 A 
ATOM     77  C   UNL A   1      41.552  27.383  25.958  1.00  0.00     0.040 A 
ATOM     78  F   UNL A   1      42.016  29.325  27.190  1.00  0.00    -0.206 F 
ATOM     79  C   UNL A   1      40.968  26.121  25.863  1.00  0.00     0.006 A 
ENDBRANCH  51  72
BRANCH  63  80
ATOM     80  C   UNL A   1      44.370  27.818  34.146  1.00  0.00     0.057 A 
ATOM     81  C   UNL A   1      44.231  26.572  34.769  1.00  0.00     0.134 A 
ATOM     82  C   UNL A   1      45.670  28.299  33.942  1.00  0.00     0.134 A 
ATOM     83  F   UNL A   1      43.013  26.060  35.003  1.00  0.00    -0.206 F 
ATOM     84  C   UNL A   1      45.344  25.843  35.195  1.00  0.00     0.040 A 
ATOM     85  C   UNL A   1      46.790  27.568  34.340  1.00  0.00     0.040 A 
ATOM     86  F   UNL A   1      45.873  29.481  33.341  1.00  0.00    -0.206 F 
ATOM     87  C   UNL A   1      46.627  26.339  34.974  1.00  0.00     0.006 A 
ENDBRANCH  63  80
ENDBRANCH  37  38
ENDBRANCH  30  32
ENDBRANCH  29  30
ENDBRANCH  28  29
ENDBRANCH  27  28
ENDBRANCH  26  27
ENDBRANCH   1  26
TORSDOF 19
ENDMDL
