MODEL 1
REMARK VINA RESULT:     -11.7      0.000      0.000
REMARK SMILES O=C(CC/C(=N\NC(=O)c1ccccc1Br)c1ccccc1)OCCOCCOC(=O)c1ccc(-c2c3nc(c(-c4c(F)cccc4F)c4ccc([nH]4)c(-c4c(F)cccc4F)c4nc(c(-c5c(F)cccc5F)c5ccc2[nH]5)C=C4)C=C3)cc1
REMARK SMILES IDX 25 1 24 2 23 3 2 4 1 5 3 6 4 7 5 8 6 9 17 10 18 11 22 12
REMARK SMILES IDX 19 13 21 14 20 15 7 16 8 17 9 19 10 20 11 21 15 22 12 23
REMARK SMILES IDX 14 24 16 25 13 26 26 27 27 28 28 29 29 30 30 31 31 32 32 33
REMARK SMILES IDX 33 34 85 35 34 36 84 37 35 38 36 39 37 40 78 41 38 42 83 43
REMARK SMILES IDX 77 44 79 45 39 46 82 47 76 48 75 49 40 51 66 52 49 53 65 54
REMARK SMILES IDX 50 55 53 56 64 57 80 58 51 59 52 60 63 62 81 63 54 64 41 65
REMARK SMILES IDX 42 66 47 67 43 68 44 69 46 70 48 71 45 72 67 73 68 74 73 75
REMARK SMILES IDX 69 76 70 77 72 78 74 79 71 80 55 81 56 82 61 83 57 84 58 85
REMARK SMILES IDX 60 86 62 87 59 88
REMARK H PARENT 7 18 79 50 53 61
REMARK Flexibility Score: inf
ROOT
ATOM      1  C   UNL A   1      40.088  21.267  26.469  1.00  0.00     0.202 C 
ENDROOT
BRANCH   1   2
ATOM      2  C   UNL A   1      38.927  22.139  25.975  1.00  0.00     0.261 C 
BRANCH   2   3
ATOM      3  O   UNL A   1      37.795  21.497  25.381  1.00  0.00    -0.463 OA
BRANCH   3   4
ATOM      4  C   UNL A   1      36.534  21.906  25.653  1.00  0.00     0.306 C 
ATOM      5  O   UNL A   1      36.317  22.857  26.398  1.00  0.00    -0.252 OA
BRANCH   4   6
ATOM      6  C   UNL A   1      35.413  21.079  25.095  1.00  0.00     0.129 C 
BRANCH   6   7
ATOM      7  C   UNL A   1      34.162  20.915  25.926  1.00  0.00     0.070 C 
BRANCH   7   8
ATOM      8  C   UNL A   1      32.856  20.464  25.321  1.00  0.00     0.069 C 
ATOM      9  N   UNL A   1      31.678  20.993  25.496  1.00  0.00    -0.177 NA
BRANCH   8  10
ATOM     10  C   UNL A   1      32.927  19.163  24.536  1.00  0.00    -0.002 A 
ATOM     11  C   UNL A   1      33.787  18.138  24.954  1.00  0.00     0.010 A 
ATOM     12  C   UNL A   1      32.340  19.069  23.267  1.00  0.00     0.010 A 
ATOM     13  C   UNL A   1      34.140  17.112  24.069  1.00  0.00     0.001 A 
ATOM     14  C   UNL A   1      32.736  18.080  22.369  1.00  0.00     0.001 A 
ATOM     15  C   UNL A   1      33.650  17.111  22.763  1.00  0.00     0.000 A 
ENDBRANCH   8  10
BRANCH   9  16
ATOM     16  N   UNL A   1      31.214  22.073  26.197  1.00  0.00    -0.243 N 
ATOM     17  C   UNL A   1      31.380  23.444  26.304  1.00  0.00     0.272 C 
ATOM     18  H   UNL A   1      30.532  21.775  26.840  1.00  0.00     0.194 HD
ATOM     19  O   UNL A   1      30.772  24.045  27.196  1.00  0.00    -0.267 OA
BRANCH  17  20
ATOM     20  C   UNL A   1      32.270  24.257  25.472  1.00  0.00     0.055 A 
ATOM     21  C   UNL A   1      33.395  24.796  26.127  1.00  0.00     0.015 A 
ATOM     22  C   UNL A   1      32.152  24.351  24.078  1.00  0.00     0.030 A 
ATOM     23  C   UNL A   1      34.469  25.282  25.381  1.00  0.00     0.001 A 
ATOM     24  C   UNL A   1      33.243  24.831  23.338  1.00  0.00     0.016 A 
ATOM     25  Br  UNL A   1      30.646  23.699  23.132  1.00  0.00    -0.050 Br
ATOM     26  C   UNL A   1      34.408  25.259  23.988  1.00  0.00     0.001 A 
ENDBRANCH  17  20
ENDBRANCH   9  16
ENDBRANCH   7   8
ENDBRANCH   6   7
ENDBRANCH   4   6
ENDBRANCH   3   4
ENDBRANCH   2   3
ENDBRANCH   1   2
BRANCH   1  27
ATOM     27  O   UNL A   1      41.205  21.002  25.640  1.00  0.00    -0.374 OA
BRANCH  27  28
ATOM     28  C   UNL A   1      42.528  21.079  26.152  1.00  0.00     0.202 C 
BRANCH  28  29
ATOM     29  C   UNL A   1      43.605  21.882  25.415  1.00  0.00     0.261 C 
BRANCH  29  30
ATOM     30  O   UNL A   1      43.125  23.088  24.803  1.00  0.00    -0.460 OA
BRANCH  30  31
ATOM     31  C   UNL A   1      43.842  24.199  25.076  1.00  0.00     0.338 C 
ATOM     32  O   UNL A   1      44.938  24.503  24.619  1.00  0.00    -0.246 OA
BRANCH  31  33
ATOM     33  C   UNL A   1      43.042  25.134  25.883  1.00  0.00     0.060 A 
ATOM     34  C   UNL A   1      43.534  26.435  26.062  1.00  0.00     0.016 A 
ATOM     35  C   UNL A   1      41.872  24.722  26.521  1.00  0.00     0.016 A 
ATOM     36  C   UNL A   1      42.887  27.312  26.924  1.00  0.00     0.010 A 
ATOM     37  C   UNL A   1      41.240  25.592  27.412  1.00  0.00     0.010 A 
ATOM     38  C   UNL A   1      41.776  26.870  27.652  1.00  0.00    -0.014 A 
BRANCH  38  39
ATOM     39  C   UNL A   1      41.333  27.668  28.817  1.00  0.00     0.031 A 
ATOM     40  C   UNL A   1      42.107  27.538  30.101  1.00  0.00     0.074 A 
ATOM     41  C   UNL A   1      40.318  28.539  28.714  1.00  0.00     0.049 A 
ATOM     42  N   UNL A   1      41.921  28.137  31.247  1.00  0.00    -0.248 NA
ATOM     43  C   UNL A   1      43.250  26.608  30.086  1.00  0.00     0.031 C 
ATOM     44  C   UNL A   1      39.531  28.778  27.506  1.00  0.00     0.029 A 
ATOM     45  N   UNL A   1      39.773  29.386  29.645  1.00  0.00    -0.354 N 
ATOM     46  C   UNL A   1      42.923  27.664  32.085  1.00  0.00     0.074 A 
ATOM     47  C   UNL A   1      43.690  26.698  31.331  1.00  0.00     0.031 C 
ATOM     48  C   UNL A   1      38.591  29.701  27.773  1.00  0.00     0.029 A 
ATOM     49  C   UNL A   1      38.697  30.097  29.177  1.00  0.00     0.049 A 
ATOM     50  H   UNL A   1      40.122  29.475  30.561  1.00  0.00     0.167 HD
ATOM     51  C   UNL A   1      43.190  28.018  33.364  1.00  0.00     0.037 A 
ATOM     52  C   UNL A   1      37.881  30.954  29.821  1.00  0.00     0.037 A 
ATOM     53  C   UNL A   1      42.413  28.972  34.112  1.00  0.00     0.049 A 
ATOM     54  C   UNL A   1      38.153  31.270  31.270  1.00  0.00     0.074 A 
ATOM     55  C   UNL A   1      42.589  29.394  35.417  1.00  0.00     0.029 A 
ATOM     56  N   UNL A   1      41.307  29.647  33.616  1.00  0.00    -0.354 N 
ATOM     57  N   UNL A   1      39.113  30.831  32.050  1.00  0.00    -0.248 NA
ATOM     58  C   UNL A   1      37.233  32.209  31.925  1.00  0.00     0.031 C 
ATOM     59  C   UNL A   1      41.560  30.288  35.728  1.00  0.00     0.029 A 
ATOM     60  C   UNL A   1      40.779  30.468  34.598  1.00  0.00     0.049 A 
ATOM     61  H   UNL A   1      40.952  29.556  32.703  1.00  0.00     0.167 HD
ATOM     62  C   UNL A   1      38.927  31.459  33.275  1.00  0.00     0.074 A 
ATOM     63  C   UNL A   1      37.781  32.331  33.124  1.00  0.00     0.031 C 
ATOM     64  C   UNL A   1      39.634  31.328  34.425  1.00  0.00     0.037 A 
BRANCH  51  65
ATOM     65  C   UNL A   1      44.357  27.358  34.038  1.00  0.00     0.057 A 
ATOM     66  C   UNL A   1      45.627  27.950  34.062  1.00  0.00     0.134 A 
ATOM     67  C   UNL A   1      44.201  26.137  34.706  1.00  0.00     0.134 A 
ATOM     68  F   UNL A   1      45.850  29.109  33.424  1.00  0.00    -0.206 F 
ATOM     69  C   UNL A   1      46.703  27.345  34.714  1.00  0.00     0.040 A 
ATOM     70  C   UNL A   1      45.262  25.536  35.384  1.00  0.00     0.040 A 
ATOM     71  F   UNL A   1      43.012  25.516  34.720  1.00  0.00    -0.206 F 
ATOM     72  C   UNL A   1      46.519  26.137  35.386  1.00  0.00     0.006 A 
ENDBRANCH  51  65
BRANCH  52  73
ATOM     73  C   UNL A   1      36.717  31.556  29.120  1.00  0.00     0.057 A 
ATOM     74  C   UNL A   1      35.583  30.800  28.800  1.00  0.00     0.134 A 
ATOM     75  C   UNL A   1      36.733  32.894  28.706  1.00  0.00     0.134 A 
ATOM     76  F   UNL A   1      35.513  29.507  29.148  1.00  0.00    -0.206 F 
ATOM     77  C   UNL A   1      34.524  31.341  28.066  1.00  0.00     0.040 A 
ATOM     78  C   UNL A   1      35.669  33.457  28.001  1.00  0.00     0.040 A 
ATOM     79  F   UNL A   1      37.787  33.676  28.983  1.00  0.00    -0.206 F 
ATOM     80  C   UNL A   1      34.565  32.675  27.669  1.00  0.00     0.006 A 
ENDBRANCH  52  73
BRANCH  64  81
ATOM     81  C   UNL A   1      39.202  32.170  35.593  1.00  0.00     0.057 A 
ATOM     82  C   UNL A   1      39.682  33.472  35.785  1.00  0.00     0.134 A 
ATOM     83  C   UNL A   1      38.289  31.672  36.531  1.00  0.00     0.134 A 
ATOM     84  F   UNL A   1      40.566  34.005  34.929  1.00  0.00    -0.206 F 
ATOM     85  C   UNL A   1      39.302  34.233  36.892  1.00  0.00     0.040 A 
ATOM     86  C   UNL A   1      37.876  32.436  37.624  1.00  0.00     0.040 A 
ATOM     87  F   UNL A   1      37.778  30.439  36.399  1.00  0.00    -0.206 F 
ATOM     88  C   UNL A   1      38.394  33.716  37.813  1.00  0.00     0.006 A 
ENDBRANCH  64  81
ENDBRANCH  38  39
ENDBRANCH  31  33
ENDBRANCH  30  31
ENDBRANCH  29  30
ENDBRANCH  28  29
ENDBRANCH  27  28
ENDBRANCH   1  27
TORSDOF 19
ENDMDL
MODEL 2
REMARK VINA RESULT:     -11.5      3.882      7.063
REMARK SMILES O=C(CC/C(=N\NC(=O)c1ccccc1Br)c1ccccc1)OCCOCCOC(=O)c1ccc(-c2c3nc(c(-c4c(F)cccc4F)c4ccc([nH]4)c(-c4c(F)cccc4F)c4nc(c(-c5c(F)cccc5F)c5ccc2[nH]5)C=C4)C=C3)cc1
REMARK SMILES IDX 25 1 24 2 23 3 2 4 1 5 3 6 4 7 5 8 6 9 17 10 18 11 22 12
REMARK SMILES IDX 19 13 21 14 20 15 7 16 8 17 9 19 10 20 11 21 15 22 12 23
REMARK SMILES IDX 14 24 16 25 13 26 26 27 27 28 28 29 29 30 30 31 31 32 32 33
REMARK SMILES IDX 33 34 85 35 34 36 84 37 35 38 36 39 37 40 78 41 38 42 83 43
REMARK SMILES IDX 77 44 79 45 39 46 82 47 76 48 75 49 40 51 66 52 49 53 65 54
REMARK SMILES IDX 50 55 53 56 64 57 80 58 51 59 52 60 63 62 81 63 54 64 41 65
REMARK SMILES IDX 42 66 47 67 43 68 44 69 46 70 48 71 45 72 67 73 68 74 73 75
REMARK SMILES IDX 69 76 70 77 72 78 74 79 71 80 55 81 56 82 61 83 57 84 58 85
REMARK SMILES IDX 60 86 62 87 59 88
REMARK H PARENT 7 18 79 50 53 61
REMARK Flexibility Score: inf
ROOT
ATOM      1  C   UNL A   1      35.043  22.121  25.492  1.00  0.00     0.202 C 
ENDROOT
BRANCH   1   2
ATOM      2  C   UNL A   1      33.888  23.037  25.070  1.00  0.00     0.261 C 
BRANCH   2   3
ATOM      3  O   UNL A   1      32.772  23.180  25.953  1.00  0.00    -0.463 OA
BRANCH   3   4
ATOM      4  C   UNL A   1      32.438  24.384  26.473  1.00  0.00     0.306 C 
ATOM      5  O   UNL A   1      31.419  24.531  27.142  1.00  0.00    -0.252 OA
BRANCH   4   6
ATOM      6  C   UNL A   1      33.305  25.551  26.103  1.00  0.00     0.129 C 
BRANCH   6   7
ATOM      7  C   UNL A   1      32.652  26.903  25.933  1.00  0.00     0.070 C 
BRANCH   7   8
ATOM      8  C   UNL A   1      33.427  28.112  25.472  1.00  0.00     0.069 C 
ATOM      9  N   UNL A   1      33.915  28.333  24.284  1.00  0.00    -0.177 NA
BRANCH   8  10
ATOM     10  C   UNL A   1      33.788  29.101  26.570  1.00  0.00    -0.002 A 
ATOM     11  C   UNL A   1      32.993  30.237  26.779  1.00  0.00     0.010 A 
ATOM     12  C   UNL A   1      35.034  29.029  27.205  1.00  0.00     0.010 A 
ATOM     13  C   UNL A   1      33.496  31.321  27.509  1.00  0.00     0.001 A 
ATOM     14  C   UNL A   1      35.555  30.130  27.883  1.00  0.00     0.001 A 
ATOM     15  C   UNL A   1      34.793  31.284  28.019  1.00  0.00     0.000 A 
ENDBRANCH   8  10
BRANCH   9  16
ATOM     16  N   UNL A   1      33.888  27.646  23.101  1.00  0.00    -0.243 N 
ATOM     17  C   UNL A   1      33.052  26.860  22.326  1.00  0.00     0.272 C 
ATOM     18  H   UNL A   1      34.756  27.744  22.648  1.00  0.00     0.194 HD
ATOM     19  O   UNL A   1      33.508  26.343  21.301  1.00  0.00    -0.267 OA
BRANCH  17  20
ATOM     20  C   UNL A   1      31.659  26.536  22.645  1.00  0.00     0.055 A 
ATOM     21  C   UNL A   1      31.402  25.185  22.953  1.00  0.00     0.015 A 
ATOM     22  C   UNL A   1      30.664  27.504  22.834  1.00  0.00     0.030 A 
ATOM     23  C   UNL A   1      30.216  24.830  23.596  1.00  0.00     0.001 A 
ATOM     24  C   UNL A   1      29.480  27.139  23.491  1.00  0.00     0.016 A 
ATOM     25  Br  UNL A   1      30.915  29.329  22.391  1.00  0.00    -0.050 Br
ATOM     26  C   UNL A   1      29.276  25.815  23.902  1.00  0.00     0.001 A 
ENDBRANCH  17  20
ENDBRANCH   9  16
ENDBRANCH   7   8
ENDBRANCH   6   7
ENDBRANCH   4   6
ENDBRANCH   3   4
ENDBRANCH   2   3
ENDBRANCH   1   2
BRANCH   1  27
ATOM     27  O   UNL A   1      35.690  21.283  24.552  1.00  0.00    -0.374 OA
BRANCH  27  28
ATOM     28  C   UNL A   1      36.311  20.071  24.960  1.00  0.00     0.202 C 
BRANCH  28  29
ATOM     29  C   UNL A   1      37.838  19.941  24.969  1.00  0.00     0.261 C 
BRANCH  29  30
ATOM     30  O   UNL A   1      38.530  21.143  25.339  1.00  0.00    -0.460 OA
BRANCH  30  31
ATOM     31  C   UNL A   1      39.593  20.971  26.152  1.00  0.00     0.338 C 
ATOM     32  O   UNL A   1      40.317  19.983  26.224  1.00  0.00    -0.246 OA
BRANCH  31  33
ATOM     33  C   UNL A   1      39.911  22.228  26.847  1.00  0.00     0.060 A 
ATOM     34  C   UNL A   1      39.257  23.395  26.427  1.00  0.00     0.016 A 
ATOM     35  C   UNL A   1      40.892  22.279  27.839  1.00  0.00     0.016 A 
ATOM     36  C   UNL A   1      39.622  24.627  26.958  1.00  0.00     0.010 A 
ATOM     37  C   UNL A   1      41.280  23.520  28.348  1.00  0.00     0.010 A 
ATOM     38  C   UNL A   1      40.679  24.699  27.872  1.00  0.00    -0.014 A 
BRANCH  38  39
ATOM     39  C   UNL A   1      41.292  26.019  28.138  1.00  0.00     0.031 A 
ATOM     40  C   UNL A   1      42.688  26.268  27.634  1.00  0.00     0.074 A 
ATOM     41  C   UNL A   1      40.599  26.995  28.746  1.00  0.00     0.049 A 
ATOM     42  N   UNL A   1      43.429  27.341  27.734  1.00  0.00    -0.248 NA
ATOM     43  C   UNL A   1      43.334  25.155  26.915  1.00  0.00     0.031 C 
ATOM     44  C   UNL A   1      39.226  26.876  29.231  1.00  0.00     0.029 A 
ATOM     45  N   UNL A   1      40.958  28.281  29.059  1.00  0.00    -0.354 N 
ATOM     46  C   UNL A   1      44.619  27.036  27.087  1.00  0.00     0.074 A 
ATOM     47  C   UNL A   1      44.522  25.666  26.634  1.00  0.00     0.031 C 
ATOM     48  C   UNL A   1      38.862  28.040  29.797  1.00  0.00     0.029 A 
ATOM     49  C   UNL A   1      39.985  28.974  29.734  1.00  0.00     0.049 A 
ATOM     50  H   UNL A   1      41.831  28.669  28.820  1.00  0.00     0.167 HD
ATOM     51  C   UNL A   1      45.692  27.834  26.874  1.00  0.00     0.037 A 
ATOM     52  C   UNL A   1      40.013  30.214  30.257  1.00  0.00     0.037 A 
ATOM     53  C   UNL A   1      45.786  29.193  27.339  1.00  0.00     0.049 A 
ATOM     54  C   UNL A   1      41.252  31.054  30.075  1.00  0.00     0.074 A 
ATOM     55  C   UNL A   1      46.831  30.085  27.188  1.00  0.00     0.029 A 
ATOM     56  N   UNL A   1      44.794  29.851  28.052  1.00  0.00    -0.354 N 
ATOM     57  N   UNL A   1      42.368  30.764  29.447  1.00  0.00    -0.248 NA
ATOM     58  C   UNL A   1      41.231  32.399  30.666  1.00  0.00     0.031 C 
ATOM     59  C   UNL A   1      46.493  31.268  27.853  1.00  0.00     0.029 A 
ATOM     60  C   UNL A   1      45.212  31.134  28.365  1.00  0.00     0.049 A 
ATOM     61  H   UNL A   1      43.923  29.464  28.297  1.00  0.00     0.167 HD
ATOM     62  C   UNL A   1      43.167  31.896  29.546  1.00  0.00     0.074 A 
ATOM     63  C   UNL A   1      42.396  32.887  30.268  1.00  0.00     0.031 C 
ATOM     64  C   UNL A   1      44.427  32.103  29.087  1.00  0.00     0.037 A 
BRANCH  51  65
ATOM     65  C   UNL A   1      46.853  27.252  26.122  1.00  0.00     0.057 A 
ATOM     66  C   UNL A   1      47.862  26.526  26.768  1.00  0.00     0.134 A 
ATOM     67  C   UNL A   1      46.943  27.385  24.730  1.00  0.00     0.134 A 
ATOM     68  F   UNL A   1      47.848  26.379  28.101  1.00  0.00    -0.206 F 
ATOM     69  C   UNL A   1      48.926  25.964  26.059  1.00  0.00     0.040 A 
ATOM     70  C   UNL A   1      47.986  26.805  24.008  1.00  0.00     0.040 A 
ATOM     71  F   UNL A   1      46.010  28.069  24.051  1.00  0.00    -0.206 F 
ATOM     72  C   UNL A   1      48.984  26.096  24.673  1.00  0.00     0.006 A 
ENDBRANCH  51  65
BRANCH  52  73
ATOM     73  C   UNL A   1      38.851  30.735  31.024  1.00  0.00     0.057 A 
ATOM     74  C   UNL A   1      38.654  30.403  32.370  1.00  0.00     0.134 A 
ATOM     75  C   UNL A   1      37.880  31.536  30.411  1.00  0.00     0.134 A 
ATOM     76  F   UNL A   1      39.536  29.621  33.009  1.00  0.00    -0.206 F 
ATOM     77  C   UNL A   1      37.518  30.821  33.068  1.00  0.00     0.040 A 
ATOM     78  C   UNL A   1      36.756  31.987  31.106  1.00  0.00     0.040 A 
ATOM     79  F   UNL A   1      38.009  31.894  29.125  1.00  0.00    -0.206 F 
ATOM     80  C   UNL A   1      36.568  31.619  32.436  1.00  0.00     0.006 A 
ENDBRANCH  52  73
BRANCH  64  81
ATOM     81  C   UNL A   1      45.028  33.459  29.328  1.00  0.00     0.057 A 
ATOM     82  C   UNL A   1      45.800  33.737  30.464  1.00  0.00     0.134 A 
ATOM     83  C   UNL A   1      44.837  34.497  28.407  1.00  0.00     0.134 A 
ATOM     84  F   UNL A   1      46.012  32.790  31.390  1.00  0.00    -0.206 F 
ATOM     85  C   UNL A   1      46.323  35.010  30.697  1.00  0.00     0.040 A 
ATOM     86  C   UNL A   1      45.383  35.765  28.612  1.00  0.00     0.040 A 
ATOM     87  F   UNL A   1      44.121  34.296  27.290  1.00  0.00    -0.206 F 
ATOM     88  C   UNL A   1      46.118  36.027  29.767  1.00  0.00     0.006 A 
ENDBRANCH  64  81
ENDBRANCH  38  39
ENDBRANCH  31  33
ENDBRANCH  30  31
ENDBRANCH  29  30
ENDBRANCH  28  29
ENDBRANCH  27  28
ENDBRANCH   1  27
TORSDOF 19
ENDMDL
MODEL 3
REMARK VINA RESULT:     -11.4      3.892      8.399
REMARK SMILES O=C(CC/C(=N\NC(=O)c1ccccc1Br)c1ccccc1)OCCOCCOC(=O)c1ccc(-c2c3nc(c(-c4c(F)cccc4F)c4ccc([nH]4)c(-c4c(F)cccc4F)c4nc(c(-c5c(F)cccc5F)c5ccc2[nH]5)C=C4)C=C3)cc1
REMARK SMILES IDX 25 1 24 2 23 3 2 4 1 5 3 6 4 7 5 8 6 9 17 10 18 11 22 12
REMARK SMILES IDX 19 13 21 14 20 15 7 16 8 17 9 19 10 20 11 21 15 22 12 23
REMARK SMILES IDX 14 24 16 25 13 26 26 27 27 28 28 29 29 30 30 31 31 32 32 33
REMARK SMILES IDX 33 34 85 35 34 36 84 37 35 38 36 39 37 40 78 41 38 42 83 43
REMARK SMILES IDX 77 44 79 45 39 46 82 47 76 48 75 49 40 51 66 52 49 53 65 54
REMARK SMILES IDX 50 55 53 56 64 57 80 58 51 59 52 60 63 62 81 63 54 64 41 65
REMARK SMILES IDX 42 66 47 67 43 68 44 69 46 70 48 71 45 72 67 73 68 74 73 75
REMARK SMILES IDX 69 76 70 77 72 78 74 79 71 80 55 81 56 82 61 83 57 84 58 85
REMARK SMILES IDX 60 86 62 87 59 88
REMARK H PARENT 7 18 79 50 53 61
REMARK Flexibility Score: inf
ROOT
ATOM      1  C   UNL A   1      34.469  22.804  26.691  1.00  0.00     0.202 C 
ENDROOT
BRANCH   1   2
ATOM      2  C   UNL A   1      33.640  24.028  26.280  1.00  0.00     0.261 C 
BRANCH   2   3
ATOM      3  O   UNL A   1      32.229  24.005  26.513  1.00  0.00    -0.463 OA
BRANCH   3   4
ATOM      4  C   UNL A   1      31.496  25.143  26.491  1.00  0.00     0.306 C 
ATOM      5  O   UNL A   1      30.270  25.114  26.564  1.00  0.00    -0.252 OA
BRANCH   4   6
ATOM      6  C   UNL A   1      32.235  26.428  26.262  1.00  0.00     0.129 C 
BRANCH   6   7
ATOM      7  C   UNL A   1      31.521  27.727  26.552  1.00  0.00     0.070 C 
BRANCH   7   8
ATOM      8  C   UNL A   1      32.040  29.052  26.050  1.00  0.00     0.069 C 
ATOM      9  N   UNL A   1      31.791  29.616  24.903  1.00  0.00    -0.177 NA
BRANCH   8  10
ATOM     10  C   UNL A   1      33.077  29.714  26.943  1.00  0.00    -0.002 A 
ATOM     11  C   UNL A   1      32.968  31.077  27.256  1.00  0.00     0.010 A 
ATOM     12  C   UNL A   1      34.273  29.051  27.252  1.00  0.00     0.010 A 
ATOM     13  C   UNL A   1      34.075  31.776  27.750  1.00  0.00     0.001 A 
ATOM     14  C   UNL A   1      35.390  29.759  27.690  1.00  0.00     0.001 A 
ATOM     15  C   UNL A   1      35.297  31.126  27.922  1.00  0.00     0.000 A 
ENDBRANCH   8  10
BRANCH   9  16
ATOM     16  N   UNL A   1      31.013  29.283  23.827  1.00  0.00    -0.243 N 
ATOM     17  C   UNL A   1      30.798  28.254  22.926  1.00  0.00     0.272 C 
ATOM     18  H   UNL A   1      30.398  30.025  23.628  1.00  0.00     0.194 HD
ATOM     19  O   UNL A   1      29.999  28.434  22.001  1.00  0.00    -0.267 OA
BRANCH  17  20
ATOM     20  C   UNL A   1      31.485  26.960  22.938  1.00  0.00     0.055 A 
ATOM     21  C   UNL A   1      30.660  25.833  23.127  1.00  0.00     0.015 A 
ATOM     22  C   UNL A   1      32.834  26.799  22.593  1.00  0.00     0.030 A 
ATOM     23  C   UNL A   1      31.139  24.559  22.817  1.00  0.00     0.001 A 
ATOM     24  C   UNL A   1      33.301  25.516  22.273  1.00  0.00     0.016 A 
ATOM     25  Br  UNL A   1      34.017  28.262  22.376  1.00  0.00    -0.050 Br
ATOM     26  C   UNL A   1      32.446  24.408  22.350  1.00  0.00     0.001 A 
ENDBRANCH  17  20
ENDBRANCH   9  16
ENDBRANCH   7   8
ENDBRANCH   6   7
ENDBRANCH   4   6
ENDBRANCH   3   4
ENDBRANCH   2   3
ENDBRANCH   1   2
BRANCH   1  27
ATOM     27  O   UNL A   1      35.570  22.375  25.910  1.00  0.00    -0.374 OA
BRANCH  27  28
ATOM     28  C   UNL A   1      35.629  21.051  25.398  1.00  0.00     0.202 C 
BRANCH  28  29
ATOM     29  C   UNL A   1      36.971  20.425  25.004  1.00  0.00     0.261 C 
BRANCH  29  30
ATOM     30  O   UNL A   1      38.071  21.346  24.996  1.00  0.00    -0.460 OA
BRANCH  30  31
ATOM     31  C   UNL A   1      39.071  21.060  25.857  1.00  0.00     0.338 C 
ATOM     32  O   UNL A   1      39.646  19.985  25.991  1.00  0.00    -0.246 OA
BRANCH  31  33
ATOM     33  C   UNL A   1      39.536  22.287  26.523  1.00  0.00     0.060 A 
ATOM     34  C   UNL A   1      38.997  23.510  26.099  1.00  0.00     0.016 A 
ATOM     35  C   UNL A   1      40.542  22.249  27.489  1.00  0.00     0.016 A 
ATOM     36  C   UNL A   1      39.501  24.704  26.599  1.00  0.00     0.010 A 
ATOM     37  C   UNL A   1      41.071  23.450  27.968  1.00  0.00     0.010 A 
ATOM     38  C   UNL A   1      40.584  24.678  27.486  1.00  0.00    -0.014 A 
BRANCH  38  39
ATOM     39  C   UNL A   1      41.338  25.931  27.715  1.00  0.00     0.031 A 
ATOM     40  C   UNL A   1      40.673  27.025  28.505  1.00  0.00     0.074 A 
ATOM     41  C   UNL A   1      42.607  26.061  27.296  1.00  0.00     0.049 A 
ATOM     42  N   UNL A   1      41.132  28.202  28.843  1.00  0.00    -0.248 NA
ATOM     43  C   UNL A   1      39.306  26.752  28.981  1.00  0.00     0.031 C 
ATOM     44  C   UNL A   1      43.362  25.047  26.564  1.00  0.00     0.029 A 
ATOM     45  N   UNL A   1      43.485  27.107  27.426  1.00  0.00    -0.354 N 
ATOM     46  C   UNL A   1      40.116  28.803  29.575  1.00  0.00     0.074 A 
ATOM     47  C   UNL A   1      39.002  27.882  29.598  1.00  0.00     0.031 C 
ATOM     48  C   UNL A   1      44.589  25.526  26.295  1.00  0.00     0.029 A 
ATOM     49  C   UNL A   1      44.694  26.888  26.815  1.00  0.00     0.049 A 
ATOM     50  H   UNL A   1      43.268  27.934  27.914  1.00  0.00     0.167 HD
ATOM     51  C   UNL A   1      40.120  30.010  30.189  1.00  0.00     0.037 A 
ATOM     52  C   UNL A   1      45.753  27.709  26.676  1.00  0.00     0.037 A 
ATOM     53  C   UNL A   1      41.229  30.926  30.150  1.00  0.00     0.049 A 
ATOM     54  C   UNL A   1      45.699  29.080  27.302  1.00  0.00     0.074 A 
ATOM     55  C   UNL A   1      41.333  32.179  30.727  1.00  0.00     0.029 A 
ATOM     56  N   UNL A   1      42.426  30.686  29.490  1.00  0.00    -0.354 N 
ATOM     57  N   UNL A   1      44.742  29.635  28.007  1.00  0.00    -0.248 NA
ATOM     58  C   UNL A   1      46.880  29.935  27.120  1.00  0.00     0.031 C 
ATOM     59  C   UNL A   1      42.574  32.719  30.375  1.00  0.00     0.029 A 
ATOM     60  C   UNL A   1      43.267  31.777  29.630  1.00  0.00     0.049 A 
ATOM     61  H   UNL A   1      42.644  29.863  28.997  1.00  0.00     0.167 HD
ATOM     62  C   UNL A   1      45.214  30.889  28.374  1.00  0.00     0.074 A 
ATOM     63  C   UNL A   1      46.555  31.000  27.837  1.00  0.00     0.031 C 
ATOM     64  C   UNL A   1      44.599  31.866  29.085  1.00  0.00     0.037 A 
BRANCH  51  65
ATOM     65  C   UNL A   1      38.883  30.413  30.937  1.00  0.00     0.057 A 
ATOM     66  C   UNL A   1      38.620  29.949  32.233  1.00  0.00     0.134 A 
ATOM     67  C   UNL A   1      37.964  31.305  30.371  1.00  0.00     0.134 A 
ATOM     68  F   UNL A   1      39.449  29.077  32.825  1.00  0.00    -0.206 F 
ATOM     69  C   UNL A   1      37.482  30.349  32.934  1.00  0.00     0.040 A 
ATOM     70  C   UNL A   1      36.836  31.733  31.073  1.00  0.00     0.040 A 
ATOM     71  F   UNL A   1      38.154  31.785  29.133  1.00  0.00    -0.206 F 
ATOM     72  C   UNL A   1      36.590  31.252  32.357  1.00  0.00     0.006 A 
ENDBRANCH  51  65
BRANCH  52  73
ATOM     73  C   UNL A   1      46.942  27.278  25.897  1.00  0.00     0.057 A 
ATOM     74  C   UNL A   1      47.044  27.520  24.521  1.00  0.00     0.134 A 
ATOM     75  C   UNL A   1      47.985  26.565  26.502  1.00  0.00     0.134 A 
ATOM     76  F   UNL A   1      46.070  28.179  23.877  1.00  0.00    -0.206 F 
ATOM     77  C   UNL A   1      48.121  27.041  23.771  1.00  0.00     0.040 A 
ATOM     78  C   UNL A   1      49.082  26.108  25.770  1.00  0.00     0.040 A 
ATOM     79  F   UNL A   1      47.952  26.301  27.817  1.00  0.00    -0.206 F 
ATOM     80  C   UNL A   1      49.146  26.336  24.398  1.00  0.00     0.006 A 
ENDBRANCH  52  73
BRANCH  64  81
ATOM     81  C   UNL A   1      45.385  33.120  29.346  1.00  0.00     0.057 A 
ATOM     82  C   UNL A   1      45.324  34.225  28.487  1.00  0.00     0.134 A 
ATOM     83  C   UNL A   1      46.209  33.223  30.474  1.00  0.00     0.134 A 
ATOM     84  F   UNL A   1      44.563  34.188  27.383  1.00  0.00    -0.206 F 
ATOM     85  C   UNL A   1      46.087  35.371  28.719  1.00  0.00     0.040 A 
ATOM     86  C   UNL A   1      46.950  34.376  30.734  1.00  0.00     0.040 A 
ATOM     87  F   UNL A   1      46.302  32.207  31.346  1.00  0.00    -0.206 F 
ATOM     88  C   UNL A   1      46.900  35.450  29.847  1.00  0.00     0.006 A 
ENDBRANCH  64  81
ENDBRANCH  38  39
ENDBRANCH  31  33
ENDBRANCH  30  31
ENDBRANCH  29  30
ENDBRANCH  28  29
ENDBRANCH  27  28
ENDBRANCH   1  27
TORSDOF 19
ENDMDL
