MODEL 1
REMARK VINA RESULT:     -11.1      0.000      0.000
REMARK SMILES C[C@@H]1CCC[C@H]1NC(=O)c1csc(/C=C/C(=O)OCCOCCOC(=O)c2ccc(-c3c4nc(c(-c5c(F)cccc5F)c5ccc([nH]5)c(-c5c(F)cccc5F)c5nc(c(-c6c(F)cccc6F)c6ccc3[nH]6)C=C5)C=C4)cc2)c1
REMARK SMILES IDX 20 1 19 2 18 3 16 4 17 5 15 6 14 7 13 8 10 9 11 10 81 11
REMARK SMILES IDX 12 12 8 13 7 14 9 16 6 17 1 18 2 19 3 20 4 21 5 22 21 23
REMARK SMILES IDX 22 24 23 25 24 26 25 27 26 28 27 29 28 30 80 31 29 32 79 33
REMARK SMILES IDX 30 34 31 35 32 36 73 37 33 38 78 39 72 40 74 41 34 42 77 43
REMARK SMILES IDX 71 44 70 45 35 47 61 48 44 49 60 50 45 51 48 52 59 53 75 54
REMARK SMILES IDX 46 55 47 56 58 58 76 59 49 60 36 61 37 62 42 63 38 64 39 65
REMARK SMILES IDX 41 66 43 67 40 68 62 69 63 70 68 71 64 72 65 73 67 74 69 75
REMARK SMILES IDX 66 76 50 77 51 78 56 79 52 80 53 81 55 82 57 83 54 84
REMARK H PARENT 7 15 74 46 48 57
REMARK Flexibility Score: inf
ROOT
ATOM      1  C   UNL A   1      40.722  21.946  26.973  1.00  0.00     0.202 C 
ENDROOT
BRANCH   1   2
ATOM      2  C   UNL A   1      39.804  21.088  26.101  1.00  0.00     0.261 C 
BRANCH   2   3
ATOM      3  O   UNL A   1      38.449  21.569  26.159  1.00  0.00    -0.460 OA
BRANCH   3   4
ATOM      4  C   UNL A   1      37.605  21.024  25.254  1.00  0.00     0.330 C 
ATOM      5  O   UNL A   1      37.862  20.122  24.470  1.00  0.00    -0.247 OA
BRANCH   4   6
ATOM      6  C   UNL A   1      36.246  21.596  25.331  1.00  0.00     0.095 C 
ATOM      7  C   UNL A   1      35.512  22.055  24.304  1.00  0.00     0.026 C 
BRANCH   7   8
ATOM      8  C   UNL A   1      34.190  22.577  24.483  1.00  0.00     0.028 A 
ATOM      9  C   UNL A   1      32.286  23.594  25.486  1.00  0.00     0.051 A 
ATOM     10  C   UNL A   1      31.888  23.458  24.172  1.00  0.00     0.079 A 
ATOM     11  C   UNL A   1      33.629  23.089  25.644  1.00  0.00     0.033 A 
ATOM     12  S   UNL A   1      33.024  22.629  23.214  1.00  0.00    -0.144 S 
BRANCH   9  13
ATOM     13  C   UNL A   1      31.533  24.267  26.540  1.00  0.00     0.252 C 
ATOM     14  N   UNL A   1      31.580  25.631  26.685  1.00  0.00    -0.349 N 
ATOM     15  H   UNL A   1      31.227  25.963  27.541  1.00  0.00     0.164 HD
ATOM     16  O   UNL A   1      30.829  23.628  27.322  1.00  0.00    -0.269 OA
BRANCH  14  17
ATOM     17  C   UNL A   1      32.067  26.672  25.783  1.00  0.00     0.085 C 
ATOM     18  C   UNL A   1      31.370  28.913  24.820  1.00  0.00     0.010 C 
ATOM     19  C   UNL A   1      31.340  28.000  26.047  1.00  0.00     0.008 C 
ATOM     20  C   UNL A   1      32.116  28.600  27.219  1.00  0.00     0.005 C 
ATOM     21  C   UNL A   1      33.568  28.195  26.990  1.00  0.00     0.002 C 
ATOM     22  C   UNL A   1      33.542  26.979  26.063  1.00  0.00     0.025 C 
ENDBRANCH  14  17
ENDBRANCH   9  13
ENDBRANCH   7   8
ENDBRANCH   4   6
ENDBRANCH   3   4
ENDBRANCH   2   3
ENDBRANCH   1   2
BRANCH   1  23
ATOM     23  O   UNL A   1      42.079  21.506  27.028  1.00  0.00    -0.374 OA
BRANCH  23  24
ATOM     24  C   UNL A   1      42.664  21.093  25.792  1.00  0.00     0.202 C 
BRANCH  24  25
ATOM     25  C   UNL A   1      43.753  22.025  25.251  1.00  0.00     0.261 C 
BRANCH  25  26
ATOM     26  O   UNL A   1      43.194  23.271  24.789  1.00  0.00    -0.460 OA
BRANCH  26  27
ATOM     27  C   UNL A   1      43.935  24.368  25.062  1.00  0.00     0.338 C 
ATOM     28  O   UNL A   1      45.001  24.688  24.552  1.00  0.00    -0.246 OA
BRANCH  27  29
ATOM     29  C   UNL A   1      43.200  25.265  25.974  1.00  0.00     0.060 A 
ATOM     30  C   UNL A   1      43.799  26.490  26.292  1.00  0.00     0.016 A 
ATOM     31  C   UNL A   1      41.985  24.899  26.559  1.00  0.00     0.016 A 
ATOM     32  C   UNL A   1      43.216  27.329  27.238  1.00  0.00     0.010 A 
ATOM     33  C   UNL A   1      41.403  25.740  27.516  1.00  0.00     0.010 A 
ATOM     34  C   UNL A   1      42.035  26.941  27.886  1.00  0.00    -0.014 A 
BRANCH  34  35
ATOM     35  C   UNL A   1      41.555  27.726  29.049  1.00  0.00     0.031 A 
ATOM     36  C   UNL A   1      42.288  27.615  30.358  1.00  0.00     0.074 A 
ATOM     37  C   UNL A   1      40.513  28.567  28.931  1.00  0.00     0.049 A 
ATOM     38  N   UNL A   1      42.056  28.224  31.494  1.00  0.00    -0.248 NA
ATOM     39  C   UNL A   1      43.436  26.695  30.392  1.00  0.00     0.031 C 
ATOM     40  C   UNL A   1      39.740  28.788  27.710  1.00  0.00     0.029 A 
ATOM     41  N   UNL A   1      39.927  29.393  29.856  1.00  0.00    -0.354 N 
ATOM     42  C   UNL A   1      43.029  27.766  32.373  1.00  0.00     0.074 A 
ATOM     43  C   UNL A   1      43.831  26.802  31.652  1.00  0.00     0.031 C 
ATOM     44  C   UNL A   1      38.777  29.692  27.962  1.00  0.00     0.029 A 
ATOM     45  C   UNL A   1      38.854  30.095  29.365  1.00  0.00     0.049 A 
ATOM     46  H   UNL A   1      40.247  29.476  30.784  1.00  0.00     0.167 HD
ATOM     47  C   UNL A   1      43.243  28.124  33.661  1.00  0.00     0.037 A 
ATOM     48  C   UNL A   1      38.023  30.957  29.983  1.00  0.00     0.037 A 
ATOM     49  C   UNL A   1      42.447  29.082  34.383  1.00  0.00     0.049 A 
ATOM     50  C   UNL A   1      38.244  31.292  31.434  1.00  0.00     0.074 A 
ATOM     51  C   UNL A   1      42.596  29.520  35.687  1.00  0.00     0.029 A 
ATOM     52  N   UNL A   1      41.347  29.744  33.860  1.00  0.00    -0.354 N 
ATOM     53  N   UNL A   1      39.183  30.874  32.246  1.00  0.00    -0.248 NA
ATOM     54  C   UNL A   1      37.287  32.223  32.052  1.00  0.00     0.031 C 
ATOM     55  C   UNL A   1      41.562  30.421  35.967  1.00  0.00     0.029 A 
ATOM     56  C   UNL A   1      40.794  30.573  34.823  1.00  0.00     0.049 A 
ATOM     57  H   UNL A   1      41.009  29.641  32.942  1.00  0.00     0.167 HD
ATOM     58  C   UNL A   1      38.950  31.510  33.459  1.00  0.00     0.074 A 
ATOM     59  C   UNL A   1      37.786  32.350  33.274  1.00  0.00     0.031 C 
ATOM     60  C   UNL A   1      39.639  31.408  34.621  1.00  0.00     0.037 A 
BRANCH  47  61
ATOM     61  C   UNL A   1      44.380  27.461  34.379  1.00  0.00     0.057 A 
ATOM     62  C   UNL A   1      45.650  28.047  34.447  1.00  0.00     0.134 A 
ATOM     63  C   UNL A   1      44.195  26.237  35.035  1.00  0.00     0.134 A 
ATOM     64  F   UNL A   1      45.895  29.212  33.827  1.00  0.00    -0.206 F 
ATOM     65  C   UNL A   1      46.703  27.430  35.125  1.00  0.00     0.040 A 
ATOM     66  C   UNL A   1      45.234  25.621  35.734  1.00  0.00     0.040 A 
ATOM     67  F   UNL A   1      43.002  25.625  35.010  1.00  0.00    -0.206 F 
ATOM     68  C   UNL A   1      46.493  26.216  35.777  1.00  0.00     0.006 A 
ENDBRANCH  47  61
BRANCH  48  69
ATOM     69  C   UNL A   1      36.897  31.569  29.234  1.00  0.00     0.057 A 
ATOM     70  C   UNL A   1      35.739  30.841  28.941  1.00  0.00     0.134 A 
ATOM     71  C   UNL A   1      36.966  32.889  28.774  1.00  0.00     0.134 A 
ATOM     72  F   UNL A   1      35.626  29.565  29.336  1.00  0.00    -0.206 F 
ATOM     73  C   UNL A   1      34.694  31.398  28.202  1.00  0.00     0.040 A 
ATOM     74  C   UNL A   1      35.919  33.466  28.052  1.00  0.00     0.040 A 
ATOM     75  F   UNL A   1      38.050  33.637  29.021  1.00  0.00    -0.206 F 
ATOM     76  C   UNL A   1      34.781  32.717  27.759  1.00  0.00     0.006 A 
ENDBRANCH  48  69
BRANCH  60  77
ATOM     77  C   UNL A   1      39.173  32.251  35.773  1.00  0.00     0.057 A 
ATOM     78  C   UNL A   1      39.570  33.585  35.919  1.00  0.00     0.134 A 
ATOM     79  C   UNL A   1      38.285  31.730  36.724  1.00  0.00     0.134 A 
ATOM     80  F   UNL A   1      40.428  34.139  35.049  1.00  0.00    -0.206 F 
ATOM     81  C   UNL A   1      39.121  34.366  36.985  1.00  0.00     0.040 A 
ATOM     82  C   UNL A   1      37.810  32.508  37.780  1.00  0.00     0.040 A 
ATOM     83  F   UNL A   1      37.859  30.462  36.635  1.00  0.00    -0.206 F 
ATOM     84  C   UNL A   1      38.233  33.829  37.917  1.00  0.00     0.006 A 
ENDBRANCH  60  77
ENDBRANCH  34  35
ENDBRANCH  27  29
ENDBRANCH  26  27
ENDBRANCH  25  26
ENDBRANCH  24  25
ENDBRANCH  23  24
ENDBRANCH   1  23
TORSDOF 17
ENDMDL
MODEL 2
REMARK VINA RESULT:     -11.1      0.666      6.251
REMARK SMILES C[C@@H]1CCC[C@H]1NC(=O)c1csc(/C=C/C(=O)OCCOCCOC(=O)c2ccc(-c3c4nc(c(-c5c(F)cccc5F)c5ccc([nH]5)c(-c5c(F)cccc5F)c5nc(c(-c6c(F)cccc6F)c6ccc3[nH]6)C=C5)C=C4)cc2)c1
REMARK SMILES IDX 20 1 19 2 18 3 16 4 17 5 15 6 14 7 13 8 10 9 11 10 81 11
REMARK SMILES IDX 12 12 8 13 7 14 9 16 6 17 1 18 2 19 3 20 4 21 5 22 21 23
REMARK SMILES IDX 22 24 23 25 24 26 25 27 26 28 27 29 28 30 80 31 29 32 79 33
REMARK SMILES IDX 30 34 31 35 32 36 73 37 33 38 78 39 72 40 74 41 34 42 77 43
REMARK SMILES IDX 71 44 70 45 35 47 61 48 44 49 60 50 45 51 48 52 59 53 75 54
REMARK SMILES IDX 46 55 47 56 58 58 76 59 49 60 36 61 37 62 42 63 38 64 39 65
REMARK SMILES IDX 41 66 43 67 40 68 62 69 63 70 68 71 64 72 65 73 67 74 69 75
REMARK SMILES IDX 66 76 50 77 51 78 56 79 52 80 53 81 55 82 57 83 54 84
REMARK H PARENT 7 15 74 46 48 57
REMARK Flexibility Score: inf
ROOT
ATOM      1  C   UNL A   1      41.236  21.914  26.307  1.00  0.00     0.202 C 
ENDROOT
BRANCH   1   2
ATOM      2  C   UNL A   1      40.030  21.001  26.531  1.00  0.00     0.261 C 
BRANCH   2   3
ATOM      3  O   UNL A   1      38.858  21.537  25.890  1.00  0.00    -0.460 OA
BRANCH   3   4
ATOM      4  C   UNL A   1      38.071  20.626  25.272  1.00  0.00     0.330 C 
ATOM      5  O   UNL A   1      38.413  19.524  24.869  1.00  0.00    -0.247 OA
BRANCH   4   6
ATOM      6  C   UNL A   1      36.666  21.067  25.172  1.00  0.00     0.095 C 
ATOM      7  C   UNL A   1      36.117  22.134  25.774  1.00  0.00     0.026 C 
BRANCH   7   8
ATOM      8  C   UNL A   1      34.741  22.488  25.597  1.00  0.00     0.028 A 
ATOM      9  C   UNL A   1      32.570  23.373  26.011  1.00  0.00     0.051 A 
ATOM     10  C   UNL A   1      32.481  22.981  24.691  1.00  0.00     0.079 A 
ATOM     11  C   UNL A   1      33.893  23.091  26.514  1.00  0.00     0.033 A 
ATOM     12  S   UNL A   1      33.876  22.180  24.137  1.00  0.00    -0.144 S 
BRANCH   9  13
ATOM     13  C   UNL A   1      31.542  24.089  26.760  1.00  0.00     0.252 C 
ATOM     14  N   UNL A   1      31.431  25.455  26.682  1.00  0.00    -0.349 N 
ATOM     15  H   UNL A   1      30.867  25.859  27.380  1.00  0.00     0.164 HD
ATOM     16  O   UNL A   1      30.744  23.486  27.476  1.00  0.00    -0.269 OA
BRANCH  14  17
ATOM     17  C   UNL A   1      32.009  26.410  25.740  1.00  0.00     0.085 C 
ATOM     18  C   UNL A   1      31.402  28.517  24.464  1.00  0.00     0.010 C 
ATOM     19  C   UNL A   1      31.235  27.737  25.770  1.00  0.00     0.008 C 
ATOM     20  C   UNL A   1      31.852  28.478  26.956  1.00  0.00     0.005 C 
ATOM     21  C   UNL A   1      33.327  28.093  26.948  1.00  0.00     0.002 C 
ATOM     22  C   UNL A   1      33.433  26.786  26.161  1.00  0.00     0.025 C 
ENDBRANCH  14  17
ENDBRANCH   9  13
ENDBRANCH   7   8
ENDBRANCH   4   6
ENDBRANCH   3   4
ENDBRANCH   2   3
ENDBRANCH   1   2
BRANCH   1  23
ATOM     23  O   UNL A   1      42.206  21.410  25.388  1.00  0.00    -0.374 OA
BRANCH  23  24
ATOM     24  C   UNL A   1      43.538  21.904  25.536  1.00  0.00     0.202 C 
BRANCH  24  25
ATOM     25  C   UNL A   1      44.002  22.851  24.423  1.00  0.00     0.261 C 
BRANCH  25  26
ATOM     26  O   UNL A   1      43.406  24.156  24.564  1.00  0.00    -0.460 OA
BRANCH  26  27
ATOM     27  C   UNL A   1      44.197  25.088  25.139  1.00  0.00     0.338 C 
ATOM     28  O   UNL A   1      45.339  25.392  24.818  1.00  0.00    -0.246 OA
BRANCH  27  29
ATOM     29  C   UNL A   1      43.436  25.851  26.147  1.00  0.00     0.060 A 
ATOM     30  C   UNL A   1      43.747  27.208  26.297  1.00  0.00     0.016 A 
ATOM     31  C   UNL A   1      42.484  25.248  26.974  1.00  0.00     0.016 A 
ATOM     32  C   UNL A   1      43.150  27.954  27.309  1.00  0.00     0.010 A 
ATOM     33  C   UNL A   1      41.890  25.998  27.997  1.00  0.00     0.010 A 
ATOM     34  C   UNL A   1      42.248  27.344  28.192  1.00  0.00    -0.014 A 
BRANCH  34  35
ATOM     35  C   UNL A   1      41.803  28.082  29.398  1.00  0.00     0.031 A 
ATOM     36  C   UNL A   1      40.565  28.933  29.319  1.00  0.00     0.074 A 
ATOM     37  C   UNL A   1      42.460  27.958  30.565  1.00  0.00     0.049 A 
ATOM     38  N   UNL A   1      39.985  29.645  30.253  1.00  0.00    -0.248 NA
ATOM     39  C   UNL A   1      39.890  28.990  28.012  1.00  0.00     0.031 C 
ATOM     40  C   UNL A   1      43.652  27.140  30.780  1.00  0.00     0.029 A 
ATOM     41  N   UNL A   1      42.211  28.522  31.790  1.00  0.00    -0.354 N 
ATOM     42  C   UNL A   1      38.878  30.228  29.650  1.00  0.00     0.074 A 
ATOM     43  C   UNL A   1      38.886  29.817  28.262  1.00  0.00     0.031 C 
ATOM     44  C   UNL A   1      44.034  27.257  32.064  1.00  0.00     0.029 A 
ATOM     45  C   UNL A   1      43.127  28.173  32.752  1.00  0.00     0.049 A 
ATOM     46  H   UNL A   1      41.448  29.119  31.964  1.00  0.00     0.167 HD
ATOM     47  C   UNL A   1      37.933  31.024  30.203  1.00  0.00     0.037 A 
ATOM     48  C   UNL A   1      43.225  28.559  34.039  1.00  0.00     0.037 A 
ATOM     49  C   UNL A   1      37.921  31.437  31.582  1.00  0.00     0.049 A 
ATOM     50  C   UNL A   1      42.197  29.495  34.615  1.00  0.00     0.074 A 
ATOM     51  C   UNL A   1      36.997  32.230  32.238  1.00  0.00     0.029 A 
ATOM     52  N   UNL A   1      38.886  31.090  32.515  1.00  0.00    -0.354 N 
ATOM     53  N   UNL A   1      41.139  30.016  34.043  1.00  0.00    -0.248 NA
ATOM     54  C   UNL A   1      42.376  29.893  36.020  1.00  0.00     0.031 C 
ATOM     55  C   UNL A   1      37.423  32.396  33.560  1.00  0.00     0.029 A 
ATOM     56  C   UNL A   1      38.591  31.672  33.737  1.00  0.00     0.049 A 
ATOM     57  H   UNL A   1      39.665  30.516  32.336  1.00  0.00     0.167 HD
ATOM     58  C   UNL A   1      40.512  30.778  35.021  1.00  0.00     0.074 A 
ATOM     59  C   UNL A   1      41.303  30.643  36.227  1.00  0.00     0.031 C 
ATOM     60  C   UNL A   1      39.383  31.522  34.930  1.00  0.00     0.037 A 
BRANCH  47  61
ATOM     61  C   UNL A   1      36.837  31.515  29.306  1.00  0.00     0.057 A 
ATOM     62  C   UNL A   1      35.746  30.706  28.963  1.00  0.00     0.134 A 
ATOM     63  C   UNL A   1      36.856  32.823  28.803  1.00  0.00     0.134 A 
ATOM     64  F   UNL A   1      35.677  29.439  29.401  1.00  0.00    -0.206 F 
ATOM     65  C   UNL A   1      34.723  31.172  28.136  1.00  0.00     0.040 A 
ATOM     66  C   UNL A   1      35.829  33.307  27.992  1.00  0.00     0.040 A 
ATOM     67  F   UNL A   1      37.871  33.650  29.096  1.00  0.00    -0.206 F 
ATOM     68  C   UNL A   1      34.761  32.479  27.653  1.00  0.00     0.006 A 
ENDBRANCH  47  61
BRANCH  48  69
ATOM     69  C   UNL A   1      44.343  28.063  34.880  1.00  0.00     0.057 A 
ATOM     70  C   UNL A   1      45.564  28.743  34.941  1.00  0.00     0.134 A 
ATOM     71  C   UNL A   1      44.222  26.882  35.623  1.00  0.00     0.134 A 
ATOM     72  F   UNL A   1      45.746  29.867  34.232  1.00  0.00    -0.206 F 
ATOM     73  C   UNL A   1      46.633  28.260  35.697  1.00  0.00     0.040 A 
ATOM     74  C   UNL A   1      45.276  26.399  36.401  1.00  0.00     0.040 A 
ATOM     75  F   UNL A   1      43.078  26.184  35.605  1.00  0.00    -0.206 F 
ATOM     76  C   UNL A   1      46.488  27.085  36.434  1.00  0.00     0.006 A 
ENDBRANCH  48  69
BRANCH  60  77
ATOM     77  C   UNL A   1      38.917  32.219  36.175  1.00  0.00     0.057 A 
ATOM     78  C   UNL A   1      39.259  33.549  36.448  1.00  0.00     0.134 A 
ATOM     79  C   UNL A   1      38.084  31.562  37.091  1.00  0.00     0.134 A 
ATOM     80  F   UNL A   1      40.063  34.229  35.617  1.00  0.00    -0.206 F 
ATOM     81  C   UNL A   1      38.809  34.194  37.601  1.00  0.00     0.040 A 
ATOM     82  C   UNL A   1      37.608  32.204  38.234  1.00  0.00     0.040 A 
ATOM     83  F   UNL A   1      37.712  30.290  36.881  1.00  0.00    -0.206 F 
ATOM     84  C   UNL A   1      37.975  33.523  38.495  1.00  0.00     0.006 A 
ENDBRANCH  60  77
ENDBRANCH  34  35
ENDBRANCH  27  29
ENDBRANCH  26  27
ENDBRANCH  25  26
ENDBRANCH  24  25
ENDBRANCH  23  24
ENDBRANCH   1  23
TORSDOF 17
ENDMDL
MODEL 3
REMARK VINA RESULT:     -11.0      4.736      9.968
REMARK SMILES C[C@@H]1CCC[C@H]1NC(=O)c1csc(/C=C/C(=O)OCCOCCOC(=O)c2ccc(-c3c4nc(c(-c5c(F)cccc5F)c5ccc([nH]5)c(-c5c(F)cccc5F)c5nc(c(-c6c(F)cccc6F)c6ccc3[nH]6)C=C5)C=C4)cc2)c1
REMARK SMILES IDX 20 1 19 2 18 3 16 4 17 5 15 6 14 7 13 8 10 9 11 10 81 11
REMARK SMILES IDX 12 12 8 13 7 14 9 16 6 17 1 18 2 19 3 20 4 21 5 22 21 23
REMARK SMILES IDX 22 24 23 25 24 26 25 27 26 28 27 29 28 30 80 31 29 32 79 33
REMARK SMILES IDX 30 34 31 35 32 36 73 37 33 38 78 39 72 40 74 41 34 42 77 43
REMARK SMILES IDX 71 44 70 45 35 47 61 48 44 49 60 50 45 51 48 52 59 53 75 54
REMARK SMILES IDX 46 55 47 56 58 58 76 59 49 60 36 61 37 62 42 63 38 64 39 65
REMARK SMILES IDX 41 66 43 67 40 68 62 69 63 70 68 71 64 72 65 73 67 74 69 75
REMARK SMILES IDX 66 76 50 77 51 78 56 79 52 80 53 81 55 82 57 83 54 84
REMARK H PARENT 7 15 74 46 48 57
REMARK Flexibility Score: inf
ROOT
ATOM      1  C   UNL A   1      34.963  34.099  29.619  1.00  0.00     0.202 C 
ENDROOT
BRANCH   1   2
ATOM      2  C   UNL A   1      34.241  32.758  29.473  1.00  0.00     0.261 C 
BRANCH   2   3
ATOM      3  O   UNL A   1      34.041  32.436  28.085  1.00  0.00    -0.460 OA
BRANCH   3   4
ATOM      4  C   UNL A   1      34.726  31.357  27.639  1.00  0.00     0.330 C 
ATOM      5  O   UNL A   1      35.940  31.220  27.630  1.00  0.00    -0.247 OA
BRANCH   4   6
ATOM      6  C   UNL A   1      33.837  30.267  27.193  1.00  0.00     0.095 C 
ATOM      7  C   UNL A   1      34.199  29.165  26.516  1.00  0.00     0.026 C 
BRANCH   7   8
ATOM      8  C   UNL A   1      33.257  28.152  26.144  1.00  0.00     0.028 A 
ATOM      9  C   UNL A   1      32.125  26.062  26.027  1.00  0.00     0.051 A 
ATOM     10  C   UNL A   1      31.301  26.885  25.287  1.00  0.00     0.079 A 
ATOM     11  C   UNL A   1      33.248  26.819  26.526  1.00  0.00     0.033 A 
ATOM     12  S   UNL A   1      31.929  28.453  25.086  1.00  0.00    -0.144 S 
BRANCH   9  13
ATOM     13  C   UNL A   1      31.852  24.671  26.376  1.00  0.00     0.252 C 
ATOM     14  N   UNL A   1      32.602  23.649  25.851  1.00  0.00    -0.349 N 
ATOM     15  H   UNL A   1      32.210  22.753  25.966  1.00  0.00     0.164 HD
ATOM     16  O   UNL A   1      30.947  24.380  27.157  1.00  0.00    -0.269 OA
BRANCH  14  17
ATOM     17  C   UNL A   1      33.883  23.665  25.149  1.00  0.00     0.085 C 
ATOM     18  C   UNL A   1      36.356  24.017  25.590  1.00  0.00     0.010 C 
ATOM     19  C   UNL A   1      35.043  23.448  26.133  1.00  0.00     0.008 C 
ATOM     20  C   UNL A   1      35.101  21.928  26.281  1.00  0.00     0.005 C 
ATOM     21  C   UNL A   1      34.739  21.376  24.908  1.00  0.00     0.002 C 
ATOM     22  C   UNL A   1      33.978  22.484  24.177  1.00  0.00     0.025 C 
ENDBRANCH  14  17
ENDBRANCH   9  13
ENDBRANCH   7   8
ENDBRANCH   4   6
ENDBRANCH   3   4
ENDBRANCH   2   3
ENDBRANCH   1   2
BRANCH   1  23
ATOM     23  O   UNL A   1      35.150  34.534  30.966  1.00  0.00    -0.374 OA
BRANCH  23  24
ATOM     24  C   UNL A   1      34.076  34.276  31.872  1.00  0.00     0.202 C 
BRANCH  24  25
ATOM     25  C   UNL A   1      34.470  33.500  33.134  1.00  0.00     0.261 C 
BRANCH  25  26
ATOM     26  O   UNL A   1      35.193  32.297  32.803  1.00  0.00    -0.460 OA
BRANCH  26  27
ATOM     27  C   UNL A   1      36.411  32.183  33.378  1.00  0.00     0.338 C 
ATOM     28  O   UNL A   1      36.725  32.502  34.518  1.00  0.00    -0.246 OA
BRANCH  27  29
ATOM     29  C   UNL A   1      37.327  31.446  32.488  1.00  0.00     0.060 A 
ATOM     30  C   UNL A   1      38.388  30.754  33.087  1.00  0.00     0.016 A 
ATOM     31  C   UNL A   1      37.200  31.478  31.097  1.00  0.00     0.016 A 
ATOM     32  C   UNL A   1      39.355  30.138  32.297  1.00  0.00     0.010 A 
ATOM     33  C   UNL A   1      38.177  30.864  30.303  1.00  0.00     0.010 A 
ATOM     34  C   UNL A   1      39.278  30.224  30.900  1.00  0.00    -0.014 A 
BRANCH  34  35
ATOM     35  C   UNL A   1      40.429  29.770  30.082  1.00  0.00     0.031 A 
ATOM     36  C   UNL A   1      41.565  30.723  29.826  1.00  0.00     0.074 A 
ATOM     37  C   UNL A   1      40.490  28.510  29.616  1.00  0.00     0.049 A 
ATOM     38  N   UNL A   1      42.675  30.532  29.158  1.00  0.00    -0.248 NA
ATOM     39  C   UNL A   1      41.431  32.073  30.398  1.00  0.00     0.031 C 
ATOM     40  C   UNL A   1      39.472  27.482  29.823  1.00  0.00     0.029 A 
ATOM     41  N   UNL A   1      41.457  27.884  28.872  1.00  0.00    -0.354 N 
ATOM     42  C   UNL A   1      43.372  31.731  29.234  1.00  0.00     0.074 A 
ATOM     43  C   UNL A   1      42.545  32.655  29.981  1.00  0.00     0.031 C 
ATOM     44  C   UNL A   1      39.867  26.350  29.216  1.00  0.00     0.029 A 
ATOM     45  C   UNL A   1      41.154  26.581  28.562  1.00  0.00     0.049 A 
ATOM     46  H   UNL A   1      42.290  28.325  28.587  1.00  0.00     0.167 HD
ATOM     47  C   UNL A   1      44.595  32.033  28.738  1.00  0.00     0.037 A 
ATOM     48  C   UNL A   1      41.835  25.681  27.825  1.00  0.00     0.037 A 
ATOM     49  C   UNL A   1      45.420  31.118  27.995  1.00  0.00     0.049 A 
ATOM     50  C   UNL A   1      43.164  26.061  27.231  1.00  0.00     0.074 A 
ATOM     51  C   UNL A   1      46.681  31.329  27.464  1.00  0.00     0.029 A 
ATOM     52  N   UNL A   1      45.061  29.818  27.672  1.00  0.00    -0.354 N 
ATOM     53  N   UNL A   1      43.825  27.188  27.334  1.00  0.00    -0.248 NA
ATOM     54  C   UNL A   1      43.844  25.039  26.421  1.00  0.00     0.031 C 
ATOM     55  C   UNL A   1      47.070  30.168  26.787  1.00  0.00     0.029 A 
ATOM     56  C   UNL A   1      46.068  29.221  26.931  1.00  0.00     0.049 A 
ATOM     57  H   UNL A   1      44.217  29.384  27.931  1.00  0.00     0.167 HD
ATOM     58  C   UNL A   1      45.008  27.002  26.628  1.00  0.00     0.074 A 
ATOM     59  C   UNL A   1      44.978  25.651  26.110  1.00  0.00     0.031 C 
ATOM     60  C   UNL A   1      46.027  27.873  26.428  1.00  0.00     0.037 A 
BRANCH  47  61
ATOM     61  C   UNL A   1      45.108  33.422  28.973  1.00  0.00     0.057 A 
ATOM     62  C   UNL A   1      44.860  34.462  28.068  1.00  0.00     0.134 A 
ATOM     63  C   UNL A   1      45.833  33.730  30.131  1.00  0.00     0.134 A 
ATOM     64  F   UNL A   1      44.185  34.228  26.933  1.00  0.00    -0.206 F 
ATOM     65  C   UNL A   1      45.333  35.756  28.296  1.00  0.00     0.040 A 
ATOM     66  C   UNL A   1      46.291  35.025  30.382  1.00  0.00     0.040 A 
ATOM     67  F   UNL A   1      46.101  32.780  31.040  1.00  0.00    -0.206 F 
ATOM     68  C   UNL A   1      46.045  36.040  29.460  1.00  0.00     0.006 A 
ENDBRANCH  47  61
BRANCH  48  69
ATOM     69  C   UNL A   1      41.273  24.326  27.603  1.00  0.00     0.057 A 
ATOM     70  C   UNL A   1      40.236  24.110  26.687  1.00  0.00     0.134 A 
ATOM     71  C   UNL A   1      41.743  23.219  28.319  1.00  0.00     0.134 A 
ATOM     72  F   UNL A   1      39.730  25.137  25.988  1.00  0.00    -0.206 F 
ATOM     73  C   UNL A   1      39.676  22.845  26.502  1.00  0.00     0.040 A 
ATOM     74  C   UNL A   1      41.206  21.944  28.129  1.00  0.00     0.040 A 
ATOM     75  F   UNL A   1      42.732  23.361  29.212  1.00  0.00    -0.206 F 
ATOM     76  C   UNL A   1      40.165  21.757  27.223  1.00  0.00     0.006 A 
ENDBRANCH  48  69
BRANCH  60  77
ATOM     77  C   UNL A   1      47.208  27.380  25.644  1.00  0.00     0.057 A 
ATOM     78  C   UNL A   1      47.299  27.556  24.258  1.00  0.00     0.134 A 
ATOM     79  C   UNL A   1      48.283  26.755  26.291  1.00  0.00     0.134 A 
ATOM     80  F   UNL A   1      46.298  28.136  23.579  1.00  0.00    -0.206 F 
ATOM     81  C   UNL A   1      48.408  27.107  23.539  1.00  0.00     0.040 A 
ATOM     82  C   UNL A   1      49.407  26.324  25.586  1.00  0.00     0.040 A 
ATOM     83  F   UNL A   1      48.261  26.566  27.619  1.00  0.00    -0.206 F 
ATOM     84  C   UNL A   1      49.469  26.495  24.204  1.00  0.00     0.006 A 
ENDBRANCH  60  77
ENDBRANCH  34  35
ENDBRANCH  27  29
ENDBRANCH  26  27
ENDBRANCH  25  26
ENDBRANCH  24  25
ENDBRANCH  23  24
ENDBRANCH   1  23
TORSDOF 17
ENDMDL
