MODEL 1
REMARK VINA RESULT:     -11.3      0.000      0.000
REMARK SMILES C[C@H](O)[C@H](NC(=O)N1CC[N@@H+]2CCC[C@@H]2C1)C(=O)OCCOCCOC(=O)c1ccc(-c2c3nc(c(-c4c(F)cccc4F)c4ccc([nH]4)c(-c4c(F)cccc4F)c4nc(c(-c5c(F)cccc5F)c5ccc2[nH]5)C=C4)C=C3)cc1
REMARK SMILES IDX 22 1 21 2 20 3 19 4 17 5 18 6 4 7 2 8 1 9 3 10 5 12 6 13
REMARK SMILES IDX 7 15 8 16 9 17 16 18 10 19 15 20 11 21 14 22 12 23 13 25
REMARK SMILES IDX 23 26 24 27 25 28 26 29 27 30 28 31 29 32 81 33 30 34 80 35
REMARK SMILES IDX 31 36 32 37 33 38 74 39 34 40 79 41 73 42 75 43 35 44 78 45
REMARK SMILES IDX 72 46 71 47 36 49 62 50 45 51 61 52 46 53 49 54 60 55 76 56
REMARK SMILES IDX 47 57 48 58 59 60 77 61 50 62 37 63 38 64 43 65 39 66 40 67
REMARK SMILES IDX 42 68 44 69 41 70 63 71 64 72 69 73 65 74 66 75 68 76 70 77
REMARK SMILES IDX 67 78 51 79 52 80 57 81 53 82 54 83 56 84 58 85 55 86
REMARK H PARENT 3 11 5 14 11 24 75 48 49 59
REMARK Flexibility Score: inf
ROOT
ATOM      1  O   UNL A   1      31.078  28.010  22.701  1.00  0.00    -0.374 OA
ENDROOT
BRANCH   1   2
ATOM      2  C   UNL A   1      29.890  27.337  23.186  1.00  0.00     0.202 C 
BRANCH   2   3
ATOM      3  C   UNL A   1      30.258  26.025  23.973  1.00  0.00     0.261 C 
BRANCH   3   4
ATOM      4  O   UNL A   1      30.592  26.238  25.342  1.00  0.00    -0.462 OA
BRANCH   4   5
ATOM      5  C   UNL A   1      31.848  25.810  25.615  1.00  0.00     0.331 C 
ATOM      6  O   UNL A   1      32.675  26.490  26.200  1.00  0.00    -0.250 OA
BRANCH   5   7
ATOM      7  C   UNL A   1      32.064  24.384  25.120  1.00  0.00     0.222 C 
BRANCH   7   8
ATOM      8  C   UNL A   1      31.646  23.493  26.312  1.00  0.00     0.145 C 
ATOM      9  C   UNL A   1      30.676  22.393  25.916  1.00  0.00     0.041 C 
BRANCH   8  10
ATOM     10  O   UNL A   1      31.060  24.292  27.341  1.00  0.00    -0.391 OA
ATOM     11  H   UNL A   1      31.658  24.324  28.105  1.00  0.00     0.211 HD
ENDBRANCH   8  10
ENDBRANCH   7   8
BRANCH   7  12
ATOM     12  N   UNL A   1      33.428  24.087  24.539  1.00  0.00    -0.322 N 
ATOM     13  C   UNL A   1      34.333  23.310  25.227  1.00  0.00     0.318 C 
ATOM     14  H   UNL A   1      33.673  24.456  23.659  1.00  0.00     0.166 HD
ATOM     15  O   UNL A   1      34.982  23.978  26.025  1.00  0.00    -0.249 OA
BRANCH  13  16
ATOM     16  N   UNL A   1      34.506  21.943  24.908  1.00  0.00    -0.313 N 
ATOM     17  C   UNL A   1      35.713  21.294  25.363  1.00  0.00     0.183 C 
ATOM     18  C   UNL A   1      33.571  20.973  24.143  1.00  0.00     0.186 C 
ATOM     19  C   UNL A   1      35.825  19.823  24.877  1.00  0.00     0.284 C 
ATOM     20  C   UNL A   1      33.366  19.545  24.650  1.00  0.00     0.204 C 
ATOM     21  N   UNL A   1      34.646  18.934  25.064  1.00  0.00    -0.330 N 
ATOM     22  C   UNL A   1      32.686  18.591  23.659  1.00  0.00     0.073 C 
ATOM     23  C   UNL A   1      34.773  17.696  24.283  1.00  0.00     0.262 C 
ATOM     24  H   UNL A   1      34.632  18.753  26.067  1.00  0.00     0.348 HD
ATOM     25  C   UNL A   1      33.340  17.270  24.007  1.00  0.00     0.068 C 
ENDBRANCH  13  16
ENDBRANCH   7  12
ENDBRANCH   5   7
ENDBRANCH   4   5
ENDBRANCH   3   4
ENDBRANCH   2   3
ENDBRANCH   1   2
BRANCH   1  26
ATOM     26  C   UNL A   1      31.831  28.943  23.498  1.00  0.00     0.202 C 
BRANCH  26  27
ATOM     27  C   UNL A   1      31.112  29.660  24.851  1.00  0.00     0.261 C 
BRANCH  27  28
ATOM     28  O   UNL A   1      31.754  30.519  26.110  1.00  0.00    -0.460 OA
BRANCH  28  29
ATOM     29  C   UNL A   1      32.717  31.175  26.891  1.00  0.00     0.338 C 
ATOM     30  O   UNL A   1      32.271  32.162  27.505  1.00  0.00    -0.246 OA
BRANCH  29  31
ATOM     31  C   UNL A   1      34.250  30.971  27.301  1.00  0.00     0.060 A 
ATOM     32  C   UNL A   1      34.779  29.762  27.774  1.00  0.00     0.016 A 
ATOM     33  C   UNL A   1      35.107  32.031  27.648  1.00  0.00     0.016 A 
ATOM     34  C   UNL A   1      36.030  29.525  28.417  1.00  0.00     0.010 A 
ATOM     35  C   UNL A   1      36.388  31.835  28.327  1.00  0.00     0.010 A 
ATOM     36  C   UNL A   1      36.877  30.568  28.717  1.00  0.00    -0.014 A 
BRANCH  36  37
ATOM     37  C   UNL A   1      38.115  30.312  29.554  1.00  0.00     0.031 A 
ATOM     38  C   UNL A   1      39.229  29.448  29.000  1.00  0.00     0.074 A 
ATOM     39  C   UNL A   1      38.375  30.916  30.740  1.00  0.00     0.049 A 
ATOM     40  N   UNL A   1      40.261  28.906  29.605  1.00  0.00    -0.248 NA
ATOM     41  C   UNL A   1      39.185  29.193  27.554  1.00  0.00     0.031 C 
ATOM     42  C   UNL A   1      37.578  31.974  31.355  1.00  0.00     0.029 A 
ATOM     43  N   UNL A   1      39.399  30.709  31.653  1.00  0.00    -0.354 N 
ATOM     44  C   UNL A   1      40.948  28.188  28.630  1.00  0.00     0.074 A 
ATOM     45  C   UNL A   1      40.237  28.404  27.385  1.00  0.00     0.031 C 
ATOM     46  C   UNL A   1      38.098  32.274  32.562  1.00  0.00     0.029 A 
ATOM     47  C   UNL A   1      39.231  31.389  32.842  1.00  0.00     0.049 A 
ATOM     48  H   UNL A   1      40.173  30.129  31.471  1.00  0.00     0.167 HD
ATOM     49  C   UNL A   1      42.046  27.399  28.756  1.00  0.00     0.037 A 
ATOM     50  C   UNL A   1      39.859  31.272  34.036  1.00  0.00     0.037 A 
ATOM     51  C   UNL A   1      42.781  27.194  29.982  1.00  0.00     0.049 A 
ATOM     52  C   UNL A   1      40.974  30.264  34.220  1.00  0.00     0.074 A 
ATOM     53  C   UNL A   1      43.875  26.373  30.208  1.00  0.00     0.029 A 
ATOM     54  N   UNL A   1      42.501  27.817  31.188  1.00  0.00    -0.354 N 
ATOM     55  N   UNL A   1      41.537  29.480  33.333  1.00  0.00    -0.248 NA
ATOM     56  C   UNL A   1      41.529  30.111  35.578  1.00  0.00     0.031 C 
ATOM     57  C   UNL A   1      44.215  26.450  31.564  1.00  0.00     0.029 A 
ATOM     58  C   UNL A   1      43.378  27.373  32.168  1.00  0.00     0.049 A 
ATOM     59  H   UNL A   1      41.786  28.478  31.328  1.00  0.00     0.167 HD
ATOM     60  C   UNL A   1      42.519  28.766  34.014  1.00  0.00     0.074 A 
ATOM     61  C   UNL A   1      42.490  29.218  35.387  1.00  0.00     0.031 C 
ATOM     62  C   UNL A   1      43.367  27.821  33.537  1.00  0.00     0.037 A 
BRANCH  49  63
ATOM     63  C   UNL A   1      42.464  26.601  27.551  1.00  0.00     0.057 A 
ATOM     64  C   UNL A   1      41.979  25.316  27.283  1.00  0.00     0.134 A 
ATOM     65  C   UNL A   1      43.367  27.152  26.629  1.00  0.00     0.134 A 
ATOM     66  F   UNL A   1      41.118  24.724  28.126  1.00  0.00    -0.206 F 
ATOM     67  C   UNL A   1      42.406  24.594  26.165  1.00  0.00     0.040 A 
ATOM     68  C   UNL A   1      43.776  26.454  25.493  1.00  0.00     0.040 A 
ATOM     69  F   UNL A   1      43.859  28.387  26.814  1.00  0.00    -0.206 F 
ATOM     70  C   UNL A   1      43.304  25.165  25.264  1.00  0.00     0.006 A 
ENDBRANCH  49  63
BRANCH  50  71
ATOM     71  C   UNL A   1      39.388  32.057  35.219  1.00  0.00     0.057 A 
ATOM     72  C   UNL A   1      38.453  31.542  36.127  1.00  0.00     0.134 A 
ATOM     73  C   UNL A   1      39.812  33.377  35.428  1.00  0.00     0.134 A 
ATOM     74  F   UNL A   1      37.958  30.306  35.959  1.00  0.00    -0.206 F 
ATOM     75  C   UNL A   1      37.960  32.304  37.192  1.00  0.00     0.040 A 
ATOM     76  C   UNL A   1      39.352  34.140  36.505  1.00  0.00     0.040 A 
ATOM     77  F   UNL A   1      40.678  33.951  34.581  1.00  0.00    -0.206 F 
ATOM     78  C   UNL A   1      38.419  33.605  37.389  1.00  0.00     0.006 A 
ENDBRANCH  50  71
BRANCH  62  79
ATOM     79  C   UNL A   1      44.377  27.234  34.488  1.00  0.00     0.057 A 
ATOM     80  C   UNL A   1      45.614  27.843  34.736  1.00  0.00     0.134 A 
ATOM     81  C   UNL A   1      44.091  26.059  35.198  1.00  0.00     0.134 A 
ATOM     82  F   UNL A   1      45.962  28.966  34.088  1.00  0.00    -0.206 F 
ATOM     83  C   UNL A   1      46.537  27.293  35.630  1.00  0.00     0.040 A 
ATOM     84  C   UNL A   1      44.992  25.515  36.115  1.00  0.00     0.040 A 
ATOM     85  F   UNL A   1      42.921  25.425  35.021  1.00  0.00    -0.206 F 
ATOM     86  C   UNL A   1      46.224  26.128  36.328  1.00  0.00     0.006 A 
ENDBRANCH  62  79
ENDBRANCH  36  37
ENDBRANCH  29  31
ENDBRANCH  28  29
ENDBRANCH  27  28
ENDBRANCH  26  27
ENDBRANCH   1  26
TORSDOF 18
ENDMDL
MODEL 2
REMARK VINA RESULT:     -11.3      3.910      9.261
REMARK SMILES C[C@H](O)[C@H](NC(=O)N1CC[N@@H+]2CCC[C@@H]2C1)C(=O)OCCOCCOC(=O)c1ccc(-c2c3nc(c(-c4c(F)cccc4F)c4ccc([nH]4)c(-c4c(F)cccc4F)c4nc(c(-c5c(F)cccc5F)c5ccc2[nH]5)C=C4)C=C3)cc1
REMARK SMILES IDX 22 1 21 2 20 3 19 4 17 5 18 6 4 7 2 8 1 9 3 10 5 12 6 13
REMARK SMILES IDX 7 15 8 16 9 17 16 18 10 19 15 20 11 21 14 22 12 23 13 25
REMARK SMILES IDX 23 26 24 27 25 28 26 29 27 30 28 31 29 32 81 33 30 34 80 35
REMARK SMILES IDX 31 36 32 37 33 38 74 39 34 40 79 41 73 42 75 43 35 44 78 45
REMARK SMILES IDX 72 46 71 47 36 49 62 50 45 51 61 52 46 53 49 54 60 55 76 56
REMARK SMILES IDX 47 57 48 58 59 60 77 61 50 62 37 63 38 64 43 65 39 66 40 67
REMARK SMILES IDX 42 68 44 69 41 70 63 71 64 72 69 73 65 74 66 75 68 76 70 77
REMARK SMILES IDX 67 78 51 79 52 80 57 81 53 82 54 83 56 84 58 85 55 86
REMARK H PARENT 3 11 5 14 11 24 75 48 49 59
REMARK Flexibility Score: inf
ROOT
ATOM      1  O   UNL A   1      34.107  21.453  27.193  1.00  0.00    -0.374 OA
ENDROOT
BRANCH   1   2
ATOM      2  C   UNL A   1      33.325  22.485  27.843  1.00  0.00     0.202 C 
BRANCH   2   3
ATOM      3  C   UNL A   1      32.140  22.967  26.926  1.00  0.00     0.261 C 
BRANCH   3   4
ATOM      4  O   UNL A   1      32.194  24.348  26.578  1.00  0.00    -0.462 OA
BRANCH   4   5
ATOM      5  C   UNL A   1      33.007  24.558  25.516  1.00  0.00     0.331 C 
ATOM      6  O   UNL A   1      34.224  24.575  25.596  1.00  0.00    -0.250 OA
BRANCH   5   7
ATOM      7  C   UNL A   1      32.202  24.740  24.234  1.00  0.00     0.222 C 
BRANCH   7   8
ATOM      8  C   UNL A   1      32.339  23.390  23.495  1.00  0.00     0.145 C 
ATOM      9  C   UNL A   1      33.521  23.355  22.541  1.00  0.00     0.041 C 
BRANCH   8  10
ATOM     10  O   UNL A   1      31.140  23.100  22.773  1.00  0.00    -0.391 OA
ATOM     11  H   UNL A   1      30.539  23.860  22.828  1.00  0.00     0.211 HD
ENDBRANCH   8  10
ENDBRANCH   7   8
BRANCH   7  12
ATOM     12  N   UNL A   1      32.540  25.963  23.411  1.00  0.00    -0.322 N 
ATOM     13  C   UNL A   1      31.584  26.577  22.634  1.00  0.00     0.318 C 
ATOM     14  H   UNL A   1      33.456  26.324  23.430  1.00  0.00     0.166 HD
ATOM     15  O   UNL A   1      31.493  26.044  21.532  1.00  0.00    -0.249 OA
BRANCH  13  16
ATOM     16  N   UNL A   1      30.918  27.740  23.085  1.00  0.00    -0.313 N 
ATOM     17  C   UNL A   1      31.677  28.691  23.864  1.00  0.00     0.183 C 
ATOM     18  C   UNL A   1      29.458  28.204  22.855  1.00  0.00     0.186 C 
ATOM     19  C   UNL A   1      30.814  29.878  24.371  1.00  0.00     0.284 C 
ATOM     20  C   UNL A   1      29.159  29.667  22.529  1.00  0.00     0.204 C 
ATOM     21  N   UNL A   1      29.943  30.578  23.387  1.00  0.00    -0.330 N 
ATOM     22  C   UNL A   1      27.682  30.072  22.636  1.00  0.00     0.073 C 
ATOM     23  C   UNL A   1      28.963  31.447  24.055  1.00  0.00     0.262 C 
ATOM     24  H   UNL A   1      30.598  31.110  22.816  1.00  0.00     0.348 HD
ATOM     25  C   UNL A   1      27.791  31.513  23.089  1.00  0.00     0.068 C 
ENDBRANCH  13  16
ENDBRANCH   7  12
ENDBRANCH   5   7
ENDBRANCH   4   5
ENDBRANCH   3   4
ENDBRANCH   2   3
ENDBRANCH   1   2
BRANCH   1  26
ATOM     26  C   UNL A   1      33.791  20.936  25.887  1.00  0.00     0.202 C 
BRANCH  26  27
ATOM     27  C   UNL A   1      35.015  20.773  24.731  1.00  0.00     0.261 C 
BRANCH  27  28
ATOM     28  O   UNL A   1      36.662  20.855  24.856  1.00  0.00    -0.460 OA
BRANCH  28  29
ATOM     29  C   UNL A   1      37.922  21.069  25.434  1.00  0.00     0.338 C 
ATOM     30  O   UNL A   1      38.755  20.189  25.151  1.00  0.00    -0.246 OA
BRANCH  29  31
ATOM     31  C   UNL A   1      38.647  22.193  26.313  1.00  0.00     0.060 A 
ATOM     32  C   UNL A   1      38.378  23.565  26.205  1.00  0.00     0.016 A 
ATOM     33  C   UNL A   1      39.892  22.003  26.940  1.00  0.00     0.016 A 
ATOM     34  C   UNL A   1      39.127  24.665  26.717  1.00  0.00     0.010 A 
ATOM     35  C   UNL A   1      40.702  23.104  27.461  1.00  0.00     0.010 A 
ATOM     36  C   UNL A   1      40.326  24.462  27.364  1.00  0.00    -0.014 A 
BRANCH  36  37
ATOM     37  C   UNL A   1      41.185  25.652  27.742  1.00  0.00     0.031 A 
ATOM     38  C   UNL A   1      40.606  26.749  28.612  1.00  0.00     0.074 A 
ATOM     39  C   UNL A   1      42.509  25.758  27.468  1.00  0.00     0.049 A 
ATOM     40  N   UNL A   1      41.062  27.953  28.871  1.00  0.00    -0.248 NA
ATOM     41  C   UNL A   1      39.358  26.420  29.312  1.00  0.00     0.031 C 
ATOM     42  C   UNL A   1      43.344  24.722  26.866  1.00  0.00     0.029 A 
ATOM     43  N   UNL A   1      43.389  26.815  27.656  1.00  0.00    -0.354 N 
ATOM     44  C   UNL A   1      40.120  28.551  29.705  1.00  0.00     0.074 A 
ATOM     45  C   UNL A   1      39.093  27.556  29.943  1.00  0.00     0.031 C 
ATOM     46  C   UNL A   1      44.586  25.211  26.675  1.00  0.00     0.029 A 
ATOM     47  C   UNL A   1      44.627  26.618  27.082  1.00  0.00     0.049 A 
ATOM     48  H   UNL A   1      43.150  27.630  28.153  1.00  0.00     0.167 HD
ATOM     49  C   UNL A   1      40.092  29.814  30.204  1.00  0.00     0.037 A 
ATOM     50  C   UNL A   1      45.649  27.474  26.843  1.00  0.00     0.037 A 
ATOM     51  C   UNL A   1      41.119  30.808  29.998  1.00  0.00     0.049 A 
ATOM     52  C   UNL A   1      45.541  28.929  27.248  1.00  0.00     0.074 A 
ATOM     53  C   UNL A   1      41.145  32.126  30.427  1.00  0.00     0.029 A 
ATOM     54  N   UNL A   1      42.302  30.594  29.311  1.00  0.00    -0.354 N 
ATOM     55  N   UNL A   1      44.589  29.533  27.917  1.00  0.00    -0.248 NA
ATOM     56  C   UNL A   1      46.642  29.825  26.850  1.00  0.00     0.031 C 
ATOM     57  C   UNL A   1      42.313  32.727  29.942  1.00  0.00     0.029 A 
ATOM     58  C   UNL A   1      43.049  31.764  29.273  1.00  0.00     0.049 A 
ATOM     59  H   UNL A   1      42.574  29.739  28.908  1.00  0.00     0.167 HD
ATOM     60  C   UNL A   1      44.985  30.863  28.039  1.00  0.00     0.074 A 
ATOM     61  C   UNL A   1      46.272  30.978  27.390  1.00  0.00     0.031 C 
ATOM     62  C   UNL A   1      44.336  31.892  28.637  1.00  0.00     0.037 A 
BRANCH  49  63
ATOM     63  C   UNL A   1      38.848  30.237  30.938  1.00  0.00     0.057 A 
ATOM     64  C   UNL A   1      38.691  30.084  32.320  1.00  0.00     0.134 A 
ATOM     65  C   UNL A   1      37.790  30.830  30.232  1.00  0.00     0.134 A 
ATOM     66  F   UNL A   1      39.660  29.519  33.057  1.00  0.00    -0.206 F 
ATOM     67  C   UNL A   1      37.513  30.469  32.966  1.00  0.00     0.040 A 
ATOM     68  C   UNL A   1      36.622  31.247  30.871  1.00  0.00     0.040 A 
ATOM     69  F   UNL A   1      37.879  31.023  28.907  1.00  0.00    -0.206 F 
ATOM     70  C   UNL A   1      36.476  31.056  32.242  1.00  0.00     0.006 A 
ENDBRANCH  49  63
BRANCH  50  71
ATOM     71  C   UNL A   1      46.851  27.022  26.076  1.00  0.00     0.057 A 
ATOM     72  C   UNL A   1      47.966  26.455  26.710  1.00  0.00     0.134 A 
ATOM     73  C   UNL A   1      46.943  27.218  24.691  1.00  0.00     0.134 A 
ATOM     74  F   UNL A   1      47.974  26.289  28.041  1.00  0.00    -0.206 F 
ATOM     75  C   UNL A   1      49.118  26.100  25.998  1.00  0.00     0.040 A 
ATOM     76  C   UNL A   1      48.075  26.841  23.964  1.00  0.00     0.040 A 
ATOM     77  F   UNL A   1      45.932  27.789  24.020  1.00  0.00    -0.206 F 
ATOM     78  C   UNL A   1      49.169  26.283  24.619  1.00  0.00     0.006 A 
ENDBRANCH  50  71
BRANCH  62  79
ATOM     79  C   UNL A   1      45.018  33.234  28.670  1.00  0.00     0.057 A 
ATOM     80  C   UNL A   1      44.793  34.213  27.692  1.00  0.00     0.134 A 
ATOM     81  C   UNL A   1      45.886  33.568  29.718  1.00  0.00     0.134 A 
ATOM     82  F   UNL A   1      43.981  33.961  26.653  1.00  0.00    -0.206 F 
ATOM     83  C   UNL A   1      45.424  35.458  27.741  1.00  0.00     0.040 A 
ATOM     84  C   UNL A   1      46.501  34.820  29.795  1.00  0.00     0.040 A 
ATOM     85  F   UNL A   1      46.142  32.686  30.697  1.00  0.00    -0.206 F 
ATOM     86  C   UNL A   1      46.276  35.767  28.800  1.00  0.00     0.006 A 
ENDBRANCH  62  79
ENDBRANCH  36  37
ENDBRANCH  29  31
ENDBRANCH  28  29
ENDBRANCH  27  28
ENDBRANCH  26  27
ENDBRANCH   1  26
TORSDOF 18
ENDMDL
MODEL 3
REMARK VINA RESULT:     -11.1      4.224      7.695
REMARK SMILES C[C@H](O)[C@H](NC(=O)N1CC[N@@H+]2CCC[C@@H]2C1)C(=O)OCCOCCOC(=O)c1ccc(-c2c3nc(c(-c4c(F)cccc4F)c4ccc([nH]4)c(-c4c(F)cccc4F)c4nc(c(-c5c(F)cccc5F)c5ccc2[nH]5)C=C4)C=C3)cc1
REMARK SMILES IDX 22 1 21 2 20 3 19 4 17 5 18 6 4 7 2 8 1 9 3 10 5 12 6 13
REMARK SMILES IDX 7 15 8 16 9 17 16 18 10 19 15 20 11 21 14 22 12 23 13 25
REMARK SMILES IDX 23 26 24 27 25 28 26 29 27 30 28 31 29 32 81 33 30 34 80 35
REMARK SMILES IDX 31 36 32 37 33 38 74 39 34 40 79 41 73 42 75 43 35 44 78 45
REMARK SMILES IDX 72 46 71 47 36 49 62 50 45 51 61 52 46 53 49 54 60 55 76 56
REMARK SMILES IDX 47 57 48 58 59 60 77 61 50 62 37 63 38 64 43 65 39 66 40 67
REMARK SMILES IDX 42 68 44 69 41 70 63 71 64 72 69 73 65 74 66 75 68 76 70 77
REMARK SMILES IDX 67 78 51 79 52 80 57 81 53 82 54 83 56 84 58 85 55 86
REMARK H PARENT 3 11 5 14 11 24 75 48 49 59
REMARK Flexibility Score: inf
ROOT
ATOM      1  O   UNL A   1      31.953  29.219  24.165  1.00  0.00    -0.374 OA
ENDROOT
BRANCH   1   2
ATOM      2  C   UNL A   1      33.343  29.053  23.793  1.00  0.00     0.202 C 
BRANCH   2   3
ATOM      3  C   UNL A   1      33.504  27.988  22.645  1.00  0.00     0.261 C 
BRANCH   3   4
ATOM      4  O   UNL A   1      33.772  26.667  23.105  1.00  0.00    -0.462 OA
BRANCH   4   5
ATOM      5  C   UNL A   1      33.196  25.739  22.303  1.00  0.00     0.331 C 
ATOM      6  O   UNL A   1      33.274  25.763  21.086  1.00  0.00    -0.250 OA
BRANCH   5   7
ATOM      7  C   UNL A   1      32.476  24.674  23.123  1.00  0.00     0.222 C 
BRANCH   7   8
ATOM      8  C   UNL A   1      30.975  24.949  22.884  1.00  0.00     0.145 C 
ATOM      9  C   UNL A   1      30.427  26.053  23.774  1.00  0.00     0.041 C 
BRANCH   8  10
ATOM     10  O   UNL A   1      30.217  23.756  23.092  1.00  0.00    -0.391 OA
ATOM     11  H   UNL A   1      29.291  23.916  22.851  1.00  0.00     0.211 HD
ENDBRANCH   8  10
ENDBRANCH   7   8
BRANCH   7  12
ATOM     12  N   UNL A   1      32.891  24.569  24.574  1.00  0.00    -0.322 N 
ATOM     13  C   UNL A   1      33.005  23.341  25.187  1.00  0.00     0.318 C 
ATOM     14  H   UNL A   1      33.080  25.388  25.087  1.00  0.00     0.166 HD
ATOM     15  O   UNL A   1      31.924  22.956  25.622  1.00  0.00    -0.249 OA
BRANCH  13  16
ATOM     16  N   UNL A   1      34.267  22.726  25.352  1.00  0.00    -0.313 N 
ATOM     17  C   UNL A   1      34.480  21.446  24.717  1.00  0.00     0.183 C 
ATOM     18  C   UNL A   1      35.526  23.222  26.108  1.00  0.00     0.186 C 
ATOM     19  C   UNL A   1      35.871  20.837  25.044  1.00  0.00     0.284 C 
ATOM     20  C   UNL A   1      36.912  23.049  25.487  1.00  0.00     0.204 C 
ATOM     21  N   UNL A   1      37.069  21.708  24.890  1.00  0.00    -0.330 N 
ATOM     22  C   UNL A   1      38.089  23.281  26.444  1.00  0.00     0.073 C 
ATOM     23  C   UNL A   1      38.252  21.117  25.530  1.00  0.00     0.262 C 
ATOM     24  H   UNL A   1      37.182  21.792  23.880  1.00  0.00     0.348 HD
ATOM     25  C   UNL A   1      39.118  22.308  25.905  1.00  0.00     0.068 C 
ENDBRANCH  13  16
ENDBRANCH   7  12
ENDBRANCH   5   7
ENDBRANCH   4   5
ENDBRANCH   3   4
ENDBRANCH   2   3
ENDBRANCH   1   2
BRANCH   1  26
ATOM     26  C   UNL A   1      31.516  29.342  25.531  1.00  0.00     0.202 C 
BRANCH  26  27
ATOM     27  C   UNL A   1      32.430  28.640  26.769  1.00  0.00     0.261 C 
BRANCH  27  28
ATOM     28  O   UNL A   1      33.815  29.132  27.527  1.00  0.00    -0.460 OA
BRANCH  28  29
ATOM     29  C   UNL A   1      34.865  29.977  27.917  1.00  0.00     0.338 C 
ATOM     30  O   UNL A   1      34.495  31.130  28.202  1.00  0.00    -0.246 OA
BRANCH  29  31
ATOM     31  C   UNL A   1      36.438  29.865  28.189  1.00  0.00     0.060 A 
ATOM     32  C   UNL A   1      37.408  29.867  27.178  1.00  0.00     0.016 A 
ATOM     33  C   UNL A   1      36.983  29.326  29.368  1.00  0.00     0.016 A 
ATOM     34  C   UNL A   1      38.786  29.506  27.261  1.00  0.00     0.010 A 
ATOM     35  C   UNL A   1      38.385  28.923  29.491  1.00  0.00     0.010 A 
ATOM     36  C   UNL A   1      39.317  29.016  28.433  1.00  0.00    -0.014 A 
BRANCH  36  37
ATOM     37  C   UNL A   1      40.734  28.477  28.447  1.00  0.00     0.031 A 
ATOM     38  C   UNL A   1      41.885  29.403  28.782  1.00  0.00     0.074 A 
ATOM     39  C   UNL A   1      41.056  27.167  28.311  1.00  0.00     0.049 A 
ATOM     40  N   UNL A   1      43.179  29.233  28.634  1.00  0.00    -0.248 NA
ATOM     41  C   UNL A   1      41.519  30.683  29.402  1.00  0.00     0.031 C 
ATOM     42  C   UNL A   1      40.110  26.056  28.232  1.00  0.00     0.029 A 
ATOM     43  N   UNL A   1      42.292  26.547  28.201  1.00  0.00    -0.354 N 
ATOM     44  C   UNL A   1      43.776  30.411  29.075  1.00  0.00     0.074 A 
ATOM     45  C   UNL A   1      42.702  31.267  29.538  1.00  0.00     0.031 C 
ATOM     46  C   UNL A   1      40.790  24.911  28.023  1.00  0.00     0.029 A 
ATOM     47  C   UNL A   1      42.218  25.206  27.888  1.00  0.00     0.049 A 
ATOM     48  H   UNL A   1      43.144  27.021  28.333  1.00  0.00     0.167 HD
ATOM     49  C   UNL A   1      45.087  30.765  29.069  1.00  0.00     0.037 A 
ATOM     50  C   UNL A   1      43.164  24.330  27.474  1.00  0.00     0.037 A 
ATOM     51  C   UNL A   1      46.172  29.915  28.636  1.00  0.00     0.049 A 
ATOM     52  C   UNL A   1      44.600  24.777  27.303  1.00  0.00     0.074 A 
ATOM     53  C   UNL A   1      47.523  30.213  28.552  1.00  0.00     0.029 A 
ATOM     54  N   UNL A   1      46.031  28.602  28.218  1.00  0.00    -0.354 N 
ATOM     55  N   UNL A   1      45.147  25.934  27.588  1.00  0.00    -0.248 NA
ATOM     56  C   UNL A   1      45.549  23.801  26.736  1.00  0.00     0.031 C 
ATOM     57  C   UNL A   1      48.190  29.102  28.022  1.00  0.00     0.029 A 
ATOM     58  C   UNL A   1      47.265  28.088  27.843  1.00  0.00     0.049 A 
ATOM     59  H   UNL A   1      45.182  28.106  28.192  1.00  0.00     0.167 HD
ATOM     60  C   UNL A   1      46.495  25.817  27.260  1.00  0.00     0.074 A 
ATOM     61  C   UNL A   1      46.693  24.472  26.769  1.00  0.00     0.031 C 
ATOM     62  C   UNL A   1      47.478  26.747  27.360  1.00  0.00     0.037 A 
BRANCH  49  63
ATOM     63  C   UNL A   1      45.420  32.183  29.446  1.00  0.00     0.057 A 
ATOM     64  C   UNL A   1      45.364  33.246  28.538  1.00  0.00     0.134 A 
ATOM     65  C   UNL A   1      45.792  32.484  30.766  1.00  0.00     0.134 A 
ATOM     66  F   UNL A   1      45.023  33.030  27.258  1.00  0.00    -0.206 F 
ATOM     67  C   UNL A   1      45.702  34.548  28.917  1.00  0.00     0.040 A 
ATOM     68  C   UNL A   1      46.101  33.785  31.164  1.00  0.00     0.040 A 
ATOM     69  F   UNL A   1      45.851  31.517  31.694  1.00  0.00    -0.206 F 
ATOM     70  C   UNL A   1      46.068  34.821  30.235  1.00  0.00     0.006 A 
ENDBRANCH  49  63
BRANCH  50  71
ATOM     71  C   UNL A   1      42.785  22.940  27.072  1.00  0.00     0.057 A 
ATOM     72  C   UNL A   1      42.507  21.943  28.018  1.00  0.00     0.134 A 
ATOM     73  C   UNL A   1      42.765  22.556  25.724  1.00  0.00     0.134 A 
ATOM     74  F   UNL A   1      42.564  22.222  29.329  1.00  0.00    -0.206 F 
ATOM     75  C   UNL A   1      42.223  20.626  27.640  1.00  0.00     0.040 A 
ATOM     76  C   UNL A   1      42.453  21.251  25.331  1.00  0.00     0.040 A 
ATOM     77  F   UNL A   1      43.055  23.444  24.763  1.00  0.00    -0.206 F 
ATOM     78  C   UNL A   1      42.185  20.280  26.292  1.00  0.00     0.006 A 
ENDBRANCH  50  71
BRANCH  62  79
ATOM     79  C   UNL A   1      48.877  26.339  26.978  1.00  0.00     0.057 A 
ATOM     80  C   UNL A   1      49.734  25.679  27.869  1.00  0.00     0.134 A 
ATOM     81  C   UNL A   1      49.362  26.578  25.685  1.00  0.00     0.134 A 
ATOM     82  F   UNL A   1      49.342  25.424  29.127  1.00  0.00    -0.206 F 
ATOM     83  C   UNL A   1      51.026  25.297  27.497  1.00  0.00     0.040 A 
ATOM     84  C   UNL A   1      50.640  26.176  25.292  1.00  0.00     0.040 A 
ATOM     85  F   UNL A   1      48.595  27.196  24.774  1.00  0.00    -0.206 F 
ATOM     86  C   UNL A   1      51.479  25.539  26.202  1.00  0.00     0.006 A 
ENDBRANCH  62  79
ENDBRANCH  36  37
ENDBRANCH  29  31
ENDBRANCH  28  29
ENDBRANCH  27  28
ENDBRANCH  26  27
ENDBRANCH   1  26
TORSDOF 18
ENDMDL
