MODEL 1
REMARK VINA RESULT:     -12.1      0.000      0.000
REMARK SMILES O=C(OCCOCCOC(=O)[C@@H]1[C@@H](C(=O)NCc2ccccc2OCc2ccccc2)[C@@H]2C=C[C@H]1C2)c1ccc(-c2c3nc(c(-c4c(F)cccc4F)c4ccc([nH]4)c(-c4c(F)cccc4F)c4nc(c(-c5c(F)cccc5F)c5ccc2[nH]5)C=C4)C=C3)cc1
REMARK SMILES IDX 8 1 7 2 6 3 5 4 4 5 3 6 2 7 1 8 37 9 38 10 90 11 39 12 89 13
REMARK SMILES IDX 40 14 41 15 42 16 83 17 43 18 88 19 82 20 84 21 44 22 87 23
REMARK SMILES IDX 81 24 80 25 45 27 71 28 54 29 70 30 55 31 58 32 69 33 85 34
REMARK SMILES IDX 56 35 57 36 68 38 86 39 59 40 46 41 47 42 52 43 48 44 49 45
REMARK SMILES IDX 51 46 53 47 50 48 72 49 73 50 78 51 74 52 75 53 77 54 79 55
REMARK SMILES IDX 76 56 60 57 61 58 66 59 62 60 63 61 65 62 67 63 64 64 9 65
REMARK SMILES IDX 10 66 11 67 12 68 13 69 35 70 32 71 34 72 36 73 33 74 14 75
REMARK SMILES IDX 15 76 16 77 17 79 18 80 19 81 23 82 20 83 22 84 21 85 24 86
REMARK SMILES IDX 25 87 26 88 27 89 31 90 28 91 30 92 29 93
REMARK H PARENT 84 26 58 37 16 78
REMARK Flexibility Score: inf
ROOT
ATOM      1  C   UNL A   1      33.442  30.420  26.825  1.00  0.00     0.261 C 
ENDROOT
BRANCH   1   2
ATOM      2  C   UNL A   1      34.235  31.185  27.879  1.00  0.00     0.202 C 
BRANCH   2   3
ATOM      3  O   UNL A   1      33.595  32.438  28.128  1.00  0.00    -0.374 OA
BRANCH   3   4
ATOM      4  C   UNL A   1      34.390  33.468  28.706  1.00  0.00     0.202 C 
BRANCH   4   5
ATOM      5  C   UNL A   1      34.399  33.664  30.225  1.00  0.00     0.261 C 
BRANCH   5   6
ATOM      6  O   UNL A   1      34.478  32.453  30.990  1.00  0.00    -0.460 OA
BRANCH   6   7
ATOM      7  C   UNL A   1      35.475  32.173  31.867  1.00  0.00     0.338 C 
ATOM      8  O   UNL A   1      35.367  32.419  33.059  1.00  0.00    -0.246 OA
BRANCH   7   9
ATOM      9  C   UNL A   1      36.712  31.552  31.350  1.00  0.00     0.060 A 
ATOM     10  C   UNL A   1      37.160  31.817  30.060  1.00  0.00     0.016 A 
ATOM     11  C   UNL A   1      37.478  30.750  32.193  1.00  0.00     0.016 A 
ATOM     12  C   UNL A   1      38.255  31.157  29.539  1.00  0.00     0.010 A 
ATOM     13  C   UNL A   1      38.679  30.214  31.721  1.00  0.00     0.010 A 
ATOM     14  C   UNL A   1      39.069  30.406  30.384  1.00  0.00    -0.014 A 
BRANCH  14  15
ATOM     15  C   UNL A   1      40.348  29.871  29.869  1.00  0.00     0.031 A 
ATOM     16  C   UNL A   1      41.553  30.759  29.832  1.00  0.00     0.074 A 
ATOM     17  C   UNL A   1      40.413  28.590  29.452  1.00  0.00     0.049 A 
ATOM     18  N   UNL A   1      42.689  30.584  29.215  1.00  0.00    -0.248 NA
ATOM     19  C   UNL A   1      41.458  32.025  30.578  1.00  0.00     0.031 C 
ATOM     20  C   UNL A   1      39.316  27.615  29.516  1.00  0.00     0.029 A 
ATOM     21  N   UNL A   1      41.445  27.876  28.902  1.00  0.00    -0.354 N 
ATOM     22  C   UNL A   1      43.417  31.744  29.438  1.00  0.00     0.074 A 
ATOM     23  C   UNL A   1      42.602  32.612  30.258  1.00  0.00     0.031 C 
ATOM     24  C   UNL A   1      39.748  26.426  29.077  1.00  0.00     0.029 A 
ATOM     25  C   UNL A   1      41.107  26.581  28.583  1.00  0.00     0.049 A 
ATOM     26  H   UNL A   1      42.342  28.252  28.751  1.00  0.00     0.167 HD
ATOM     27  C   UNL A   1      44.651  32.050  28.976  1.00  0.00     0.037 A 
ATOM     28  C   UNL A   1      41.795  25.645  27.905  1.00  0.00     0.037 A 
ATOM     29  C   UNL A   1      45.443  31.145  28.187  1.00  0.00     0.049 A 
ATOM     30  C   UNL A   1      43.144  26.025  27.368  1.00  0.00     0.074 A 
ATOM     31  C   UNL A   1      46.689  31.344  27.623  1.00  0.00     0.029 A 
ATOM     32  N   UNL A   1      45.058  29.848  27.867  1.00  0.00    -0.354 N 
ATOM     33  N   UNL A   1      43.795  27.158  27.502  1.00  0.00    -0.248 NA
ATOM     34  C   UNL A   1      43.841  25.019  26.561  1.00  0.00     0.031 C 
ATOM     35  C   UNL A   1      47.044  30.178  26.935  1.00  0.00     0.029 A 
ATOM     36  C   UNL A   1      46.040  29.236  27.109  1.00  0.00     0.049 A 
ATOM     37  H   UNL A   1      44.211  29.426  28.139  1.00  0.00     0.167 HD
ATOM     38  C   UNL A   1      44.983  26.997  26.808  1.00  0.00     0.074 A 
ATOM     39  C   UNL A   1      44.972  25.648  26.273  1.00  0.00     0.031 C 
ATOM     40  C   UNL A   1      45.990  27.884  26.614  1.00  0.00     0.037 A 
BRANCH  27  41
ATOM     41  C   UNL A   1      45.168  33.430  29.258  1.00  0.00     0.057 A 
ATOM     42  C   UNL A   1      45.941  33.725  30.389  1.00  0.00     0.134 A 
ATOM     43  C   UNL A   1      44.862  34.489  28.393  1.00  0.00     0.134 A 
ATOM     44  F   UNL A   1      46.246  32.763  31.273  1.00  0.00    -0.206 F 
ATOM     45  C   UNL A   1      46.365  35.028  30.664  1.00  0.00     0.040 A 
ATOM     46  C   UNL A   1      45.302  35.790  28.644  1.00  0.00     0.040 A 
ATOM     47  F   UNL A   1      44.123  34.279  27.294  1.00  0.00    -0.206 F 
ATOM     48  C   UNL A   1      46.048  36.064  29.788  1.00  0.00     0.006 A 
ENDBRANCH  27  41
BRANCH  28  49
ATOM     49  C   UNL A   1      41.200  24.308  27.641  1.00  0.00     0.057 A 
ATOM     50  C   UNL A   1      41.642  23.168  28.321  1.00  0.00     0.134 A 
ATOM     51  C   UNL A   1      40.177  24.131  26.697  1.00  0.00     0.134 A 
ATOM     52  F   UNL A   1      42.630  23.263  29.224  1.00  0.00    -0.206 F 
ATOM     53  C   UNL A   1      41.105  21.905  28.064  1.00  0.00     0.040 A 
ATOM     54  C   UNL A   1      39.609  22.880  26.453  1.00  0.00     0.040 A 
ATOM     55  F   UNL A   1      39.701  25.180  26.009  1.00  0.00    -0.206 F 
ATOM     56  C   UNL A   1      40.080  21.759  27.131  1.00  0.00     0.006 A 
ENDBRANCH  28  49
BRANCH  40  57
ATOM     57  C   UNL A   1      47.170  27.394  25.834  1.00  0.00     0.057 A 
ATOM     58  C   UNL A   1      48.231  26.719  26.449  1.00  0.00     0.134 A 
ATOM     59  C   UNL A   1      47.220  27.566  24.446  1.00  0.00     0.134 A 
ATOM     60  F   UNL A   1      48.245  26.540  27.778  1.00  0.00    -0.206 F 
ATOM     61  C   UNL A   1      49.313  26.246  25.708  1.00  0.00     0.040 A 
ATOM     62  C   UNL A   1      48.284  27.077  23.692  1.00  0.00     0.040 A 
ATOM     63  F   UNL A   1      46.228  28.201  23.803  1.00  0.00    -0.206 F 
ATOM     64  C   UNL A   1      49.337  26.418  24.324  1.00  0.00     0.006 A 
ENDBRANCH  40  57
ENDBRANCH  14  15
ENDBRANCH   7   9
ENDBRANCH   6   7
ENDBRANCH   5   6
ENDBRANCH   4   5
ENDBRANCH   3   4
ENDBRANCH   2   3
ENDBRANCH   1   2
BRANCH   1  65
ATOM     65  O   UNL A   1      33.182  29.112  27.367  1.00  0.00    -0.463 OA
BRANCH  65  66
ATOM     66  C   UNL A   1      33.424  28.086  26.511  1.00  0.00     0.310 C 
ATOM     67  O   UNL A   1      34.508  27.861  25.985  1.00  0.00    -0.252 OA
BRANCH  66  68
ATOM     68  C   UNL A   1      32.174  27.272  26.245  1.00  0.00     0.119 C 
ATOM     69  C   UNL A   1      32.363  25.964  25.384  1.00  0.00     0.100 C 
ATOM     70  C   UNL A   1      31.199  28.109  25.363  1.00  0.00     0.027 C 
ATOM     71  C   UNL A   1      31.425  26.245  24.187  1.00  0.00     0.025 C 
ATOM     72  C   UNL A   1      31.863  28.474  24.044  1.00  0.00    -0.027 C 
ATOM     73  C   UNL A   1      30.279  27.012  24.847  1.00  0.00     0.017 C 
ATOM     74  C   UNL A   1      32.003  27.344  23.341  1.00  0.00    -0.027 C 
BRANCH  69  75
ATOM     75  C   UNL A   1      31.950  24.663  26.073  1.00  0.00     0.224 C 
ATOM     76  O   UNL A   1      31.391  24.654  27.168  1.00  0.00    -0.275 OA
ATOM     77  N   UNL A   1      32.221  23.460  25.467  1.00  0.00    -0.352 N 
ATOM     78  H   UNL A   1      31.886  22.667  25.943  1.00  0.00     0.163 HD
BRANCH  77  79
ATOM     79  C   UNL A   1      32.931  23.184  24.222  1.00  0.00     0.155 C 
BRANCH  79  80
ATOM     80  C   UNL A   1      34.358  22.719  24.386  1.00  0.00     0.013 A 
ATOM     81  C   UNL A   1      35.325  23.327  23.547  1.00  0.00     0.009 A 
ATOM     82  C   UNL A   1      34.769  21.623  25.171  1.00  0.00     0.124 A 
ATOM     83  C   UNL A   1      36.639  22.859  23.467  1.00  0.00     0.001 A 
ATOM     84  C   UNL A   1      36.092  21.150  25.053  1.00  0.00     0.047 A 
ATOM     85  C   UNL A   1      37.020  21.757  24.212  1.00  0.00     0.004 A 
BRANCH  82  86
ATOM     86  O   UNL A   1      34.059  20.821  26.016  1.00  0.00    -0.489 OA
BRANCH  86  87
ATOM     87  C   UNL A   1      32.970  19.975  25.638  1.00  0.00     0.265 C 
BRANCH  87  88
ATOM     88  C   UNL A   1      33.221  18.879  24.628  1.00  0.00    -0.011 A 
ATOM     89  C   UNL A   1      34.200  17.910  24.895  1.00  0.00     0.007 A 
ATOM     90  C   UNL A   1      32.473  18.759  23.453  1.00  0.00     0.007 A 
ATOM     91  C   UNL A   1      34.543  16.950  23.946  1.00  0.00     0.000 A 
ATOM     92  C   UNL A   1      32.781  17.766  22.520  1.00  0.00     0.000 A 
ATOM     93  C   UNL A   1      33.838  16.885  22.750  1.00  0.00     0.000 A 
ENDBRANCH  87  88
ENDBRANCH  86  87
ENDBRANCH  82  86
ENDBRANCH  79  80
ENDBRANCH  77  79
ENDBRANCH  69  75
ENDBRANCH  66  68
ENDBRANCH  65  66
ENDBRANCH   1  65
TORSDOF 20
ENDMDL
MODEL 2
REMARK VINA RESULT:     -11.9      4.211      9.736
REMARK SMILES O=C(OCCOCCOC(=O)[C@@H]1[C@@H](C(=O)NCc2ccccc2OCc2ccccc2)[C@@H]2C=C[C@H]1C2)c1ccc(-c2c3nc(c(-c4c(F)cccc4F)c4ccc([nH]4)c(-c4c(F)cccc4F)c4nc(c(-c5c(F)cccc5F)c5ccc2[nH]5)C=C4)C=C3)cc1
REMARK SMILES IDX 8 1 7 2 6 3 5 4 4 5 3 6 2 7 1 8 37 9 38 10 90 11 39 12 89 13
REMARK SMILES IDX 40 14 41 15 42 16 83 17 43 18 88 19 82 20 84 21 44 22 87 23
REMARK SMILES IDX 81 24 80 25 45 27 71 28 54 29 70 30 55 31 58 32 69 33 85 34
REMARK SMILES IDX 56 35 57 36 68 38 86 39 59 40 46 41 47 42 52 43 48 44 49 45
REMARK SMILES IDX 51 46 53 47 50 48 72 49 73 50 78 51 74 52 75 53 77 54 79 55
REMARK SMILES IDX 76 56 60 57 61 58 66 59 62 60 63 61 65 62 67 63 64 64 9 65
REMARK SMILES IDX 10 66 11 67 12 68 13 69 35 70 32 71 34 72 36 73 33 74 14 75
REMARK SMILES IDX 15 76 16 77 17 79 18 80 19 81 23 82 20 83 22 84 21 85 24 86
REMARK SMILES IDX 25 87 26 88 27 89 31 90 28 91 30 92 29 93
REMARK H PARENT 84 26 58 37 16 78
REMARK Flexibility Score: inf
ROOT
ATOM      1  C   UNL A   1      37.536  21.870  25.458  1.00  0.00     0.261 C 
ENDROOT
BRANCH   1   2
ATOM      2  C   UNL A   1      38.834  21.070  25.462  1.00  0.00     0.202 C 
BRANCH   2   3
ATOM      3  O   UNL A   1      39.650  21.507  26.550  1.00  0.00    -0.374 OA
BRANCH   3   4
ATOM      4  C   UNL A   1      40.842  20.771  26.803  1.00  0.00     0.202 C 
BRANCH   4   5
ATOM      5  C   UNL A   1      42.047  20.923  25.869  1.00  0.00     0.261 C 
BRANCH   5   6
ATOM      6  O   UNL A   1      42.973  21.953  26.242  1.00  0.00    -0.460 OA
BRANCH   6   7
ATOM      7  C   UNL A   1      42.924  23.225  25.772  1.00  0.00     0.338 C 
ATOM      8  O   UNL A   1      43.154  23.484  24.600  1.00  0.00    -0.246 OA
BRANCH   7   9
ATOM      9  C   UNL A   1      42.580  24.309  26.714  1.00  0.00     0.060 A 
ATOM     10  C   UNL A   1      41.725  24.080  27.788  1.00  0.00     0.016 A 
ATOM     11  C   UNL A   1      43.179  25.559  26.568  1.00  0.00     0.016 A 
ATOM     12  C   UNL A   1      41.319  25.115  28.606  1.00  0.00     0.010 A 
ATOM     13  C   UNL A   1      42.899  26.565  27.496  1.00  0.00     0.010 A 
ATOM     14  C   UNL A   1      41.956  26.351  28.516  1.00  0.00    -0.014 A 
BRANCH  14  15
ATOM     15  C   UNL A   1      41.662  27.391  29.527  1.00  0.00     0.031 A 
ATOM     16  C   UNL A   1      42.507  27.476  30.759  1.00  0.00     0.074 A 
ATOM     17  C   UNL A   1      40.646  28.253  29.317  1.00  0.00     0.049 A 
ATOM     18  N   UNL A   1      42.292  28.134  31.864  1.00  0.00    -0.248 NA
ATOM     19  C   UNL A   1      43.758  26.698  30.751  1.00  0.00     0.031 C 
ATOM     20  C   UNL A   1      39.807  28.306  28.113  1.00  0.00     0.029 A 
ATOM     21  N   UNL A   1      40.148  29.261  30.100  1.00  0.00    -0.354 N 
ATOM     22  C   UNL A   1      43.340  27.797  32.710  1.00  0.00     0.074 A 
ATOM     23  C   UNL A   1      44.199  26.886  31.987  1.00  0.00     0.031 C 
ATOM     24  C   UNL A   1      38.940  29.322  28.216  1.00  0.00     0.029 A 
ATOM     25  C   UNL A   1      39.074  29.911  29.538  1.00  0.00     0.049 A 
ATOM     26  H   UNL A   1      40.524  29.498  30.978  1.00  0.00     0.167 HD
ATOM     27  C   UNL A   1      43.543  28.208  33.983  1.00  0.00     0.037 A 
ATOM     28  C   UNL A   1      38.246  30.833  30.061  1.00  0.00     0.037 A 
ATOM     29  C   UNL A   1      42.680  29.141  34.656  1.00  0.00     0.049 A 
ATOM     30  C   UNL A   1      38.469  31.239  31.489  1.00  0.00     0.074 A 
ATOM     31  C   UNL A   1      42.748  29.608  35.955  1.00  0.00     0.029 A 
ATOM     32  N   UNL A   1      41.588  29.763  34.061  1.00  0.00    -0.354 N 
ATOM     33  N   UNL A   1      39.408  30.850  32.319  1.00  0.00    -0.248 NA
ATOM     34  C   UNL A   1      37.505  32.182  32.065  1.00  0.00     0.031 C 
ATOM     35  C   UNL A   1      41.679  30.489  36.155  1.00  0.00     0.029 A 
ATOM     36  C   UNL A   1      40.972  30.607  34.967  1.00  0.00     0.049 A 
ATOM     37  H   UNL A   1      41.296  29.624  33.131  1.00  0.00     0.167 HD
ATOM     38  C   UNL A   1      39.158  31.509  33.512  1.00  0.00     0.074 A 
ATOM     39  C   UNL A   1      37.991  32.341  33.289  1.00  0.00     0.031 C 
ATOM     40  C   UNL A   1      39.821  31.429  34.692  1.00  0.00     0.037 A 
BRANCH  27  41
ATOM     41  C   UNL A   1      44.693  27.596  34.727  1.00  0.00     0.057 A 
ATOM     42  C   UNL A   1      44.568  26.404  35.454  1.00  0.00     0.134 A 
ATOM     43  C   UNL A   1      45.944  28.227  34.737  1.00  0.00     0.134 A 
ATOM     44  F   UNL A   1      43.391  25.763  35.510  1.00  0.00    -0.206 F 
ATOM     45  C   UNL A   1      45.636  25.881  36.186  1.00  0.00     0.040 A 
ATOM     46  C   UNL A   1      47.025  27.701  35.444  1.00  0.00     0.040 A 
ATOM     47  F   UNL A   1      46.133  29.373  34.065  1.00  0.00    -0.206 F 
ATOM     48  C   UNL A   1      46.871  26.528  36.180  1.00  0.00     0.006 A 
ENDBRANCH  27  41
BRANCH  28  49
ATOM     49  C   UNL A   1      37.109  31.370  29.267  1.00  0.00     0.057 A 
ATOM     50  C   UNL A   1      35.962  30.605  29.032  1.00  0.00     0.134 A 
ATOM     51  C   UNL A   1      37.139  32.660  28.716  1.00  0.00     0.134 A 
ATOM     52  F   UNL A   1      35.874  29.355  29.513  1.00  0.00    -0.206 F 
ATOM     53  C   UNL A   1      34.898  31.091  28.269  1.00  0.00     0.040 A 
ATOM     54  C   UNL A   1      36.070  33.171  27.980  1.00  0.00     0.040 A 
ATOM     55  F   UNL A   1      38.205  33.452  28.905  1.00  0.00    -0.206 F 
ATOM     56  C   UNL A   1      34.948  32.381  27.745  1.00  0.00     0.006 A 
ENDBRANCH  28  49
BRANCH  40  57
ATOM     57  C   UNL A   1      39.318  32.300  35.800  1.00  0.00     0.057 A 
ATOM     58  C   UNL A   1      39.754  33.620  35.955  1.00  0.00     0.134 A 
ATOM     59  C   UNL A   1      38.355  31.818  36.695  1.00  0.00     0.134 A 
ATOM     60  F   UNL A   1      40.688  34.129  35.137  1.00  0.00    -0.206 F 
ATOM     61  C   UNL A   1      39.260  34.429  36.978  1.00  0.00     0.040 A 
ATOM     62  C   UNL A   1      37.837  32.625  37.705  1.00  0.00     0.040 A 
ATOM     63  F   UNL A   1      37.897  30.561  36.592  1.00  0.00    -0.206 F 
ATOM     64  C   UNL A   1      38.292  33.934  37.851  1.00  0.00     0.006 A 
ENDBRANCH  40  57
ENDBRANCH  14  15
ENDBRANCH   7   9
ENDBRANCH   6   7
ENDBRANCH   5   6
ENDBRANCH   4   5
ENDBRANCH   3   4
ENDBRANCH   2   3
ENDBRANCH   1   2
BRANCH   1  65
ATOM     65  O   UNL A   1      36.463  20.925  25.623  1.00  0.00    -0.463 OA
BRANCH  65  66
ATOM     66  C   UNL A   1      35.255  21.482  25.898  1.00  0.00     0.310 C 
ATOM     67  O   UNL A   1      34.788  21.608  27.024  1.00  0.00    -0.252 OA
BRANCH  66  68
ATOM     68  C   UNL A   1      34.526  21.889  24.633  1.00  0.00     0.119 C 
ATOM     69  C   UNL A   1      33.508  23.086  24.769  1.00  0.00     0.100 C 
ATOM     70  C   UNL A   1      33.600  20.720  24.181  1.00  0.00     0.027 C 
ATOM     71  C   UNL A   1      32.187  22.421  24.319  1.00  0.00     0.025 C 
ATOM     72  C   UNL A   1      32.591  20.393  25.270  1.00  0.00    -0.027 C 
ATOM     73  C   UNL A   1      32.664  21.457  23.232  1.00  0.00     0.017 C 
ATOM     74  C   UNL A   1      31.745  21.426  25.354  1.00  0.00    -0.027 C 
BRANCH  69  75
ATOM     75  C   UNL A   1      33.806  24.300  23.889  1.00  0.00     0.224 C 
ATOM     76  O   UNL A   1      34.502  24.217  22.878  1.00  0.00    -0.275 OA
ATOM     77  N   UNL A   1      33.298  25.529  24.234  1.00  0.00    -0.352 N 
ATOM     78  H   UNL A   1      33.490  26.255  23.598  1.00  0.00     0.163 HD
BRANCH  77  79
ATOM     79  C   UNL A   1      32.518  25.917  25.404  1.00  0.00     0.155 C 
BRANCH  79  80
ATOM     80  C   UNL A   1      32.406  27.406  25.637  1.00  0.00     0.013 A 
ATOM     81  C   UNL A   1      32.231  27.827  26.979  1.00  0.00     0.009 A 
ATOM     82  C   UNL A   1      32.290  28.378  24.624  1.00  0.00     0.124 A 
ATOM     83  C   UNL A   1      31.929  29.151  27.307  1.00  0.00     0.001 A 
ATOM     84  C   UNL A   1      31.957  29.702  24.977  1.00  0.00     0.047 A 
ATOM     85  C   UNL A   1      31.777  30.089  26.301  1.00  0.00     0.004 A 
BRANCH  82  86
ATOM     86  O   UNL A   1      32.354  28.258  23.266  1.00  0.00    -0.489 OA
BRANCH  86  87
ATOM     87  C   UNL A   1      31.304  27.777  22.425  1.00  0.00     0.265 C 
BRANCH  87  88
ATOM     88  C   UNL A   1      29.892  28.246  22.689  1.00  0.00    -0.011 A 
ATOM     89  C   UNL A   1      29.015  27.416  23.404  1.00  0.00     0.007 A 
ATOM     90  C   UNL A   1      29.437  29.507  22.296  1.00  0.00     0.007 A 
ATOM     91  C   UNL A   1      27.675  27.758  23.573  1.00  0.00     0.000 A 
ATOM     92  C   UNL A   1      28.106  29.875  22.507  1.00  0.00     0.000 A 
ATOM     93  C   UNL A   1      27.218  28.986  23.113  1.00  0.00     0.000 A 
ENDBRANCH  87  88
ENDBRANCH  86  87
ENDBRANCH  82  86
ENDBRANCH  79  80
ENDBRANCH  77  79
ENDBRANCH  69  75
ENDBRANCH  66  68
ENDBRANCH  65  66
ENDBRANCH   1  65
TORSDOF 20
ENDMDL
MODEL 3
REMARK VINA RESULT:     -11.8      0.771      2.160
REMARK SMILES O=C(OCCOCCOC(=O)[C@@H]1[C@@H](C(=O)NCc2ccccc2OCc2ccccc2)[C@@H]2C=C[C@H]1C2)c1ccc(-c2c3nc(c(-c4c(F)cccc4F)c4ccc([nH]4)c(-c4c(F)cccc4F)c4nc(c(-c5c(F)cccc5F)c5ccc2[nH]5)C=C4)C=C3)cc1
REMARK SMILES IDX 8 1 7 2 6 3 5 4 4 5 3 6 2 7 1 8 37 9 38 10 90 11 39 12 89 13
REMARK SMILES IDX 40 14 41 15 42 16 83 17 43 18 88 19 82 20 84 21 44 22 87 23
REMARK SMILES IDX 81 24 80 25 45 27 71 28 54 29 70 30 55 31 58 32 69 33 85 34
REMARK SMILES IDX 56 35 57 36 68 38 86 39 59 40 46 41 47 42 52 43 48 44 49 45
REMARK SMILES IDX 51 46 53 47 50 48 72 49 73 50 78 51 74 52 75 53 77 54 79 55
REMARK SMILES IDX 76 56 60 57 61 58 66 59 62 60 63 61 65 62 67 63 64 64 9 65
REMARK SMILES IDX 10 66 11 67 12 68 13 69 35 70 32 71 34 72 36 73 33 74 14 75
REMARK SMILES IDX 15 76 16 77 17 79 18 80 19 81 23 82 20 83 22 84 21 85 24 86
REMARK SMILES IDX 25 87 26 88 27 89 31 90 28 91 30 92 29 93
REMARK H PARENT 84 26 58 37 16 78
REMARK Flexibility Score: inf
ROOT
ATOM      1  C   UNL A   1      33.285  29.990  27.167  1.00  0.00     0.261 C 
ENDROOT
BRANCH   1   2
ATOM      2  C   UNL A   1      32.254  31.078  26.888  1.00  0.00     0.202 C 
BRANCH   2   3
ATOM      3  O   UNL A   1      32.748  32.327  27.375  1.00  0.00    -0.374 OA
BRANCH   3   4
ATOM      4  C   UNL A   1      34.019  32.316  28.016  1.00  0.00     0.202 C 
BRANCH   4   5
ATOM      5  C   UNL A   1      34.220  33.080  29.328  1.00  0.00     0.261 C 
BRANCH   5   6
ATOM      6  O   UNL A   1      34.429  32.253  30.482  1.00  0.00    -0.460 OA
BRANCH   6   7
ATOM      7  C   UNL A   1      35.514  32.339  31.292  1.00  0.00     0.338 C 
ATOM      8  O   UNL A   1      35.470  32.931  32.361  1.00  0.00    -0.246 OA
BRANCH   7   9
ATOM      9  C   UNL A   1      36.768  31.693  30.857  1.00  0.00     0.060 A 
ATOM     10  C   UNL A   1      37.188  31.766  29.532  1.00  0.00     0.016 A 
ATOM     11  C   UNL A   1      37.579  31.066  31.801  1.00  0.00     0.016 A 
ATOM     12  C   UNL A   1      38.304  31.075  29.101  1.00  0.00     0.010 A 
ATOM     13  C   UNL A   1      38.795  30.509  31.397  1.00  0.00     0.010 A 
ATOM     14  C   UNL A   1      39.159  30.500  30.039  1.00  0.00    -0.014 A 
BRANCH  14  15
ATOM     15  C   UNL A   1      40.453  29.940  29.591  1.00  0.00     0.031 A 
ATOM     16  C   UNL A   1      41.658  30.826  29.544  1.00  0.00     0.074 A 
ATOM     17  C   UNL A   1      40.529  28.640  29.243  1.00  0.00     0.049 A 
ATOM     18  N   UNL A   1      42.812  30.621  28.971  1.00  0.00    -0.248 NA
ATOM     19  C   UNL A   1      41.542  32.129  30.220  1.00  0.00     0.031 C 
ATOM     20  C   UNL A   1      39.430  27.669  29.324  1.00  0.00     0.029 A 
ATOM     21  N   UNL A   1      41.577  27.899  28.761  1.00  0.00    -0.354 N 
ATOM     22  C   UNL A   1      43.534  31.792  29.155  1.00  0.00     0.074 A 
ATOM     23  C   UNL A   1      42.695  32.700  29.904  1.00  0.00     0.031 C 
ATOM     24  C   UNL A   1      39.874  26.458  28.960  1.00  0.00     0.029 A 
ATOM     25  C   UNL A   1      41.247  26.589  28.500  1.00  0.00     0.049 A 
ATOM     26  H   UNL A   1      42.478  28.268  28.618  1.00  0.00     0.167 HD
ATOM     27  C   UNL A   1      44.782  32.075  28.715  1.00  0.00     0.037 A 
ATOM     28  C   UNL A   1      41.955  25.620  27.892  1.00  0.00     0.037 A 
ATOM     29  C   UNL A   1      45.597  31.130  27.998  1.00  0.00     0.049 A 
ATOM     30  C   UNL A   1      43.319  25.973  27.377  1.00  0.00     0.074 A 
ATOM     31  C   UNL A   1      46.858  31.301  27.461  1.00  0.00     0.029 A 
ATOM     32  N   UNL A   1      45.220  29.818  27.734  1.00  0.00    -0.354 N 
ATOM     33  N   UNL A   1      43.966  27.112  27.471  1.00  0.00    -0.248 NA
ATOM     34  C   UNL A   1      44.040  24.927  26.644  1.00  0.00     0.031 C 
ATOM     35  C   UNL A   1      47.233  30.101  26.846  1.00  0.00     0.029 A 
ATOM     36  C   UNL A   1      46.224  29.169  27.038  1.00  0.00     0.049 A 
ATOM     37  H   UNL A   1      44.365  29.410  28.002  1.00  0.00     0.167 HD
ATOM     38  C   UNL A   1      45.175  26.916  26.822  1.00  0.00     0.074 A 
ATOM     39  C   UNL A   1      45.179  25.542  26.358  1.00  0.00     0.031 C 
ATOM     40  C   UNL A   1      46.188  27.793  26.613  1.00  0.00     0.037 A 
BRANCH  27  41
ATOM     41  C   UNL A   1      45.291  33.467  28.941  1.00  0.00     0.057 A 
ATOM     42  C   UNL A   1      46.051  33.815  30.065  1.00  0.00     0.134 A 
ATOM     43  C   UNL A   1      44.990  34.486  28.027  1.00  0.00     0.134 A 
ATOM     44  F   UNL A   1      46.351  32.895  30.994  1.00  0.00    -0.206 F 
ATOM     45  C   UNL A   1      46.468  35.131  30.286  1.00  0.00     0.040 A 
ATOM     46  C   UNL A   1      45.422  35.799  28.224  1.00  0.00     0.040 A 
ATOM     47  F   UNL A   1      44.263  34.224  26.930  1.00  0.00    -0.206 F 
ATOM     48  C   UNL A   1      46.156  36.126  29.362  1.00  0.00     0.006 A 
ENDBRANCH  27  41
BRANCH  28  49
ATOM     49  C   UNL A   1      41.367  24.271  27.679  1.00  0.00     0.057 A 
ATOM     50  C   UNL A   1      41.797  23.166  28.422  1.00  0.00     0.134 A 
ATOM     51  C   UNL A   1      40.363  24.047  26.725  1.00  0.00     0.134 A 
ATOM     52  F   UNL A   1      42.768  23.305  29.338  1.00  0.00    -0.206 F 
ATOM     53  C   UNL A   1      41.267  21.890  28.214  1.00  0.00     0.040 A 
ATOM     54  C   UNL A   1      39.802  22.784  26.530  1.00  0.00     0.040 A 
ATOM     55  F   UNL A   1      39.899  25.060  25.980  1.00  0.00    -0.206 F 
ATOM     56  C   UNL A   1      40.262  21.698  27.269  1.00  0.00     0.006 A 
ENDBRANCH  28  49
BRANCH  40  57
ATOM     57  C   UNL A   1      47.390  27.264  25.895  1.00  0.00     0.057 A 
ATOM     58  C   UNL A   1      47.525  27.371  24.506  1.00  0.00     0.134 A 
ATOM     59  C   UNL A   1      48.440  26.679  26.612  1.00  0.00     0.134 A 
ATOM     60  F   UNL A   1      46.543  27.907  23.766  1.00  0.00    -0.206 F 
ATOM     61  C   UNL A   1      48.660  26.896  23.851  1.00  0.00     0.040 A 
ATOM     62  C   UNL A   1      49.590  26.223  25.971  1.00  0.00     0.040 A 
ATOM     63  F   UNL A   1      48.368  26.554  27.946  1.00  0.00    -0.206 F 
ATOM     64  C   UNL A   1      49.701  26.328  24.586  1.00  0.00     0.006 A 
ENDBRANCH  40  57
ENDBRANCH  14  15
ENDBRANCH   7   9
ENDBRANCH   6   7
ENDBRANCH   5   6
ENDBRANCH   4   5
ENDBRANCH   3   4
ENDBRANCH   2   3
ENDBRANCH   1   2
BRANCH   1  65
ATOM     65  O   UNL A   1      32.552  28.772  27.399  1.00  0.00    -0.463 OA
BRANCH  65  66
ATOM     66  C   UNL A   1      32.845  27.763  26.540  1.00  0.00     0.310 C 
ATOM     67  O   UNL A   1      33.979  27.400  26.254  1.00  0.00    -0.252 OA
BRANCH  66  68
ATOM     68  C   UNL A   1      31.591  27.163  25.934  1.00  0.00     0.119 C 
ATOM     69  C   UNL A   1      31.777  25.812  25.143  1.00  0.00     0.100 C 
ATOM     70  C   UNL A   1      31.052  28.120  24.828  1.00  0.00     0.027 C 
ATOM     71  C   UNL A   1      31.261  26.202  23.739  1.00  0.00     0.025 C 
ATOM     72  C   UNL A   1      32.100  28.318  23.745  1.00  0.00    -0.027 C 
ATOM     73  C   UNL A   1      30.129  27.176  24.069  1.00  0.00     0.017 C 
ATOM     74  C   UNL A   1      32.226  27.156  23.094  1.00  0.00    -0.027 C 
BRANCH  69  75
ATOM     75  C   UNL A   1      30.975  24.625  25.679  1.00  0.00     0.224 C 
ATOM     76  O   UNL A   1      30.126  24.757  26.559  1.00  0.00    -0.275 OA
ATOM     77  N   UNL A   1      31.211  23.367  25.181  1.00  0.00    -0.352 N 
ATOM     78  H   UNL A   1      30.627  22.659  25.537  1.00  0.00     0.163 HD
BRANCH  77  79
ATOM     79  C   UNL A   1      32.199  22.924  24.203  1.00  0.00     0.155 C 
BRANCH  79  80
ATOM     80  C   UNL A   1      32.465  21.437  24.186  1.00  0.00     0.013 A 
ATOM     81  C   UNL A   1      32.177  20.754  22.978  1.00  0.00     0.009 A 
ATOM     82  C   UNL A   1      32.805  20.661  25.312  1.00  0.00     0.124 A 
ATOM     83  C   UNL A   1      32.200  19.360  22.889  1.00  0.00     0.001 A 
ATOM     84  C   UNL A   1      32.794  19.255  25.206  1.00  0.00     0.047 A 
ATOM     85  C   UNL A   1      32.496  18.607  24.011  1.00  0.00     0.004 A 
BRANCH  82  86
ATOM     86  O   UNL A   1      33.075  21.032  26.597  1.00  0.00    -0.489 OA
BRANCH  86  87
ATOM     87  C   UNL A   1      34.345  21.469  27.084  1.00  0.00     0.265 C 
BRANCH  87  88
ATOM     88  C   UNL A   1      35.351  22.013  26.097  1.00  0.00    -0.011 A 
ATOM     89  C   UNL A   1      35.499  23.402  25.961  1.00  0.00     0.007 A 
ATOM     90  C   UNL A   1      36.187  21.182  25.347  1.00  0.00     0.007 A 
ATOM     91  C   UNL A   1      36.331  23.947  24.986  1.00  0.00     0.000 A 
ATOM     92  C   UNL A   1      37.060  21.727  24.401  1.00  0.00     0.000 A 
ATOM     93  C   UNL A   1      37.106  23.106  24.197  1.00  0.00     0.000 A 
ENDBRANCH  87  88
ENDBRANCH  86  87
ENDBRANCH  82  86
ENDBRANCH  79  80
ENDBRANCH  77  79
ENDBRANCH  69  75
ENDBRANCH  66  68
ENDBRANCH  65  66
ENDBRANCH   1  65
TORSDOF 20
ENDMDL
