MODEL 1
REMARK VINA RESULT:     -11.9      0.000      0.000
REMARK SMILES NS(=O)(=O)c1ccc(-n2nc(C(F)F)cc2-c2ccc(C(=O)OCCOCCOC(=O)c3ccc(-c4c5nc(c(-c6c(F)cccc6F)c6ccc([nH]6)c(-c6c(F)cccc6F)c6nc(c(-c7c(F)cccc7F)c7ccc4[nH]7)C=C6)C=C5)cc3)cc2)cc1
REMARK SMILES IDX 25 1 24 2 23 3 21 4 22 5 20 6 17 7 18 8 87 9 19 10 86 11
REMARK SMILES IDX 16 12 9 13 10 14 11 15 15 16 8 17 5 18 6 19 89 20 7 21 88 22
REMARK SMILES IDX 2 23 3 24 4 25 1 26 12 29 13 30 14 31 26 32 27 33 28 34
REMARK SMILES IDX 29 35 30 36 31 37 32 38 33 39 85 40 34 41 84 42 35 43 36 44
REMARK SMILES IDX 37 45 78 46 38 47 83 48 77 49 79 50 39 51 82 52 76 53 75 54
REMARK SMILES IDX 40 56 66 57 49 58 65 59 50 60 53 61 64 62 80 63 51 64 52 65
REMARK SMILES IDX 63 67 81 68 54 69 41 70 42 71 47 72 43 73 44 74 46 75 48 76
REMARK SMILES IDX 45 77 67 78 68 79 73 80 69 81 70 82 72 83 74 84 71 85 55 86
REMARK SMILES IDX 56 87 61 88 57 89 58 90 60 91 62 92 59 93
REMARK H PARENT 1 27 1 28 79 55 53 66
REMARK Flexibility Score: inf
ROOT
ATOM      1  C   UNL A   1      40.278  21.288  27.101  1.00  0.00     0.202 C 
ENDROOT
BRANCH   1   2
ATOM      2  C   UNL A   1      39.481  21.327  25.796  1.00  0.00     0.261 C 
BRANCH   2   3
ATOM      3  O   UNL A   1      38.159  21.861  25.961  1.00  0.00    -0.460 OA
BRANCH   3   4
ATOM      4  C   UNL A   1      38.104  23.213  25.884  1.00  0.00     0.338 C 
ATOM      5  O   UNL A   1      39.029  23.995  26.027  1.00  0.00    -0.246 OA
BRANCH   4   6
ATOM      6  C   UNL A   1      36.773  23.652  25.418  1.00  0.00     0.060 A 
ATOM      7  C   UNL A   1      34.126  24.233  24.738  1.00  0.00     0.000 A 
ATOM      8  C   UNL A   1      34.583  24.458  26.043  1.00  0.00     0.011 A 
ATOM      9  C   UNL A   1      35.025  23.780  23.761  1.00  0.00     0.011 A 
ATOM     10  C   UNL A   1      35.899  24.163  26.383  1.00  0.00     0.016 A 
ATOM     11  C   UNL A   1      36.355  23.501  24.095  1.00  0.00     0.016 A 
BRANCH   7  12
ATOM     12  C   UNL A   1      32.697  24.327  24.447  1.00  0.00     0.075 A 
ATOM     13  N   UNL A   1      31.878  23.301  23.991  1.00  0.00    -0.233 N 
ATOM     14  N   UNL A   1      30.725  23.778  23.458  1.00  0.00    -0.166 NA
ATOM     15  C   UNL A   1      30.714  25.086  23.766  1.00  0.00     0.129 A 
ATOM     16  C   UNL A   1      31.936  25.476  24.356  1.00  0.00     0.060 A 
BRANCH  13  17
ATOM     17  C   UNL A   1      32.113  21.902  24.049  1.00  0.00     0.065 A 
ATOM     18  C   UNL A   1      32.638  19.168  24.159  1.00  0.00     0.082 A 
ATOM     19  C   UNL A   1      32.490  19.889  25.345  1.00  0.00     0.024 A 
ATOM     20  C   UNL A   1      32.495  19.800  22.917  1.00  0.00     0.024 A 
ATOM     21  C   UNL A   1      32.243  21.262  25.290  1.00  0.00     0.030 A 
ATOM     22  C   UNL A   1      32.204  21.165  22.862  1.00  0.00     0.030 A 
BRANCH  18  23
ATOM     23  S   UNL A   1      33.037  17.446  24.175  1.00  0.00     0.238 S 
ATOM     24  O   UNL A   1      33.095  16.983  22.813  1.00  0.00    -0.207 OA
ATOM     25  O   UNL A   1      32.239  16.802  25.195  1.00  0.00    -0.207 OA
BRANCH  23  26
ATOM     26  N   UNL A   1      34.622  17.375  24.738  1.00  0.00    -0.225 NA
ATOM     27  H   UNL A   1      34.777  16.484  25.209  1.00  0.00     0.137 HD
ATOM     28  H   UNL A   1      34.784  18.139  25.395  1.00  0.00     0.137 HD
ENDBRANCH  23  26
ENDBRANCH  18  23
ENDBRANCH  13  17
BRANCH  15  29
ATOM     29  C   UNL A   1      29.548  25.984  23.474  1.00  0.00     0.393 C 
ATOM     30  F   UNL A   1      29.005  26.524  24.597  1.00  0.00    -0.203 F 
ATOM     31  F   UNL A   1      29.914  27.024  22.673  1.00  0.00    -0.203 F 
ENDBRANCH  15  29
ENDBRANCH   7  12
ENDBRANCH   4   6
ENDBRANCH   3   4
ENDBRANCH   2   3
ENDBRANCH   1   2
BRANCH   1  32
ATOM     32  O   UNL A   1      40.825  20.052  27.557  1.00  0.00    -0.374 OA
BRANCH  32  33
ATOM     33  C   UNL A   1      42.203  19.742  27.372  1.00  0.00     0.202 C 
BRANCH  33  34
ATOM     34  C   UNL A   1      42.671  19.250  26.009  1.00  0.00     0.261 C 
BRANCH  34  35
ATOM     35  O   UNL A   1      43.070  20.329  25.185  1.00  0.00    -0.460 OA
BRANCH  35  36
ATOM     36  C   UNL A   1      44.329  20.211  24.704  1.00  0.00     0.338 C 
ATOM     37  O   UNL A   1      44.931  19.183  24.448  1.00  0.00    -0.246 OA
BRANCH  36  38
ATOM     38  C   UNL A   1      44.926  21.551  24.634  1.00  0.00     0.060 A 
ATOM     39  C   UNL A   1      45.951  21.776  25.554  1.00  0.00     0.016 A 
ATOM     40  C   UNL A   1      44.156  22.585  24.089  1.00  0.00     0.016 A 
ATOM     41  C   UNL A   1      45.935  22.970  26.228  1.00  0.00     0.010 A 
ATOM     42  C   UNL A   1      44.125  23.765  24.776  1.00  0.00     0.010 A 
ATOM     43  C   UNL A   1      44.922  23.877  25.913  1.00  0.00    -0.014 A 
BRANCH  43  44
ATOM     44  C   UNL A   1      44.707  24.999  26.791  1.00  0.00     0.031 A 
ATOM     45  C   UNL A   1      45.813  25.972  26.715  1.00  0.00     0.074 A 
ATOM     46  C   UNL A   1      43.554  25.144  27.471  1.00  0.00     0.049 A 
ATOM     47  N   UNL A   1      46.710  26.221  27.608  1.00  0.00    -0.248 NA
ATOM     48  C   UNL A   1      46.093  26.559  25.393  1.00  0.00     0.031 C 
ATOM     49  C   UNL A   1      42.327  24.344  27.394  1.00  0.00     0.029 A 
ATOM     50  N   UNL A   1      43.217  26.135  28.337  1.00  0.00    -0.354 N 
ATOM     51  C   UNL A   1      47.540  27.168  27.021  1.00  0.00     0.074 A 
ATOM     52  C   UNL A   1      47.276  27.128  25.610  1.00  0.00     0.031 C 
ATOM     53  C   UNL A   1      41.319  25.010  28.005  1.00  0.00     0.029 A 
ATOM     54  C   UNL A   1      41.856  26.209  28.621  1.00  0.00     0.049 A 
ATOM     55  H   UNL A   1      43.879  26.748  28.730  1.00  0.00     0.167 HD
ATOM     56  C   UNL A   1      48.149  28.128  27.765  1.00  0.00     0.037 A 
ATOM     57  C   UNL A   1      41.256  27.258  29.239  1.00  0.00     0.037 A 
ATOM     58  C   UNL A   1      48.180  27.761  29.159  1.00  0.00     0.049 A 
ATOM     59  C   UNL A   1      42.329  28.009  29.950  1.00  0.00     0.074 A 
ATOM     60  C   UNL A   1      48.765  26.737  29.876  1.00  0.00     0.029 A 
ATOM     61  N   UNL A   1      47.203  28.281  29.973  1.00  0.00    -0.354 N 
ATOM     62  N   UNL A   1      42.999  27.518  30.958  1.00  0.00    -0.248 NA
ATOM     63  C   UNL A   1      43.001  29.072  29.214  1.00  0.00     0.031 C 
ATOM     64  C   UNL A   1      47.810  26.393  30.877  1.00  0.00     0.029 A 
ATOM     65  C   UNL A   1      46.726  27.264  30.760  1.00  0.00     0.049 A 
ATOM     66  H   UNL A   1      46.898  29.217  29.988  1.00  0.00     0.167 HD
ATOM     67  C   UNL A   1      44.315  27.909  30.742  1.00  0.00     0.074 A 
ATOM     68  C   UNL A   1      44.245  28.906  29.675  1.00  0.00     0.031 C 
ATOM     69  C   UNL A   1      45.360  27.178  31.230  1.00  0.00     0.037 A 
BRANCH  56  70
ATOM     70  C   UNL A   1      48.351  29.541  27.281  1.00  0.00     0.057 A 
ATOM     71  C   UNL A   1      49.651  30.069  27.258  1.00  0.00     0.134 A 
ATOM     72  C   UNL A   1      47.319  30.487  27.091  1.00  0.00     0.134 A 
ATOM     73  F   UNL A   1      50.718  29.277  27.439  1.00  0.00    -0.206 F 
ATOM     74  C   UNL A   1      49.899  31.441  27.124  1.00  0.00     0.040 A 
ATOM     75  C   UNL A   1      47.557  31.849  26.900  1.00  0.00     0.040 A 
ATOM     76  F   UNL A   1      46.020  30.178  27.179  1.00  0.00    -0.206 F 
ATOM     77  C   UNL A   1      48.850  32.336  26.949  1.00  0.00     0.006 A 
ENDBRANCH  56  70
BRANCH  57  78
ATOM     78  C   UNL A   1      39.937  27.861  28.925  1.00  0.00     0.057 A 
ATOM     79  C   UNL A   1      38.925  27.956  29.891  1.00  0.00     0.134 A 
ATOM     80  C   UNL A   1      39.735  28.606  27.748  1.00  0.00     0.134 A 
ATOM     81  F   UNL A   1      39.047  27.324  31.067  1.00  0.00    -0.206 F 
ATOM     82  C   UNL A   1      37.785  28.752  29.702  1.00  0.00     0.040 A 
ATOM     83  C   UNL A   1      38.602  29.401  27.547  1.00  0.00     0.040 A 
ATOM     84  F   UNL A   1      40.673  28.658  26.792  1.00  0.00    -0.206 F 
ATOM     85  C   UNL A   1      37.626  29.486  28.530  1.00  0.00     0.006 A 
ENDBRANCH  57  78
BRANCH  69  86
ATOM     86  C   UNL A   1      45.040  26.036  32.160  1.00  0.00     0.057 A 
ATOM     87  C   UNL A   1      44.805  26.192  33.536  1.00  0.00     0.134 A 
ATOM     88  C   UNL A   1      44.787  24.771  31.621  1.00  0.00     0.134 A 
ATOM     89  F   UNL A   1      44.923  27.388  34.125  1.00  0.00    -0.206 F 
ATOM     90  C   UNL A   1      44.373  25.133  34.342  1.00  0.00     0.040 A 
ATOM     91  C   UNL A   1      44.325  23.713  32.407  1.00  0.00     0.040 A 
ATOM     92  F   UNL A   1      44.929  24.561  30.303  1.00  0.00    -0.206 F 
ATOM     93  C   UNL A   1      44.124  23.888  33.774  1.00  0.00     0.006 A 
ENDBRANCH  69  86
ENDBRANCH  43  44
ENDBRANCH  36  38
ENDBRANCH  35  36
ENDBRANCH  34  35
ENDBRANCH  33  34
ENDBRANCH  32  33
ENDBRANCH   1  32
TORSDOF 19
ENDMDL
MODEL 2
REMARK VINA RESULT:     -11.5      6.318     10.752
REMARK SMILES NS(=O)(=O)c1ccc(-n2nc(C(F)F)cc2-c2ccc(C(=O)OCCOCCOC(=O)c3ccc(-c4c5nc(c(-c6c(F)cccc6F)c6ccc([nH]6)c(-c6c(F)cccc6F)c6nc(c(-c7c(F)cccc7F)c7ccc4[nH]7)C=C6)C=C5)cc3)cc2)cc1
REMARK SMILES IDX 25 1 24 2 23 3 21 4 22 5 20 6 17 7 18 8 87 9 19 10 86 11
REMARK SMILES IDX 16 12 9 13 10 14 11 15 15 16 8 17 5 18 6 19 89 20 7 21 88 22
REMARK SMILES IDX 2 23 3 24 4 25 1 26 12 29 13 30 14 31 26 32 27 33 28 34
REMARK SMILES IDX 29 35 30 36 31 37 32 38 33 39 85 40 34 41 84 42 35 43 36 44
REMARK SMILES IDX 37 45 78 46 38 47 83 48 77 49 79 50 39 51 82 52 76 53 75 54
REMARK SMILES IDX 40 56 66 57 49 58 65 59 50 60 53 61 64 62 80 63 51 64 52 65
REMARK SMILES IDX 63 67 81 68 54 69 41 70 42 71 47 72 43 73 44 74 46 75 48 76
REMARK SMILES IDX 45 77 67 78 68 79 73 80 69 81 70 82 72 83 74 84 71 85 55 86
REMARK SMILES IDX 56 87 61 88 57 89 58 90 60 91 62 92 59 93
REMARK H PARENT 1 27 1 28 79 55 53 66
REMARK Flexibility Score: inf
ROOT
ATOM      1  C   UNL A   1      34.262  34.176  27.682  1.00  0.00     0.202 C 
ENDROOT
BRANCH   1   2
ATOM      2  C   UNL A   1      33.003  33.343  27.930  1.00  0.00     0.261 C 
BRANCH   2   3
ATOM      3  O   UNL A   1      33.001  32.100  27.213  1.00  0.00    -0.460 OA
BRANCH   3   4
ATOM      4  C   UNL A   1      33.755  31.135  27.793  1.00  0.00     0.338 C 
ATOM      5  O   UNL A   1      34.551  31.275  28.707  1.00  0.00    -0.246 OA
BRANCH   4   6
ATOM      6  C   UNL A   1      33.367  29.802  27.290  1.00  0.00     0.060 A 
ATOM      7  C   UNL A   1      32.742  27.389  26.028  1.00  0.00     0.000 A 
ATOM      8  C   UNL A   1      34.078  27.790  26.157  1.00  0.00     0.011 A 
ATOM      9  C   UNL A   1      31.728  28.174  26.598  1.00  0.00     0.011 A 
ATOM     10  C   UNL A   1      34.389  28.994  26.780  1.00  0.00     0.016 A 
ATOM     11  C   UNL A   1      32.039  29.376  27.243  1.00  0.00     0.016 A 
BRANCH   7  12
ATOM     12  C   UNL A   1      32.409  26.247  25.180  1.00  0.00     0.075 A 
ATOM     13  N   UNL A   1      31.368  26.175  24.263  1.00  0.00    -0.233 N 
ATOM     14  N   UNL A   1      31.085  24.892  23.922  1.00  0.00    -0.166 NA
ATOM     15  C   UNL A   1      32.081  24.163  24.455  1.00  0.00     0.129 A 
ATOM     16  C   UNL A   1      32.911  24.964  25.270  1.00  0.00     0.060 A 
BRANCH  13  17
ATOM     17  C   UNL A   1      30.642  27.246  23.677  1.00  0.00     0.065 A 
ATOM     18  C   UNL A   1      29.221  29.379  22.584  1.00  0.00     0.082 A 
ATOM     19  C   UNL A   1      30.606  29.318  22.421  1.00  0.00     0.024 A 
ATOM     20  C   UNL A   1      28.537  28.364  23.265  1.00  0.00     0.024 A 
ATOM     21  C   UNL A   1      31.320  28.258  22.982  1.00  0.00     0.030 A 
ATOM     22  C   UNL A   1      29.246  27.280  23.789  1.00  0.00     0.030 A 
BRANCH  18  23
ATOM     23  S   UNL A   1      28.283  30.745  21.968  1.00  0.00     0.238 S 
ATOM     24  O   UNL A   1      27.255  31.055  22.927  1.00  0.00    -0.207 OA
ATOM     25  O   UNL A   1      28.013  30.517  20.565  1.00  0.00    -0.207 OA
BRANCH  23  26
ATOM     26  N   UNL A   1      29.343  32.052  22.011  1.00  0.00    -0.225 NA
ATOM     27  H   UNL A   1      30.197  31.782  22.498  1.00  0.00     0.137 HD
ATOM     28  H   UNL A   1      28.903  32.831  22.502  1.00  0.00     0.137 HD
ENDBRANCH  23  26
ENDBRANCH  18  23
ENDBRANCH  13  17
BRANCH  15  29
ATOM     29  C   UNL A   1      32.232  22.691  24.215  1.00  0.00     0.393 C 
ATOM     30  F   UNL A   1      33.533  22.297  24.159  1.00  0.00    -0.203 F 
ATOM     31  F   UNL A   1      31.644  21.965  25.207  1.00  0.00    -0.203 F 
ENDBRANCH  15  29
ENDBRANCH   7  12
ENDBRANCH   4   6
ENDBRANCH   3   4
ENDBRANCH   2   3
ENDBRANCH   1   2
BRANCH   1  32
ATOM     32  O   UNL A   1      34.473  35.375  28.426  1.00  0.00    -0.374 OA
BRANCH  32  33
ATOM     33  C   UNL A   1      33.379  36.164  28.882  1.00  0.00     0.202 C 
BRANCH  33  34
ATOM     34  C   UNL A   1      33.027  36.150  30.364  1.00  0.00     0.261 C 
BRANCH  34  35
ATOM     35  O   UNL A   1      34.002  35.451  31.115  1.00  0.00    -0.460 OA
BRANCH  35  36
ATOM     36  C   UNL A   1      33.502  34.814  32.197  1.00  0.00     0.338 C 
ATOM     37  O   UNL A   1      32.329  34.648  32.484  1.00  0.00    -0.246 OA
BRANCH  36  38
ATOM     38  C   UNL A   1      34.621  34.431  33.068  1.00  0.00     0.060 A 
ATOM     39  C   UNL A   1      35.667  35.354  33.106  1.00  0.00     0.016 A 
ATOM     40  C   UNL A   1      34.799  33.072  33.348  1.00  0.00     0.016 A 
ATOM     41  C   UNL A   1      36.942  34.857  33.020  1.00  0.00     0.010 A 
ATOM     42  C   UNL A   1      36.067  32.576  33.240  1.00  0.00     0.010 A 
ATOM     43  C   UNL A   1      37.092  33.471  32.944  1.00  0.00    -0.014 A 
BRANCH  43  44
ATOM     44  C   UNL A   1      38.378  32.939  32.568  1.00  0.00     0.031 A 
ATOM     45  C   UNL A   1      39.363  33.070  33.657  1.00  0.00     0.074 A 
ATOM     46  C   UNL A   1      38.552  32.295  31.399  1.00  0.00     0.049 A 
ATOM     47  N   UNL A   1      40.383  33.859  33.710  1.00  0.00    -0.248 NA
ATOM     48  C   UNL A   1      39.031  32.421  34.937  1.00  0.00     0.031 C 
ATOM     49  C   UNL A   1      37.554  31.916  30.392  1.00  0.00     0.029 A 
ATOM     50  N   UNL A   1      39.698  31.756  30.908  1.00  0.00    -0.354 N 
ATOM     51  C   UNL A   1      40.942  33.631  34.961  1.00  0.00     0.074 A 
ATOM     52  C   UNL A   1      39.940  32.964  35.743  1.00  0.00     0.031 C 
ATOM     53  C   UNL A   1      38.101  31.023  29.534  1.00  0.00     0.029 A 
ATOM     54  C   UNL A   1      39.508  30.869  29.851  1.00  0.00     0.049 A 
ATOM     55  H   UNL A   1      40.588  31.974  31.269  1.00  0.00     0.167 HD
ATOM     56  C   UNL A   1      42.283  33.722  35.160  1.00  0.00     0.037 A 
ATOM     57  C   UNL A   1      40.457  30.022  29.379  1.00  0.00     0.037 A 
ATOM     58  C   UNL A   1      42.913  34.476  34.105  1.00  0.00     0.049 A 
ATOM     59  C   UNL A   1      41.774  30.553  29.835  1.00  0.00     0.074 A 
ATOM     60  C   UNL A   1      42.821  35.779  33.660  1.00  0.00     0.029 A 
ATOM     61  N   UNL A   1      43.493  33.768  33.080  1.00  0.00    -0.354 N 
ATOM     62  N   UNL A   1      42.269  31.688  29.419  1.00  0.00    -0.248 NA
ATOM     63  C   UNL A   1      42.271  30.089  31.123  1.00  0.00     0.031 C 
ATOM     64  C   UNL A   1      42.912  35.694  32.240  1.00  0.00     0.029 A 
ATOM     65  C   UNL A   1      43.120  34.357  31.898  1.00  0.00     0.049 A 
ATOM     66  H   UNL A   1      44.073  32.978  33.176  1.00  0.00     0.167 HD
ATOM     67  C   UNL A   1      42.819  32.277  30.551  1.00  0.00     0.074 A 
ATOM     68  C   UNL A   1      42.831  31.221  31.562  1.00  0.00     0.031 C 
ATOM     69  C   UNL A   1      42.933  33.635  30.659  1.00  0.00     0.037 A 
BRANCH  56  70
ATOM     70  C   UNL A   1      43.043  32.805  36.083  1.00  0.00     0.057 A 
ATOM     71  C   UNL A   1      43.080  31.432  35.794  1.00  0.00     0.134 A 
ATOM     72  C   UNL A   1      43.513  33.157  37.369  1.00  0.00     0.134 A 
ATOM     73  F   UNL A   1      42.650  30.967  34.613  1.00  0.00    -0.206 F 
ATOM     74  C   UNL A   1      43.487  30.480  36.737  1.00  0.00     0.040 A 
ATOM     75  C   UNL A   1      43.974  32.222  38.295  1.00  0.00     0.040 A 
ATOM     76  F   UNL A   1      43.461  34.405  37.848  1.00  0.00    -0.206 F 
ATOM     77  C   UNL A   1      43.932  30.873  37.993  1.00  0.00     0.006 A 
ENDBRANCH  56  70
BRANCH  57  78
ATOM     78  C   UNL A   1      40.277  28.618  28.932  1.00  0.00     0.057 A 
ATOM     79  C   UNL A   1      39.729  27.643  29.778  1.00  0.00     0.134 A 
ATOM     80  C   UNL A   1      40.385  28.264  27.575  1.00  0.00     0.134 A 
ATOM     81  F   UNL A   1      39.539  27.902  31.079  1.00  0.00    -0.206 F 
ATOM     82  C   UNL A   1      39.304  26.395  29.300  1.00  0.00     0.040 A 
ATOM     83  C   UNL A   1      39.967  27.021  27.086  1.00  0.00     0.040 A 
ATOM     84  F   UNL A   1      40.816  29.145  26.661  1.00  0.00    -0.206 F 
ATOM     85  C   UNL A   1      39.413  26.084  27.948  1.00  0.00     0.006 A 
ENDBRANCH  57  78
BRANCH  69  86
ATOM     86  C   UNL A   1      42.609  34.461  29.441  1.00  0.00     0.057 A 
ATOM     87  C   UNL A   1      41.341  35.006  29.182  1.00  0.00     0.134 A 
ATOM     88  C   UNL A   1      43.649  34.865  28.599  1.00  0.00     0.134 A 
ATOM     89  F   UNL A   1      40.305  34.757  29.992  1.00  0.00    -0.206 F 
ATOM     90  C   UNL A   1      41.111  35.884  28.117  1.00  0.00     0.040 A 
ATOM     91  C   UNL A   1      43.441  35.766  27.551  1.00  0.00     0.040 A 
ATOM     92  F   UNL A   1      44.900  34.436  28.821  1.00  0.00    -0.206 F 
ATOM     93  C   UNL A   1      42.168  36.272  27.301  1.00  0.00     0.006 A 
ENDBRANCH  69  86
ENDBRANCH  43  44
ENDBRANCH  36  38
ENDBRANCH  35  36
ENDBRANCH  34  35
ENDBRANCH  33  34
ENDBRANCH  32  33
ENDBRANCH   1  32
TORSDOF 19
ENDMDL
MODEL 3
REMARK VINA RESULT:     -11.5      3.555      7.288
REMARK SMILES NS(=O)(=O)c1ccc(-n2nc(C(F)F)cc2-c2ccc(C(=O)OCCOCCOC(=O)c3ccc(-c4c5nc(c(-c6c(F)cccc6F)c6ccc([nH]6)c(-c6c(F)cccc6F)c6nc(c(-c7c(F)cccc7F)c7ccc4[nH]7)C=C6)C=C5)cc3)cc2)cc1
REMARK SMILES IDX 25 1 24 2 23 3 21 4 22 5 20 6 17 7 18 8 87 9 19 10 86 11
REMARK SMILES IDX 16 12 9 13 10 14 11 15 15 16 8 17 5 18 6 19 89 20 7 21 88 22
REMARK SMILES IDX 2 23 3 24 4 25 1 26 12 29 13 30 14 31 26 32 27 33 28 34
REMARK SMILES IDX 29 35 30 36 31 37 32 38 33 39 85 40 34 41 84 42 35 43 36 44
REMARK SMILES IDX 37 45 78 46 38 47 83 48 77 49 79 50 39 51 82 52 76 53 75 54
REMARK SMILES IDX 40 56 66 57 49 58 65 59 50 60 53 61 64 62 80 63 51 64 52 65
REMARK SMILES IDX 63 67 81 68 54 69 41 70 42 71 47 72 43 73 44 74 46 75 48 76
REMARK SMILES IDX 45 77 67 78 68 79 73 80 69 81 70 82 72 83 74 84 71 85 55 86
REMARK SMILES IDX 56 87 61 88 57 89 58 90 60 91 62 92 59 93
REMARK H PARENT 1 27 1 28 79 55 53 66
REMARK Flexibility Score: inf
ROOT
ATOM      1  C   UNL A   1      32.421  28.574  27.029  1.00  0.00     0.202 C 
ENDROOT
BRANCH   1   2
ATOM      2  C   UNL A   1      31.898  28.618  25.593  1.00  0.00     0.261 C 
BRANCH   2   3
ATOM      3  O   UNL A   1      32.589  27.716  24.715  1.00  0.00    -0.460 OA
BRANCH   3   4
ATOM      4  C   UNL A   1      32.056  26.471  24.685  1.00  0.00     0.338 C 
ATOM      5  O   UNL A   1      30.889  26.176  24.483  1.00  0.00    -0.246 OA
BRANCH   4   6
ATOM      6  C   UNL A   1      33.120  25.450  24.757  1.00  0.00     0.060 A 
ATOM      7  C   UNL A   1      35.296  23.734  25.110  1.00  0.00     0.000 A 
ATOM      8  C   UNL A   1      34.431  24.002  26.179  1.00  0.00     0.011 A 
ATOM      9  C   UNL A   1      35.021  24.277  23.847  1.00  0.00     0.011 A 
ATOM     10  C   UNL A   1      33.352  24.861  26.005  1.00  0.00     0.016 A 
ATOM     11  C   UNL A   1      33.924  25.126  23.663  1.00  0.00     0.016 A 
BRANCH   7  12
ATOM     12  C   UNL A   1      36.547  23.019  25.355  1.00  0.00     0.075 A 
ATOM     13  N   UNL A   1      36.697  21.647  25.512  1.00  0.00    -0.233 N 
ATOM     14  N   UNL A   1      37.882  21.334  26.096  1.00  0.00    -0.166 NA
ATOM     15  C   UNL A   1      38.575  22.486  26.116  1.00  0.00     0.129 A 
ATOM     16  C   UNL A   1      37.770  23.566  25.691  1.00  0.00     0.060 A 
BRANCH  13  17
ATOM     17  C   UNL A   1      35.799  20.618  25.125  1.00  0.00     0.065 A 
ATOM     18  C   UNL A   1      34.031  18.581  24.427  1.00  0.00     0.082 A 
ATOM     19  C   UNL A   1      33.543  19.869  24.653  1.00  0.00     0.024 A 
ATOM     20  C   UNL A   1      35.402  18.311  24.518  1.00  0.00     0.024 A 
ATOM     21  C   UNL A   1      34.427  20.886  25.018  1.00  0.00     0.030 A 
ATOM     22  C   UNL A   1      36.292  19.338  24.840  1.00  0.00     0.030 A 
BRANCH  18  23
ATOM     23  S   UNL A   1      32.942  17.240  24.048  1.00  0.00     0.238 S 
ATOM     24  O   UNL A   1      31.812  17.312  24.937  1.00  0.00    -0.207 OA
ATOM     25  O   UNL A   1      33.736  16.044  23.872  1.00  0.00    -0.207 OA
BRANCH  23  26
ATOM     26  N   UNL A   1      32.331  17.598  22.521  1.00  0.00    -0.225 NA
ATOM     27  H   UNL A   1      32.885  18.343  22.098  1.00  0.00     0.137 HD
ATOM     28  H   UNL A   1      31.360  17.901  22.605  1.00  0.00     0.137 HD
ENDBRANCH  23  26
ENDBRANCH  18  23
ENDBRANCH  13  17
BRANCH  15  29
ATOM     29  C   UNL A   1      40.002  22.572  26.569  1.00  0.00     0.393 C 
ATOM     30  F   UNL A   1      40.251  21.817  27.672  1.00  0.00    -0.203 F 
ATOM     31  F   UNL A   1      40.856  22.143  25.598  1.00  0.00    -0.203 F 
ENDBRANCH  15  29
ENDBRANCH   7  12
ENDBRANCH   4   6
ENDBRANCH   3   4
ENDBRANCH   2   3
ENDBRANCH   1   2
BRANCH   1  32
ATOM     32  O   UNL A   1      32.961  29.754  27.621  1.00  0.00    -0.374 OA
BRANCH  32  33
ATOM     33  C   UNL A   1      34.092  30.412  27.059  1.00  0.00     0.202 C 
BRANCH  33  34
ATOM     34  C   UNL A   1      35.120  31.038  27.992  1.00  0.00     0.261 C 
BRANCH  34  35
ATOM     35  O   UNL A   1      35.817  30.048  28.725  1.00  0.00    -0.460 OA
BRANCH  35  36
ATOM     36  C   UNL A   1      37.135  30.310  28.877  1.00  0.00     0.338 C 
ATOM     37  O   UNL A   1      37.642  31.322  29.329  1.00  0.00    -0.246 OA
BRANCH  36  38
ATOM     38  C   UNL A   1      37.898  29.199  28.297  1.00  0.00     0.060 A 
ATOM     39  C   UNL A   1      38.233  28.191  29.202  1.00  0.00     0.016 A 
ATOM     40  C   UNL A   1      38.634  29.445  27.131  1.00  0.00     0.016 A 
ATOM     41  C   UNL A   1      39.516  27.709  29.155  1.00  0.00     0.010 A 
ATOM     42  C   UNL A   1      39.919  28.982  27.097  1.00  0.00     0.010 A 
ATOM     43  C   UNL A   1      40.369  28.234  28.182  1.00  0.00    -0.014 A 
BRANCH  43  44
ATOM     44  C   UNL A   1      41.781  27.965  28.289  1.00  0.00     0.031 A 
ATOM     45  C   UNL A   1      42.147  26.699  27.629  1.00  0.00     0.074 A 
ATOM     46  C   UNL A   1      42.625  28.867  28.824  1.00  0.00     0.049 A 
ATOM     47  N   UNL A   1      42.512  25.594  28.186  1.00  0.00    -0.248 NA
ATOM     48  C   UNL A   1      41.836  26.582  26.194  1.00  0.00     0.031 C 
ATOM     49  C   UNL A   1      42.355  30.240  29.266  1.00  0.00     0.029 A 
ATOM     50  N   UNL A   1      43.967  28.750  29.001  1.00  0.00    -0.354 N 
ATOM     51  C   UNL A   1      42.685  24.706  27.131  1.00  0.00     0.074 A 
ATOM     52  C   UNL A   1      42.010  25.277  26.000  1.00  0.00     0.031 C 
ATOM     53  C   UNL A   1      43.528  30.892  29.446  1.00  0.00     0.029 A 
ATOM     54  C   UNL A   1      44.618  29.953  29.258  1.00  0.00     0.049 A 
ATOM     55  H   UNL A   1      44.438  27.887  28.951  1.00  0.00     0.167 HD
ATOM     56  C   UNL A   1      43.629  23.730  27.179  1.00  0.00     0.037 A 
ATOM     57  C   UNL A   1      45.964  30.124  29.208  1.00  0.00     0.037 A 
ATOM     58  C   UNL A   1      44.050  23.484  28.536  1.00  0.00     0.049 A 
ATOM     59  C   UNL A   1      46.574  28.768  29.325  1.00  0.00     0.074 A 
ATOM     60  C   UNL A   1      43.420  23.026  29.676  1.00  0.00     0.029 A 
ATOM     61  N   UNL A   1      45.203  24.098  28.963  1.00  0.00    -0.354 N 
ATOM     62  N   UNL A   1      46.487  28.036  30.402  1.00  0.00    -0.248 NA
ATOM     63  C   UNL A   1      46.813  28.035  28.090  1.00  0.00     0.031 C 
ATOM     64  C   UNL A   1      43.978  23.791  30.741  1.00  0.00     0.029 A 
ATOM     65  C   UNL A   1      44.962  24.625  30.207  1.00  0.00     0.049 A 
ATOM     66  H   UNL A   1      46.050  24.151  28.465  1.00  0.00     0.167 HD
ATOM     67  C   UNL A   1      46.253  26.745  29.943  1.00  0.00     0.074 A 
ATOM     68  C   UNL A   1      46.513  26.800  28.505  1.00  0.00     0.031 C 
ATOM     69  C   UNL A   1      45.585  25.831  30.708  1.00  0.00     0.037 A 
BRANCH  56  70
ATOM     70  C   UNL A   1      44.430  23.298  25.978  1.00  0.00     0.057 A 
ATOM     71  C   UNL A   1      44.405  21.947  25.598  1.00  0.00     0.134 A 
ATOM     72  C   UNL A   1      45.421  24.078  25.342  1.00  0.00     0.134 A 
ATOM     73  F   UNL A   1      43.519  21.097  26.139  1.00  0.00    -0.206 F 
ATOM     74  C   UNL A   1      45.338  21.403  24.707  1.00  0.00     0.040 A 
ATOM     75  C   UNL A   1      46.319  23.558  24.409  1.00  0.00     0.040 A 
ATOM     76  F   UNL A   1      45.652  25.359  25.652  1.00  0.00    -0.206 F 
ATOM     77  C   UNL A   1      46.302  22.208  24.113  1.00  0.00     0.006 A 
ENDBRANCH  56  70
BRANCH  57  78
ATOM     78  C   UNL A   1      46.710  31.289  28.673  1.00  0.00     0.057 A 
ATOM     79  C   UNL A   1      46.884  31.478  27.295  1.00  0.00     0.134 A 
ATOM     80  C   UNL A   1      47.034  32.388  29.489  1.00  0.00     0.134 A 
ATOM     81  F   UNL A   1      46.556  30.509  26.429  1.00  0.00    -0.206 F 
ATOM     82  C   UNL A   1      47.342  32.692  26.760  1.00  0.00     0.040 A 
ATOM     83  C   UNL A   1      47.495  33.602  28.969  1.00  0.00     0.040 A 
ATOM     84  F   UNL A   1      46.829  32.351  30.814  1.00  0.00    -0.206 F 
ATOM     85  C   UNL A   1      47.641  33.763  27.598  1.00  0.00     0.006 A 
ENDBRANCH  57  78
BRANCH  69  86
ATOM     86  C   UNL A   1      45.268  26.210  32.132  1.00  0.00     0.057 A 
ATOM     87  C   UNL A   1      44.074  26.837  32.525  1.00  0.00     0.134 A 
ATOM     88  C   UNL A   1      46.111  25.771  33.156  1.00  0.00     0.134 A 
ATOM     89  F   UNL A   1      43.157  27.203  31.621  1.00  0.00    -0.206 F 
ATOM     90  C   UNL A   1      43.751  27.047  33.870  1.00  0.00     0.040 A 
ATOM     91  C   UNL A   1      45.788  25.946  34.504  1.00  0.00     0.040 A 
ATOM     92  F   UNL A   1      47.240  25.109  32.860  1.00  0.00    -0.206 F 
ATOM     93  C   UNL A   1      44.609  26.592  34.866  1.00  0.00     0.006 A 
ENDBRANCH  69  86
ENDBRANCH  43  44
ENDBRANCH  36  38
ENDBRANCH  35  36
ENDBRANCH  34  35
ENDBRANCH  33  34
ENDBRANCH  32  33
ENDBRANCH   1  32
TORSDOF 19
ENDMDL
