MODEL 1
REMARK VINA RESULT:     -10.8      0.000      0.000
REMARK SMILES COc1ccc([C@@H]2CC(c3ccc(Cl)cc3)=NN2C2=[NH+]C(=O)[C@@H](CC(=O)OCCOCCOC(=O)c3ccc(-c4c5nc(c(-c6c(F)cccc6F)c6ccc([nH]6)c(-c6c(F)cccc6F)c6nc(c(-c7c(F)cccc7F)c7ccc4[nH]7)C=C6)C=C5)cc3)S2)cc1OC
REMARK SMILES IDX 29 1 28 2 27 3 25 4 26 5 24 6 23 7 19 8 20 9 90 10 21 11
REMARK SMILES IDX 22 13 18 14 7 15 8 16 9 17 17 18 6 19 3 20 4 21 92 22 5 23
REMARK SMILES IDX 91 24 2 25 1 26 93 27 94 28 10 29 11 30 16 31 12 32 15 33
REMARK SMILES IDX 13 34 14 35 30 36 31 37 32 38 33 39 34 40 35 41 36 42 37 43
REMARK SMILES IDX 89 44 38 45 88 46 39 47 40 48 41 49 82 50 42 51 87 52 81 53
REMARK SMILES IDX 83 54 43 55 86 56 80 57 79 58 44 60 70 61 53 62 69 63 54 64
REMARK SMILES IDX 57 65 68 66 84 67 55 68 56 69 67 71 85 72 58 73 45 74 46 75
REMARK SMILES IDX 51 76 47 77 48 78 50 79 52 80 49 81 71 82 72 83 77 84 73 85
REMARK SMILES IDX 74 86 76 87 78 88 75 89 59 90 60 91 65 92 61 93 62 94 64 95
REMARK SMILES IDX 66 96 63 97
REMARK H PARENT 20 12 83 59 57 70
REMARK Flexibility Score: inf
ROOT
ATOM      1  C   UNL A   1      29.732  28.488  23.750  1.00  0.00     0.202 C 
ENDROOT
BRANCH   1   2
ATOM      2  C   UNL A   1      29.717  26.979  23.493  1.00  0.00     0.261 C 
BRANCH   2   3
ATOM      3  O   UNL A   1      29.262  26.270  24.662  1.00  0.00    -0.463 OA
BRANCH   3   4
ATOM      4  C   UNL A   1      30.181  25.548  25.349  1.00  0.00     0.307 C 
ATOM      5  O   UNL A   1      30.092  25.230  26.527  1.00  0.00    -0.252 OA
BRANCH   4   6
ATOM      6  C   UNL A   1      31.384  25.223  24.501  1.00  0.00     0.150 C 
BRANCH   6   7
ATOM      7  C   UNL A   1      32.657  25.974  24.873  1.00  0.00     0.184 C 
ATOM      8  C   UNL A   1      34.723  24.518  24.850  1.00  0.00     0.340 C 
ATOM      9  N   UNL A   1      34.569  25.051  23.682  1.00  0.00    -0.202 N 
ATOM     10  S   UNL A   1      33.675  25.132  26.117  1.00  0.00    -0.020 SA
ATOM     11  C   UNL A   1      33.577  26.003  23.664  1.00  0.00     0.322 C 
ATOM     12  H   UNL A   1      35.102  24.803  22.892  1.00  0.00     0.316 HD
ATOM     13  O   UNL A   1      33.382  26.767  22.724  1.00  0.00    -0.246 OA
BRANCH   8  14
ATOM     14  N   UNL A   1      35.598  23.507  25.186  1.00  0.00    -0.120 N 
ATOM     15  C   UNL A   1      35.794  22.363  24.277  1.00  0.00     0.243 C 
ATOM     16  C   UNL A   1      37.090  21.718  24.756  1.00  0.00     0.118 C 
ATOM     17  C   UNL A   1      37.550  22.766  25.724  1.00  0.00     0.096 C 
ATOM     18  N   UNL A   1      36.712  23.725  25.965  1.00  0.00    -0.086 NA
BRANCH  15  19
ATOM     19  C   UNL A   1      34.574  21.460  24.274  1.00  0.00     0.003 A 
ATOM     20  C   UNL A   1      32.549  19.536  23.833  1.00  0.00     0.160 A 
ATOM     21  C   UNL A   1      32.417  20.849  23.359  1.00  0.00     0.051 A 
ATOM     22  C   UNL A   1      33.683  19.188  24.572  1.00  0.00     0.161 A 
ATOM     23  C   UNL A   1      33.402  21.811  23.598  1.00  0.00     0.012 A 
ATOM     24  C   UNL A   1      34.678  20.158  24.789  1.00  0.00     0.058 A 
BRANCH  20  25
ATOM     25  O   UNL A   1      31.671  18.597  23.354  1.00  0.00    -0.493 OA
ATOM     26  C   UNL A   1      32.071  18.038  22.105  1.00  0.00     0.278 C 
ENDBRANCH  20  25
BRANCH  22  27
ATOM     27  O   UNL A   1      34.043  17.959  25.054  1.00  0.00    -0.493 OA
ATOM     28  C   UNL A   1      35.147  17.307  24.451  1.00  0.00     0.278 C 
ENDBRANCH  22  27
ENDBRANCH  15  19
BRANCH  17  29
ATOM     29  C   UNL A   1      38.860  22.673  26.385  1.00  0.00     0.000 A 
ATOM     30  C   UNL A   1      39.331  23.775  27.106  1.00  0.00     0.011 A 
ATOM     31  C   UNL A   1      39.637  21.517  26.266  1.00  0.00     0.011 A 
ATOM     32  C   UNL A   1      40.577  23.711  27.734  1.00  0.00     0.021 A 
ATOM     33  C   UNL A   1      40.891  21.464  26.881  1.00  0.00     0.021 A 
ATOM     34  C   UNL A   1      41.352  22.557  27.617  1.00  0.00     0.041 A 
ATOM     35  Cl  UNL A   1      42.892  22.483  28.379  1.00  0.00    -0.084 Cl
ENDBRANCH  17  29
ENDBRANCH   8  14
ENDBRANCH   6   7
ENDBRANCH   4   6
ENDBRANCH   3   4
ENDBRANCH   2   3
ENDBRANCH   1   2
BRANCH   1  36
ATOM     36  O   UNL A   1      30.770  28.937  24.625  1.00  0.00    -0.374 OA
BRANCH  36  37
ATOM     37  C   UNL A   1      31.956  29.426  24.002  1.00  0.00     0.202 C 
BRANCH  37  38
ATOM     38  C   UNL A   1      33.169  29.563  24.929  1.00  0.00     0.261 C 
BRANCH  38  39
ATOM     39  O   UNL A   1      32.786  29.637  26.315  1.00  0.00    -0.460 OA
BRANCH  39  40
ATOM     40  C   UNL A   1      33.146  30.781  26.941  1.00  0.00     0.338 C 
ATOM     41  O   UNL A   1      32.437  31.749  27.173  1.00  0.00    -0.246 OA
BRANCH  40  42
ATOM     42  C   UNL A   1      34.528  30.691  27.456  1.00  0.00     0.060 A 
ATOM     43  C   UNL A   1      34.978  29.429  27.860  1.00  0.00     0.016 A 
ATOM     44  C   UNL A   1      35.335  31.817  27.643  1.00  0.00     0.016 A 
ATOM     45  C   UNL A   1      36.207  29.293  28.505  1.00  0.00     0.010 A 
ATOM     46  C   UNL A   1      36.568  31.679  28.297  1.00  0.00     0.010 A 
ATOM     47  C   UNL A   1      36.995  30.422  28.763  1.00  0.00    -0.014 A 
BRANCH  47  48
ATOM     48  C   UNL A   1      38.213  30.289  29.606  1.00  0.00     0.031 A 
ATOM     49  C   UNL A   1      39.418  29.585  29.066  1.00  0.00     0.074 A 
ATOM     50  C   UNL A   1      38.269  30.827  30.838  1.00  0.00     0.049 A 
ATOM     51  N   UNL A   1      40.577  29.384  29.641  1.00  0.00    -0.248 NA
ATOM     52  C   UNL A   1      39.313  29.050  27.702  1.00  0.00     0.031 C 
ATOM     53  C   UNL A   1      37.193  31.586  31.447  1.00  0.00     0.029 A 
ATOM     54  N   UNL A   1      39.253  30.824  31.795  1.00  0.00    -0.354 N 
ATOM     55  C   UNL A   1      41.344  28.708  28.705  1.00  0.00     0.074 A 
ATOM     56  C   UNL A   1      40.507  28.499  27.542  1.00  0.00     0.031 C 
ATOM     57  C   UNL A   1      37.544  31.948  32.688  1.00  0.00     0.029 A 
ATOM     58  C   UNL A   1      38.887  31.455  32.960  1.00  0.00     0.049 A 
ATOM     59  H   UNL A   1      40.136  30.411  31.660  1.00  0.00     0.167 HD
ATOM     60  C   UNL A   1      42.634  28.313  28.804  1.00  0.00     0.037 A 
ATOM     61  C   UNL A   1      39.548  31.628  34.118  1.00  0.00     0.037 A 
ATOM     62  C   UNL A   1      43.466  28.516  29.962  1.00  0.00     0.049 A 
ATOM     63  C   UNL A   1      40.954  31.123  34.229  1.00  0.00     0.074 A 
ATOM     64  C   UNL A   1      44.790  28.158  30.146  1.00  0.00     0.029 A 
ATOM     65  N   UNL A   1      43.051  29.125  31.137  1.00  0.00    -0.354 N 
ATOM     66  N   UNL A   1      41.675  30.507  33.326  1.00  0.00    -0.248 NA
ATOM     67  C   UNL A   1      41.644  31.347  35.506  1.00  0.00     0.031 C 
ATOM     68  C   UNL A   1      45.164  28.516  31.447  1.00  0.00     0.029 A 
ATOM     69  C   UNL A   1      44.085  29.130  32.061  1.00  0.00     0.049 A 
ATOM     70  H   UNL A   1      42.153  29.499  31.293  1.00  0.00     0.167 HD
ATOM     71  C   UNL A   1      42.912  30.290  33.913  1.00  0.00     0.074 A 
ATOM     72  C   UNL A   1      42.846  30.851  35.247  1.00  0.00     0.031 C 
ATOM     73  C   UNL A   1      44.003  29.682  33.389  1.00  0.00     0.037 A 
BRANCH  60  74
ATOM     74  C   UNL A   1      43.210  27.597  27.622  1.00  0.00     0.057 A 
ATOM     75  C   UNL A   1      43.651  28.287  26.485  1.00  0.00     0.134 A 
ATOM     76  C   UNL A   1      43.317  26.202  27.619  1.00  0.00     0.134 A 
ATOM     77  F   UNL A   1      43.552  29.624  26.422  1.00  0.00    -0.206 F 
ATOM     78  C   UNL A   1      44.157  27.610  25.375  1.00  0.00     0.040 A 
ATOM     79  C   UNL A   1      43.841  25.516  26.522  1.00  0.00     0.040 A 
ATOM     80  F   UNL A   1      42.909  25.485  28.676  1.00  0.00    -0.206 F 
ATOM     81  C   UNL A   1      44.257  26.221  25.394  1.00  0.00     0.006 A 
ENDBRANCH  60  74
BRANCH  61  82
ATOM     82  C   UNL A   1      38.894  32.333  35.251  1.00  0.00     0.057 A 
ATOM     83  C   UNL A   1      38.221  31.628  36.254  1.00  0.00     0.134 A 
ATOM     84  C   UNL A   1      38.944  33.728  35.364  1.00  0.00     0.134 A 
ATOM     85  F   UNL A   1      38.129  30.292  36.193  1.00  0.00    -0.206 F 
ATOM     86  C   UNL A   1      37.610  32.285  37.324  1.00  0.00     0.040 A 
ATOM     87  C   UNL A   1      38.356  34.396  36.440  1.00  0.00     0.040 A 
ATOM     88  F   UNL A   1      39.585  34.461  34.441  1.00  0.00    -0.206 F 
ATOM     89  C   UNL A   1      37.681  33.673  37.421  1.00  0.00     0.006 A 
ENDBRANCH  61  82
BRANCH  73  90
ATOM     90  C   UNL A   1      45.216  29.607  34.265  1.00  0.00     0.057 A 
ATOM     91  C   UNL A   1      45.453  28.508  35.099  1.00  0.00     0.134 A 
ATOM     92  C   UNL A   1      46.161  30.640  34.267  1.00  0.00     0.134 A 
ATOM     93  F   UNL A   1      44.574  27.495  35.154  1.00  0.00    -0.206 F 
ATOM     94  C   UNL A   1      46.579  28.447  35.921  1.00  0.00     0.040 A 
ATOM     95  C   UNL A   1      47.300  30.582  35.069  1.00  0.00     0.040 A 
ATOM     96  F   UNL A   1      45.991  31.721  33.490  1.00  0.00    -0.206 F 
ATOM     97  C   UNL A   1      47.509  29.485  35.903  1.00  0.00     0.006 A 
ENDBRANCH  73  90
ENDBRANCH  47  48
ENDBRANCH  40  42
ENDBRANCH  39  40
ENDBRANCH  38  39
ENDBRANCH  37  38
ENDBRANCH  36  37
ENDBRANCH   1  36
TORSDOF 20
ENDMDL
MODEL 2
REMARK VINA RESULT:     -10.5      1.060      5.793
REMARK SMILES COc1ccc([C@@H]2CC(c3ccc(Cl)cc3)=NN2C2=[NH+]C(=O)[C@@H](CC(=O)OCCOCCOC(=O)c3ccc(-c4c5nc(c(-c6c(F)cccc6F)c6ccc([nH]6)c(-c6c(F)cccc6F)c6nc(c(-c7c(F)cccc7F)c7ccc4[nH]7)C=C6)C=C5)cc3)S2)cc1OC
REMARK SMILES IDX 29 1 28 2 27 3 25 4 26 5 24 6 23 7 19 8 20 9 90 10 21 11
REMARK SMILES IDX 22 13 18 14 7 15 8 16 9 17 17 18 6 19 3 20 4 21 92 22 5 23
REMARK SMILES IDX 91 24 2 25 1 26 93 27 94 28 10 29 11 30 16 31 12 32 15 33
REMARK SMILES IDX 13 34 14 35 30 36 31 37 32 38 33 39 34 40 35 41 36 42 37 43
REMARK SMILES IDX 89 44 38 45 88 46 39 47 40 48 41 49 82 50 42 51 87 52 81 53
REMARK SMILES IDX 83 54 43 55 86 56 80 57 79 58 44 60 70 61 53 62 69 63 54 64
REMARK SMILES IDX 57 65 68 66 84 67 55 68 56 69 67 71 85 72 58 73 45 74 46 75
REMARK SMILES IDX 51 76 47 77 48 78 50 79 52 80 49 81 71 82 72 83 77 84 73 85
REMARK SMILES IDX 74 86 76 87 78 88 75 89 59 90 60 91 65 92 61 93 62 94 64 95
REMARK SMILES IDX 66 96 63 97
REMARK H PARENT 20 12 83 59 57 70
REMARK Flexibility Score: inf
ROOT
ATOM      1  C   UNL A   1      31.159  26.667  26.406  1.00  0.00     0.202 C 
ENDROOT
BRANCH   1   2
ATOM      2  C   UNL A   1      30.216  25.469  26.271  1.00  0.00     0.261 C 
BRANCH   2   3
ATOM      3  O   UNL A   1      30.308  24.895  24.953  1.00  0.00    -0.463 OA
BRANCH   3   4
ATOM      4  C   UNL A   1      30.936  23.700  24.837  1.00  0.00     0.307 C 
ATOM      5  O   UNL A   1      30.665  22.695  25.479  1.00  0.00    -0.252 OA
BRANCH   4   6
ATOM      6  C   UNL A   1      32.073  23.759  23.849  1.00  0.00     0.150 C 
BRANCH   6   7
ATOM      7  C   UNL A   1      33.211  24.699  24.231  1.00  0.00     0.184 C 
ATOM      8  C   UNL A   1      35.395  23.505  24.666  1.00  0.00     0.340 C 
ATOM      9  N   UNL A   1      35.337  23.838  23.418  1.00  0.00    -0.202 N 
ATOM     10  S   UNL A   1      34.142  24.175  25.697  1.00  0.00    -0.020 SA
ATOM     11  C   UNL A   1      34.267  24.655  23.140  1.00  0.00     0.322 C 
ATOM     12  H   UNL A   1      35.986  23.540  22.741  1.00  0.00     0.316 HD
ATOM     13  O   UNL A   1      34.117  25.243  22.073  1.00  0.00    -0.246 OA
BRANCH   8  14
ATOM     14  N   UNL A   1      36.316  22.664  25.254  1.00  0.00    -0.120 N 
ATOM     15  C   UNL A   1      36.648  21.373  24.624  1.00  0.00     0.243 C 
ATOM     16  C   UNL A   1      37.954  20.952  25.291  1.00  0.00     0.118 C 
ATOM     17  C   UNL A   1      38.277  22.216  26.028  1.00  0.00     0.096 C 
ATOM     18  N   UNL A   1      37.361  23.133  26.017  1.00  0.00    -0.086 NA
BRANCH  15  19
ATOM     19  C   UNL A   1      35.496  20.394  24.761  1.00  0.00     0.003 A 
ATOM     20  C   UNL A   1      33.383  18.539  24.462  1.00  0.00     0.160 A 
ATOM     21  C   UNL A   1      33.127  19.907  24.632  1.00  0.00     0.051 A 
ATOM     22  C   UNL A   1      34.704  18.083  24.484  1.00  0.00     0.161 A 
ATOM     23  C   UNL A   1      34.167  20.824  24.809  1.00  0.00     0.012 A 
ATOM     24  C   UNL A   1      35.743  19.016  24.641  1.00  0.00     0.058 A 
BRANCH  20  25
ATOM     25  O   UNL A   1      32.342  17.745  24.054  1.00  0.00    -0.493 OA
ATOM     26  C   UNL A   1      32.096  17.817  22.651  1.00  0.00     0.278 C 
ENDBRANCH  20  25
BRANCH  22  27
ATOM     27  O   UNL A   1      35.173  16.817  24.261  1.00  0.00    -0.493 OA
ATOM     28  C   UNL A   1      35.279  15.943  25.371  1.00  0.00     0.278 C 
ENDBRANCH  22  27
ENDBRANCH  15  19
BRANCH  17  29
ATOM     29  C   UNL A   1      39.547  22.373  26.752  1.00  0.00     0.000 A 
ATOM     30  C   UNL A   1      40.390  21.264  26.882  1.00  0.00     0.011 A 
ATOM     31  C   UNL A   1      39.891  23.598  27.332  1.00  0.00     0.011 A 
ATOM     32  C   UNL A   1      41.597  21.388  27.574  1.00  0.00     0.021 A 
ATOM     33  C   UNL A   1      41.091  23.712  28.039  1.00  0.00     0.021 A 
ATOM     34  C   UNL A   1      41.941  22.610  28.151  1.00  0.00     0.041 A 
ATOM     35  Cl  UNL A   1      43.421  22.760  29.015  1.00  0.00    -0.084 Cl
ENDBRANCH  17  29
ENDBRANCH   8  14
ENDBRANCH   6   7
ENDBRANCH   4   6
ENDBRANCH   3   4
ENDBRANCH   2   3
ENDBRANCH   1   2
BRANCH   1  36
ATOM     36  O   UNL A   1      31.024  27.403  27.625  1.00  0.00    -0.374 OA
BRANCH  36  37
ATOM     37  C   UNL A   1      31.563  28.723  27.630  1.00  0.00     0.202 C 
BRANCH  37  38
ATOM     38  C   UNL A   1      31.962  29.268  26.254  1.00  0.00     0.261 C 
BRANCH  38  39
ATOM     39  O   UNL A   1      33.332  29.710  26.224  1.00  0.00    -0.460 OA
BRANCH  39  40
ATOM     40  C   UNL A   1      33.606  30.758  27.033  1.00  0.00     0.338 C 
ATOM     41  O   UNL A   1      32.819  31.600  27.442  1.00  0.00    -0.246 OA
BRANCH  40  42
ATOM     42  C   UNL A   1      35.008  30.717  27.501  1.00  0.00     0.060 A 
ATOM     43  C   UNL A   1      35.565  29.454  27.735  1.00  0.00     0.016 A 
ATOM     44  C   UNL A   1      35.733  31.872  27.807  1.00  0.00     0.016 A 
ATOM     45  C   UNL A   1      36.821  29.338  28.330  1.00  0.00     0.010 A 
ATOM     46  C   UNL A   1      36.993  31.754  28.410  1.00  0.00     0.010 A 
ATOM     47  C   UNL A   1      37.530  30.486  28.707  1.00  0.00    -0.014 A 
BRANCH  47  48
ATOM     48  C   UNL A   1      38.781  30.349  29.499  1.00  0.00     0.031 A 
ATOM     49  C   UNL A   1      38.840  30.885  30.894  1.00  0.00     0.074 A 
ATOM     50  C   UNL A   1      39.854  29.711  28.999  1.00  0.00     0.049 A 
ATOM     51  N   UNL A   1      39.832  30.845  31.747  1.00  0.00    -0.248 NA
ATOM     52  C   UNL A   1      37.625  31.539  31.401  1.00  0.00     0.031 C 
ATOM     53  C   UNL A   1      39.899  29.092  27.687  1.00  0.00     0.029 A 
ATOM     54  N   UNL A   1      41.103  29.474  29.518  1.00  0.00    -0.354 N 
ATOM     55  C   UNL A   1      39.359  31.459  32.897  1.00  0.00     0.074 A 
ATOM     56  C   UNL A   1      38.007  31.897  32.619  1.00  0.00     0.031 C 
ATOM     57  C   UNL A   1      41.119  28.578  27.474  1.00  0.00     0.029 A 
ATOM     58  C   UNL A   1      41.943  28.821  28.649  1.00  0.00     0.049 A 
ATOM     59  H   UNL A   1      41.370  29.746  30.425  1.00  0.00     0.167 HD
ATOM     60  C   UNL A   1      39.993  31.627  34.080  1.00  0.00     0.037 A 
ATOM     61  C   UNL A   1      43.230  28.448  28.773  1.00  0.00     0.037 A 
ATOM     62  C   UNL A   1      41.339  31.197  34.357  1.00  0.00     0.049 A 
ATOM     63  C   UNL A   1      43.933  28.704  30.071  1.00  0.00     0.074 A 
ATOM     64  C   UNL A   1      42.057  31.316  35.533  1.00  0.00     0.029 A 
ATOM     65  N   UNL A   1      42.173  30.572  33.442  1.00  0.00    -0.354 N 
ATOM     66  N   UNL A   1      43.464  29.263  31.158  1.00  0.00    -0.248 NA
ATOM     67  C   UNL A   1      45.332  28.267  30.168  1.00  0.00     0.031 C 
ATOM     68  C   UNL A   1      43.340  30.798  35.317  1.00  0.00     0.029 A 
ATOM     69  C   UNL A   1      43.409  30.322  34.018  1.00  0.00     0.049 A 
ATOM     70  H   UNL A   1      41.925  30.339  32.517  1.00  0.00     0.167 HD
ATOM     71  C   UNL A   1      44.500  29.226  32.079  1.00  0.00     0.074 A 
ATOM     72  C   UNL A   1      45.618  28.577  31.425  1.00  0.00     0.031 C 
ATOM     73  C   UNL A   1      44.517  29.686  33.353  1.00  0.00     0.037 A 
BRANCH  60  74
ATOM     74  C   UNL A   1      39.228  32.332  35.157  1.00  0.00     0.057 A 
ATOM     75  C   UNL A   1      39.214  33.730  35.256  1.00  0.00     0.134 A 
ATOM     76  C   UNL A   1      38.503  31.605  36.108  1.00  0.00     0.134 A 
ATOM     77  F   UNL A   1      39.908  34.479  34.387  1.00  0.00    -0.206 F 
ATOM     78  C   UNL A   1      38.524  34.378  36.281  1.00  0.00     0.040 A 
ATOM     79  C   UNL A   1      37.792  32.244  37.124  1.00  0.00     0.040 A 
ATOM     80  F   UNL A   1      38.479  30.265  36.067  1.00  0.00    -0.206 F 
ATOM     81  C   UNL A   1      37.807  33.635  37.216  1.00  0.00     0.006 A 
ENDBRANCH  60  74
BRANCH  61  82
ATOM     82  C   UNL A   1      43.921  27.771  27.646  1.00  0.00     0.057 A 
ATOM     83  C   UNL A   1      43.989  26.376  27.568  1.00  0.00     0.134 A 
ATOM     84  C   UNL A   1      44.514  28.505  26.611  1.00  0.00     0.134 A 
ATOM     85  F   UNL A   1      43.451  25.620  28.536  1.00  0.00    -0.206 F 
ATOM     86  C   UNL A   1      44.632  25.734  26.508  1.00  0.00     0.040 A 
ATOM     87  C   UNL A   1      45.142  27.875  25.535  1.00  0.00     0.040 A 
ATOM     88  F   UNL A   1      44.473  29.846  26.621  1.00  0.00    -0.206 F 
ATOM     89  C   UNL A   1      45.206  26.484  25.485  1.00  0.00     0.006 A 
ENDBRANCH  61  82
BRANCH  73  90
ATOM     90  C   UNL A   1      45.788  29.489  34.122  1.00  0.00     0.057 A 
ATOM     91  C   UNL A   1      46.018  28.332  34.875  1.00  0.00     0.134 A 
ATOM     92  C   UNL A   1      46.794  30.463  34.101  1.00  0.00     0.134 A 
ATOM     93  F   UNL A   1      45.084  27.373  34.949  1.00  0.00    -0.206 F 
ATOM     94  C   UNL A   1      47.199  28.158  35.599  1.00  0.00     0.040 A 
ATOM     95  C   UNL A   1      47.986  30.291  34.804  1.00  0.00     0.040 A 
ATOM     96  F   UNL A   1      46.633  31.594  33.398  1.00  0.00    -0.206 F 
ATOM     97  C   UNL A   1      48.189  29.138  35.560  1.00  0.00     0.006 A 
ENDBRANCH  73  90
ENDBRANCH  47  48
ENDBRANCH  40  42
ENDBRANCH  39  40
ENDBRANCH  38  39
ENDBRANCH  37  38
ENDBRANCH  36  37
ENDBRANCH   1  36
TORSDOF 20
ENDMDL
MODEL 3
REMARK VINA RESULT:     -10.2      3.210      8.276
REMARK SMILES COc1ccc([C@@H]2CC(c3ccc(Cl)cc3)=NN2C2=[NH+]C(=O)[C@@H](CC(=O)OCCOCCOC(=O)c3ccc(-c4c5nc(c(-c6c(F)cccc6F)c6ccc([nH]6)c(-c6c(F)cccc6F)c6nc(c(-c7c(F)cccc7F)c7ccc4[nH]7)C=C6)C=C5)cc3)S2)cc1OC
REMARK SMILES IDX 29 1 28 2 27 3 25 4 26 5 24 6 23 7 19 8 20 9 90 10 21 11
REMARK SMILES IDX 22 13 18 14 7 15 8 16 9 17 17 18 6 19 3 20 4 21 92 22 5 23
REMARK SMILES IDX 91 24 2 25 1 26 93 27 94 28 10 29 11 30 16 31 12 32 15 33
REMARK SMILES IDX 13 34 14 35 30 36 31 37 32 38 33 39 34 40 35 41 36 42 37 43
REMARK SMILES IDX 89 44 38 45 88 46 39 47 40 48 41 49 82 50 42 51 87 52 81 53
REMARK SMILES IDX 83 54 43 55 86 56 80 57 79 58 44 60 70 61 53 62 69 63 54 64
REMARK SMILES IDX 57 65 68 66 84 67 55 68 56 69 67 71 85 72 58 73 45 74 46 75
REMARK SMILES IDX 51 76 47 77 48 78 50 79 52 80 49 81 71 82 72 83 77 84 73 85
REMARK SMILES IDX 74 86 76 87 78 88 75 89 59 90 60 91 65 92 61 93 62 94 64 95
REMARK SMILES IDX 66 96 63 97
REMARK H PARENT 20 12 83 59 57 70
REMARK Flexibility Score: inf
ROOT
ATOM      1  C   UNL A   1      44.037  21.775  26.059  1.00  0.00     0.202 C 
ENDROOT
BRANCH   1   2
ATOM      2  C   UNL A   1      42.806  20.922  26.377  1.00  0.00     0.261 C 
BRANCH   2   3
ATOM      3  O   UNL A   1      41.636  21.455  25.725  1.00  0.00    -0.463 OA
BRANCH   3   4
ATOM      4  C   UNL A   1      40.428  21.072  26.204  1.00  0.00     0.307 C 
ATOM      5  O   UNL A   1      39.975  19.936  26.149  1.00  0.00    -0.252 OA
BRANCH   4   6
ATOM      6  C   UNL A   1      39.656  22.235  26.772  1.00  0.00     0.150 C 
BRANCH   6   7
ATOM      7  C   UNL A   1      38.926  23.089  25.741  1.00  0.00     0.184 C 
ATOM      8  C   UNL A   1      36.455  22.583  25.590  1.00  0.00     0.340 C 
ATOM      9  N   UNL A   1      36.642  23.522  26.459  1.00  0.00    -0.202 N 
ATOM     10  S   UNL A   1      37.853  22.143  24.624  1.00  0.00    -0.020 SA
ATOM     11  C   UNL A   1      37.936  23.985  26.464  1.00  0.00     0.322 C 
ATOM     12  H   UNL A   1      35.936  23.868  27.051  1.00  0.00     0.316 HD
ATOM     13  O   UNL A   1      38.298  24.992  27.066  1.00  0.00    -0.246 OA
BRANCH   8  14
ATOM     14  N   UNL A   1      35.288  21.883  25.370  1.00  0.00    -0.120 N 
ATOM     15  C   UNL A   1      34.372  22.290  24.289  1.00  0.00     0.243 C 
ATOM     16  C   UNL A   1      33.469  21.078  24.083  1.00  0.00     0.118 C 
ATOM     17  C   UNL A   1      34.193  20.078  24.933  1.00  0.00     0.096 C 
ATOM     18  N   UNL A   1      35.170  20.540  25.648  1.00  0.00    -0.086 NA
BRANCH  15  19
ATOM     19  C   UNL A   1      33.662  23.584  24.640  1.00  0.00     0.003 A 
ATOM     20  C   UNL A   1      32.849  26.178  25.420  1.00  0.00     0.160 A 
ATOM     21  C   UNL A   1      32.740  25.090  26.298  1.00  0.00     0.051 A 
ATOM     22  C   UNL A   1      33.329  25.965  24.125  1.00  0.00     0.161 A 
ATOM     23  C   UNL A   1      33.114  23.801  25.908  1.00  0.00     0.012 A 
ATOM     24  C   UNL A   1      33.722  24.669  23.749  1.00  0.00     0.058 A 
BRANCH  20  25
ATOM     25  O   UNL A   1      32.698  27.435  25.946  1.00  0.00    -0.493 OA
ATOM     26  C   UNL A   1      33.907  27.972  26.480  1.00  0.00     0.278 C 
ENDBRANCH  20  25
BRANCH  22  27
ATOM     27  O   UNL A   1      33.586  26.888  23.148  1.00  0.00    -0.493 OA
ATOM     28  C   UNL A   1      32.483  27.539  22.542  1.00  0.00     0.278 C 
ENDBRANCH  22  27
ENDBRANCH  15  19
BRANCH  17  29
ATOM     29  C   UNL A   1      33.778  18.668  24.974  1.00  0.00     0.000 A 
ATOM     30  C   UNL A   1      32.611  18.330  25.667  1.00  0.00     0.011 A 
ATOM     31  C   UNL A   1      34.552  17.679  24.361  1.00  0.00     0.011 A 
ATOM     32  C   UNL A   1      32.203  16.995  25.726  1.00  0.00     0.021 A 
ATOM     33  C   UNL A   1      34.149  16.343  24.438  1.00  0.00     0.021 A 
ATOM     34  C   UNL A   1      32.974  16.008  25.114  1.00  0.00     0.041 A 
ATOM     35  Cl  UNL A   1      32.479  14.363  25.198  1.00  0.00    -0.084 Cl
ENDBRANCH  17  29
ENDBRANCH   8  14
ENDBRANCH   6   7
ENDBRANCH   4   6
ENDBRANCH   3   4
ENDBRANCH   2   3
ENDBRANCH   1   2
BRANCH   1  36
ATOM     36  O   UNL A   1      44.176  22.138  24.683  1.00  0.00    -0.374 OA
BRANCH  36  37
ATOM     37  C   UNL A   1      43.923  23.504  24.361  1.00  0.00     0.202 C 
BRANCH  37  38
ATOM     38  C   UNL A   1      44.036  24.482  25.536  1.00  0.00     0.261 C 
BRANCH  38  39
ATOM     39  O   UNL A   1      43.537  25.790  25.201  1.00  0.00    -0.460 OA
BRANCH  39  40
ATOM     40  C   UNL A   1      42.279  26.042  25.628  1.00  0.00     0.338 C 
ATOM     41  O   UNL A   1      41.237  25.648  25.124  1.00  0.00    -0.246 OA
BRANCH  40  42
ATOM     42  C   UNL A   1      42.290  26.783  26.907  1.00  0.00     0.060 A 
ATOM     43  C   UNL A   1      41.452  26.310  27.924  1.00  0.00     0.016 A 
ATOM     44  C   UNL A   1      43.012  27.966  27.084  1.00  0.00     0.016 A 
ATOM     45  C   UNL A   1      41.286  27.046  29.097  1.00  0.00     0.010 A 
ATOM     46  C   UNL A   1      42.838  28.708  28.262  1.00  0.00     0.010 A 
ATOM     47  C   UNL A   1      41.948  28.269  29.260  1.00  0.00    -0.014 A 
BRANCH  47  48
ATOM     48  C   UNL A   1      41.625  29.128  30.431  1.00  0.00     0.031 A 
ATOM     49  C   UNL A   1      40.434  30.032  30.383  1.00  0.00     0.074 A 
ATOM     50  C   UNL A   1      42.361  29.077  31.556  1.00  0.00     0.049 A 
ATOM     51  N   UNL A   1      39.980  30.840  31.308  1.00  0.00    -0.248 NA
ATOM     52  C   UNL A   1      39.645  30.018  29.144  1.00  0.00     0.031 C 
ATOM     53  C   UNL A   1      43.498  28.196  31.749  1.00  0.00     0.029 A 
ATOM     54  N   UNL A   1      42.275  29.768  32.739  1.00  0.00    -0.354 N 
ATOM     55  C   UNL A   1      38.845  31.424  30.767  1.00  0.00     0.074 A 
ATOM     56  C   UNL A   1      38.703  30.908  29.421  1.00  0.00     0.031 C 
ATOM     57  C   UNL A   1      44.038  28.416  32.955  1.00  0.00     0.029 A 
ATOM     58  C   UNL A   1      43.271  29.452  33.632  1.00  0.00     0.049 A 
ATOM     59  H   UNL A   1      41.568  30.426  32.929  1.00  0.00     0.167 HD
ATOM     60  C   UNL A   1      37.993  32.299  31.348  1.00  0.00     0.037 A 
ATOM     61  C   UNL A   1      43.543  29.930  34.859  1.00  0.00     0.037 A 
ATOM     62  C   UNL A   1      38.136  32.817  32.684  1.00  0.00     0.049 A 
ATOM     63  C   UNL A   1      42.622  30.949  35.458  1.00  0.00     0.074 A 
ATOM     64  C   UNL A   1      37.312  33.701  33.359  1.00  0.00     0.029 A 
ATOM     65  N   UNL A   1      39.176  32.505  33.546  1.00  0.00    -0.354 N 
ATOM     66  N   UNL A   1      41.538  31.473  34.943  1.00  0.00    -0.248 NA
ATOM     67  C   UNL A   1      42.948  31.431  36.806  1.00  0.00     0.031 C 
ATOM     68  C   UNL A   1      37.876  33.952  34.615  1.00  0.00     0.029 A 
ATOM     69  C   UNL A   1      39.030  33.197  34.738  1.00  0.00     0.049 A 
ATOM     70  H   UNL A   1      39.911  31.882  33.342  1.00  0.00     0.167 HD
ATOM     71  C   UNL A   1      41.036  32.330  35.911  1.00  0.00     0.074 A 
ATOM     72  C   UNL A   1      41.929  32.245  37.049  1.00  0.00     0.031 C 
ATOM     73  C   UNL A   1      39.932  33.113  35.858  1.00  0.00     0.037 A 
BRANCH  60  74
ATOM     74  C   UNL A   1      36.839  32.765  30.516  1.00  0.00     0.057 A 
ATOM     75  C   UNL A   1      36.979  33.791  29.571  1.00  0.00     0.134 A 
ATOM     76  C   UNL A   1      35.573  32.187  30.666  1.00  0.00     0.134 A 
ATOM     77  F   UNL A   1      38.162  34.398  29.398  1.00  0.00    -0.206 F 
ATOM     78  C   UNL A   1      35.891  34.241  28.821  1.00  0.00     0.040 A 
ATOM     79  C   UNL A   1      34.484  32.615  29.907  1.00  0.00     0.040 A 
ATOM     80  F   UNL A   1      35.376  31.204  31.556  1.00  0.00    -0.206 F 
ATOM     81  C   UNL A   1      34.641  33.649  28.985  1.00  0.00     0.006 A 
ENDBRANCH  60  74
BRANCH  61  82
ATOM     82  C   UNL A   1      44.723  29.427  35.610  1.00  0.00     0.057 A 
ATOM     83  C   UNL A   1      44.615  28.350  36.496  1.00  0.00     0.134 A 
ATOM     84  C   UNL A   1      45.989  30.001  35.442  1.00  0.00     0.134 A 
ATOM     85  F   UNL A   1      43.426  27.768  36.707  1.00  0.00    -0.206 F 
ATOM     86  C   UNL A   1      45.721  27.870  37.200  1.00  0.00     0.040 A 
ATOM     87  C   UNL A   1      47.107  29.517  36.123  1.00  0.00     0.040 A 
ATOM     88  F   UNL A   1      46.160  31.029  34.598  1.00  0.00    -0.206 F 
ATOM     89  C   UNL A   1      46.973  28.451  37.009  1.00  0.00     0.006 A 
ENDBRANCH  61  82
BRANCH  73  90
ATOM     90  C   UNL A   1      39.628  33.929  37.077  1.00  0.00     0.057 A 
ATOM     91  C   UNL A   1      40.103  35.238  37.221  1.00  0.00     0.134 A 
ATOM     92  C   UNL A   1      38.846  33.403  38.113  1.00  0.00     0.134 A 
ATOM     93  F   UNL A   1      40.873  35.790  36.270  1.00  0.00    -0.206 F 
ATOM     94  C   UNL A   1      39.826  35.991  38.363  1.00  0.00     0.040 A 
ATOM     95  C   UNL A   1      38.547  34.153  39.250  1.00  0.00     0.040 A 
ATOM     96  F   UNL A   1      38.363  32.155  38.035  1.00  0.00    -0.206 F 
ATOM     97  C   UNL A   1      39.042  35.450  39.379  1.00  0.00     0.006 A 
ENDBRANCH  73  90
ENDBRANCH  47  48
ENDBRANCH  40  42
ENDBRANCH  39  40
ENDBRANCH  38  39
ENDBRANCH  37  38
ENDBRANCH  36  37
ENDBRANCH   1  36
TORSDOF 20
ENDMDL
