MODEL 1
REMARK VINA RESULT:     -10.9      0.000      0.000
REMARK SMILES O=C(OCCOCCOC(=O)c1cccc(Br)c1O[C@@H]1CCOC2(CCC2)C1)c1ccc(-c2c3nc(c(-c4c(F)cccc4F)c4ccc([nH]4)c(-c4c(F)cccc4F)c4nc(c(-c5c(F)cccc5F)c5ccc2[nH]5)C=C4)C=C3)cc1
REMARK SMILES IDX 6 1 5 2 4 3 3 4 2 5 1 6 29 7 30 8 82 9 31 10 81 11 32 12
REMARK SMILES IDX 33 13 34 14 75 15 35 16 80 17 74 18 76 19 36 20 79 21 73 22
REMARK SMILES IDX 72 23 37 25 63 26 46 27 62 28 47 29 50 30 61 31 77 32 48 33
REMARK SMILES IDX 49 34 60 36 78 37 51 38 38 39 39 40 44 41 40 42 41 43 43 44
REMARK SMILES IDX 45 45 42 46 64 47 65 48 70 49 66 50 67 51 69 52 71 53 68 54
REMARK SMILES IDX 52 55 53 56 58 57 54 58 55 59 57 60 59 61 56 62 7 63 8 64
REMARK SMILES IDX 9 65 10 66 11 67 12 68 13 69 18 70 14 71 16 72 15 73 17 74
REMARK SMILES IDX 19 75 20 76 21 77 28 78 22 79 24 80 23 81 25 82 27 83 26 84
REMARK H PARENT 76 24 50 35
REMARK Flexibility Score: inf
ROOT
ATOM      1  O   UNL A   1      37.625  21.245  24.887  1.00  0.00    -0.374 OA
ENDROOT
BRANCH   1   2
ATOM      2  C   UNL A   1      38.092  19.908  24.866  1.00  0.00     0.202 C 
BRANCH   2   3
ATOM      3  C   UNL A   1      39.076  19.532  25.970  1.00  0.00     0.261 C 
BRANCH   3   4
ATOM      4  O   UNL A   1      40.314  19.071  25.412  1.00  0.00    -0.460 OA
BRANCH   4   5
ATOM      5  C   UNL A   1      41.545  19.286  25.938  1.00  0.00     0.338 C 
ATOM      6  O   UNL A   1      42.340  18.354  26.027  1.00  0.00    -0.246 OA
BRANCH   5   7
ATOM      7  C   UNL A   1      41.984  20.636  26.388  1.00  0.00     0.060 A 
ATOM      8  C   UNL A   1      42.173  21.700  25.515  1.00  0.00     0.016 A 
ATOM      9  C   UNL A   1      42.133  20.881  27.756  1.00  0.00     0.016 A 
ATOM     10  C   UNL A   1      42.576  22.942  25.928  1.00  0.00     0.010 A 
ATOM     11  C   UNL A   1      42.444  22.170  28.207  1.00  0.00     0.010 A 
ATOM     12  C   UNL A   1      42.651  23.203  27.281  1.00  0.00    -0.014 A 
BRANCH  12  13
ATOM     13  C   UNL A   1      43.013  24.578  27.635  1.00  0.00     0.031 A 
ATOM     14  C   UNL A   1      44.433  24.990  27.472  1.00  0.00     0.074 A 
ATOM     15  C   UNL A   1      42.026  25.458  27.896  1.00  0.00     0.049 A 
ATOM     16  N   UNL A   1      45.001  26.117  27.790  1.00  0.00    -0.248 NA
ATOM     17  C   UNL A   1      45.338  24.002  26.858  1.00  0.00     0.031 C 
ATOM     18  C   UNL A   1      40.587  25.153  27.879  1.00  0.00     0.029 A 
ATOM     19  N   UNL A   1      42.071  26.794  28.174  1.00  0.00    -0.354 N 
ATOM     20  C   UNL A   1      46.338  25.960  27.459  1.00  0.00     0.074 A 
ATOM     21  C   UNL A   1      46.500  24.632  26.915  1.00  0.00     0.031 C 
ATOM     22  C   UNL A   1      39.892  26.276  28.109  1.00  0.00     0.029 A 
ATOM     23  C   UNL A   1      40.832  27.349  28.394  1.00  0.00     0.049 A 
ATOM     24  H   UNL A   1      42.908  27.310  28.212  1.00  0.00     0.167 HD
ATOM     25  C   UNL A   1      47.331  26.859  27.622  1.00  0.00     0.037 A 
ATOM     26  C   UNL A   1      40.513  28.575  28.841  1.00  0.00     0.037 A 
ATOM     27  C   UNL A   1      47.107  28.170  28.165  1.00  0.00     0.049 A 
ATOM     28  C   UNL A   1      41.653  29.508  29.136  1.00  0.00     0.074 A 
ATOM     29  C   UNL A   1      48.027  29.154  28.467  1.00  0.00     0.029 A 
ATOM     30  N   UNL A   1      45.851  28.679  28.479  1.00  0.00    -0.354 N 
ATOM     31  N   UNL A   1      42.940  29.328  28.936  1.00  0.00    -0.248 NA
ATOM     32  C   UNL A   1      41.310  30.798  29.739  1.00  0.00     0.031 C 
ATOM     33  C   UNL A   1      47.332  30.238  29.010  1.00  0.00     0.029 A 
ATOM     34  C   UNL A   1      45.972  29.956  28.990  1.00  0.00     0.049 A 
ATOM     35  H   UNL A   1      45.001  28.198  28.355  1.00  0.00     0.167 HD
ATOM     36  C   UNL A   1      43.559  30.488  29.371  1.00  0.00     0.074 A 
ATOM     37  C   UNL A   1      42.501  31.375  29.819  1.00  0.00     0.031 C 
ATOM     38  C   UNL A   1      44.878  30.799  29.410  1.00  0.00     0.037 A 
BRANCH  25  39
ATOM     39  C   UNL A   1      48.720  26.403  27.299  1.00  0.00     0.057 A 
ATOM     40  C   UNL A   1      49.303  26.605  26.042  1.00  0.00     0.134 A 
ATOM     41  C   UNL A   1      49.469  25.703  28.253  1.00  0.00     0.134 A 
ATOM     42  F   UNL A   1      48.624  27.232  25.069  1.00  0.00    -0.206 F 
ATOM     43  C   UNL A   1      50.574  26.110  25.739  1.00  0.00     0.040 A 
ATOM     44  C   UNL A   1      50.749  25.226  27.973  1.00  0.00     0.040 A 
ATOM     45  F   UNL A   1      48.961  25.458  29.471  1.00  0.00    -0.206 F 
ATOM     46  C   UNL A   1      51.302  25.423  26.709  1.00  0.00     0.006 A 
ENDBRANCH  25  39
BRANCH  26  47
ATOM     47  C   UNL A   1      39.101  28.950  29.124  1.00  0.00     0.057 A 
ATOM     48  C   UNL A   1      38.528  28.747  30.383  1.00  0.00     0.134 A 
ATOM     49  C   UNL A   1      38.270  29.474  28.122  1.00  0.00     0.134 A 
ATOM     50  F   UNL A   1      39.258  28.234  31.384  1.00  0.00    -0.206 F 
ATOM     51  C   UNL A   1      37.179  29.019  30.628  1.00  0.00     0.040 A 
ATOM     52  C   UNL A   1      36.930  29.782  28.362  1.00  0.00     0.040 A 
ATOM     53  F   UNL A   1      38.749  29.697  26.888  1.00  0.00    -0.206 F 
ATOM     54  C   UNL A   1      36.376  29.540  29.615  1.00  0.00     0.006 A 
ENDBRANCH  26  47
BRANCH  38  55
ATOM     55  C   UNL A   1      45.225  32.166  29.913  1.00  0.00     0.057 A 
ATOM     56  C   UNL A   1      45.278  33.276  29.063  1.00  0.00     0.134 A 
ATOM     57  C   UNL A   1      45.477  32.371  31.275  1.00  0.00     0.134 A 
ATOM     58  F   UNL A   1      45.062  33.136  27.746  1.00  0.00    -0.206 F 
ATOM     59  C   UNL A   1      45.595  34.543  29.548  1.00  0.00     0.040 A 
ATOM     60  C   UNL A   1      45.761  33.640  31.776  1.00  0.00     0.040 A 
ATOM     61  F   UNL A   1      45.432  31.346  32.140  1.00  0.00    -0.206 F 
ATOM     62  C   UNL A   1      45.829  34.728  30.910  1.00  0.00     0.006 A 
ENDBRANCH  38  55
ENDBRANCH  12  13
ENDBRANCH   5   7
ENDBRANCH   4   5
ENDBRANCH   3   4
ENDBRANCH   2   3
ENDBRANCH   1   2
BRANCH   1  63
ATOM     63  C   UNL A   1      38.261  22.150  25.777  1.00  0.00     0.202 C 
BRANCH  63  64
ATOM     64  C   UNL A   1      37.377  23.391  25.848  1.00  0.00     0.261 C 
BRANCH  64  65
ATOM     65  O   UNL A   1      36.260  23.179  24.969  1.00  0.00    -0.460 OA
BRANCH  65  66
ATOM     66  C   UNL A   1      35.008  23.341  25.507  1.00  0.00     0.342 C 
ATOM     67  O   UNL A   1      34.723  23.744  26.606  1.00  0.00    -0.246 OA
BRANCH  66  68
ATOM     68  C   UNL A   1      34.065  22.991  24.410  1.00  0.00     0.103 A 
ATOM     69  C   UNL A   1      33.508  21.716  24.473  1.00  0.00     0.020 A 
ATOM     70  C   UNL A   1      33.799  23.860  23.311  1.00  0.00     0.148 A 
ATOM     71  C   UNL A   1      32.697  21.280  23.458  1.00  0.00     0.002 A 
ATOM     72  C   UNL A   1      32.996  23.484  22.139  1.00  0.00     0.060 A 
ATOM     73  C   UNL A   1      32.452  22.109  22.353  1.00  0.00     0.019 A 
ATOM     74  Br  UNL A   1      32.589  25.088  20.140  1.00  0.00    -0.047 Br
BRANCH  70  75
ATOM     75  O   UNL A   1      34.315  25.115  23.374  1.00  0.00    -0.488 OA
BRANCH  75  76
ATOM     76  C   UNL A   1      33.080  25.757  23.336  1.00  0.00     0.178 C 
ATOM     77  C   UNL A   1      33.345  27.116  21.982  1.00  0.00     0.074 C 
ATOM     78  C   UNL A   1      32.797  26.234  25.191  1.00  0.00     0.080 C 
ATOM     79  C   UNL A   1      33.410  28.948  22.563  1.00  0.00     0.165 C 
ATOM     80  C   UNL A   1      32.984  28.066  25.662  1.00  0.00     0.072 C 
ATOM     81  O   UNL A   1      33.128  29.316  24.346  1.00  0.00    -0.375 OA
ATOM     82  C   UNL A   1      31.981  28.634  26.760  1.00  0.00     0.036 C 
ATOM     83  C   UNL A   1      34.006  28.059  26.881  1.00  0.00     0.036 C 
ATOM     84  C   UNL A   1      33.224  29.222  27.469  1.00  0.00     0.006 C 
ENDBRANCH  75  76
ENDBRANCH  70  75
ENDBRANCH  66  68
ENDBRANCH  65  66
ENDBRANCH  64  65
ENDBRANCH  63  64
ENDBRANCH   1  63
TORSDOF 16
ENDMDL
MODEL 2
REMARK VINA RESULT:     -10.8      2.504      8.038
REMARK SMILES O=C(OCCOCCOC(=O)c1cccc(Br)c1O[C@@H]1CCOC2(CCC2)C1)c1ccc(-c2c3nc(c(-c4c(F)cccc4F)c4ccc([nH]4)c(-c4c(F)cccc4F)c4nc(c(-c5c(F)cccc5F)c5ccc2[nH]5)C=C4)C=C3)cc1
REMARK SMILES IDX 6 1 5 2 4 3 3 4 2 5 1 6 29 7 30 8 82 9 31 10 81 11 32 12
REMARK SMILES IDX 33 13 34 14 75 15 35 16 80 17 74 18 76 19 36 20 79 21 73 22
REMARK SMILES IDX 72 23 37 25 63 26 46 27 62 28 47 29 50 30 61 31 77 32 48 33
REMARK SMILES IDX 49 34 60 36 78 37 51 38 38 39 39 40 44 41 40 42 41 43 43 44
REMARK SMILES IDX 45 45 42 46 64 47 65 48 70 49 66 50 67 51 69 52 71 53 68 54
REMARK SMILES IDX 52 55 53 56 58 57 54 58 55 59 57 60 59 61 56 62 7 63 8 64
REMARK SMILES IDX 9 65 10 66 11 67 12 68 13 69 18 70 14 71 16 72 15 73 17 74
REMARK SMILES IDX 19 75 20 76 21 77 28 78 22 79 24 80 23 81 25 82 27 83 26 84
REMARK H PARENT 76 24 50 35
REMARK Flexibility Score: inf
ROOT
ATOM      1  O   UNL A   1      34.809  32.401  27.796  1.00  0.00    -0.374 OA
ENDROOT
BRANCH   1   2
ATOM      2  C   UNL A   1      33.907  33.215  28.525  1.00  0.00     0.202 C 
BRANCH   2   3
ATOM      3  C   UNL A   1      34.353  33.604  29.932  1.00  0.00     0.261 C 
BRANCH   3   4
ATOM      4  O   UNL A   1      34.422  32.450  30.780  1.00  0.00    -0.460 OA
BRANCH   4   5
ATOM      5  C   UNL A   1      35.465  32.120  31.582  1.00  0.00     0.338 C 
ATOM      6  O   UNL A   1      35.386  32.314  32.792  1.00  0.00    -0.246 OA
BRANCH   5   7
ATOM      7  C   UNL A   1      36.704  31.496  31.043  1.00  0.00     0.060 A 
ATOM      8  C   UNL A   1      37.129  31.666  29.731  1.00  0.00     0.016 A 
ATOM      9  C   UNL A   1      37.532  30.772  31.907  1.00  0.00     0.016 A 
ATOM     10  C   UNL A   1      38.269  31.093  29.235  1.00  0.00     0.010 A 
ATOM     11  C   UNL A   1      38.753  30.264  31.445  1.00  0.00     0.010 A 
ATOM     12  C   UNL A   1      39.121  30.443  30.105  1.00  0.00    -0.014 A 
BRANCH  12  13
ATOM     13  C   UNL A   1      40.355  29.927  29.505  1.00  0.00     0.031 A 
ATOM     14  C   UNL A   1      41.545  30.821  29.478  1.00  0.00     0.074 A 
ATOM     15  C   UNL A   1      40.422  28.618  29.191  1.00  0.00     0.049 A 
ATOM     16  N   UNL A   1      42.710  30.618  28.937  1.00  0.00    -0.248 NA
ATOM     17  C   UNL A   1      41.408  32.119  30.164  1.00  0.00     0.031 C 
ATOM     18  C   UNL A   1      39.338  27.642  29.379  1.00  0.00     0.029 A 
ATOM     19  N   UNL A   1      41.453  27.870  28.699  1.00  0.00    -0.354 N 
ATOM     20  C   UNL A   1      43.432  31.777  29.173  1.00  0.00     0.074 A 
ATOM     21  C   UNL A   1      42.578  32.681  29.908  1.00  0.00     0.031 C 
ATOM     22  C   UNL A   1      39.775  26.422  29.031  1.00  0.00     0.029 A 
ATOM     23  C   UNL A   1      41.122  26.550  28.499  1.00  0.00     0.049 A 
ATOM     24  H   UNL A   1      42.345  28.238  28.507  1.00  0.00     0.167 HD
ATOM     25  C   UNL A   1      44.696  32.047  28.784  1.00  0.00     0.037 A 
ATOM     26  C   UNL A   1      41.821  25.577  27.890  1.00  0.00     0.037 A 
ATOM     27  C   UNL A   1      45.501  31.104  28.058  1.00  0.00     0.049 A 
ATOM     28  C   UNL A   1      43.174  25.949  27.353  1.00  0.00     0.074 A 
ATOM     29  C   UNL A   1      46.763  31.268  27.525  1.00  0.00     0.029 A 
ATOM     30  N   UNL A   1      45.107  29.800  27.775  1.00  0.00    -0.354 N 
ATOM     31  N   UNL A   1      43.825  27.085  27.469  1.00  0.00    -0.248 NA
ATOM     32  C   UNL A   1      43.882  24.924  26.582  1.00  0.00     0.031 C 
ATOM     33  C   UNL A   1      47.112  30.080  26.876  1.00  0.00     0.029 A 
ATOM     34  C   UNL A   1      46.093  29.154  27.056  1.00  0.00     0.049 A 
ATOM     35  H   UNL A   1      44.250  29.398  28.046  1.00  0.00     0.167 HD
ATOM     36  C   UNL A   1      45.026  26.907  26.802  1.00  0.00     0.074 A 
ATOM     37  C   UNL A   1      45.022  25.542  26.309  1.00  0.00     0.031 C 
ATOM     38  C   UNL A   1      46.039  27.785  26.602  1.00  0.00     0.037 A 
BRANCH  25  39
ATOM     39  C   UNL A   1      45.211  33.426  29.056  1.00  0.00     0.057 A 
ATOM     40  C   UNL A   1      45.066  34.477  28.141  1.00  0.00     0.134 A 
ATOM     41  C   UNL A   1      45.910  33.693  30.240  1.00  0.00     0.134 A 
ATOM     42  F   UNL A   1      44.443  34.277  26.969  1.00  0.00    -0.206 F 
ATOM     43  C   UNL A   1      45.615  35.737  28.385  1.00  0.00     0.040 A 
ATOM     44  C   UNL A   1      46.441  34.954  30.508  1.00  0.00     0.040 A 
ATOM     45  F   UNL A   1      46.101  32.725  31.150  1.00  0.00    -0.206 F 
ATOM     46  C   UNL A   1      46.300  35.980  29.575  1.00  0.00     0.006 A 
ENDBRANCH  25  39
BRANCH  26  47
ATOM     47  C   UNL A   1      41.235  24.227  27.672  1.00  0.00     0.057 A 
ATOM     48  C   UNL A   1      41.690  23.109  28.378  1.00  0.00     0.134 A 
ATOM     49  C   UNL A   1      40.237  24.011  26.710  1.00  0.00     0.134 A 
ATOM     50  F   UNL A   1      42.654  23.239  29.301  1.00  0.00    -0.206 F 
ATOM     51  C   UNL A   1      41.202  21.826  28.115  1.00  0.00     0.040 A 
ATOM     52  C   UNL A   1      39.715  22.740  26.461  1.00  0.00     0.040 A 
ATOM     53  F   UNL A   1      39.749  25.036  25.993  1.00  0.00    -0.206 F 
ATOM     54  C   UNL A   1      40.209  21.640  27.155  1.00  0.00     0.006 A 
ENDBRANCH  26  47
BRANCH  38  55
ATOM     55  C   UNL A   1      47.231  27.267  25.857  1.00  0.00     0.057 A 
ATOM     56  C   UNL A   1      47.375  27.445  24.477  1.00  0.00     0.134 A 
ATOM     57  C   UNL A   1      48.259  26.610  26.544  1.00  0.00     0.134 A 
ATOM     58  F   UNL A   1      46.415  28.052  23.764  1.00  0.00    -0.206 F 
ATOM     59  C   UNL A   1      48.494  26.964  23.799  1.00  0.00     0.040 A 
ATOM     60  C   UNL A   1      49.398  26.156  25.882  1.00  0.00     0.040 A 
ATOM     61  F   UNL A   1      48.181  26.418  27.870  1.00  0.00    -0.206 F 
ATOM     62  C   UNL A   1      49.513  26.325  24.504  1.00  0.00     0.006 A 
ENDBRANCH  38  55
ENDBRANCH  12  13
ENDBRANCH   5   7
ENDBRANCH   4   5
ENDBRANCH   3   4
ENDBRANCH   2   3
ENDBRANCH   1   2
BRANCH   1  63
ATOM     63  C   UNL A   1      34.363  31.112  27.405  1.00  0.00     0.202 C 
BRANCH  63  64
ATOM     64  C   UNL A   1      32.838  31.166  27.371  1.00  0.00     0.261 C 
BRANCH  64  65
ATOM     65  O   UNL A   1      32.412  30.607  26.118  1.00  0.00    -0.460 OA
BRANCH  65  66
ATOM     66  C   UNL A   1      31.871  29.347  26.153  1.00  0.00     0.342 C 
ATOM     67  O   UNL A   1      31.717  28.636  27.113  1.00  0.00    -0.246 OA
BRANCH  66  68
ATOM     68  C   UNL A   1      31.431  29.073  24.757  1.00  0.00     0.103 A 
ATOM     69  C   UNL A   1      30.433  29.909  24.261  1.00  0.00     0.020 A 
ATOM     70  C   UNL A   1      31.926  27.978  23.990  1.00  0.00     0.148 A 
ATOM     71  C   UNL A   1      29.908  29.673  23.017  1.00  0.00     0.002 A 
ATOM     72  C   UNL A   1      31.403  27.591  22.672  1.00  0.00     0.060 A 
ATOM     73  C   UNL A   1      30.360  28.580  22.263  1.00  0.00     0.019 A 
ATOM     74  Br  UNL A   1      32.308  25.555  21.343  1.00  0.00    -0.047 Br
BRANCH  70  75
ATOM     75  O   UNL A   1      32.958  27.268  24.517  1.00  0.00    -0.488 OA
BRANCH  75  76
ATOM     76  C   UNL A   1      32.434  26.023  24.179  1.00  0.00     0.178 C 
ATOM     77  C   UNL A   1      31.283  25.621  25.684  1.00  0.00     0.074 C 
ATOM     78  C   UNL A   1      34.025  24.977  23.829  1.00  0.00     0.080 C 
ATOM     79  C   UNL A   1      31.829  24.207  26.868  1.00  0.00     0.165 C 
ATOM     80  C   UNL A   1      34.518  23.674  25.122  1.00  0.00     0.072 C 
ATOM     81  O   UNL A   1      33.356  23.260  26.460  1.00  0.00    -0.375 OA
ATOM     82  C   UNL A   1      35.131  22.311  24.575  1.00  0.00     0.036 C 
ATOM     83  C   UNL A   1      36.040  23.999  25.450  1.00  0.00     0.036 C 
ATOM     84  C   UNL A   1      36.266  22.503  25.607  1.00  0.00     0.006 C 
ENDBRANCH  75  76
ENDBRANCH  70  75
ENDBRANCH  66  68
ENDBRANCH  65  66
ENDBRANCH  64  65
ENDBRANCH  63  64
ENDBRANCH   1  63
TORSDOF 16
ENDMDL
MODEL 3
REMARK VINA RESULT:     -10.8      4.100      5.889
REMARK SMILES O=C(OCCOCCOC(=O)c1cccc(Br)c1O[C@@H]1CCOC2(CCC2)C1)c1ccc(-c2c3nc(c(-c4c(F)cccc4F)c4ccc([nH]4)c(-c4c(F)cccc4F)c4nc(c(-c5c(F)cccc5F)c5ccc2[nH]5)C=C4)C=C3)cc1
REMARK SMILES IDX 6 1 5 2 4 3 3 4 2 5 1 6 29 7 30 8 82 9 31 10 81 11 32 12
REMARK SMILES IDX 33 13 34 14 75 15 35 16 80 17 74 18 76 19 36 20 79 21 73 22
REMARK SMILES IDX 72 23 37 25 63 26 46 27 62 28 47 29 50 30 61 31 77 32 48 33
REMARK SMILES IDX 49 34 60 36 78 37 51 38 38 39 39 40 44 41 40 42 41 43 43 44
REMARK SMILES IDX 45 45 42 46 64 47 65 48 70 49 66 50 67 51 69 52 71 53 68 54
REMARK SMILES IDX 52 55 53 56 58 57 54 58 55 59 57 60 59 61 56 62 7 63 8 64
REMARK SMILES IDX 9 65 10 66 11 67 12 68 13 69 18 70 14 71 16 72 15 73 17 74
REMARK SMILES IDX 19 75 20 76 21 77 28 78 22 79 24 80 23 81 25 82 27 83 26 84
REMARK H PARENT 76 24 50 35
REMARK Flexibility Score: inf
ROOT
ATOM      1  O   UNL A   1      40.028  21.260  27.125  1.00  0.00    -0.374 OA
ENDROOT
BRANCH   1   2
ATOM      2  C   UNL A   1      41.381  20.873  27.286  1.00  0.00     0.202 C 
BRANCH   2   3
ATOM      3  C   UNL A   1      42.262  21.007  26.047  1.00  0.00     0.261 C 
BRANCH   3   4
ATOM      4  O   UNL A   1      43.199  22.081  26.204  1.00  0.00    -0.460 OA
BRANCH   4   5
ATOM      5  C   UNL A   1      43.000  23.366  25.817  1.00  0.00     0.338 C 
ATOM      6  O   UNL A   1      43.131  23.673  24.636  1.00  0.00    -0.246 OA
BRANCH   5   7
ATOM      7  C   UNL A   1      42.592  24.423  26.783  1.00  0.00     0.060 A 
ATOM      8  C   UNL A   1      41.744  24.180  27.857  1.00  0.00     0.016 A 
ATOM      9  C   UNL A   1      43.145  25.701  26.665  1.00  0.00     0.016 A 
ATOM     10  C   UNL A   1      41.369  25.152  28.746  1.00  0.00     0.010 A 
ATOM     11  C   UNL A   1      42.855  26.680  27.623  1.00  0.00     0.010 A 
ATOM     12  C   UNL A   1      41.973  26.391  28.673  1.00  0.00    -0.014 A 
BRANCH  12  13
ATOM     13  C   UNL A   1      41.571  27.345  29.710  1.00  0.00     0.031 A 
ATOM     14  C   UNL A   1      42.421  27.454  30.927  1.00  0.00     0.074 A 
ATOM     15  C   UNL A   1      40.580  28.217  29.436  1.00  0.00     0.049 A 
ATOM     16  N   UNL A   1      42.228  28.162  32.001  1.00  0.00    -0.248 NA
ATOM     17  C   UNL A   1      43.666  26.664  30.932  1.00  0.00     0.031 C 
ATOM     18  C   UNL A   1      39.832  28.285  28.171  1.00  0.00     0.029 A 
ATOM     19  N   UNL A   1      40.063  29.242  30.175  1.00  0.00    -0.354 N 
ATOM     20  C   UNL A   1      43.299  27.870  32.830  1.00  0.00     0.074 A 
ATOM     21  C   UNL A   1      44.142  26.922  32.139  1.00  0.00     0.031 C 
ATOM     22  C   UNL A   1      38.975  29.315  28.217  1.00  0.00     0.029 A 
ATOM     23  C   UNL A   1      39.036  29.906  29.544  1.00  0.00     0.049 A 
ATOM     24  H   UNL A   1      40.392  29.483  31.070  1.00  0.00     0.167 HD
ATOM     25  C   UNL A   1      43.529  28.353  34.070  1.00  0.00     0.037 A 
ATOM     26  C   UNL A   1      38.203  30.844  30.025  1.00  0.00     0.037 A 
ATOM     27  C   UNL A   1      42.656  29.301  34.705  1.00  0.00     0.049 A 
ATOM     28  C   UNL A   1      38.408  31.265  31.454  1.00  0.00     0.074 A 
ATOM     29  C   UNL A   1      42.714  29.812  35.986  1.00  0.00     0.029 A 
ATOM     30  N   UNL A   1      41.558  29.887  34.084  1.00  0.00    -0.354 N 
ATOM     31  N   UNL A   1      39.354  30.906  32.293  1.00  0.00    -0.248 NA
ATOM     32  C   UNL A   1      37.424  32.195  32.014  1.00  0.00     0.031 C 
ATOM     33  C   UNL A   1      41.623  30.670  36.155  1.00  0.00     0.029 A 
ATOM     34  C   UNL A   1      40.919  30.741  34.961  1.00  0.00     0.049 A 
ATOM     35  H   UNL A   1      41.279  29.717  33.155  1.00  0.00     0.167 HD
ATOM     36  C   UNL A   1      39.091  31.580  33.474  1.00  0.00     0.074 A 
ATOM     37  C   UNL A   1      37.912  32.390  33.231  1.00  0.00     0.031 C 
ATOM     38  C   UNL A   1      39.751  31.534  34.658  1.00  0.00     0.037 A 
BRANCH  25  39
ATOM     39  C   UNL A   1      44.698  27.787  34.814  1.00  0.00     0.057 A 
ATOM     40  C   UNL A   1      44.587  26.662  35.643  1.00  0.00     0.134 A 
ATOM     41  C   UNL A   1      45.949  28.412  34.737  1.00  0.00     0.134 A 
ATOM     42  F   UNL A   1      43.407  26.042  35.794  1.00  0.00    -0.206 F 
ATOM     43  C   UNL A   1      45.675  26.192  36.382  1.00  0.00     0.040 A 
ATOM     44  C   UNL A   1      47.049  27.937  35.450  1.00  0.00     0.040 A 
ATOM     45  F   UNL A   1      46.117  29.504  33.977  1.00  0.00    -0.206 F 
ATOM     46  C   UNL A   1      46.912  26.827  36.282  1.00  0.00     0.006 A 
ENDBRANCH  25  39
BRANCH  26  47
ATOM     47  C   UNL A   1      37.072  31.363  29.210  1.00  0.00     0.057 A 
ATOM     48  C   UNL A   1      37.077  32.663  28.694  1.00  0.00     0.134 A 
ATOM     49  C   UNL A   1      35.929  30.586  28.968  1.00  0.00     0.134 A 
ATOM     50  F   UNL A   1      38.130  33.468  28.901  1.00  0.00    -0.206 F 
ATOM     51  C   UNL A   1      35.980  33.182  28.001  1.00  0.00     0.040 A 
ATOM     52  C   UNL A   1      34.841  31.079  28.247  1.00  0.00     0.040 A 
ATOM     53  F   UNL A   1      35.852  29.328  29.430  1.00  0.00    -0.206 F 
ATOM     54  C   UNL A   1      34.858  32.388  27.774  1.00  0.00     0.006 A 
ENDBRANCH  26  47
BRANCH  38  55
ATOM     55  C   UNL A   1      39.226  32.418  35.746  1.00  0.00     0.057 A 
ATOM     56  C   UNL A   1      38.286  31.965  36.678  1.00  0.00     0.134 A 
ATOM     57  C   UNL A   1      39.699  33.729  35.878  1.00  0.00     0.134 A 
ATOM     58  F   UNL A   1      37.785  30.723  36.592  1.00  0.00    -0.206 F 
ATOM     59  C   UNL A   1      37.812  32.797  37.690  1.00  0.00     0.040 A 
ATOM     60  C   UNL A   1      39.259  34.558  36.907  1.00  0.00     0.040 A 
ATOM     61  F   UNL A   1      40.609  34.216  35.020  1.00  0.00    -0.206 F 
ATOM     62  C   UNL A   1      38.306  34.095  37.812  1.00  0.00     0.006 A 
ENDBRANCH  38  55
ENDBRANCH  12  13
ENDBRANCH   5   7
ENDBRANCH   4   5
ENDBRANCH   3   4
ENDBRANCH   2   3
ENDBRANCH   1   2
BRANCH   1  63
ATOM     63  C   UNL A   1      39.500  21.269  25.808  1.00  0.00     0.202 C 
BRANCH  63  64
ATOM     64  C   UNL A   1      38.394  22.320  25.784  1.00  0.00     0.261 C 
BRANCH  64  65
ATOM     65  O   UNL A   1      37.137  21.626  25.725  1.00  0.00    -0.460 OA
BRANCH  65  66
ATOM     66  C   UNL A   1      36.318  21.917  24.664  1.00  0.00     0.342 C 
ATOM     67  O   UNL A   1      36.606  22.493  23.646  1.00  0.00    -0.246 OA
BRANCH  66  68
ATOM     68  C   UNL A   1      35.009  21.291  24.999  1.00  0.00     0.103 A 
ATOM     69  C   UNL A   1      34.913  19.922  24.758  1.00  0.00     0.020 A 
ATOM     70  C   UNL A   1      33.887  22.041  25.458  1.00  0.00     0.148 A 
ATOM     71  C   UNL A   1      33.717  19.283  24.955  1.00  0.00     0.002 A 
ATOM     72  C   UNL A   1      32.543  21.480  25.650  1.00  0.00     0.060 A 
ATOM     73  C   UNL A   1      32.594  20.011  25.376  1.00  0.00     0.019 A 
ATOM     74  Br  UNL A   1      30.523  22.905  26.439  1.00  0.00    -0.047 Br
BRANCH  70  75
ATOM     75  O   UNL A   1      34.095  23.352  25.748  1.00  0.00    -0.488 OA
BRANCH  75  76
ATOM     76  C   UNL A   1      32.942  23.802  25.108  1.00  0.00     0.178 C 
ATOM     77  C   UNL A   1      33.503  23.930  23.259  1.00  0.00     0.074 C 
ATOM     78  C   UNL A   1      32.485  25.384  26.126  1.00  0.00     0.080 C 
ATOM     79  C   UNL A   1      33.678  25.691  22.503  1.00  0.00     0.165 C 
ATOM     80  C   UNL A   1      32.794  27.071  25.309  1.00  0.00     0.072 C 
ATOM     81  O   UNL A   1      33.219  27.142  23.540  1.00  0.00    -0.375 OA
ATOM     82  C   UNL A   1      31.726  28.218  25.595  1.00  0.00     0.036 C 
ATOM     83  C   UNL A   1      33.654  27.877  26.376  1.00  0.00     0.036 C 
ATOM     84  C   UNL A   1      32.925  29.135  25.931  1.00  0.00     0.006 C 
ENDBRANCH  75  76
ENDBRANCH  70  75
ENDBRANCH  66  68
ENDBRANCH  65  66
ENDBRANCH  64  65
ENDBRANCH  63  64
ENDBRANCH   1  63
TORSDOF 16
ENDMDL
