MODEL 1
REMARK VINA RESULT:     -11.7      0.000      0.000
REMARK SMILES C[C@@H](Oc1ccc(-c2ccccc2)cc1)C(=O)N1CCC[C@H](C(=O)OCCOCCOC(=O)c2ccc(-c3c4nc(c(-c5c(F)cccc5F)c5ccc([nH]5)c(-c5c(F)cccc5F)c5nc(c(-c6c(F)cccc6F)c6ccc3[nH]6)C=C5)C=C4)cc2)C1
REMARK SMILES IDX 26 1 25 2 23 3 24 4 22 5 18 6 19 7 88 8 20 9 21 10 16 11
REMARK SMILES IDX 17 12 2 13 1 14 3 15 4 16 5 17 15 18 6 19 14 20 7 21 8 22
REMARK SMILES IDX 9 23 13 24 10 25 12 26 11 27 27 28 28 29 29 30 30 31 31 32
REMARK SMILES IDX 32 33 33 34 34 35 35 36 87 37 36 38 86 39 37 40 38 41 39 42
REMARK SMILES IDX 80 43 40 44 85 45 79 46 81 47 41 48 84 49 78 50 77 51 42 53
REMARK SMILES IDX 68 54 51 55 67 56 52 57 55 58 66 59 82 60 53 61 54 62 65 64
REMARK SMILES IDX 83 65 56 66 43 67 44 68 49 69 45 70 46 71 48 72 50 73 47 74
REMARK SMILES IDX 69 75 70 76 75 77 71 78 72 79 74 80 76 81 73 82 57 83 58 84
REMARK SMILES IDX 63 85 59 86 60 87 62 88 64 89 61 90
REMARK H PARENT 81 52 55 63
REMARK Flexibility Score: inf
ROOT
ATOM      1  C   UNL A   1      32.883  27.997  26.918  1.00  0.00     0.261 C 
ENDROOT
BRANCH   1   2
ATOM      2  O   UNL A   1      32.514  27.448  25.640  1.00  0.00    -0.463 OA
BRANCH   2   3
ATOM      3  C   UNL A   1      31.513  26.534  25.621  1.00  0.00     0.310 C 
ATOM      4  O   UNL A   1      31.497  25.501  26.279  1.00  0.00    -0.252 OA
BRANCH   3   5
ATOM      5  C   UNL A   1      30.411  26.887  24.635  1.00  0.00     0.119 C 
ATOM      6  N   UNL A   1      31.589  26.310  22.562  1.00  0.00    -0.339 N 
ATOM      7  C   UNL A   1      31.471  27.652  22.002  1.00  0.00     0.119 C 
ATOM      8  C   UNL A   1      30.493  25.926  23.453  1.00  0.00     0.134 C 
ATOM      9  C   UNL A   1      31.390  28.707  23.098  1.00  0.00     0.022 C 
ATOM     10  C   UNL A   1      30.351  28.349  24.164  1.00  0.00     0.019 C 
BRANCH   6  11
ATOM     11  C   UNL A   1      32.719  25.548  22.281  1.00  0.00     0.263 C 
ATOM     12  O   UNL A   1      33.725  26.060  21.775  1.00  0.00    -0.271 OA
BRANCH  11  13
ATOM     13  C   UNL A   1      32.721  24.038  22.592  1.00  0.00     0.259 C 
ATOM     14  C   UNL A   1      33.383  23.227  21.481  1.00  0.00     0.064 C 
BRANCH  13  15
ATOM     15  O   UNL A   1      33.363  23.867  23.859  1.00  0.00    -0.481 OA
BRANCH  15  16
ATOM     16  C   UNL A   1      33.431  22.572  24.273  1.00  0.00     0.120 A 
ATOM     17  C   UNL A   1      34.673  21.969  24.437  1.00  0.00     0.047 A 
ATOM     18  C   UNL A   1      32.262  21.826  24.344  1.00  0.00     0.047 A 
ATOM     19  C   UNL A   1      34.744  20.594  24.675  1.00  0.00     0.012 A 
ATOM     20  C   UNL A   1      32.337  20.457  24.590  1.00  0.00     0.012 A 
ATOM     21  C   UNL A   1      33.578  19.812  24.735  1.00  0.00    -0.018 A 
BRANCH  21  22
ATOM     22  C   UNL A   1      33.636  18.350  24.887  1.00  0.00    -0.018 A 
ATOM     23  C   UNL A   1      34.779  17.617  24.533  1.00  0.00     0.009 A 
ATOM     24  C   UNL A   1      32.534  17.647  25.406  1.00  0.00     0.009 A 
ATOM     25  C   UNL A   1      34.823  16.231  24.712  1.00  0.00     0.001 A 
ATOM     26  C   UNL A   1      32.577  16.263  25.585  1.00  0.00     0.001 A 
ATOM     27  C   UNL A   1      33.725  15.556  25.241  1.00  0.00     0.000 A 
ENDBRANCH  21  22
ENDBRANCH  15  16
ENDBRANCH  13  15
ENDBRANCH  11  13
ENDBRANCH   6  11
ENDBRANCH   3   5
ENDBRANCH   2   3
ENDBRANCH   1   2
BRANCH   1  28
ATOM     28  C   UNL A   1      32.039  29.233  27.232  1.00  0.00     0.202 C 
BRANCH  28  29
ATOM     29  O   UNL A   1      32.362  30.406  26.482  1.00  0.00    -0.374 OA
BRANCH  29  30
ATOM     30  C   UNL A   1      31.405  31.463  26.476  1.00  0.00     0.202 C 
BRANCH  30  31
ATOM     31  C   UNL A   1      31.967  32.879  26.641  1.00  0.00     0.261 C 
BRANCH  31  32
ATOM     32  O   UNL A   1      32.223  33.220  28.016  1.00  0.00    -0.460 OA
BRANCH  32  33
ATOM     33  C   UNL A   1      33.266  34.065  28.196  1.00  0.00     0.338 C 
ATOM     34  O   UNL A   1      33.222  35.285  28.288  1.00  0.00    -0.246 OA
BRANCH  33  35
ATOM     35  C   UNL A   1      34.518  33.320  28.418  1.00  0.00     0.060 A 
ATOM     36  C   UNL A   1      34.403  31.997  28.863  1.00  0.00     0.016 A 
ATOM     37  C   UNL A   1      35.773  33.924  28.311  1.00  0.00     0.016 A 
ATOM     38  C   UNL A   1      35.535  31.295  29.266  1.00  0.00     0.010 A 
ATOM     39  C   UNL A   1      36.911  33.217  28.722  1.00  0.00     0.010 A 
ATOM     40  C   UNL A   1      36.791  31.915  29.242  1.00  0.00    -0.014 A 
BRANCH  40  41
ATOM     41  C   UNL A   1      37.936  31.245  29.908  1.00  0.00     0.031 A 
ATOM     42  C   UNL A   1      38.213  31.535  31.359  1.00  0.00     0.074 A 
ATOM     43  C   UNL A   1      38.677  30.333  29.253  1.00  0.00     0.049 A 
ATOM     44  N   UNL A   1      39.133  31.034  32.145  1.00  0.00    -0.248 NA
ATOM     45  C   UNL A   1      37.337  32.521  32.010  1.00  0.00     0.031 C 
ATOM     46  C   UNL A   1      38.491  29.937  27.859  1.00  0.00     0.029 A 
ATOM     47  N   UNL A   1      39.735  29.573  29.683  1.00  0.00    -0.354 N 
ATOM     48  C   UNL A   1      38.944  31.641  33.381  1.00  0.00     0.074 A 
ATOM     49  C   UNL A   1      37.846  32.571  33.232  1.00  0.00     0.031 C 
ATOM     50  C   UNL A   1      39.406  29.003  27.546  1.00  0.00     0.029 A 
ATOM     51  C   UNL A   1      40.254  28.753  28.711  1.00  0.00     0.049 A 
ATOM     52  H   UNL A   1      40.089  29.611  30.601  1.00  0.00     0.167 HD
ATOM     53  C   UNL A   1      39.616  31.433  34.539  1.00  0.00     0.037 A 
ATOM     54  C   UNL A   1      41.301  27.907  28.754  1.00  0.00     0.037 A 
ATOM     55  C   UNL A   1      40.705  30.507  34.693  1.00  0.00     0.049 A 
ATOM     56  C   UNL A   1      42.070  27.738  30.036  1.00  0.00     0.074 A 
ATOM     57  C   UNL A   1      41.435  30.214  35.834  1.00  0.00     0.029 A 
ATOM     58  N   UNL A   1      41.226  29.724  33.674  1.00  0.00    -0.354 N 
ATOM     59  N   UNL A   1      41.864  28.296  31.205  1.00  0.00    -0.248 NA
ATOM     60  C   UNL A   1      43.216  26.816  30.006  1.00  0.00     0.031 C 
ATOM     61  C   UNL A   1      42.424  29.285  35.495  1.00  0.00     0.029 A 
ATOM     62  C   UNL A   1      42.283  28.966  34.154  1.00  0.00     0.049 A 
ATOM     63  H   UNL A   1      40.893  29.708  32.748  1.00  0.00     0.167 HD
ATOM     64  C   UNL A   1      42.836  27.776  32.052  1.00  0.00     0.074 A 
ATOM     65  C   UNL A   1      43.623  26.848  31.267  1.00  0.00     0.031 C 
ATOM     66  C   UNL A   1      43.055  28.043  33.363  1.00  0.00     0.037 A 
BRANCH  53  67
ATOM     67  C   UNL A   1      39.200  32.244  35.731  1.00  0.00     0.057 A 
ATOM     68  C   UNL A   1      39.669  33.548  35.937  1.00  0.00     0.134 A 
ATOM     69  C   UNL A   1      38.296  31.726  36.666  1.00  0.00     0.134 A 
ATOM     70  F   UNL A   1      40.548  34.097  35.084  1.00  0.00    -0.206 F 
ATOM     71  C   UNL A   1      39.269  34.300  37.042  1.00  0.00     0.040 A 
ATOM     72  C   UNL A   1      37.871  32.477  37.763  1.00  0.00     0.040 A 
ATOM     73  F   UNL A   1      37.806  30.485  36.524  1.00  0.00    -0.206 F 
ATOM     74  C   UNL A   1      38.362  33.767  37.956  1.00  0.00     0.006 A 
ENDBRANCH  53  67
BRANCH  54  75
ATOM     75  C   UNL A   1      41.693  27.152  27.538  1.00  0.00     0.057 A 
ATOM     76  C   UNL A   1      41.189  25.872  27.283  1.00  0.00     0.134 A 
ATOM     77  C   UNL A   1      42.598  27.687  26.613  1.00  0.00     0.134 A 
ATOM     78  F   UNL A   1      40.339  25.297  28.146  1.00  0.00    -0.206 F 
ATOM     79  C   UNL A   1      41.581  25.144  26.159  1.00  0.00     0.040 A 
ATOM     80  C   UNL A   1      42.982  26.979  25.473  1.00  0.00     0.040 A 
ATOM     81  F   UNL A   1      43.121  28.907  26.805  1.00  0.00    -0.206 F 
ATOM     82  C   UNL A   1      42.477  25.700  25.247  1.00  0.00     0.006 A 
ENDBRANCH  54  75
BRANCH  66  83
ATOM     83  C   UNL A   1      44.170  27.301  34.040  1.00  0.00     0.057 A 
ATOM     84  C   UNL A   1      45.467  27.824  34.112  1.00  0.00     0.134 A 
ATOM     85  C   UNL A   1      43.934  26.066  34.657  1.00  0.00     0.134 A 
ATOM     86  F   UNL A   1      45.761  28.997  33.532  1.00  0.00    -0.206 F 
ATOM     87  C   UNL A   1      46.496  27.135  34.758  1.00  0.00     0.040 A 
ATOM     88  C   UNL A   1      44.948  25.379  35.326  1.00  0.00     0.040 A 
ATOM     89  F   UNL A   1      42.711  25.514  34.632  1.00  0.00    -0.206 F 
ATOM     90  C   UNL A   1      46.235  25.911  35.372  1.00  0.00     0.006 A 
ENDBRANCH  66  83
ENDBRANCH  40  41
ENDBRANCH  33  35
ENDBRANCH  32  33
ENDBRANCH  31  32
ENDBRANCH  30  31
ENDBRANCH  29  30
ENDBRANCH  28  29
ENDBRANCH   1  28
TORSDOF 19
ENDMDL
MODEL 2
REMARK VINA RESULT:     -11.5      0.488      6.049
REMARK SMILES C[C@@H](Oc1ccc(-c2ccccc2)cc1)C(=O)N1CCC[C@H](C(=O)OCCOCCOC(=O)c2ccc(-c3c4nc(c(-c5c(F)cccc5F)c5ccc([nH]5)c(-c5c(F)cccc5F)c5nc(c(-c6c(F)cccc6F)c6ccc3[nH]6)C=C5)C=C4)cc2)C1
REMARK SMILES IDX 26 1 25 2 23 3 24 4 22 5 18 6 19 7 88 8 20 9 21 10 16 11
REMARK SMILES IDX 17 12 2 13 1 14 3 15 4 16 5 17 15 18 6 19 14 20 7 21 8 22
REMARK SMILES IDX 9 23 13 24 10 25 12 26 11 27 27 28 28 29 29 30 30 31 31 32
REMARK SMILES IDX 32 33 33 34 34 35 35 36 87 37 36 38 86 39 37 40 38 41 39 42
REMARK SMILES IDX 80 43 40 44 85 45 79 46 81 47 41 48 84 49 78 50 77 51 42 53
REMARK SMILES IDX 68 54 51 55 67 56 52 57 55 58 66 59 82 60 53 61 54 62 65 64
REMARK SMILES IDX 83 65 56 66 43 67 44 68 49 69 45 70 46 71 48 72 50 73 47 74
REMARK SMILES IDX 69 75 70 76 75 77 71 78 72 79 74 80 76 81 73 82 57 83 58 84
REMARK SMILES IDX 63 85 59 86 60 87 62 88 64 89 61 90
REMARK H PARENT 81 52 55 63
REMARK Flexibility Score: inf
ROOT
ATOM      1  C   UNL A   1      33.496  28.435  26.809  1.00  0.00     0.261 C 
ENDROOT
BRANCH   1   2
ATOM      2  O   UNL A   1      33.009  27.796  25.615  1.00  0.00    -0.463 OA
BRANCH   2   3
ATOM      3  C   UNL A   1      32.072  26.829  25.764  1.00  0.00     0.310 C 
ATOM      4  O   UNL A   1      32.209  25.822  26.449  1.00  0.00    -0.252 OA
BRANCH   3   5
ATOM      5  C   UNL A   1      30.825  27.081  24.934  1.00  0.00     0.119 C 
ATOM      6  N   UNL A   1      31.653  26.239  22.783  1.00  0.00    -0.339 N 
ATOM      7  C   UNL A   1      31.445  27.507  22.091  1.00  0.00     0.119 C 
ATOM      8  C   UNL A   1      30.715  25.985  23.878  1.00  0.00     0.134 C 
ATOM      9  C   UNL A   1      31.541  28.686  23.050  1.00  0.00     0.022 C 
ATOM     10  C   UNL A   1      30.689  28.477  24.305  1.00  0.00     0.019 C 
BRANCH   6  11
ATOM     11  C   UNL A   1      32.723  25.428  22.418  1.00  0.00     0.263 C 
ATOM     12  O   UNL A   1      33.708  25.894  21.833  1.00  0.00    -0.271 OA
BRANCH  11  13
ATOM     13  C   UNL A   1      32.683  23.920  22.735  1.00  0.00     0.259 C 
ATOM     14  C   UNL A   1      33.263  23.082  21.599  1.00  0.00     0.064 C 
BRANCH  13  15
ATOM     15  O   UNL A   1      33.375  23.728  23.973  1.00  0.00    -0.481 OA
BRANCH  15  16
ATOM     16  C   UNL A   1      33.447  22.428  24.370  1.00  0.00     0.120 A 
ATOM     17  C   UNL A   1      34.685  21.800  24.442  1.00  0.00     0.047 A 
ATOM     18  C   UNL A   1      32.270  21.704  24.517  1.00  0.00     0.047 A 
ATOM     19  C   UNL A   1      34.745  20.422  24.663  1.00  0.00     0.012 A 
ATOM     20  C   UNL A   1      32.335  20.331  24.745  1.00  0.00     0.012 A 
ATOM     21  C   UNL A   1      33.570  19.661  24.798  1.00  0.00    -0.018 A 
BRANCH  21  22
ATOM     22  C   UNL A   1      33.610  18.197  24.933  1.00  0.00    -0.018 A 
ATOM     23  C   UNL A   1      34.770  17.461  24.650  1.00  0.00     0.009 A 
ATOM     24  C   UNL A   1      32.470  17.495  25.365  1.00  0.00     0.009 A 
ATOM     25  C   UNL A   1      34.795  16.073  24.812  1.00  0.00     0.001 A 
ATOM     26  C   UNL A   1      32.493  16.108  25.528  1.00  0.00     0.001 A 
ATOM     27  C   UNL A   1      33.658  15.398  25.254  1.00  0.00     0.000 A 
ENDBRANCH  21  22
ENDBRANCH  15  16
ENDBRANCH  13  15
ENDBRANCH  11  13
ENDBRANCH   6  11
ENDBRANCH   3   5
ENDBRANCH   2   3
ENDBRANCH   1   2
BRANCH   1  28
ATOM     28  C   UNL A   1      32.544  29.551  27.244  1.00  0.00     0.202 C 
BRANCH  28  29
ATOM     29  O   UNL A   1      32.599  30.746  26.462  1.00  0.00    -0.374 OA
BRANCH  29  30
ATOM     30  C   UNL A   1      31.524  31.672  26.606  1.00  0.00     0.202 C 
BRANCH  30  31
ATOM     31  C   UNL A   1      31.922  33.144  26.757  1.00  0.00     0.261 C 
BRANCH  31  32
ATOM     32  O   UNL A   1      32.130  33.528  28.129  1.00  0.00    -0.460 OA
BRANCH  32  33
ATOM     33  C   UNL A   1      33.187  34.351  28.323  1.00  0.00     0.338 C 
ATOM     34  O   UNL A   1      33.175  35.575  28.353  1.00  0.00    -0.246 OA
BRANCH  33  35
ATOM     35  C   UNL A   1      34.403  33.584  28.648  1.00  0.00     0.060 A 
ATOM     36  C   UNL A   1      34.225  32.283  29.137  1.00  0.00     0.016 A 
ATOM     37  C   UNL A   1      35.678  34.151  28.592  1.00  0.00     0.016 A 
ATOM     38  C   UNL A   1      35.312  31.570  29.633  1.00  0.00     0.010 A 
ATOM     39  C   UNL A   1      36.770  33.432  29.097  1.00  0.00     0.010 A 
ATOM     40  C   UNL A   1      36.584  32.155  29.659  1.00  0.00    -0.014 A 
BRANCH  40  41
ATOM     41  C   UNL A   1      37.669  31.483  30.417  1.00  0.00     0.031 A 
ATOM     42  C   UNL A   1      38.546  30.483  29.712  1.00  0.00     0.074 A 
ATOM     43  C   UNL A   1      37.919  31.809  31.698  1.00  0.00     0.049 A 
ATOM     44  N   UNL A   1      39.572  29.811  30.169  1.00  0.00    -0.248 NA
ATOM     45  C   UNL A   1      38.225  30.207  28.303  1.00  0.00     0.031 C 
ATOM     46  C   UNL A   1      37.166  32.784  32.483  1.00  0.00     0.029 A 
ATOM     47  N   UNL A   1      38.885  31.353  32.559  1.00  0.00    -0.354 N 
ATOM     48  C   UNL A   1      40.019  29.035  29.107  1.00  0.00     0.074 A 
ATOM     49  C   UNL A   1      39.133  29.293  27.992  1.00  0.00     0.031 C 
ATOM     50  C   UNL A   1      37.699  32.855  33.715  1.00  0.00     0.029 A 
ATOM     51  C   UNL A   1      38.816  31.915  33.810  1.00  0.00     0.049 A 
ATOM     52  H   UNL A   1      39.563  30.686  32.304  1.00  0.00     0.167 HD
ATOM     53  C   UNL A   1      41.078  28.192  29.058  1.00  0.00     0.037 A 
ATOM     54  C   UNL A   1      39.562  31.687  34.908  1.00  0.00     0.037 A 
ATOM     55  C   UNL A   1      41.965  27.934  30.162  1.00  0.00     0.049 A 
ATOM     56  C   UNL A   1      40.696  30.702  34.847  1.00  0.00     0.074 A 
ATOM     57  C   UNL A   1      43.077  27.110  30.201  1.00  0.00     0.029 A 
ATOM     58  N   UNL A   1      41.837  28.494  31.424  1.00  0.00    -0.354 N 
ATOM     59  N   UNL A   1      41.126  29.995  33.829  1.00  0.00    -0.248 NA
ATOM     60  C   UNL A   1      41.454  30.485  36.089  1.00  0.00     0.031 C 
ATOM     61  C   UNL A   1      43.598  27.140  31.499  1.00  0.00     0.029 A 
ATOM     62  C   UNL A   1      42.837  28.015  32.256  1.00  0.00     0.049 A 
ATOM     63  H   UNL A   1      41.140  29.137  31.689  1.00  0.00     0.167 HD
ATOM     64  C   UNL A   1      42.216  29.272  34.300  1.00  0.00     0.074 A 
ATOM     65  C   UNL A   1      42.390  29.634  35.691  1.00  0.00     0.031 C 
ATOM     66  C   UNL A   1      43.002  28.387  33.637  1.00  0.00     0.037 A 
BRANCH  53  67
ATOM     67  C   UNL A   1      41.325  27.468  27.767  1.00  0.00     0.057 A 
ATOM     68  C   UNL A   1      40.751  26.218  27.501  1.00  0.00     0.134 A 
ATOM     69  C   UNL A   1      42.118  28.043  26.768  1.00  0.00     0.134 A 
ATOM     70  F   UNL A   1      39.991  25.608  28.424  1.00  0.00    -0.206 F 
ATOM     71  C   UNL A   1      40.976  25.556  26.293  1.00  0.00     0.040 A 
ATOM     72  C   UNL A   1      42.331  27.401  25.547  1.00  0.00     0.040 A 
ATOM     73  F   UNL A   1      42.693  29.240  26.958  1.00  0.00    -0.206 F 
ATOM     74  C   UNL A   1      41.763  26.151  25.308  1.00  0.00     0.006 A 
ENDBRANCH  53  67
BRANCH  54  75
ATOM     75  C   UNL A   1      39.257  32.404  36.171  1.00  0.00     0.057 A 
ATOM     76  C   UNL A   1      39.892  33.609  36.494  1.00  0.00     0.134 A 
ATOM     77  C   UNL A   1      38.337  31.890  37.093  1.00  0.00     0.134 A 
ATOM     78  F   UNL A   1      40.802  34.137  35.663  1.00  0.00    -0.206 F 
ATOM     79  C   UNL A   1      39.635  34.269  37.697  1.00  0.00     0.040 A 
ATOM     80  C   UNL A   1      38.054  32.552  38.289  1.00  0.00     0.040 A 
ATOM     81  F   UNL A   1      37.700  30.737  36.842  1.00  0.00    -0.206 F 
ATOM     82  C   UNL A   1      38.708  33.743  38.596  1.00  0.00     0.006 A 
ENDBRANCH  54  75
BRANCH  66  83
ATOM     83  C   UNL A   1      44.139  27.773  34.399  1.00  0.00     0.057 A 
ATOM     84  C   UNL A   1      44.007  26.545  35.059  1.00  0.00     0.134 A 
ATOM     85  C   UNL A   1      45.391  28.400  34.441  1.00  0.00     0.134 A 
ATOM     86  F   UNL A   1      42.831  25.900  35.066  1.00  0.00    -0.206 F 
ATOM     87  C   UNL A   1      45.075  25.972  35.753  1.00  0.00     0.040 A 
ATOM     88  C   UNL A   1      46.472  27.825  35.110  1.00  0.00     0.040 A 
ATOM     89  F   UNL A   1      45.587  29.574  33.821  1.00  0.00    -0.206 F 
ATOM     90  C   UNL A   1      46.314  26.610  35.774  1.00  0.00     0.006 A 
ENDBRANCH  66  83
ENDBRANCH  40  41
ENDBRANCH  33  35
ENDBRANCH  32  33
ENDBRANCH  31  32
ENDBRANCH  30  31
ENDBRANCH  29  30
ENDBRANCH  28  29
ENDBRANCH   1  28
TORSDOF 19
ENDMDL
MODEL 3
REMARK VINA RESULT:     -11.4      3.992      7.697
REMARK SMILES C[C@@H](Oc1ccc(-c2ccccc2)cc1)C(=O)N1CCC[C@H](C(=O)OCCOCCOC(=O)c2ccc(-c3c4nc(c(-c5c(F)cccc5F)c5ccc([nH]5)c(-c5c(F)cccc5F)c5nc(c(-c6c(F)cccc6F)c6ccc3[nH]6)C=C5)C=C4)cc2)C1
REMARK SMILES IDX 26 1 25 2 23 3 24 4 22 5 18 6 19 7 88 8 20 9 21 10 16 11
REMARK SMILES IDX 17 12 2 13 1 14 3 15 4 16 5 17 15 18 6 19 14 20 7 21 8 22
REMARK SMILES IDX 9 23 13 24 10 25 12 26 11 27 27 28 28 29 29 30 30 31 31 32
REMARK SMILES IDX 32 33 33 34 34 35 35 36 87 37 36 38 86 39 37 40 38 41 39 42
REMARK SMILES IDX 80 43 40 44 85 45 79 46 81 47 41 48 84 49 78 50 77 51 42 53
REMARK SMILES IDX 68 54 51 55 67 56 52 57 55 58 66 59 82 60 53 61 54 62 65 64
REMARK SMILES IDX 83 65 56 66 43 67 44 68 49 69 45 70 46 71 48 72 50 73 47 74
REMARK SMILES IDX 69 75 70 76 75 77 71 78 72 79 74 80 76 81 73 82 57 83 58 84
REMARK SMILES IDX 63 85 59 86 60 87 62 88 64 89 61 90
REMARK H PARENT 81 52 55 63
REMARK Flexibility Score: inf
ROOT
ATOM      1  C   UNL A   1      35.163  24.525  24.740  1.00  0.00     0.261 C 
ENDROOT
BRANCH   1   2
ATOM      2  O   UNL A   1      34.193  25.174  25.583  1.00  0.00    -0.463 OA
BRANCH   2   3
ATOM      3  C   UNL A   1      33.852  26.447  25.272  1.00  0.00     0.310 C 
ATOM      4  O   UNL A   1      33.966  26.951  24.161  1.00  0.00    -0.252 OA
BRANCH   3   5
ATOM      5  C   UNL A   1      33.357  27.236  26.474  1.00  0.00     0.119 C 
ATOM      6  N   UNL A   1      31.352  28.216  25.454  1.00  0.00    -0.339 N 
ATOM      7  C   UNL A   1      31.781  29.591  25.689  1.00  0.00     0.119 C 
ATOM      8  C   UNL A   1      31.831  27.253  26.447  1.00  0.00     0.134 C 
ATOM      9  C   UNL A   1      33.300  29.701  25.728  1.00  0.00     0.022 C 
ATOM     10  C   UNL A   1      33.928  28.652  26.650  1.00  0.00     0.019 C 
BRANCH   6  11
ATOM     11  C   UNL A   1      30.610  27.917  24.316  1.00  0.00     0.263 C 
ATOM     12  O   UNL A   1      30.339  28.789  23.482  1.00  0.00    -0.271 OA
BRANCH  11  13
ATOM     13  C   UNL A   1      30.105  26.478  24.088  1.00  0.00     0.259 C 
ATOM     14  C   UNL A   1      28.594  26.431  23.875  1.00  0.00     0.064 C 
BRANCH  13  15
ATOM     15  O   UNL A   1      30.837  25.942  22.982  1.00  0.00    -0.481 OA
BRANCH  15  16
ATOM     16  C   UNL A   1      31.428  24.744  23.239  1.00  0.00     0.120 A 
ATOM     17  C   UNL A   1      32.351  24.226  22.337  1.00  0.00     0.047 A 
ATOM     18  C   UNL A   1      30.963  23.978  24.301  1.00  0.00     0.047 A 
ATOM     19  C   UNL A   1      32.814  22.918  22.502  1.00  0.00     0.012 A 
ATOM     20  C   UNL A   1      31.433  22.677  24.466  1.00  0.00     0.012 A 
ATOM     21  C   UNL A   1      32.348  22.115  23.557  1.00  0.00    -0.018 A 
BRANCH  21  22
ATOM     22  C   UNL A   1      32.748  20.706  23.690  1.00  0.00    -0.018 A 
ATOM     23  C   UNL A   1      33.708  20.297  24.627  1.00  0.00     0.009 A 
ATOM     24  C   UNL A   1      32.159  19.723  22.874  1.00  0.00     0.009 A 
ATOM     25  C   UNL A   1      34.054  18.949  24.756  1.00  0.00     0.001 A 
ATOM     26  C   UNL A   1      32.503  18.376  23.002  1.00  0.00     0.001 A 
ATOM     27  C   UNL A   1      33.449  17.989  23.946  1.00  0.00     0.000 A 
ENDBRANCH  21  22
ENDBRANCH  15  16
ENDBRANCH  13  15
ENDBRANCH  11  13
ENDBRANCH   6  11
ENDBRANCH   3   5
ENDBRANCH   2   3
ENDBRANCH   1   2
BRANCH   1  28
ATOM     28  C   UNL A   1      35.668  23.239  25.399  1.00  0.00     0.202 C 
BRANCH  28  29
ATOM     29  O   UNL A   1      36.911  22.740  24.901  1.00  0.00    -0.374 OA
BRANCH  29  30
ATOM     30  C   UNL A   1      37.821  22.188  25.850  1.00  0.00     0.202 C 
BRANCH  30  31
ATOM     31  C   UNL A   1      38.627  20.973  25.379  1.00  0.00     0.261 C 
BRANCH  31  32
ATOM     32  O   UNL A   1      39.243  20.258  26.466  1.00  0.00    -0.460 OA
BRANCH  32  33
ATOM     33  C   UNL A   1      40.554  19.978  26.277  1.00  0.00     0.338 C 
ATOM     34  O   UNL A   1      41.028  18.981  25.748  1.00  0.00    -0.246 OA
BRANCH  33  35
ATOM     35  C   UNL A   1      41.401  21.117  26.673  1.00  0.00     0.060 A 
ATOM     36  C   UNL A   1      41.312  21.546  28.003  1.00  0.00     0.016 A 
ATOM     37  C   UNL A   1      42.174  21.826  25.750  1.00  0.00     0.016 A 
ATOM     38  C   UNL A   1      41.941  22.722  28.400  1.00  0.00     0.010 A 
ATOM     39  C   UNL A   1      42.802  23.014  26.152  1.00  0.00     0.010 A 
ATOM     40  C   UNL A   1      42.652  23.489  27.468  1.00  0.00    -0.014 A 
BRANCH  40  41
ATOM     41  C   UNL A   1      43.095  24.853  27.847  1.00  0.00     0.031 A 
ATOM     42  C   UNL A   1      42.059  25.902  28.153  1.00  0.00     0.074 A 
ATOM     43  C   UNL A   1      44.401  25.140  27.990  1.00  0.00     0.049 A 
ATOM     44  N   UNL A   1      42.222  27.142  28.541  1.00  0.00    -0.248 NA
ATOM     45  C   UNL A   1      40.652  25.499  28.003  1.00  0.00     0.031 C 
ATOM     46  C   UNL A   1      45.500  24.206  27.758  1.00  0.00     0.029 A 
ATOM     47  N   UNL A   1      45.020  26.304  28.371  1.00  0.00    -0.354 N 
ATOM     48  C   UNL A   1      40.943  27.665  28.682  1.00  0.00     0.074 A 
ATOM     49  C   UNL A   1      40.015  26.621  28.307  1.00  0.00     0.031 C 
ATOM     50  C   UNL A   1      46.663  24.833  28.002  1.00  0.00     0.029 A 
ATOM     51  C   UNL A   1      46.391  26.218  28.386  1.00  0.00     0.049 A 
ATOM     52  H   UNL A   1      44.528  27.122  28.610  1.00  0.00     0.167 HD
ATOM     53  C   UNL A   1      40.572  28.900  29.099  1.00  0.00     0.037 A 
ATOM     54  C   UNL A   1      47.318  27.154  28.667  1.00  0.00     0.037 A 
ATOM     55  C   UNL A   1      41.490  29.941  29.478  1.00  0.00     0.049 A 
ATOM     56  C   UNL A   1      46.882  28.536  29.070  1.00  0.00     0.074 A 
ATOM     57  C   UNL A   1      41.207  31.218  29.932  1.00  0.00     0.029 A 
ATOM     58  N   UNL A   1      42.871  29.826  29.442  1.00  0.00    -0.354 N 
ATOM     59  N   UNL A   1      45.669  29.010  29.228  1.00  0.00    -0.248 NA
ATOM     60  C   UNL A   1      47.947  29.515  29.340  1.00  0.00     0.031 C 
ATOM     61  C   UNL A   1      42.417  31.890  30.132  1.00  0.00     0.029 A 
ATOM     62  C   UNL A   1      43.454  31.018  29.844  1.00  0.00     0.049 A 
ATOM     63  H   UNL A   1      43.364  29.018  29.172  1.00  0.00     0.167 HD
ATOM     64  C   UNL A   1      45.826  30.329  29.637  1.00  0.00     0.074 A 
ATOM     65  C   UNL A   1      47.250  30.577  29.717  1.00  0.00     0.031 C 
ATOM     66  C   UNL A   1      44.873  31.251  29.923  1.00  0.00     0.037 A 
BRANCH  53  67
ATOM     67  C   UNL A   1      39.102  29.198  29.149  1.00  0.00     0.057 A 
ATOM     68  C   UNL A   1      38.385  29.564  28.003  1.00  0.00     0.134 A 
ATOM     69  C   UNL A   1      38.392  29.086  30.350  1.00  0.00     0.134 A 
ATOM     70  F   UNL A   1      39.011  29.701  26.823  1.00  0.00    -0.206 F 
ATOM     71  C   UNL A   1      37.015  29.829  28.054  1.00  0.00     0.040 A 
ATOM     72  C   UNL A   1      37.018  29.326  30.409  1.00  0.00     0.040 A 
ATOM     73  F   UNL A   1      39.019  28.735  31.482  1.00  0.00    -0.206 F 
ATOM     74  C   UNL A   1      36.327  29.703  29.259  1.00  0.00     0.006 A 
ENDBRANCH  53  67
BRANCH  54  75
ATOM     75  C   UNL A   1      48.760  26.818  28.572  1.00  0.00     0.057 A 
ATOM     76  C   UNL A   1      49.468  26.987  27.377  1.00  0.00     0.134 A 
ATOM     77  C   UNL A   1      49.459  26.302  29.670  1.00  0.00     0.134 A 
ATOM     78  F   UNL A   1      48.846  27.453  26.283  1.00  0.00    -0.206 F 
ATOM     79  C   UNL A   1      50.816  26.640  27.271  1.00  0.00     0.040 A 
ATOM     80  C   UNL A   1      50.812  25.972  29.585  1.00  0.00     0.040 A 
ATOM     81  F   UNL A   1      48.834  26.113  30.841  1.00  0.00    -0.206 F 
ATOM     82  C   UNL A   1      51.493  26.135  28.381  1.00  0.00     0.006 A 
ENDBRANCH  54  75
BRANCH  66  83
ATOM     83  C   UNL A   1      45.338  32.603  30.376  1.00  0.00     0.057 A 
ATOM     84  C   UNL A   1      45.553  33.651  29.472  1.00  0.00     0.134 A 
ATOM     85  C   UNL A   1      45.540  32.870  31.737  1.00  0.00     0.134 A 
ATOM     86  F   UNL A   1      45.389  33.458  28.155  1.00  0.00    -0.206 F 
ATOM     87  C   UNL A   1      45.971  34.912  29.904  1.00  0.00     0.040 A 
ATOM     88  C   UNL A   1      45.934  34.132  32.182  1.00  0.00     0.040 A 
ATOM     89  F   UNL A   1      45.343  31.911  32.655  1.00  0.00    -0.206 F 
ATOM     90  C   UNL A   1      46.156  35.156  31.264  1.00  0.00     0.006 A 
ENDBRANCH  66  83
ENDBRANCH  40  41
ENDBRANCH  33  35
ENDBRANCH  32  33
ENDBRANCH  31  32
ENDBRANCH  30  31
ENDBRANCH  29  30
ENDBRANCH  28  29
ENDBRANCH   1  28
TORSDOF 19
ENDMDL
