MODEL 1
REMARK VINA RESULT:     -11.3      0.000      0.000
REMARK SMILES O=C(OCCOCCOC(=O)c1c(F)cccc1N[C@H]1CCCc2ccccc21)c1ccc(-c2c3nc(c(-c4c(F)cccc4F)c4ccc([nH]4)c(-c4c(F)cccc4F)c4nc(c(-c5c(F)cccc5F)c5ccc2[nH]5)C=C4)C=C3)cc1
REMARK SMILES IDX 6 1 5 2 4 3 3 4 2 5 1 6 30 7 31 8 83 9 32 10 82 11 33 12
REMARK SMILES IDX 34 13 35 14 76 15 36 16 81 17 75 18 77 19 37 20 80 21 74 22
REMARK SMILES IDX 73 23 38 25 64 26 47 27 63 28 48 29 51 30 62 31 78 32 49 33
REMARK SMILES IDX 50 34 61 36 79 37 52 38 39 39 40 40 45 41 41 42 42 43 44 44
REMARK SMILES IDX 46 45 43 46 65 47 66 48 71 49 67 50 68 51 70 52 72 53 69 54
REMARK SMILES IDX 53 55 54 56 59 57 55 58 56 59 58 60 60 61 57 62 7 63 8 64
REMARK SMILES IDX 9 65 10 66 11 67 12 68 13 69 18 70 14 71 15 72 17 73 16 74
REMARK SMILES IDX 19 75 20 77 21 78 29 79 22 80 24 81 28 82 23 83 25 84 27 85
REMARK SMILES IDX 26 86
REMARK H PARENT 77 24 51 35 19 76
REMARK Flexibility Score: inf
ROOT
ATOM      1  O   UNL A   1      33.028  30.351  27.283  1.00  0.00    -0.374 OA
ENDROOT
BRANCH   1   2
ATOM      2  C   UNL A   1      31.841  30.780  26.635  1.00  0.00     0.202 C 
BRANCH   2   3
ATOM      3  C   UNL A   1      31.511  32.232  26.965  1.00  0.00     0.261 C 
BRANCH   3   4
ATOM      4  O   UNL A   1      32.708  33.015  27.019  1.00  0.00    -0.460 OA
BRANCH   4   5
ATOM      5  C   UNL A   1      33.071  33.824  28.042  1.00  0.00     0.338 C 
ATOM      6  O   UNL A   1      32.379  34.808  28.296  1.00  0.00    -0.246 OA
BRANCH   5   7
ATOM      7  C   UNL A   1      34.272  33.585  28.900  1.00  0.00     0.060 A 
ATOM      8  C   UNL A   1      34.318  32.683  29.964  1.00  0.00     0.016 A 
ATOM      9  C   UNL A   1      35.474  34.189  28.506  1.00  0.00     0.016 A 
ATOM     10  C   UNL A   1      35.502  32.348  30.601  1.00  0.00     0.010 A 
ATOM     11  C   UNL A   1      36.684  33.821  29.104  1.00  0.00     0.010 A 
ATOM     12  C   UNL A   1      36.699  32.862  30.125  1.00  0.00    -0.014 A 
BRANCH  12  13
ATOM     13  C   UNL A   1      37.956  32.342  30.688  1.00  0.00     0.031 A 
ATOM     14  C   UNL A   1      38.626  31.194  30.017  1.00  0.00     0.074 A 
ATOM     15  C   UNL A   1      38.491  32.949  31.766  1.00  0.00     0.049 A 
ATOM     16  N   UNL A   1      39.633  30.479  30.430  1.00  0.00    -0.248 NA
ATOM     17  C   UNL A   1      38.096  30.800  28.700  1.00  0.00     0.031 C 
ATOM     18  C   UNL A   1      37.955  34.154  32.411  1.00  0.00     0.029 A 
ATOM     19  N   UNL A   1      39.602  32.647  32.509  1.00  0.00    -0.354 N 
ATOM     20  C   UNL A   1      39.831  29.520  29.450  1.00  0.00     0.074 A 
ATOM     21  C   UNL A   1      38.852  29.750  28.411  1.00  0.00     0.031 C 
ATOM     22  C   UNL A   1      38.742  34.490  33.445  1.00  0.00     0.029 A 
ATOM     23  C   UNL A   1      39.776  33.474  33.595  1.00  0.00     0.049 A 
ATOM     24  H   UNL A   1      40.216  31.911  32.288  1.00  0.00     0.167 HD
ATOM     25  C   UNL A   1      40.747  28.527  29.448  1.00  0.00     0.037 A 
ATOM     26  C   UNL A   1      40.635  33.380  34.628  1.00  0.00     0.037 A 
ATOM     27  C   UNL A   1      41.710  28.346  30.498  1.00  0.00     0.049 A 
ATOM     28  C   UNL A   1      41.579  32.211  34.645  1.00  0.00     0.074 A 
ATOM     29  C   UNL A   1      42.675  27.364  30.618  1.00  0.00     0.029 A 
ATOM     30  N   UNL A   1      41.825  29.170  31.610  1.00  0.00    -0.354 N 
ATOM     31  N   UNL A   1      41.737  31.271  33.742  1.00  0.00    -0.248 NA
ATOM     32  C   UNL A   1      42.441  32.062  35.824  1.00  0.00     0.031 C 
ATOM     33  C   UNL A   1      43.337  27.562  31.832  1.00  0.00     0.029 A 
ATOM     34  C   UNL A   1      42.824  28.698  32.441  1.00  0.00     0.049 A 
ATOM     35  H   UNL A   1      41.278  29.970  31.781  1.00  0.00     0.167 HD
ATOM     36  C   UNL A   1      42.716  30.423  34.239  1.00  0.00     0.074 A 
ATOM     37  C   UNL A   1      43.133  30.972  35.513  1.00  0.00     0.031 C 
ATOM     38  C   UNL A   1      43.217  29.288  33.697  1.00  0.00     0.037 A 
BRANCH  25  39
ATOM     39  C   UNL A   1      40.705  27.538  28.327  1.00  0.00     0.057 A 
ATOM     40  C   UNL A   1      41.451  27.767  27.163  1.00  0.00     0.134 A 
ATOM     41  C   UNL A   1      39.903  26.394  28.369  1.00  0.00     0.134 A 
ATOM     42  F   UNL A   1      42.249  28.841  27.065  1.00  0.00    -0.206 F 
ATOM     43  C   UNL A   1      41.381  26.903  26.070  1.00  0.00     0.040 A 
ATOM     44  C   UNL A   1      39.841  25.510  27.289  1.00  0.00     0.040 A 
ATOM     45  F   UNL A   1      39.187  26.104  29.466  1.00  0.00    -0.206 F 
ATOM     46  C   UNL A   1      40.573  25.771  26.132  1.00  0.00     0.006 A 
ENDBRANCH  25  39
BRANCH  26  47
ATOM     47  C   UNL A   1      40.577  34.357  35.749  1.00  0.00     0.057 A 
ATOM     48  C   UNL A   1      39.730  34.156  36.850  1.00  0.00     0.134 A 
ATOM     49  C   UNL A   1      41.358  35.518  35.751  1.00  0.00     0.134 A 
ATOM     50  F   UNL A   1      38.954  33.064  36.918  1.00  0.00    -0.206 F 
ATOM     51  C   UNL A   1      39.646  35.079  37.894  1.00  0.00     0.040 A 
ATOM     52  C   UNL A   1      41.307  36.435  36.803  1.00  0.00     0.040 A 
ATOM     53  F   UNL A   1      42.206  35.762  34.741  1.00  0.00    -0.206 F 
ATOM     54  C   UNL A   1      40.442  36.221  37.875  1.00  0.00     0.006 A 
ENDBRANCH  26  47
BRANCH  38  55
ATOM     55  C   UNL A   1      44.277  28.564  34.466  1.00  0.00     0.057 A 
ATOM     56  C   UNL A   1      45.630  28.855  34.255  1.00  0.00     0.134 A 
ATOM     57  C   UNL A   1      43.961  27.487  35.302  1.00  0.00     0.134 A 
ATOM     58  F   UNL A   1      45.991  29.867  33.451  1.00  0.00    -0.206 F 
ATOM     59  C   UNL A   1      46.637  28.072  34.817  1.00  0.00     0.040 A 
ATOM     60  C   UNL A   1      44.959  26.714  35.893  1.00  0.00     0.040 A 
ATOM     61  F   UNL A   1      42.681  27.170  35.550  1.00  0.00    -0.206 F 
ATOM     62  C   UNL A   1      46.301  26.995  35.636  1.00  0.00     0.006 A 
ENDBRANCH  38  55
ENDBRANCH  12  13
ENDBRANCH   5   7
ENDBRANCH   4   5
ENDBRANCH   3   4
ENDBRANCH   2   3
ENDBRANCH   1   2
BRANCH   1  63
ATOM     63  C   UNL A   1      33.359  28.977  27.136  1.00  0.00     0.202 C 
BRANCH  63  64
ATOM     64  C   UNL A   1      32.065  28.187  27.296  1.00  0.00     0.261 C 
BRANCH  64  65
ATOM     65  O   UNL A   1      32.239  26.919  26.641  1.00  0.00    -0.460 OA
BRANCH  65  66
ATOM     66  C   UNL A   1      32.493  26.924  25.298  1.00  0.00     0.343 C 
ATOM     67  O   UNL A   1      33.550  26.705  24.751  1.00  0.00    -0.246 OA
BRANCH  66  68
ATOM     68  C   UNL A   1      31.194  27.089  24.589  1.00  0.00     0.118 A 
ATOM     69  C   UNL A   1      30.986  28.300  23.904  1.00  0.00     0.139 A 
ATOM     70  C   UNL A   1      30.170  26.099  24.641  1.00  0.00     0.052 A 
ATOM     71  F   UNL A   1      31.951  29.229  23.808  1.00  0.00    -0.206 F 
ATOM     72  C   UNL A   1      29.772  28.589  23.302  1.00  0.00     0.040 A 
ATOM     73  C   UNL A   1      28.953  26.435  24.017  1.00  0.00     0.027 A 
ATOM     74  C   UNL A   1      28.753  27.654  23.357  1.00  0.00     0.005 A 
BRANCH  70  75
ATOM     75  N   UNL A   1      30.300  24.903  25.345  1.00  0.00    -0.377 N 
ATOM     76  H   UNL A   1      29.979  24.907  26.276  1.00  0.00     0.161 HD
BRANCH  75  77
ATOM     77  C   UNL A   1      30.865  23.630  24.854  1.00  0.00     0.110 C 
ATOM     78  C   UNL A   1      31.171  23.741  23.346  1.00  0.00     0.030 C 
ATOM     79  C   UNL A   1      32.100  23.255  25.681  1.00  0.00    -0.023 A 
ATOM     80  C   UNL A   1      32.299  22.812  22.914  1.00  0.00     0.007 C 
ATOM     81  C   UNL A   1      33.388  23.182  25.122  1.00  0.00    -0.043 A 
ATOM     82  C   UNL A   1      31.960  22.901  27.030  1.00  0.00     0.006 A 
ATOM     83  C   UNL A   1      33.585  23.219  23.629  1.00  0.00     0.036 C 
ATOM     84  C   UNL A   1      34.509  23.010  25.951  1.00  0.00     0.004 A 
ATOM     85  C   UNL A   1      33.072  22.671  27.843  1.00  0.00     0.000 A 
ATOM     86  C   UNL A   1      34.351  22.780  27.314  1.00  0.00     0.000 A 
ENDBRANCH  75  77
ENDBRANCH  70  75
ENDBRANCH  66  68
ENDBRANCH  65  66
ENDBRANCH  64  65
ENDBRANCH  63  64
ENDBRANCH   1  63
TORSDOF 16
ENDMDL
MODEL 2
REMARK VINA RESULT:     -11.3      1.890      3.084
REMARK SMILES O=C(OCCOCCOC(=O)c1c(F)cccc1N[C@H]1CCCc2ccccc21)c1ccc(-c2c3nc(c(-c4c(F)cccc4F)c4ccc([nH]4)c(-c4c(F)cccc4F)c4nc(c(-c5c(F)cccc5F)c5ccc2[nH]5)C=C4)C=C3)cc1
REMARK SMILES IDX 6 1 5 2 4 3 3 4 2 5 1 6 30 7 31 8 83 9 32 10 82 11 33 12
REMARK SMILES IDX 34 13 35 14 76 15 36 16 81 17 75 18 77 19 37 20 80 21 74 22
REMARK SMILES IDX 73 23 38 25 64 26 47 27 63 28 48 29 51 30 62 31 78 32 49 33
REMARK SMILES IDX 50 34 61 36 79 37 52 38 39 39 40 40 45 41 41 42 42 43 44 44
REMARK SMILES IDX 46 45 43 46 65 47 66 48 71 49 67 50 68 51 70 52 72 53 69 54
REMARK SMILES IDX 53 55 54 56 59 57 55 58 56 59 58 60 60 61 57 62 7 63 8 64
REMARK SMILES IDX 9 65 10 66 11 67 12 68 13 69 18 70 14 71 15 72 17 73 16 74
REMARK SMILES IDX 19 75 20 77 21 78 29 79 22 80 24 81 28 82 23 83 25 84 27 85
REMARK SMILES IDX 26 86
REMARK H PARENT 77 24 51 35 19 76
REMARK Flexibility Score: inf
ROOT
ATOM      1  O   UNL A   1      32.673  29.011  25.246  1.00  0.00    -0.374 OA
ENDROOT
BRANCH   1   2
ATOM      2  C   UNL A   1      31.394  29.619  25.170  1.00  0.00     0.202 C 
BRANCH   2   3
ATOM      3  C   UNL A   1      31.377  30.983  25.853  1.00  0.00     0.261 C 
BRANCH   3   4
ATOM      4  O   UNL A   1      32.157  30.950  27.053  1.00  0.00    -0.460 OA
BRANCH   4   5
ATOM      5  C   UNL A   1      33.104  31.853  27.399  1.00  0.00     0.338 C 
ATOM      6  O   UNL A   1      32.809  33.048  27.410  1.00  0.00    -0.246 OA
BRANCH   5   7
ATOM      7  C   UNL A   1      34.500  31.483  27.783  1.00  0.00     0.060 A 
ATOM      8  C   UNL A   1      35.526  32.399  28.020  1.00  0.00     0.016 A 
ATOM      9  C   UNL A   1      34.749  30.136  28.081  1.00  0.00     0.016 A 
ATOM     10  C   UNL A   1      36.743  32.024  28.565  1.00  0.00     0.010 A 
ATOM     11  C   UNL A   1      35.952  29.751  28.682  1.00  0.00     0.010 A 
ATOM     12  C   UNL A   1      36.933  30.710  28.965  1.00  0.00    -0.014 A 
BRANCH  12  13
ATOM     13  C   UNL A   1      38.153  30.378  29.719  1.00  0.00     0.031 A 
ATOM     14  C   UNL A   1      39.178  29.504  29.084  1.00  0.00     0.074 A 
ATOM     15  C   UNL A   1      38.331  30.912  30.944  1.00  0.00     0.049 A 
ATOM     16  N   UNL A   1      40.229  28.954  29.620  1.00  0.00    -0.248 NA
ATOM     17  C   UNL A   1      38.998  29.211  27.651  1.00  0.00     0.031 C 
ATOM     18  C   UNL A   1      37.427  31.873  31.587  1.00  0.00     0.029 A 
ATOM     19  N   UNL A   1      39.329  30.734  31.866  1.00  0.00    -0.354 N 
ATOM     20  C   UNL A   1      40.815  28.212  28.606  1.00  0.00     0.074 A 
ATOM     21  C   UNL A   1      40.013  28.393  27.417  1.00  0.00     0.031 C 
ATOM     22  C   UNL A   1      37.917  32.203  32.793  1.00  0.00     0.029 A 
ATOM     23  C   UNL A   1      39.111  31.407  33.046  1.00  0.00     0.049 A 
ATOM     24  H   UNL A   1      40.125  30.179  31.701  1.00  0.00     0.167 HD
ATOM     25  C   UNL A   1      41.918  27.438  28.690  1.00  0.00     0.037 A 
ATOM     26  C   UNL A   1      39.768  31.335  34.220  1.00  0.00     0.037 A 
ATOM     27  C   UNL A   1      42.692  27.301  29.893  1.00  0.00     0.049 A 
ATOM     28  C   UNL A   1      40.935  30.393  34.309  1.00  0.00     0.074 A 
ATOM     29  C   UNL A   1      43.818  26.529  30.106  1.00  0.00     0.029 A 
ATOM     30  N   UNL A   1      42.413  27.955  31.085  1.00  0.00    -0.354 N 
ATOM     31  N   UNL A   1      41.464  29.651  33.364  1.00  0.00    -0.248 NA
ATOM     32  C   UNL A   1      41.581  30.247  35.619  1.00  0.00     0.031 C 
ATOM     33  C   UNL A   1      44.187  26.673  31.445  1.00  0.00     0.029 A 
ATOM     34  C   UNL A   1      43.327  27.577  32.051  1.00  0.00     0.049 A 
ATOM     35  H   UNL A   1      41.676  28.592  31.222  1.00  0.00     0.167 HD
ATOM     36  C   UNL A   1      42.505  28.955  33.960  1.00  0.00     0.074 A 
ATOM     37  C   UNL A   1      42.548  29.380  35.345  1.00  0.00     0.031 C 
ATOM     38  C   UNL A   1      43.341  28.039  33.417  1.00  0.00     0.037 A 
BRANCH  25  39
ATOM     39  C   UNL A   1      42.307  26.641  27.486  1.00  0.00     0.057 A 
ATOM     40  C   UNL A   1      41.897  25.306  27.368  1.00  0.00     0.134 A 
ATOM     41  C   UNL A   1      43.117  27.163  26.473  1.00  0.00     0.134 A 
ATOM     42  F   UNL A   1      41.110  24.750  28.301  1.00  0.00    -0.206 F 
ATOM     43  C   UNL A   1      42.300  24.511  26.294  1.00  0.00     0.040 A 
ATOM     44  C   UNL A   1      43.510  26.384  25.383  1.00  0.00     0.040 A 
ATOM     45  F   UNL A   1      43.519  28.442  26.514  1.00  0.00    -0.206 F 
ATOM     46  C   UNL A   1      43.110  25.052  25.298  1.00  0.00     0.006 A 
ENDBRANCH  25  39
BRANCH  26  47
ATOM     47  C   UNL A   1      39.286  32.101  35.401  1.00  0.00     0.057 A 
ATOM     48  C   UNL A   1      39.669  33.435  35.612  1.00  0.00     0.134 A 
ATOM     49  C   UNL A   1      38.437  31.526  36.352  1.00  0.00     0.134 A 
ATOM     50  F   UNL A   1      40.478  34.054  34.740  1.00  0.00    -0.206 F 
ATOM     51  C   UNL A   1      39.247  34.156  36.731  1.00  0.00     0.040 A 
ATOM     52  C   UNL A   1      37.982  32.244  37.461  1.00  0.00     0.040 A 
ATOM     53  F   UNL A   1      38.014  30.262  36.201  1.00  0.00    -0.206 F 
ATOM     54  C   UNL A   1      38.394  33.561  37.657  1.00  0.00     0.006 A 
ENDBRANCH  26  47
BRANCH  38  55
ATOM     55  C   UNL A   1      44.382  27.438  34.309  1.00  0.00     0.057 A 
ATOM     56  C   UNL A   1      45.652  28.019  34.407  1.00  0.00     0.134 A 
ATOM     57  C   UNL A   1      44.171  26.213  34.951  1.00  0.00     0.134 A 
ATOM     58  F   UNL A   1      45.916  29.187  33.800  1.00  0.00    -0.206 F 
ATOM     59  C   UNL A   1      46.691  27.380  35.082  1.00  0.00     0.040 A 
ATOM     60  C   UNL A   1      45.194  25.578  35.651  1.00  0.00     0.040 A 
ATOM     61  F   UNL A   1      42.970  25.616  34.900  1.00  0.00    -0.206 F 
ATOM     62  C   UNL A   1      46.463  26.153  35.702  1.00  0.00     0.006 A 
ENDBRANCH  38  55
ENDBRANCH  12  13
ENDBRANCH   5   7
ENDBRANCH   4   5
ENDBRANCH   3   4
ENDBRANCH   2   3
ENDBRANCH   1   2
BRANCH   1  63
ATOM     63  C   UNL A   1      33.481  29.105  24.080  1.00  0.00     0.202 C 
BRANCH  63  64
ATOM     64  C   UNL A   1      32.634  28.614  22.912  1.00  0.00     0.261 C 
BRANCH  64  65
ATOM     65  O   UNL A   1      33.134  27.325  22.516  1.00  0.00    -0.460 OA
BRANCH  65  66
ATOM     66  C   UNL A   1      32.252  26.282  22.480  1.00  0.00     0.343 C 
ATOM     67  O   UNL A   1      31.741  25.787  21.500  1.00  0.00    -0.246 OA
BRANCH  66  68
ATOM     68  C   UNL A   1      32.138  25.733  23.859  1.00  0.00     0.118 A 
ATOM     69  C   UNL A   1      30.898  25.877  24.506  1.00  0.00     0.139 A 
ATOM     70  C   UNL A   1      33.244  25.137  24.532  1.00  0.00     0.052 A 
ATOM     71  F   UNL A   1      29.831  26.397  23.878  1.00  0.00    -0.206 F 
ATOM     72  C   UNL A   1      30.723  25.491  25.826  1.00  0.00     0.040 A 
ATOM     73  C   UNL A   1      33.024  24.761  25.871  1.00  0.00     0.027 A 
ATOM     74  C   UNL A   1      31.788  24.931  26.510  1.00  0.00     0.005 A 
BRANCH  70  75
ATOM     75  N   UNL A   1      34.509  25.013  23.959  1.00  0.00    -0.377 N 
ATOM     76  H   UNL A   1      34.999  25.852  23.798  1.00  0.00     0.161 HD
BRANCH  75  77
ATOM     77  C   UNL A   1      35.197  23.767  23.566  1.00  0.00     0.110 C 
ATOM     78  C   UNL A   1      36.409  23.526  24.490  1.00  0.00     0.030 C 
ATOM     79  C   UNL A   1      34.205  22.599  23.576  1.00  0.00    -0.023 A 
ATOM     80  C   UNL A   1      36.756  22.047  24.616  1.00  0.00     0.007 C 
ATOM     81  C   UNL A   1      34.330  21.512  24.459  1.00  0.00    -0.043 A 
ATOM     82  C   UNL A   1      33.165  22.554  22.639  1.00  0.00     0.006 A 
ATOM     83  C   UNL A   1      35.586  21.312  25.265  1.00  0.00     0.036 C 
ATOM     84  C   UNL A   1      33.304  20.558  24.554  1.00  0.00     0.004 A 
ATOM     85  C   UNL A   1      32.174  21.571  22.694  1.00  0.00     0.000 A 
ATOM     86  C   UNL A   1      32.215  20.603  23.688  1.00  0.00     0.000 A 
ENDBRANCH  75  77
ENDBRANCH  70  75
ENDBRANCH  66  68
ENDBRANCH  65  66
ENDBRANCH  64  65
ENDBRANCH  63  64
ENDBRANCH   1  63
TORSDOF 16
ENDMDL
MODEL 3
REMARK VINA RESULT:     -11.2      1.335      2.224
REMARK SMILES O=C(OCCOCCOC(=O)c1c(F)cccc1N[C@H]1CCCc2ccccc21)c1ccc(-c2c3nc(c(-c4c(F)cccc4F)c4ccc([nH]4)c(-c4c(F)cccc4F)c4nc(c(-c5c(F)cccc5F)c5ccc2[nH]5)C=C4)C=C3)cc1
REMARK SMILES IDX 6 1 5 2 4 3 3 4 2 5 1 6 30 7 31 8 83 9 32 10 82 11 33 12
REMARK SMILES IDX 34 13 35 14 76 15 36 16 81 17 75 18 77 19 37 20 80 21 74 22
REMARK SMILES IDX 73 23 38 25 64 26 47 27 63 28 48 29 51 30 62 31 78 32 49 33
REMARK SMILES IDX 50 34 61 36 79 37 52 38 39 39 40 40 45 41 41 42 42 43 44 44
REMARK SMILES IDX 46 45 43 46 65 47 66 48 71 49 67 50 68 51 70 52 72 53 69 54
REMARK SMILES IDX 53 55 54 56 59 57 55 58 56 59 58 60 60 61 57 62 7 63 8 64
REMARK SMILES IDX 9 65 10 66 11 67 12 68 13 69 18 70 14 71 15 72 17 73 16 74
REMARK SMILES IDX 19 75 20 77 21 78 29 79 22 80 24 81 28 82 23 83 25 84 27 85
REMARK SMILES IDX 26 86
REMARK H PARENT 77 24 51 35 19 76
REMARK Flexibility Score: inf
ROOT
ATOM      1  O   UNL A   1      32.411  30.223  25.808  1.00  0.00    -0.374 OA
ENDROOT
BRANCH   1   2
ATOM      2  C   UNL A   1      31.954  31.090  26.834  1.00  0.00     0.202 C 
BRANCH   2   3
ATOM      3  C   UNL A   1      33.070  31.995  27.346  1.00  0.00     0.261 C 
BRANCH   3   4
ATOM      4  O   UNL A   1      32.592  33.335  27.503  1.00  0.00    -0.460 OA
BRANCH   4   5
ATOM      5  C   UNL A   1      33.071  34.241  28.387  1.00  0.00     0.338 C 
ATOM      6  O   UNL A   1      32.488  35.317  28.511  1.00  0.00    -0.246 OA
BRANCH   5   7
ATOM      7  C   UNL A   1      34.276  34.006  29.241  1.00  0.00     0.060 A 
ATOM      8  C   UNL A   1      34.267  33.301  30.446  1.00  0.00     0.016 A 
ATOM      9  C   UNL A   1      35.520  34.380  28.715  1.00  0.00     0.016 A 
ATOM     10  C   UNL A   1      35.433  32.937  31.099  1.00  0.00     0.010 A 
ATOM     11  C   UNL A   1      36.705  33.974  29.335  1.00  0.00     0.010 A 
ATOM     12  C   UNL A   1      36.657  33.210  30.508  1.00  0.00    -0.014 A 
BRANCH  12  13
ATOM     13  C   UNL A   1      37.871  32.642  31.120  1.00  0.00     0.031 A 
ATOM     14  C   UNL A   1      38.540  31.488  30.458  1.00  0.00     0.074 A 
ATOM     15  C   UNL A   1      38.369  33.212  32.235  1.00  0.00     0.049 A 
ATOM     16  N   UNL A   1      39.504  30.736  30.904  1.00  0.00    -0.248 NA
ATOM     17  C   UNL A   1      38.063  31.135  29.109  1.00  0.00     0.031 C 
ATOM     18  C   UNL A   1      37.837  34.419  32.878  1.00  0.00     0.029 A 
ATOM     19  N   UNL A   1      39.434  32.863  33.024  1.00  0.00    -0.354 N 
ATOM     20  C   UNL A   1      39.723  29.791  29.914  1.00  0.00     0.074 A 
ATOM     21  C   UNL A   1      38.803  30.070  28.835  1.00  0.00     0.031 C 
ATOM     22  C   UNL A   1      38.582  34.712  33.955  1.00  0.00     0.029 A 
ATOM     23  C   UNL A   1      39.578  33.664  34.134  1.00  0.00     0.049 A 
ATOM     24  H   UNL A   1      40.037  32.114  32.817  1.00  0.00     0.167 HD
ATOM     25  C   UNL A   1      40.609  28.772  29.936  1.00  0.00     0.037 A 
ATOM     26  C   UNL A   1      40.383  33.524  35.205  1.00  0.00     0.037 A 
ATOM     27  C   UNL A   1      41.515  28.542  31.027  1.00  0.00     0.049 A 
ATOM     28  C   UNL A   1      41.292  32.328  35.243  1.00  0.00     0.074 A 
ATOM     29  C   UNL A   1      42.445  27.531  31.173  1.00  0.00     0.029 A 
ATOM     30  N   UNL A   1      41.599  29.341  32.160  1.00  0.00    -0.354 N 
ATOM     31  N   UNL A   1      41.467  31.402  34.329  1.00  0.00    -0.248 NA
ATOM     32  C   UNL A   1      42.092  32.131  36.458  1.00  0.00     0.031 C 
ATOM     33  C   UNL A   1      43.052  27.685  32.421  1.00  0.00     0.029 A 
ATOM     34  C   UNL A   1      42.543  28.824  33.028  1.00  0.00     0.049 A 
ATOM     35  H   UNL A   1      41.067  30.153  32.321  1.00  0.00     0.167 HD
ATOM     36  C   UNL A   1      42.396  30.516  34.854  1.00  0.00     0.074 A 
ATOM     37  C   UNL A   1      42.767  31.028  36.158  1.00  0.00     0.031 C 
ATOM     38  C   UNL A   1      42.891  29.377  34.313  1.00  0.00     0.037 A 
BRANCH  25  39
ATOM     39  C   UNL A   1      40.594  27.806  28.794  1.00  0.00     0.057 A 
ATOM     40  C   UNL A   1      41.402  28.036  27.672  1.00  0.00     0.134 A 
ATOM     41  C   UNL A   1      39.758  26.686  28.773  1.00  0.00     0.134 A 
ATOM     42  F   UNL A   1      42.234  29.088  27.635  1.00  0.00    -0.206 F 
ATOM     43  C   UNL A   1      41.361  27.196  26.559  1.00  0.00     0.040 A 
ATOM     44  C   UNL A   1      39.724  25.826  27.674  1.00  0.00     0.040 A 
ATOM     45  F   UNL A   1      38.982  26.396  29.828  1.00  0.00    -0.206 F 
ATOM     46  C   UNL A   1      40.518  26.087  26.559  1.00  0.00     0.006 A 
ENDBRANCH  25  39
BRANCH  26  47
ATOM     47  C   UNL A   1      40.298  34.481  36.341  1.00  0.00     0.057 A 
ATOM     48  C   UNL A   1      41.131  35.608  36.411  1.00  0.00     0.134 A 
ATOM     49  C   UNL A   1      39.389  34.297  37.389  1.00  0.00     0.134 A 
ATOM     50  F   UNL A   1      42.025  35.852  35.441  1.00  0.00    -0.206 F 
ATOM     51  C   UNL A   1      41.081  36.498  37.485  1.00  0.00     0.040 A 
ATOM     52  C   UNL A   1      39.306  35.195  38.455  1.00  0.00     0.040 A 
ATOM     53  F   UNL A   1      38.548  33.253  37.375  1.00  0.00    -0.206 F 
ATOM     54  C   UNL A   1      40.160  36.295  38.510  1.00  0.00     0.006 A 
ENDBRANCH  26  47
BRANCH  38  55
ATOM     55  C   UNL A   1      43.892  28.608  35.117  1.00  0.00     0.057 A 
ATOM     56  C   UNL A   1      43.468  27.712  36.106  1.00  0.00     0.134 A 
ATOM     57  C   UNL A   1      45.263  28.864  35.009  1.00  0.00     0.134 A 
ATOM     58  F   UNL A   1      42.163  27.440  36.265  1.00  0.00    -0.206 F 
ATOM     59  C   UNL A   1      44.373  27.127  36.990  1.00  0.00     0.040 A 
ATOM     60  C   UNL A   1      46.181  28.262  35.868  1.00  0.00     0.040 A 
ATOM     61  F   UNL A   1      45.727  29.705  34.071  1.00  0.00    -0.206 F 
ATOM     62  C   UNL A   1      45.734  27.406  36.874  1.00  0.00     0.006 A 
ENDBRANCH  38  55
ENDBRANCH  12  13
ENDBRANCH   5   7
ENDBRANCH   4   5
ENDBRANCH   3   4
ENDBRANCH   2   3
ENDBRANCH   1   2
BRANCH   1  63
ATOM     63  C   UNL A   1      33.515  29.390  26.139  1.00  0.00     0.202 C 
BRANCH  63  64
ATOM     64  C   UNL A   1      32.992  28.311  27.080  1.00  0.00     0.261 C 
BRANCH  64  65
ATOM     65  O   UNL A   1      33.215  27.035  26.454  1.00  0.00    -0.460 OA
BRANCH  65  66
ATOM     66  C   UNL A   1      32.121  26.317  26.060  1.00  0.00     0.343 C 
ATOM     67  O   UNL A   1      31.235  25.887  26.762  1.00  0.00    -0.246 OA
BRANCH  66  68
ATOM     68  C   UNL A   1      32.110  26.285  24.571  1.00  0.00     0.118 A 
ATOM     69  C   UNL A   1      31.221  27.156  23.917  1.00  0.00     0.139 A 
ATOM     70  C   UNL A   1      32.913  25.374  23.826  1.00  0.00     0.052 A 
ATOM     71  F   UNL A   1      30.484  28.051  24.596  1.00  0.00    -0.206 F 
ATOM     72  C   UNL A   1      31.063  27.127  22.540  1.00  0.00     0.040 A 
ATOM     73  C   UNL A   1      32.721  25.376  22.431  1.00  0.00     0.027 A 
ATOM     74  C   UNL A   1      31.816  26.235  21.795  1.00  0.00     0.005 A 
BRANCH  70  75
ATOM     75  N   UNL A   1      33.775  24.453  24.422  1.00  0.00    -0.377 N 
ATOM     76  H   UNL A   1      33.805  24.458  25.406  1.00  0.00     0.161 HD
BRANCH  75  77
ATOM     77  C   UNL A   1      34.646  23.471  23.746  1.00  0.00     0.110 C 
ATOM     78  C   UNL A   1      36.090  23.604  24.270  1.00  0.00     0.030 C 
ATOM     79  C   UNL A   1      34.078  22.059  23.928  1.00  0.00    -0.023 A 
ATOM     80  C   UNL A   1      36.867  22.297  24.164  1.00  0.00     0.007 C 
ATOM     81  C   UNL A   1      34.761  21.059  24.642  1.00  0.00    -0.043 A 
ATOM     82  C   UNL A   1      32.868  21.705  23.316  1.00  0.00     0.006 A 
ATOM     83  C   UNL A   1      36.200  21.244  25.046  1.00  0.00     0.036 C 
ATOM     84  C   UNL A   1      34.126  19.840  24.933  1.00  0.00     0.004 A 
ATOM     85  C   UNL A   1      32.262  20.470  23.558  1.00  0.00     0.000 A 
ATOM     86  C   UNL A   1      32.867  19.558  24.412  1.00  0.00     0.000 A 
ENDBRANCH  75  77
ENDBRANCH  70  75
ENDBRANCH  66  68
ENDBRANCH  65  66
ENDBRANCH  64  65
ENDBRANCH  63  64
ENDBRANCH   1  63
TORSDOF 16
ENDMDL
