MODEL 1
REMARK VINA RESULT:     -11.4      0.000      0.000
REMARK SMILES [NH3+][C@@]1(C(=O)OCCOCCOC(=O)c2ccc(-c3c4nc(c(-c5c(F)cccc5F)c5ccc([nH]5)c(-c5c(F)cccc5F)c5nc(c(-c6c(F)cccc6F)c6ccc3[nH]6)C=C5)C=C4)cc2)CCC[C@@H](Oc2ccccc2[N+](=O)[O-])C1
REMARK SMILES IDX 7 1 6 2 5 3 3 4 4 5 2 6 68 7 82 8 69 9 71 10 70 11 1 12
REMARK SMILES IDX 72 16 73 17 74 18 78 19 75 20 77 21 76 22 79 23 80 24 81 25
REMARK SMILES IDX 8 26 9 27 10 28 11 29 12 30 13 31 14 32 15 33 67 34 16 35
REMARK SMILES IDX 66 36 17 37 18 38 19 39 60 40 20 41 65 42 59 43 61 44 21 45
REMARK SMILES IDX 64 46 58 47 57 48 22 50 48 51 31 52 47 53 32 54 35 55 46 56
REMARK SMILES IDX 62 57 33 58 34 59 45 61 63 62 36 63 23 64 24 65 29 66 25 67
REMARK SMILES IDX 26 68 28 69 30 70 27 71 49 72 50 73 55 74 51 75 52 76 54 77
REMARK SMILES IDX 56 78 53 79 37 80 38 81 43 82 39 83 40 84 42 85 44 86 41 87
REMARK H PARENT 1 13 1 14 1 15 61 49 35 60
REMARK Flexibility Score: inf
ROOT
ATOM      1  C   UNL A   1      40.752  19.936  26.082  1.00  0.00     0.202 C 
ENDROOT
BRANCH   1   2
ATOM      2  C   UNL A   1      40.221  21.317  26.492  1.00  0.00     0.261 C 
BRANCH   2   3
ATOM      3  O   UNL A   1      38.985  21.594  25.817  1.00  0.00    -0.459 OA
BRANCH   3   4
ATOM      4  C   UNL A   1      38.371  22.786  26.092  1.00  0.00     0.368 C 
ATOM      5  O   UNL A   1      38.896  23.740  26.648  1.00  0.00    -0.245 OA
BRANCH   4   6
ATOM      6  C   UNL A   1      36.899  22.756  25.572  1.00  0.00     0.196 C 
ATOM      7  C   UNL A   1      36.850  22.409  24.075  1.00  0.00     0.081 C 
ATOM      8  C   UNL A   1      36.334  24.168  25.799  1.00  0.00     0.126 C 
ATOM      9  C   UNL A   1      35.434  22.506  23.507  1.00  0.00     0.011 C 
ATOM     10  C   UNL A   1      35.002  24.497  25.114  1.00  0.00     0.180 C 
ATOM     11  C   UNL A   1      34.825  23.893  23.709  1.00  0.00     0.046 C 
BRANCH   6  12
ATOM     12  N   UNL A   1      36.181  21.668  26.273  1.00  0.00    -0.343 N 
ATOM     13  H   UNL A   1      35.902  21.988  27.201  1.00  0.00     0.345 HD
ATOM     14  H   UNL A   1      36.795  20.859  26.364  1.00  0.00     0.345 HD
ATOM     15  H   UNL A   1      35.352  21.409  25.739  1.00  0.00     0.345 HD
ENDBRANCH   6  12
BRANCH  10  16
ATOM     16  O   UNL A   1      33.838  24.477  25.970  1.00  0.00    -0.483 OA
BRANCH  16  17
ATOM     17  C   UNL A   1      33.069  25.594  26.059  1.00  0.00     0.197 A 
ATOM     18  C   UNL A   1      33.704  26.835  26.120  1.00  0.00     0.054 A 
ATOM     19  C   UNL A   1      31.673  25.552  26.181  1.00  0.00     0.310 A 
ATOM     20  C   UNL A   1      32.954  28.015  26.170  1.00  0.00     0.004 A 
ATOM     21  C   UNL A   1      30.911  26.731  26.210  1.00  0.00     0.090 A 
ATOM     22  C   UNL A   1      31.560  27.964  26.188  1.00  0.00     0.007 A 
BRANCH  19  23
ATOM     23  N   UNL A   1      30.955  24.290  26.177  1.00  0.00     0.066 N 
ATOM     24  O   UNL A   1      30.511  23.910  25.083  1.00  0.00    -0.258 OA
ATOM     25  O   UNL A   1      30.832  23.681  27.246  1.00  0.00    -0.258 OA
ENDBRANCH  19  23
ENDBRANCH  16  17
ENDBRANCH  10  16
ENDBRANCH   4   6
ENDBRANCH   3   4
ENDBRANCH   2   3
ENDBRANCH   1   2
BRANCH   1  26
ATOM     26  O   UNL A   1      42.102  19.945  25.604  1.00  0.00    -0.374 OA
BRANCH  26  27
ATOM     27  C   UNL A   1      42.920  21.002  26.110  1.00  0.00     0.202 C 
BRANCH  27  28
ATOM     28  C   UNL A   1      43.749  21.720  25.049  1.00  0.00     0.261 C 
BRANCH  28  29
ATOM     29  O   UNL A   1      43.134  22.976  24.712  1.00  0.00    -0.460 OA
BRANCH  29  30
ATOM     30  C   UNL A   1      43.890  24.059  24.983  1.00  0.00     0.338 C 
ATOM     31  O   UNL A   1      44.952  24.374  24.462  1.00  0.00    -0.246 OA
BRANCH  30  32
ATOM     32  C   UNL A   1      43.181  24.939  25.927  1.00  0.00     0.060 A 
ATOM     33  C   UNL A   1      43.623  26.264  26.016  1.00  0.00     0.016 A 
ATOM     34  C   UNL A   1      42.151  24.477  26.752  1.00  0.00     0.016 A 
ATOM     35  C   UNL A   1      43.080  27.116  26.972  1.00  0.00     0.010 A 
ATOM     36  C   UNL A   1      41.607  25.334  27.714  1.00  0.00     0.010 A 
ATOM     37  C   UNL A   1      42.096  26.645  27.850  1.00  0.00    -0.014 A 
BRANCH  37  38
ATOM     38  C   UNL A   1      41.671  27.496  28.986  1.00  0.00     0.031 A 
ATOM     39  C   UNL A   1      42.431  27.426  30.280  1.00  0.00     0.074 A 
ATOM     40  C   UNL A   1      40.642  28.350  28.847  1.00  0.00     0.049 A 
ATOM     41  N   UNL A   1      42.220  28.066  31.401  1.00  0.00    -0.248 NA
ATOM     42  C   UNL A   1      43.583  26.511  30.318  1.00  0.00     0.031 C 
ATOM     43  C   UNL A   1      39.857  28.533  27.628  1.00  0.00     0.029 A 
ATOM     44  N   UNL A   1      40.082  29.222  29.744  1.00  0.00    -0.354 N 
ATOM     45  C   UNL A   1      43.206  27.632  32.277  1.00  0.00     0.074 A 
ATOM     46  C   UNL A   1      44.000  26.651  31.569  1.00  0.00     0.031 C 
ATOM     47  C   UNL A   1      38.906  29.453  27.857  1.00  0.00     0.029 A 
ATOM     48  C   UNL A   1      38.998  29.899  29.247  1.00  0.00     0.049 A 
ATOM     49  H   UNL A   1      40.424  29.349  30.659  1.00  0.00     0.167 HD
ATOM     50  C   UNL A   1      43.435  28.022  33.553  1.00  0.00     0.037 A 
ATOM     51  C   UNL A   1      38.159  30.762  29.852  1.00  0.00     0.037 A 
ATOM     52  C   UNL A   1      42.646  29.003  34.252  1.00  0.00     0.049 A 
ATOM     53  C   UNL A   1      38.392  31.127  31.293  1.00  0.00     0.074 A 
ATOM     54  C   UNL A   1      42.818  29.493  35.535  1.00  0.00     0.029 A 
ATOM     55  N   UNL A   1      41.530  29.638  33.727  1.00  0.00    -0.354 N 
ATOM     56  N   UNL A   1      39.346  30.733  32.102  1.00  0.00    -0.248 NA
ATOM     57  C   UNL A   1      37.429  32.054  31.906  1.00  0.00     0.031 C 
ATOM     58  C   UNL A   1      41.773  30.382  35.806  1.00  0.00     0.029 A 
ATOM     59  C   UNL A   1      40.981  30.487  34.674  1.00  0.00     0.049 A 
ATOM     60  H   UNL A   1      41.180  29.505  32.817  1.00  0.00     0.167 HD
ATOM     61  C   UNL A   1      39.111  31.378  33.310  1.00  0.00     0.074 A 
ATOM     62  C   UNL A   1      37.934  32.202  33.122  1.00  0.00     0.031 C 
ATOM     63  C   UNL A   1      39.806  31.295  34.471  1.00  0.00     0.037 A 
BRANCH  50  64
ATOM     64  C   UNL A   1      44.568  27.369  34.288  1.00  0.00     0.057 A 
ATOM     65  C   UNL A   1      45.848  27.937  34.335  1.00  0.00     0.134 A 
ATOM     66  C   UNL A   1      44.363  26.177  34.995  1.00  0.00     0.134 A 
ATOM     67  F   UNL A   1      46.114  29.070  33.668  1.00  0.00    -0.206 F 
ATOM     68  C   UNL A   1      46.888  27.332  35.043  1.00  0.00     0.040 A 
ATOM     69  C   UNL A   1      45.389  25.577  35.728  1.00  0.00     0.040 A 
ATOM     70  F   UNL A   1      43.160  25.583  34.994  1.00  0.00    -0.206 F 
ATOM     71  C   UNL A   1      46.657  26.153  35.749  1.00  0.00     0.006 A 
ENDBRANCH  50  64
BRANCH  51  72
ATOM     72  C   UNL A   1      37.007  31.322  29.103  1.00  0.00     0.057 A 
ATOM     73  C   UNL A   1      37.013  32.641  28.633  1.00  0.00     0.134 A 
ATOM     74  C   UNL A   1      35.861  30.555  28.853  1.00  0.00     0.134 A 
ATOM     75  F   UNL A   1      38.071  33.433  28.862  1.00  0.00    -0.206 F 
ATOM     76  C   UNL A   1      35.919  33.180  27.955  1.00  0.00     0.040 A 
ATOM     77  C   UNL A   1      34.771  31.073  28.155  1.00  0.00     0.040 A 
ATOM     78  F   UNL A   1      35.793  29.284  29.278  1.00  0.00    -0.206 F 
ATOM     79  C   UNL A   1      34.795  32.393  27.710  1.00  0.00     0.006 A 
ENDBRANCH  51  72
BRANCH  63  80
ATOM     80  C   UNL A   1      39.320  32.127  35.623  1.00  0.00     0.057 A 
ATOM     81  C   UNL A   1      39.739  33.451  35.806  1.00  0.00     0.134 A 
ATOM     82  C   UNL A   1      38.393  31.610  36.538  1.00  0.00     0.134 A 
ATOM     83  F   UNL A   1      40.635  34.001  34.972  1.00  0.00    -0.206 F 
ATOM     84  C   UNL A   1      39.273  34.223  36.870  1.00  0.00     0.040 A 
ATOM     85  C   UNL A   1      37.899  32.382  37.590  1.00  0.00     0.040 A 
ATOM     86  F   UNL A   1      37.942  30.352  36.415  1.00  0.00    -0.206 F 
ATOM     87  C   UNL A   1      38.344  33.691  37.762  1.00  0.00     0.006 A 
ENDBRANCH  63  80
ENDBRANCH  37  38
ENDBRANCH  30  32
ENDBRANCH  29  30
ENDBRANCH  28  29
ENDBRANCH  27  28
ENDBRANCH  26  27
ENDBRANCH   1  26
TORSDOF 18
ENDMDL
MODEL 2
REMARK VINA RESULT:     -10.6      1.163      2.173
REMARK SMILES [NH3+][C@@]1(C(=O)OCCOCCOC(=O)c2ccc(-c3c4nc(c(-c5c(F)cccc5F)c5ccc([nH]5)c(-c5c(F)cccc5F)c5nc(c(-c6c(F)cccc6F)c6ccc3[nH]6)C=C5)C=C4)cc2)CCC[C@@H](Oc2ccccc2[N+](=O)[O-])C1
REMARK SMILES IDX 7 1 6 2 5 3 3 4 4 5 2 6 68 7 82 8 69 9 71 10 70 11 1 12
REMARK SMILES IDX 72 16 73 17 74 18 78 19 75 20 77 21 76 22 79 23 80 24 81 25
REMARK SMILES IDX 8 26 9 27 10 28 11 29 12 30 13 31 14 32 15 33 67 34 16 35
REMARK SMILES IDX 66 36 17 37 18 38 19 39 60 40 20 41 65 42 59 43 61 44 21 45
REMARK SMILES IDX 64 46 58 47 57 48 22 50 48 51 31 52 47 53 32 54 35 55 46 56
REMARK SMILES IDX 62 57 33 58 34 59 45 61 63 62 36 63 23 64 24 65 29 66 25 67
REMARK SMILES IDX 26 68 28 69 30 70 27 71 49 72 50 73 55 74 51 75 52 76 54 77
REMARK SMILES IDX 56 78 53 79 37 80 38 81 43 82 39 83 40 84 42 85 44 86 41 87
REMARK H PARENT 1 13 1 14 1 15 61 49 35 60
REMARK Flexibility Score: inf
ROOT
ATOM      1  C   UNL A   1      40.737  21.644  27.077  1.00  0.00     0.202 C 
ENDROOT
BRANCH   1   2
ATOM      2  C   UNL A   1      39.840  20.836  26.128  1.00  0.00     0.261 C 
BRANCH   2   3
ATOM      3  O   UNL A   1      38.757  21.651  25.655  1.00  0.00    -0.459 OA
BRANCH   3   4
ATOM      4  C   UNL A   1      37.713  21.015  25.039  1.00  0.00     0.368 C 
ATOM      5  O   UNL A   1      37.719  19.853  24.658  1.00  0.00    -0.245 OA
BRANCH   4   6
ATOM      6  C   UNL A   1      36.501  21.990  24.910  1.00  0.00     0.196 C 
ATOM      7  C   UNL A   1      36.757  23.292  25.686  1.00  0.00     0.081 C 
ATOM      8  C   UNL A   1      35.292  21.254  25.511  1.00  0.00     0.126 C 
ATOM      9  C   UNL A   1      35.533  24.210  25.692  1.00  0.00     0.011 C 
ATOM     10  C   UNL A   1      34.035  22.093  25.778  1.00  0.00     0.180 C 
ATOM     11  C   UNL A   1      34.301  23.523  26.280  1.00  0.00     0.046 C 
BRANCH   6  12
ATOM     12  N   UNL A   1      36.363  22.374  23.488  1.00  0.00    -0.343 N 
ATOM     13  H   UNL A   1      35.961  23.310  23.426  1.00  0.00     0.345 HD
ATOM     14  H   UNL A   1      35.752  21.710  23.014  1.00  0.00     0.345 HD
ATOM     15  H   UNL A   1      37.281  22.369  23.044  1.00  0.00     0.345 HD
ENDBRANCH   6  12
BRANCH  10  16
ATOM     16  O   UNL A   1      32.968  21.940  24.816  1.00  0.00    -0.483 OA
BRANCH  16  17
ATOM     17  C   UNL A   1      32.380  23.053  24.305  1.00  0.00     0.197 A 
ATOM     18  C   UNL A   1      32.932  23.632  23.161  1.00  0.00     0.054 A 
ATOM     19  C   UNL A   1      31.300  23.699  24.924  1.00  0.00     0.310 A 
ATOM     20  C   UNL A   1      32.337  24.754  22.575  1.00  0.00     0.004 A 
ATOM     21  C   UNL A   1      30.683  24.812  24.331  1.00  0.00     0.090 A 
ATOM     22  C   UNL A   1      31.200  25.327  23.144  1.00  0.00     0.007 A 
BRANCH  19  23
ATOM     23  N   UNL A   1      30.712  23.179  26.146  1.00  0.00     0.066 N 
ATOM     24  O   UNL A   1      30.654  23.960  27.108  1.00  0.00    -0.258 OA
ATOM     25  O   UNL A   1      30.312  22.009  26.153  1.00  0.00    -0.258 OA
ENDBRANCH  19  23
ENDBRANCH  16  17
ENDBRANCH  10  16
ENDBRANCH   4   6
ENDBRANCH   3   4
ENDBRANCH   2   3
ENDBRANCH   1   2
BRANCH   1  26
ATOM     26  O   UNL A   1      42.056  21.110  27.233  1.00  0.00    -0.374 OA
BRANCH  26  27
ATOM     27  C   UNL A   1      42.751  20.839  26.015  1.00  0.00     0.202 C 
BRANCH  27  28
ATOM     28  C   UNL A   1      43.774  21.900  25.622  1.00  0.00     0.261 C 
BRANCH  28  29
ATOM     29  O   UNL A   1      43.108  23.032  25.035  1.00  0.00    -0.460 OA
BRANCH  29  30
ATOM     30  C   UNL A   1      43.787  24.193  25.132  1.00  0.00     0.338 C 
ATOM     31  O   UNL A   1      44.769  24.536  24.485  1.00  0.00    -0.246 OA
BRANCH  30  32
ATOM     32  C   UNL A   1      43.088  25.105  26.052  1.00  0.00     0.060 A 
ATOM     33  C   UNL A   1      43.652  26.372  26.243  1.00  0.00     0.016 A 
ATOM     34  C   UNL A   1      41.947  24.722  26.762  1.00  0.00     0.016 A 
ATOM     35  C   UNL A   1      43.114  27.239  27.188  1.00  0.00     0.010 A 
ATOM     36  C   UNL A   1      41.407  25.594  27.714  1.00  0.00     0.010 A 
ATOM     37  C   UNL A   1      42.012  26.840  27.955  1.00  0.00    -0.014 A 
BRANCH  37  38
ATOM     38  C   UNL A   1      41.574  27.686  29.089  1.00  0.00     0.031 A 
ATOM     39  C   UNL A   1      42.322  27.613  30.390  1.00  0.00     0.074 A 
ATOM     40  C   UNL A   1      40.544  28.538  28.944  1.00  0.00     0.049 A 
ATOM     41  N   UNL A   1      42.099  28.249  31.512  1.00  0.00    -0.248 NA
ATOM     42  C   UNL A   1      43.476  26.701  30.436  1.00  0.00     0.031 C 
ATOM     43  C   UNL A   1      39.770  28.723  27.718  1.00  0.00     0.029 A 
ATOM     44  N   UNL A   1      39.974  29.405  29.839  1.00  0.00    -0.354 N 
ATOM     45  C   UNL A   1      43.079  27.813  32.395  1.00  0.00     0.074 A 
ATOM     46  C   UNL A   1      43.881  26.837  31.691  1.00  0.00     0.031 C 
ATOM     47  C   UNL A   1      38.814  29.640  27.941  1.00  0.00     0.029 A 
ATOM     48  C   UNL A   1      38.892  30.081  29.333  1.00  0.00     0.049 A 
ATOM     49  H   UNL A   1      40.307  29.530  30.757  1.00  0.00     0.167 HD
ATOM     50  C   UNL A   1      43.294  28.200  33.674  1.00  0.00     0.037 A 
ATOM     51  C   UNL A   1      38.046  30.940  29.933  1.00  0.00     0.037 A 
ATOM     52  C   UNL A   1      42.497  29.177  34.369  1.00  0.00     0.049 A 
ATOM     53  C   UNL A   1      38.264  31.300  31.378  1.00  0.00     0.074 A 
ATOM     54  C   UNL A   1      42.655  29.662  35.656  1.00  0.00     0.029 A 
ATOM     55  N   UNL A   1      41.384  29.811  33.836  1.00  0.00    -0.354 N 
ATOM     56  N   UNL A   1      39.212  30.906  32.195  1.00  0.00    -0.248 NA
ATOM     57  C   UNL A   1      37.294  32.223  31.985  1.00  0.00     0.031 C 
ATOM     58  C   UNL A   1      41.606  30.548  35.920  1.00  0.00     0.029 A 
ATOM     59  C   UNL A   1      40.824  30.655  34.781  1.00  0.00     0.049 A 
ATOM     60  H   UNL A   1      41.042  29.680  32.922  1.00  0.00     0.167 HD
ATOM     61  C   UNL A   1      38.965  31.546  33.403  1.00  0.00     0.074 A 
ATOM     62  C   UNL A   1      37.787  32.368  33.207  1.00  0.00     0.031 C 
ATOM     63  C   UNL A   1      39.648  31.461  34.570  1.00  0.00     0.037 A 
BRANCH  50  64
ATOM     64  C   UNL A   1      44.422  27.548  34.418  1.00  0.00     0.057 A 
ATOM     65  C   UNL A   1      44.265  26.325  35.083  1.00  0.00     0.134 A 
ATOM     66  C   UNL A   1      45.696  28.132  34.432  1.00  0.00     0.134 A 
ATOM     67  F   UNL A   1      43.068  25.720  35.119  1.00  0.00    -0.206 F 
ATOM     68  C   UNL A   1      45.329  25.716  35.750  1.00  0.00     0.040 A 
ATOM     69  C   UNL A   1      46.773  27.520  35.074  1.00  0.00     0.040 A 
ATOM     70  F   UNL A   1      45.915  29.301  33.812  1.00  0.00    -0.206 F 
ATOM     71  C   UNL A   1      46.589  26.310  35.740  1.00  0.00     0.006 A 
ENDBRANCH  50  64
BRANCH  51  72
ATOM     72  C   UNL A   1      36.899  31.500  29.176  1.00  0.00     0.057 A 
ATOM     73  C   UNL A   1      35.759  30.734  28.907  1.00  0.00     0.134 A 
ATOM     74  C   UNL A   1      36.923  32.813  28.689  1.00  0.00     0.134 A 
ATOM     75  F   UNL A   1      35.687  29.462  29.326  1.00  0.00    -0.206 F 
ATOM     76  C   UNL A   1      34.692  31.247  28.169  1.00  0.00     0.040 A 
ATOM     77  C   UNL A   1      35.853  33.348  27.972  1.00  0.00     0.040 A 
ATOM     78  F   UNL A   1      37.987  33.598  28.913  1.00  0.00    -0.206 F 
ATOM     79  C   UNL A   1      34.735  32.560  27.703  1.00  0.00     0.006 A 
ENDBRANCH  51  72
BRANCH  63  80
ATOM     80  C   UNL A   1      39.149  32.287  35.720  1.00  0.00     0.057 A 
ATOM     81  C   UNL A   1      38.297  31.755  36.696  1.00  0.00     0.134 A 
ATOM     82  C   UNL A   1      39.556  33.619  35.873  1.00  0.00     0.134 A 
ATOM     83  F   UNL A   1      37.860  30.491  36.600  1.00  0.00    -0.206 F 
ATOM     84  C   UNL A   1      37.848  32.525  37.770  1.00  0.00     0.040 A 
ATOM     85  C   UNL A   1      39.135  34.390  36.958  1.00  0.00     0.040 A 
ATOM     86  F   UNL A   1      40.380  34.188  34.979  1.00  0.00    -0.206 F 
ATOM     87  C   UNL A   1      38.274  33.845  37.907  1.00  0.00     0.006 A 
ENDBRANCH  63  80
ENDBRANCH  37  38
ENDBRANCH  30  32
ENDBRANCH  29  30
ENDBRANCH  28  29
ENDBRANCH  27  28
ENDBRANCH  26  27
ENDBRANCH   1  26
TORSDOF 18
ENDMDL
MODEL 3
REMARK VINA RESULT:     -10.6      1.420      6.424
REMARK SMILES [NH3+][C@@]1(C(=O)OCCOCCOC(=O)c2ccc(-c3c4nc(c(-c5c(F)cccc5F)c5ccc([nH]5)c(-c5c(F)cccc5F)c5nc(c(-c6c(F)cccc6F)c6ccc3[nH]6)C=C5)C=C4)cc2)CCC[C@@H](Oc2ccccc2[N+](=O)[O-])C1
REMARK SMILES IDX 7 1 6 2 5 3 3 4 4 5 2 6 68 7 82 8 69 9 71 10 70 11 1 12
REMARK SMILES IDX 72 16 73 17 74 18 78 19 75 20 77 21 76 22 79 23 80 24 81 25
REMARK SMILES IDX 8 26 9 27 10 28 11 29 12 30 13 31 14 32 15 33 67 34 16 35
REMARK SMILES IDX 66 36 17 37 18 38 19 39 60 40 20 41 65 42 59 43 61 44 21 45
REMARK SMILES IDX 64 46 58 47 57 48 22 50 48 51 31 52 47 53 32 54 35 55 46 56
REMARK SMILES IDX 62 57 33 58 34 59 45 61 63 62 36 63 23 64 24 65 29 66 25 67
REMARK SMILES IDX 26 68 28 69 30 70 27 71 49 72 50 73 55 74 51 75 52 76 54 77
REMARK SMILES IDX 56 78 53 79 37 80 38 81 43 82 39 83 40 84 42 85 44 86 41 87
REMARK H PARENT 1 13 1 14 1 15 61 49 35 60
REMARK Flexibility Score: inf
ROOT
ATOM      1  C   UNL A   1      40.483  21.832  27.290  1.00  0.00     0.202 C 
ENDROOT
BRANCH   1   2
ATOM      2  C   UNL A   1      39.753  21.208  26.092  1.00  0.00     0.261 C 
BRANCH   2   3
ATOM      3  O   UNL A   1      38.405  21.697  26.022  1.00  0.00    -0.459 OA
BRANCH   3   4
ATOM      4  C   UNL A   1      37.532  21.025  25.209  1.00  0.00     0.368 C 
ATOM      5  O   UNL A   1      37.776  19.982  24.620  1.00  0.00    -0.245 OA
BRANCH   4   6
ATOM      6  C   UNL A   1      36.167  21.779  25.161  1.00  0.00     0.196 C 
ATOM      7  C   UNL A   1      35.010  20.807  24.878  1.00  0.00     0.081 C 
ATOM      8  C   UNL A   1      36.280  22.801  24.017  1.00  0.00     0.126 C 
ATOM      9  C   UNL A   1      33.677  21.535  24.689  1.00  0.00     0.011 C 
ATOM     10  C   UNL A   1      34.980  23.475  23.561  1.00  0.00     0.180 C 
ATOM     11  C   UNL A   1      33.739  22.564  23.562  1.00  0.00     0.046 C 
BRANCH   6  12
ATOM     12  N   UNL A   1      35.907  22.356  26.498  1.00  0.00    -0.343 N 
ATOM     13  H   UNL A   1      36.055  21.642  27.211  1.00  0.00     0.345 HD
ATOM     14  H   UNL A   1      34.944  22.688  26.544  1.00  0.00     0.345 HD
ATOM     15  H   UNL A   1      36.543  23.136  26.662  1.00  0.00     0.345 HD
ENDBRANCH   6  12
BRANCH  10  16
ATOM     16  O   UNL A   1      34.782  24.828  24.028  1.00  0.00    -0.483 OA
BRANCH  16  17
ATOM     17  C   UNL A   1      33.514  25.292  24.175  1.00  0.00     0.197 A 
ATOM     18  C   UNL A   1      32.854  25.054  25.382  1.00  0.00     0.054 A 
ATOM     19  C   UNL A   1      32.806  25.921  23.141  1.00  0.00     0.310 A 
ATOM     20  C   UNL A   1      31.563  25.549  25.595  1.00  0.00     0.004 A 
ATOM     21  C   UNL A   1      31.519  26.440  23.353  1.00  0.00     0.090 A 
ATOM     22  C   UNL A   1      30.907  26.263  24.592  1.00  0.00     0.007 A 
BRANCH  19  23
ATOM     23  N   UNL A   1      33.416  26.152  21.844  1.00  0.00     0.066 N 
ATOM     24  O   UNL A   1      33.276  25.255  20.998  1.00  0.00    -0.258 OA
ATOM     25  O   UNL A   1      34.028  27.212  21.664  1.00  0.00    -0.258 OA
ENDBRANCH  19  23
ENDBRANCH  16  17
ENDBRANCH  10  16
ENDBRANCH   4   6
ENDBRANCH   3   4
ENDBRANCH   2   3
ENDBRANCH   1   2
BRANCH   1  26
ATOM     26  O   UNL A   1      41.898  21.615  27.292  1.00  0.00    -0.374 OA
BRANCH  26  27
ATOM     27  C   UNL A   1      42.451  21.192  26.045  1.00  0.00     0.202 C 
BRANCH  27  28
ATOM     28  C   UNL A   1      43.472  22.157  25.448  1.00  0.00     0.261 C 
BRANCH  28  29
ATOM     29  O   UNL A   1      42.821  23.378  25.055  1.00  0.00    -0.460 OA
BRANCH  29  30
ATOM     30  C   UNL A   1      43.561  24.491  25.241  1.00  0.00     0.338 C 
ATOM     31  O   UNL A   1      44.566  24.826  24.627  1.00  0.00    -0.246 OA
BRANCH  30  32
ATOM     32  C   UNL A   1      42.904  25.370  26.222  1.00  0.00     0.060 A 
ATOM     33  C   UNL A   1      43.522  26.597  26.491  1.00  0.00     0.016 A 
ATOM     34  C   UNL A   1      41.750  24.989  26.912  1.00  0.00     0.016 A 
ATOM     35  C   UNL A   1      43.023  27.422  27.493  1.00  0.00     0.010 A 
ATOM     36  C   UNL A   1      41.250  25.820  27.921  1.00  0.00     0.010 A 
ATOM     37  C   UNL A   1      41.907  27.021  28.238  1.00  0.00    -0.014 A 
BRANCH  37  38
ATOM     38  C   UNL A   1      41.509  27.810  29.427  1.00  0.00     0.031 A 
ATOM     39  C   UNL A   1      40.328  28.734  29.333  1.00  0.00     0.074 A 
ATOM     40  C   UNL A   1      42.172  27.670  30.588  1.00  0.00     0.049 A 
ATOM     41  N   UNL A   1      39.821  29.527  30.242  1.00  0.00    -0.248 NA
ATOM     42  C   UNL A   1      39.623  28.772  28.041  1.00  0.00     0.031 C 
ATOM     43  C   UNL A   1      43.306  26.775  30.809  1.00  0.00     0.029 A 
ATOM     44  N   UNL A   1      41.984  28.284  31.800  1.00  0.00    -0.354 N 
ATOM     45  C   UNL A   1      38.744  30.159  29.634  1.00  0.00     0.074 A 
ATOM     46  C   UNL A   1      38.687  29.681  28.270  1.00  0.00     0.031 C 
ATOM     47  C   UNL A   1      43.723  26.907  32.079  1.00  0.00     0.029 A 
ATOM     48  C   UNL A   1      42.905  27.917  32.748  1.00  0.00     0.049 A 
ATOM     49  H   UNL A   1      41.260  28.928  31.972  1.00  0.00     0.167 HD
ATOM     50  C   UNL A   1      37.877  31.050  30.169  1.00  0.00     0.037 A 
ATOM     51  C   UNL A   1      43.082  28.364  34.006  1.00  0.00     0.037 A 
ATOM     52  C   UNL A   1      37.934  31.518  31.529  1.00  0.00     0.049 A 
ATOM     53  C   UNL A   1      42.148  29.408  34.555  1.00  0.00     0.074 A 
ATOM     54  C   UNL A   1      37.080  32.395  32.177  1.00  0.00     0.029 A 
ATOM     55  N   UNL A   1      38.907  31.154  32.449  1.00  0.00    -0.354 N 
ATOM     56  N   UNL A   1      41.114  29.976  33.982  1.00  0.00    -0.248 NA
ATOM     57  C   UNL A   1      42.406  29.875  35.925  1.00  0.00     0.031 C 
ATOM     58  C   UNL A   1      37.569  32.603  33.470  1.00  0.00     0.029 A 
ATOM     59  C   UNL A   1      38.695  31.817  33.647  1.00  0.00     0.049 A 
ATOM     60  H   UNL A   1      39.638  30.518  32.276  1.00  0.00     0.167 HD
ATOM     61  C   UNL A   1      40.588  30.850  34.925  1.00  0.00     0.074 A 
ATOM     62  C   UNL A   1      41.407  30.724  36.114  1.00  0.00     0.031 C 
ATOM     63  C   UNL A   1      39.524  31.683  34.818  1.00  0.00     0.037 A 
BRANCH  50  64
ATOM     64  C   UNL A   1      36.804  31.600  29.275  1.00  0.00     0.057 A 
ATOM     65  C   UNL A   1      35.671  30.854  28.929  1.00  0.00     0.134 A 
ATOM     66  C   UNL A   1      36.888  32.912  28.789  1.00  0.00     0.134 A 
ATOM     67  F   UNL A   1      35.537  29.587  29.349  1.00  0.00    -0.206 F 
ATOM     68  C   UNL A   1      34.668  31.385  28.116  1.00  0.00     0.040 A 
ATOM     69  C   UNL A   1      35.879  33.463  27.998  1.00  0.00     0.040 A 
ATOM     70  F   UNL A   1      37.945  33.682  29.086  1.00  0.00    -0.206 F 
ATOM     71  C   UNL A   1      34.767  32.697  27.655  1.00  0.00     0.006 A 
ENDBRANCH  50  64
BRANCH  51  72
ATOM     72  C   UNL A   1      44.206  27.844  34.825  1.00  0.00     0.057 A 
ATOM     73  C   UNL A   1      45.452  28.480  34.841  1.00  0.00     0.134 A 
ATOM     74  C   UNL A   1      44.063  26.686  35.601  1.00  0.00     0.134 A 
ATOM     75  F   UNL A   1      45.658  29.580  34.101  1.00  0.00    -0.206 F 
ATOM     76  C   UNL A   1      46.519  27.977  35.586  1.00  0.00     0.040 A 
ATOM     77  C   UNL A   1      45.113  26.186  36.370  1.00  0.00     0.040 A 
ATOM     78  F   UNL A   1      42.893  26.030  35.627  1.00  0.00    -0.206 F 
ATOM     79  C   UNL A   1      46.350  26.829  36.358  1.00  0.00     0.006 A 
ENDBRANCH  51  72
BRANCH  63  80
ATOM     80  C   UNL A   1      39.177  32.512  36.020  1.00  0.00     0.057 A 
ATOM     81  C   UNL A   1      38.338  32.028  37.032  1.00  0.00     0.134 A 
ATOM     82  C   UNL A   1      39.718  33.793  36.187  1.00  0.00     0.134 A 
ATOM     83  F   UNL A   1      37.777  30.814  36.928  1.00  0.00    -0.206 F 
ATOM     84  C   UNL A   1      38.030  32.798  38.155  1.00  0.00     0.040 A 
ATOM     85  C   UNL A   1      39.439  34.562  37.318  1.00  0.00     0.040 A 
ATOM     86  F   UNL A   1      40.537  34.313  35.260  1.00  0.00    -0.206 F 
ATOM     87  C   UNL A   1      38.588  34.067  38.303  1.00  0.00     0.006 A 
ENDBRANCH  63  80
ENDBRANCH  37  38
ENDBRANCH  30  32
ENDBRANCH  29  30
ENDBRANCH  28  29
ENDBRANCH  27  28
ENDBRANCH  26  27
ENDBRANCH   1  26
TORSDOF 18
ENDMDL
