MODEL 1
REMARK VINA RESULT:     -10.0      0.000      0.000
REMARK SMILES CC(C)(C)OC(=O)Nc1ccc(SCC(=O)OCCOCCOC(=O)c2ccc(-c3c4nc(c(-c5c(F)cccc5F)c5ccc([nH]5)c(-c5c(F)cccc5F)c5nc(c(-c6c(F)cccc6F)c6ccc3[nH]6)C=C5)C=C4)cc2)cc1
REMARK SMILES IDX 18 1 17 2 15 3 16 4 14 5 13 6 12 7 9 8 10 9 81 10 11 11
REMARK SMILES IDX 80 12 8 13 6 14 7 15 5 17 2 18 1 19 3 20 4 21 19 22 20 23
REMARK SMILES IDX 21 24 22 25 23 26 24 27 25 28 26 29 27 30 79 31 28 32 78 33
REMARK SMILES IDX 29 34 30 35 31 36 72 37 32 38 77 39 71 40 73 41 33 42 76 43
REMARK SMILES IDX 70 44 69 45 34 47 60 48 43 49 59 50 44 51 47 52 58 53 74 54
REMARK SMILES IDX 45 55 46 56 57 58 75 59 48 60 35 61 36 62 41 63 37 64 38 65
REMARK SMILES IDX 40 66 42 67 39 68 61 69 62 70 67 71 63 72 64 73 66 74 68 75
REMARK SMILES IDX 65 76 49 77 50 78 55 79 51 80 52 81 54 82 56 83 53 84
REMARK H PARENT 8 16 73 46 47 57
REMARK Flexibility Score: inf
ROOT
ATOM      1  C   UNL A   1      39.271  22.323  26.045  1.00  0.00     0.261 C 
ENDROOT
BRANCH   1   2
ATOM      2  O   UNL A   1      38.192  21.388  26.279  1.00  0.00    -0.463 OA
BRANCH   2   3
ATOM      3  C   UNL A   1      37.574  20.918  25.158  1.00  0.00     0.316 C 
ATOM      4  O   UNL A   1      37.902  19.878  24.589  1.00  0.00    -0.251 OA
BRANCH   3   5
ATOM      5  C   UNL A   1      36.432  21.745  24.602  1.00  0.00     0.197 C 
BRANCH   5   6
ATOM      6  S   UNL A   1      34.759  21.476  25.240  1.00  0.00    -0.114 SA
BRANCH   6   7
ATOM      7  C   UNL A   1      33.640  22.346  24.143  1.00  0.00     0.008 A 
ATOM      8  C   UNL A   1      32.117  24.289  22.768  1.00  0.00     0.044 A 
ATOM      9  C   UNL A   1      33.495  24.206  22.566  1.00  0.00     0.027 A 
ATOM     10  C   UNL A   1      31.483  23.295  23.512  1.00  0.00     0.027 A 
ATOM     11  C   UNL A   1      34.250  23.262  23.274  1.00  0.00     0.017 A 
ATOM     12  C   UNL A   1      32.241  22.302  24.168  1.00  0.00     0.017 A 
BRANCH   8  13
ATOM     13  N   UNL A   1      31.448  25.383  22.206  1.00  0.00    -0.291 N 
ATOM     14  C   UNL A   1      31.410  26.704  22.585  1.00  0.00     0.412 C 
ATOM     15  O   UNL A   1      30.656  27.467  21.990  1.00  0.00    -0.224 OA
ATOM     16  H   UNL A   1      30.917  25.170  21.406  1.00  0.00     0.173 HD
BRANCH  14  17
ATOM     17  O   UNL A   1      32.333  27.091  23.514  1.00  0.00    -0.444 OA
BRANCH  17  18
ATOM     18  C   UNL A   1      31.878  27.453  24.860  1.00  0.00     0.106 C 
ATOM     19  C   UNL A   1      32.996  27.086  25.856  1.00  0.00     0.056 C 
ATOM     20  C   UNL A   1      30.644  26.632  25.247  1.00  0.00     0.056 C 
ATOM     21  C   UNL A   1      31.631  28.965  24.998  1.00  0.00     0.056 C 
ENDBRANCH  17  18
ENDBRANCH  14  17
ENDBRANCH   8  13
ENDBRANCH   6   7
ENDBRANCH   5   6
ENDBRANCH   3   5
ENDBRANCH   2   3
ENDBRANCH   1   2
BRANCH   1  22
ATOM     22  C   UNL A   1      40.675  21.862  26.482  1.00  0.00     0.202 C 
BRANCH  22  23
ATOM     23  O   UNL A   1      41.471  21.120  25.564  1.00  0.00    -0.374 OA
BRANCH  23  24
ATOM     24  C   UNL A   1      42.775  20.750  25.988  1.00  0.00     0.202 C 
BRANCH  24  25
ATOM     25  C   UNL A   1      43.939  21.674  25.629  1.00  0.00     0.261 C 
BRANCH  25  26
ATOM     26  O   UNL A   1      44.052  22.842  26.418  1.00  0.00    -0.460 OA
BRANCH  26  27
ATOM     27  C   UNL A   1      44.028  23.979  25.704  1.00  0.00     0.338 C 
ATOM     28  O   UNL A   1      44.474  24.217  24.590  1.00  0.00    -0.246 OA
BRANCH  27  29
ATOM     29  C   UNL A   1      43.337  24.957  26.518  1.00  0.00     0.060 A 
ATOM     30  C   UNL A   1      43.856  26.251  26.593  1.00  0.00     0.016 A 
ATOM     31  C   UNL A   1      42.215  24.550  27.240  1.00  0.00     0.016 A 
ATOM     32  C   UNL A   1      43.272  27.148  27.470  1.00  0.00     0.010 A 
ATOM     33  C   UNL A   1      41.625  25.454  28.105  1.00  0.00     0.010 A 
ATOM     34  C   UNL A   1      42.184  26.734  28.253  1.00  0.00    -0.014 A 
BRANCH  34  35
ATOM     35  C   UNL A   1      41.726  27.590  29.357  1.00  0.00     0.031 A 
ATOM     36  C   UNL A   1      42.446  27.504  30.667  1.00  0.00     0.074 A 
ATOM     37  C   UNL A   1      40.688  28.418  29.164  1.00  0.00     0.049 A 
ATOM     38  N   UNL A   1      42.197  28.126  31.789  1.00  0.00    -0.248 NA
ATOM     39  C   UNL A   1      43.600  26.589  30.727  1.00  0.00     0.031 C 
ATOM     40  C   UNL A   1      39.951  28.569  27.911  1.00  0.00     0.029 A 
ATOM     41  N   UNL A   1      40.076  29.282  30.028  1.00  0.00    -0.354 N 
ATOM     42  C   UNL A   1      43.157  27.674  32.685  1.00  0.00     0.074 A 
ATOM     43  C   UNL A   1      43.972  26.703  31.992  1.00  0.00     0.031 C 
ATOM     44  C   UNL A   1      38.974  29.472  28.088  1.00  0.00     0.029 A 
ATOM     45  C   UNL A   1      39.003  29.934  29.473  1.00  0.00     0.049 A 
ATOM     46  H   UNL A   1      40.372  29.422  30.956  1.00  0.00     0.167 HD
ATOM     47  C   UNL A   1      43.339  28.052  33.971  1.00  0.00     0.037 A 
ATOM     48  C   UNL A   1      38.138  30.792  30.040  1.00  0.00     0.037 A 
ATOM     49  C   UNL A   1      42.510  29.020  34.636  1.00  0.00     0.049 A 
ATOM     50  C   UNL A   1      38.336  31.160  31.484  1.00  0.00     0.074 A 
ATOM     51  C   UNL A   1      42.606  29.496  35.929  1.00  0.00     0.029 A 
ATOM     52  N   UNL A   1      41.426  29.656  34.049  1.00  0.00    -0.354 N 
ATOM     53  N   UNL A   1      39.261  30.754  32.321  1.00  0.00    -0.248 NA
ATOM     54  C   UNL A   1      37.373  32.106  32.063  1.00  0.00     0.031 C 
ATOM     55  C   UNL A   1      41.552  30.392  36.139  1.00  0.00     0.029 A 
ATOM     56  C   UNL A   1      40.828  30.507  34.961  1.00  0.00     0.049 A 
ATOM     57  H   UNL A   1      41.126  29.521  33.121  1.00  0.00     0.167 HD
ATOM     58  C   UNL A   1      39.010  31.410  33.517  1.00  0.00     0.074 A 
ATOM     59  C   UNL A   1      37.848  32.249  33.293  1.00  0.00     0.031 C 
ATOM     60  C   UNL A   1      39.676  31.332  34.696  1.00  0.00     0.037 A 
BRANCH  47  61
ATOM     61  C   UNL A   1      44.454  27.397  34.730  1.00  0.00     0.057 A 
ATOM     62  C   UNL A   1      44.268  26.198  35.431  1.00  0.00     0.134 A 
ATOM     63  C   UNL A   1      45.732  27.967  34.755  1.00  0.00     0.134 A 
ATOM     64  F   UNL A   1      43.063  25.610  35.464  1.00  0.00    -0.206 F 
ATOM     65  C   UNL A   1      45.308  25.601  36.146  1.00  0.00     0.040 A 
ATOM     66  C   UNL A   1      46.785  27.368  35.447  1.00  0.00     0.040 A 
ATOM     67  F   UNL A   1      45.978  29.118  34.108  1.00  0.00    -0.206 F 
ATOM     68  C   UNL A   1      46.574  26.184  36.151  1.00  0.00     0.006 A 
ENDBRANCH  47  61
BRANCH  48  69
ATOM     69  C   UNL A   1      37.025  31.355  29.239  1.00  0.00     0.057 A 
ATOM     70  C   UNL A   1      35.878  30.603  28.966  1.00  0.00     0.134 A 
ATOM     71  C   UNL A   1      37.072  32.664  28.747  1.00  0.00     0.134 A 
ATOM     72  F   UNL A   1      35.779  29.338  29.402  1.00  0.00    -0.206 F 
ATOM     73  C   UNL A   1      34.821  31.128  28.220  1.00  0.00     0.040 A 
ATOM     74  C   UNL A   1      36.014  33.210  28.019  1.00  0.00     0.040 A 
ATOM     75  F   UNL A   1      38.141  33.440  28.984  1.00  0.00    -0.206 F 
ATOM     76  C   UNL A   1      34.886  32.438  27.749  1.00  0.00     0.006 A 
ENDBRANCH  48  69
BRANCH  60  77
ATOM     77  C   UNL A   1      39.183  32.198  35.814  1.00  0.00     0.057 A 
ATOM     78  C   UNL A   1      39.604  33.524  35.958  1.00  0.00     0.134 A 
ATOM     79  C   UNL A   1      38.234  31.711  36.721  1.00  0.00     0.134 A 
ATOM     80  F   UNL A   1      40.520  34.042  35.126  1.00  0.00    -0.206 F 
ATOM     81  C   UNL A   1      39.108  34.336  36.978  1.00  0.00     0.040 A 
ATOM     82  C   UNL A   1      37.712  32.520  37.730  1.00  0.00     0.040 A 
ATOM     83  F   UNL A   1      37.785  30.450  36.628  1.00  0.00    -0.206 F 
ATOM     84  C   UNL A   1      38.153  33.836  37.863  1.00  0.00     0.006 A 
ENDBRANCH  60  77
ENDBRANCH  34  35
ENDBRANCH  27  29
ENDBRANCH  26  27
ENDBRANCH  25  26
ENDBRANCH  24  25
ENDBRANCH  23  24
ENDBRANCH  22  23
ENDBRANCH   1  22
TORSDOF 19
ENDMDL
MODEL 2
REMARK VINA RESULT:      -9.9      4.064      6.007
REMARK SMILES CC(C)(C)OC(=O)Nc1ccc(SCC(=O)OCCOCCOC(=O)c2ccc(-c3c4nc(c(-c5c(F)cccc5F)c5ccc([nH]5)c(-c5c(F)cccc5F)c5nc(c(-c6c(F)cccc6F)c6ccc3[nH]6)C=C5)C=C4)cc2)cc1
REMARK SMILES IDX 18 1 17 2 15 3 16 4 14 5 13 6 12 7 9 8 10 9 81 10 11 11
REMARK SMILES IDX 80 12 8 13 6 14 7 15 5 17 2 18 1 19 3 20 4 21 19 22 20 23
REMARK SMILES IDX 21 24 22 25 23 26 24 27 25 28 26 29 27 30 79 31 28 32 78 33
REMARK SMILES IDX 29 34 30 35 31 36 72 37 32 38 77 39 71 40 73 41 33 42 76 43
REMARK SMILES IDX 70 44 69 45 34 47 60 48 43 49 59 50 44 51 47 52 58 53 74 54
REMARK SMILES IDX 45 55 46 56 57 58 75 59 48 60 35 61 36 62 41 63 37 64 38 65
REMARK SMILES IDX 40 66 42 67 39 68 61 69 62 70 67 71 63 72 64 73 66 74 68 75
REMARK SMILES IDX 65 76 49 77 50 78 55 79 51 80 52 81 54 82 56 83 53 84
REMARK H PARENT 8 16 73 46 47 57
REMARK Flexibility Score: inf
ROOT
ATOM      1  C   UNL A   1      35.631  22.695  25.246  1.00  0.00     0.261 C 
ENDROOT
BRANCH   1   2
ATOM      2  O   UNL A   1      34.688  22.463  26.318  1.00  0.00    -0.463 OA
BRANCH   2   3
ATOM      3  C   UNL A   1      33.509  21.889  25.945  1.00  0.00     0.316 C 
ATOM      4  O   UNL A   1      32.438  22.113  26.508  1.00  0.00    -0.251 OA
BRANCH   3   5
ATOM      5  C   UNL A   1      33.550  20.924  24.778  1.00  0.00     0.197 C 
BRANCH   5   6
ATOM      6  S   UNL A   1      32.491  21.234  23.341  1.00  0.00    -0.114 SA
BRANCH   6   7
ATOM      7  C   UNL A   1      32.349  23.013  23.177  1.00  0.00     0.008 A 
ATOM      8  C   UNL A   1      31.639  25.642  22.424  1.00  0.00     0.044 A 
ATOM      9  C   UNL A   1      30.744  24.854  23.150  1.00  0.00     0.027 A 
ATOM     10  C   UNL A   1      32.941  25.183  22.233  1.00  0.00     0.027 A 
ATOM     11  C   UNL A   1      31.088  23.542  23.493  1.00  0.00     0.017 A 
ATOM     12  C   UNL A   1      33.307  23.883  22.644  1.00  0.00     0.017 A 
BRANCH   8  13
ATOM     13  N   UNL A   1      31.165  26.860  21.922  1.00  0.00    -0.291 N 
ATOM     14  C   UNL A   1      30.657  27.962  22.570  1.00  0.00     0.412 C 
ATOM     15  O   UNL A   1      30.199  28.881  21.898  1.00  0.00    -0.224 OA
ATOM     16  H   UNL A   1      31.200  26.941  20.942  1.00  0.00     0.173 HD
BRANCH  14  17
ATOM     17  O   UNL A   1      30.838  28.001  23.923  1.00  0.00    -0.444 OA
BRANCH  17  18
ATOM     18  C   UNL A   1      32.108  28.504  24.455  1.00  0.00     0.106 C 
ATOM     19  C   UNL A   1      31.810  29.764  25.291  1.00  0.00     0.056 C 
ATOM     20  C   UNL A   1      33.035  28.932  23.313  1.00  0.00     0.056 C 
ATOM     21  C   UNL A   1      32.783  27.490  25.395  1.00  0.00     0.056 C 
ENDBRANCH  17  18
ENDBRANCH  14  17
ENDBRANCH   8  13
ENDBRANCH   6   7
ENDBRANCH   5   6
ENDBRANCH   3   5
ENDBRANCH   2   3
ENDBRANCH   1   2
BRANCH   1  22
ATOM     22  C   UNL A   1      37.105  22.374  25.555  1.00  0.00     0.202 C 
BRANCH  22  23
ATOM     23  O   UNL A   1      37.809  21.481  24.697  1.00  0.00    -0.374 OA
BRANCH  23  24
ATOM     24  C   UNL A   1      37.627  20.090  24.920  1.00  0.00     0.202 C 
BRANCH  24  25
ATOM     25  C   UNL A   1      38.832  19.270  25.381  1.00  0.00     0.261 C 
BRANCH  25  26
ATOM     26  O   UNL A   1      39.666  19.899  26.333  1.00  0.00    -0.460 OA
BRANCH  26  27
ATOM     27  C   UNL A   1      40.974  19.660  26.146  1.00  0.00     0.338 C 
ATOM     28  O   UNL A   1      41.539  18.647  25.756  1.00  0.00    -0.246 OA
BRANCH  27  29
ATOM     29  C   UNL A   1      41.668  20.879  26.502  1.00  0.00     0.060 A 
ATOM     30  C   UNL A   1      41.829  21.186  27.854  1.00  0.00     0.016 A 
ATOM     31  C   UNL A   1      42.094  21.727  25.480  1.00  0.00     0.016 A 
ATOM     32  C   UNL A   1      42.375  22.411  28.194  1.00  0.00     0.010 A 
ATOM     33  C   UNL A   1      42.653  22.945  25.823  1.00  0.00     0.010 A 
ATOM     34  C   UNL A   1      42.748  23.304  27.178  1.00  0.00    -0.014 A 
BRANCH  34  35
ATOM     35  C   UNL A   1      43.087  24.691  27.527  1.00  0.00     0.031 A 
ATOM     36  C   UNL A   1      44.523  25.110  27.453  1.00  0.00     0.074 A 
ATOM     37  C   UNL A   1      42.113  25.536  27.896  1.00  0.00     0.049 A 
ATOM     38  N   UNL A   1      45.064  26.260  27.753  1.00  0.00    -0.248 NA
ATOM     39  C   UNL A   1      45.483  24.095  26.984  1.00  0.00     0.031 C 
ATOM     40  C   UNL A   1      40.692  25.203  27.974  1.00  0.00     0.029 A 
ATOM     41  N   UNL A   1      42.180  26.845  28.282  1.00  0.00    -0.354 N 
ATOM     42  C   UNL A   1      46.423  26.105  27.516  1.00  0.00     0.074 A 
ATOM     43  C   UNL A   1      46.633  24.744  27.079  1.00  0.00     0.031 C 
ATOM     44  C   UNL A   1      40.015  26.286  28.390  1.00  0.00     0.029 A 
ATOM     45  C   UNL A   1      40.962  27.370  28.635  1.00  0.00     0.049 A 
ATOM     46  H   UNL A   1      43.018  27.361  28.305  1.00  0.00     0.167 HD
ATOM     47  C   UNL A   1      47.402  27.030  27.643  1.00  0.00     0.037 A 
ATOM     48  C   UNL A   1      40.664  28.587  29.121  1.00  0.00     0.037 A 
ATOM     49  C   UNL A   1      47.164  28.377  28.082  1.00  0.00     0.049 A 
ATOM     50  C   UNL A   1      41.778  29.581  29.298  1.00  0.00     0.074 A 
ATOM     51  C   UNL A   1      48.071  29.409  28.235  1.00  0.00     0.029 A 
ATOM     52  N   UNL A   1      45.920  28.875  28.441  1.00  0.00    -0.354 N 
ATOM     53  N   UNL A   1      43.057  29.440  29.044  1.00  0.00    -0.248 NA
ATOM     54  C   UNL A   1      41.408  30.901  29.824  1.00  0.00     0.031 C 
ATOM     55  C   UNL A   1      47.380  30.521  28.728  1.00  0.00     0.029 A 
ATOM     56  C   UNL A   1      46.036  30.195  28.838  1.00  0.00     0.049 A 
ATOM     57  H   UNL A   1      45.078  28.364  28.419  1.00  0.00     0.167 HD
ATOM     58  C   UNL A   1      43.644  30.659  29.356  1.00  0.00     0.074 A 
ATOM     59  C   UNL A   1      42.576  31.529  29.809  1.00  0.00     0.031 C 
ATOM     60  C   UNL A   1      44.946  31.031  29.275  1.00  0.00     0.037 A 
BRANCH  47  61
ATOM     61  C   UNL A   1      48.803  26.598  27.329  1.00  0.00     0.057 A 
ATOM     62  C   UNL A   1      49.654  26.072  28.311  1.00  0.00     0.134 A 
ATOM     63  C   UNL A   1      49.307  26.700  26.027  1.00  0.00     0.134 A 
ATOM     64  F   UNL A   1      49.239  25.966  29.583  1.00  0.00    -0.206 F 
ATOM     65  C   UNL A   1      50.961  25.684  28.014  1.00  0.00     0.040 A 
ATOM     66  C   UNL A   1      50.605  26.295  25.713  1.00  0.00     0.040 A 
ATOM     67  F   UNL A   1      48.547  27.200  25.040  1.00  0.00    -0.206 F 
ATOM     68  C   UNL A   1      51.439  25.790  26.709  1.00  0.00     0.006 A 
ENDBRANCH  47  61
BRANCH  48  69
ATOM     69  C   UNL A   1      39.261  28.921  29.463  1.00  0.00     0.057 A 
ATOM     70  C   UNL A   1      38.774  28.756  30.763  1.00  0.00     0.134 A 
ATOM     71  C   UNL A   1      38.381  29.434  28.503  1.00  0.00     0.134 A 
ATOM     72  F   UNL A   1      39.567  28.258  31.724  1.00  0.00    -0.206 F 
ATOM     73  C   UNL A   1      37.456  29.077  31.096  1.00  0.00     0.040 A 
ATOM     74  C   UNL A   1      37.068  29.780  28.826  1.00  0.00     0.040 A 
ATOM     75  F   UNL A   1      38.791  29.625  27.240  1.00  0.00    -0.206 F 
ATOM     76  C   UNL A   1      36.601  29.596  30.126  1.00  0.00     0.006 A 
ENDBRANCH  48  69
BRANCH  60  77
ATOM     77  C   UNL A   1      45.274  32.442  29.654  1.00  0.00     0.057 A 
ATOM     78  C   UNL A   1      45.221  33.485  28.722  1.00  0.00     0.134 A 
ATOM     79  C   UNL A   1      45.593  32.765  30.978  1.00  0.00     0.134 A 
ATOM     80  F   UNL A   1      44.934  33.234  27.436  1.00  0.00    -0.206 F 
ATOM     81  C   UNL A   1      45.489  34.802  29.093  1.00  0.00     0.040 A 
ATOM     82  C   UNL A   1      45.839  34.081  31.366  1.00  0.00     0.040 A 
ATOM     83  F   UNL A   1      45.650  31.809  31.918  1.00  0.00    -0.206 F 
ATOM     84  C   UNL A   1      45.791  35.104  30.421  1.00  0.00     0.006 A 
ENDBRANCH  60  77
ENDBRANCH  34  35
ENDBRANCH  27  29
ENDBRANCH  26  27
ENDBRANCH  25  26
ENDBRANCH  24  25
ENDBRANCH  23  24
ENDBRANCH  22  23
ENDBRANCH   1  22
TORSDOF 19
ENDMDL
MODEL 3
REMARK VINA RESULT:      -9.8      4.309      8.388
REMARK SMILES CC(C)(C)OC(=O)Nc1ccc(SCC(=O)OCCOCCOC(=O)c2ccc(-c3c4nc(c(-c5c(F)cccc5F)c5ccc([nH]5)c(-c5c(F)cccc5F)c5nc(c(-c6c(F)cccc6F)c6ccc3[nH]6)C=C5)C=C4)cc2)cc1
REMARK SMILES IDX 18 1 17 2 15 3 16 4 14 5 13 6 12 7 9 8 10 9 81 10 11 11
REMARK SMILES IDX 80 12 8 13 6 14 7 15 5 17 2 18 1 19 3 20 4 21 19 22 20 23
REMARK SMILES IDX 21 24 22 25 23 26 24 27 25 28 26 29 27 30 79 31 28 32 78 33
REMARK SMILES IDX 29 34 30 35 31 36 72 37 32 38 77 39 71 40 73 41 33 42 76 43
REMARK SMILES IDX 70 44 69 45 34 47 60 48 43 49 59 50 44 51 47 52 58 53 74 54
REMARK SMILES IDX 45 55 46 56 57 58 75 59 48 60 35 61 36 62 41 63 37 64 38 65
REMARK SMILES IDX 40 66 42 67 39 68 61 69 62 70 67 71 63 72 64 73 66 74 68 75
REMARK SMILES IDX 65 76 49 77 50 78 55 79 51 80 52 81 54 82 56 83 53 84
REMARK H PARENT 8 16 73 46 47 57
REMARK Flexibility Score: inf
ROOT
ATOM      1  C   UNL A   1      35.303  21.839  25.027  1.00  0.00     0.261 C 
ENDROOT
BRANCH   1   2
ATOM      2  O   UNL A   1      34.601  20.858  25.826  1.00  0.00    -0.463 OA
BRANCH   2   3
ATOM      3  C   UNL A   1      33.372  20.497  25.359  1.00  0.00     0.316 C 
ATOM      4  O   UNL A   1      33.149  19.427  24.794  1.00  0.00    -0.251 OA
BRANCH   3   5
ATOM      5  C   UNL A   1      32.242  21.487  25.553  1.00  0.00     0.197 C 
BRANCH   5   6
ATOM      6  S   UNL A   1      32.266  22.577  27.000  1.00  0.00    -0.114 SA
BRANCH   6   7
ATOM      7  C   UNL A   1      31.901  24.230  26.411  1.00  0.00     0.008 A 
ATOM      8  C   UNL A   1      31.201  26.490  24.867  1.00  0.00     0.044 A 
ATOM      9  C   UNL A   1      30.225  25.564  25.239  1.00  0.00     0.027 A 
ATOM     10  C   UNL A   1      32.479  26.379  25.413  1.00  0.00     0.027 A 
ATOM     11  C   UNL A   1      30.582  24.429  25.976  1.00  0.00     0.017 A 
ATOM     12  C   UNL A   1      32.817  25.269  26.217  1.00  0.00     0.017 A 
BRANCH   8  13
ATOM     13  N   UNL A   1      30.831  27.484  23.953  1.00  0.00    -0.291 N 
ATOM     14  C   UNL A   1      30.870  27.500  22.578  1.00  0.00     0.412 C 
ATOM     15  O   UNL A   1      30.591  28.541  21.993  1.00  0.00    -0.224 OA
ATOM     16  H   UNL A   1      30.487  28.309  24.363  1.00  0.00     0.173 HD
BRANCH  14  17
ATOM     17  O   UNL A   1      31.082  26.296  21.969  1.00  0.00    -0.444 OA
BRANCH  17  18
ATOM     18  C   UNL A   1      32.454  25.903  21.634  1.00  0.00     0.106 C 
ATOM     19  C   UNL A   1      32.511  25.614  20.120  1.00  0.00     0.056 C 
ATOM     20  C   UNL A   1      32.828  24.603  22.353  1.00  0.00     0.056 C 
ATOM     21  C   UNL A   1      33.464  27.029  21.915  1.00  0.00     0.056 C 
ENDBRANCH  17  18
ENDBRANCH  14  17
ENDBRANCH   8  13
ENDBRANCH   6   7
ENDBRANCH   5   6
ENDBRANCH   3   5
ENDBRANCH   2   3
ENDBRANCH   1   2
BRANCH   1  22
ATOM     22  C   UNL A   1      36.794  22.042  25.356  1.00  0.00     0.202 C 
BRANCH  22  23
ATOM     23  O   UNL A   1      37.763  21.264  24.660  1.00  0.00    -0.374 OA
BRANCH  23  24
ATOM     24  C   UNL A   1      37.736  19.859  24.867  1.00  0.00     0.202 C 
BRANCH  24  25
ATOM     25  C   UNL A   1      38.946  19.205  25.535  1.00  0.00     0.261 C 
BRANCH  25  26
ATOM     26  O   UNL A   1      39.846  20.094  26.165  1.00  0.00    -0.460 OA
BRANCH  26  27
ATOM     27  C   UNL A   1      41.124  19.684  26.125  1.00  0.00     0.338 C 
ATOM     28  O   UNL A   1      41.588  18.578  25.887  1.00  0.00    -0.246 OA
BRANCH  27  29
ATOM     29  C   UNL A   1      41.934  20.845  26.429  1.00  0.00     0.060 A 
ATOM     30  C   UNL A   1      42.173  21.162  27.768  1.00  0.00     0.016 A 
ATOM     31  C   UNL A   1      42.393  21.633  25.374  1.00  0.00     0.016 A 
ATOM     32  C   UNL A   1      42.836  22.341  28.060  1.00  0.00     0.010 A 
ATOM     33  C   UNL A   1      43.068  22.804  25.669  1.00  0.00     0.010 A 
ATOM     34  C   UNL A   1      43.245  23.178  27.011  1.00  0.00    -0.014 A 
BRANCH  34  35
ATOM     35  C   UNL A   1      43.717  24.536  27.317  1.00  0.00     0.031 A 
ATOM     36  C   UNL A   1      42.708  25.559  27.742  1.00  0.00     0.074 A 
ATOM     37  C   UNL A   1      45.024  24.822  27.213  1.00  0.00     0.049 A 
ATOM     38  N   UNL A   1      42.881  26.823  28.020  1.00  0.00    -0.248 NA
ATOM     39  C   UNL A   1      41.314  25.098  27.864  1.00  0.00     0.031 C 
ATOM     40  C   UNL A   1      46.065  23.872  26.823  1.00  0.00     0.029 A 
ATOM     41  N   UNL A   1      45.690  25.996  27.420  1.00  0.00    -0.354 N 
ATOM     42  C   UNL A   1      41.620  27.308  28.343  1.00  0.00     0.074 A 
ATOM     43  C   UNL A   1      40.686  26.216  28.196  1.00  0.00     0.031 C 
ATOM     44  C   UNL A   1      47.248  24.508  26.813  1.00  0.00     0.029 A 
ATOM     45  C   UNL A   1      47.035  25.909  27.164  1.00  0.00     0.049 A 
ATOM     46  H   UNL A   1      45.250  26.823  27.721  1.00  0.00     0.167 HD
ATOM     47  C   UNL A   1      41.284  28.557  28.739  1.00  0.00     0.037 A 
ATOM     48  C   UNL A   1      47.976  26.868  27.196  1.00  0.00     0.037 A 
ATOM     49  C   UNL A   1      42.235  29.626  28.875  1.00  0.00     0.049 A 
ATOM     50  C   UNL A   1      47.567  28.260  27.593  1.00  0.00     0.074 A 
ATOM     51  C   UNL A   1      42.019  30.929  29.282  1.00  0.00     0.029 A 
ATOM     52  N   UNL A   1      43.590  29.508  28.599  1.00  0.00    -0.354 N 
ATOM     53  N   UNL A   1      46.380  28.708  27.926  1.00  0.00    -0.248 NA
ATOM     54  C   UNL A   1      48.626  29.276  27.622  1.00  0.00     0.031 C 
ATOM     55  C   UNL A   1      43.238  31.611  29.214  1.00  0.00     0.029 A 
ATOM     56  C   UNL A   1      44.221  30.720  28.807  1.00  0.00     0.049 A 
ATOM     57  H   UNL A   1      44.036  28.683  28.300  1.00  0.00     0.167 HD
ATOM     58  C   UNL A   1      46.550  30.052  28.228  1.00  0.00     0.074 A 
ATOM     59  C   UNL A   1      47.960  30.342  28.046  1.00  0.00     0.031 C 
ATOM     60  C   UNL A   1      45.630  30.966  28.622  1.00  0.00     0.037 A 
BRANCH  47  61
ATOM     61  C   UNL A   1      39.836  28.825  29.021  1.00  0.00     0.057 A 
ATOM     62  C   UNL A   1      38.940  29.192  28.008  1.00  0.00     0.134 A 
ATOM     63  C   UNL A   1      39.328  28.706  30.320  1.00  0.00     0.134 A 
ATOM     64  F   UNL A   1      39.367  29.343  26.745  1.00  0.00    -0.206 F 
ATOM     65  C   UNL A   1      37.596  29.452  28.281  1.00  0.00     0.040 A 
ATOM     66  C   UNL A   1      37.982  28.941  30.601  1.00  0.00     0.040 A 
ATOM     67  F   UNL A   1      40.132  28.362  31.337  1.00  0.00    -0.206 F 
ATOM     68  C   UNL A   1      37.111  29.321  29.580  1.00  0.00     0.006 A 
ENDBRANCH  47  61
BRANCH  48  69
ATOM     69  C   UNL A   1      49.378  26.539  26.848  1.00  0.00     0.057 A 
ATOM     70  C   UNL A   1      49.828  26.595  25.525  1.00  0.00     0.134 A 
ATOM     71  C   UNL A   1      50.307  26.182  27.832  1.00  0.00     0.134 A 
ATOM     72  F   UNL A   1      48.982  26.920  24.536  1.00  0.00    -0.206 F 
ATOM     73  C   UNL A   1      51.150  26.295  25.189  1.00  0.00     0.040 A 
ATOM     74  C   UNL A   1      51.637  25.901  27.515  1.00  0.00     0.040 A 
ATOM     75  F   UNL A   1      49.940  26.120  29.120  1.00  0.00    -0.206 F 
ATOM     76  C   UNL A   1      52.060  25.952  26.188  1.00  0.00     0.006 A 
ENDBRANCH  48  69
BRANCH  60  77
ATOM     77  C   UNL A   1      46.127  32.349  28.911  1.00  0.00     0.057 A 
ATOM     78  C   UNL A   1      46.610  32.708  30.174  1.00  0.00     0.134 A 
ATOM     79  C   UNL A   1      46.171  33.313  27.896  1.00  0.00     0.134 A 
ATOM     80  F   UNL A   1      46.581  31.831  31.188  1.00  0.00    -0.206 F 
ATOM     81  C   UNL A   1      47.109  33.987  30.423  1.00  0.00     0.040 A 
ATOM     82  C   UNL A   1      46.690  34.587  28.126  1.00  0.00     0.040 A 
ATOM     83  F   UNL A   1      45.731  33.024  26.662  1.00  0.00    -0.206 F 
ATOM     84  C   UNL A   1      47.157  34.927  29.395  1.00  0.00     0.006 A 
ENDBRANCH  60  77
ENDBRANCH  34  35
ENDBRANCH  27  29
ENDBRANCH  26  27
ENDBRANCH  25  26
ENDBRANCH  24  25
ENDBRANCH  23  24
ENDBRANCH  22  23
ENDBRANCH   1  22
TORSDOF 19
ENDMDL
