MODEL 1
REMARK VINA RESULT:      -7.9      0.000      0.000
REMARK SMILES CCSCc1cc(F)cc(/C=C/C(=O)OCCOCCOC(=O)c2ccc(-c3c4nc(c(-c5c(F)cccc5F)c5ccc([nH]5)c(-c5c(F)cccc5F)c5nc(c(-c6c(F)cccc6F)c6ccc3[nH]6)C=C5)C=C4)cc2)c1
REMARK SMILES IDX 17 1 16 2 15 3 13 4 14 5 12 6 11 7 10 8 5 9 6 10 78 11 7 12
REMARK SMILES IDX 8 13 9 14 4 15 3 16 2 17 1 18 18 19 19 20 20 21 21 22 22 23
REMARK SMILES IDX 23 24 24 25 25 26 77 27 26 28 76 29 27 30 28 31 29 32 70 33
REMARK SMILES IDX 30 34 75 35 69 36 71 37 31 38 74 39 68 40 67 41 32 43 58 44
REMARK SMILES IDX 41 45 57 46 42 47 45 48 56 49 72 50 43 51 44 52 55 54 73 55
REMARK SMILES IDX 46 56 33 57 34 58 39 59 35 60 36 61 38 62 40 63 37 64 59 65
REMARK SMILES IDX 60 66 65 67 61 68 62 69 64 70 66 71 63 72 47 73 48 74 53 75
REMARK SMILES IDX 49 76 50 77 52 78 54 79 51 80
REMARK H PARENT 71 42 45 53
REMARK Flexibility Score: inf
ROOT
ATOM      1  C   UNL A   1      45.645  20.768  24.991  1.00  0.00     0.202 C 
ENDROOT
BRANCH   1   2
ATOM      2  C   UNL A   1      45.831  21.859  26.046  1.00  0.00     0.261 C 
BRANCH   2   3
ATOM      3  O   UNL A   1      46.595  22.959  25.521  1.00  0.00    -0.460 OA
BRANCH   3   4
ATOM      4  C   UNL A   1      45.909  23.801  24.713  1.00  0.00     0.330 C 
ATOM      5  O   UNL A   1      45.433  23.536  23.620  1.00  0.00    -0.247 OA
BRANCH   4   6
ATOM      6  C   UNL A   1      45.716  25.133  25.321  1.00  0.00     0.094 C 
ATOM      7  C   UNL A   1      44.686  25.969  25.114  1.00  0.00     0.016 C 
BRANCH   7   8
ATOM      8  C   UNL A   1      44.607  27.276  25.788  1.00  0.00    -0.022 A 
ATOM      9  C   UNL A   1      45.765  29.206  26.756  1.00  0.00    -0.035 A 
ATOM     10  C   UNL A   1      44.529  29.832  26.959  1.00  0.00     0.043 A 
ATOM     11  C   UNL A   1      45.789  27.916  26.189  1.00  0.00     0.013 A 
ATOM     12  C   UNL A   1      43.356  29.174  26.612  1.00  0.00     0.124 A 
ATOM     13  F   UNL A   1      42.177  29.775  26.817  1.00  0.00    -0.207 F 
ATOM     14  C   UNL A   1      43.383  27.908  26.038  1.00  0.00     0.047 A 
BRANCH   9  15
ATOM     15  C   UNL A   1      47.045  29.925  27.095  1.00  0.00     0.105 C 
BRANCH  15  16
ATOM     16  S   UNL A   1      46.799  31.682  27.515  1.00  0.00    -0.157 SA
BRANCH  16  17
ATOM     17  C   UNL A   1      48.515  32.300  27.509  1.00  0.00     0.066 C 
ATOM     18  C   UNL A   1      49.529  31.221  27.842  1.00  0.00     0.015 C 
ENDBRANCH  16  17
ENDBRANCH  15  16
ENDBRANCH   9  15
ENDBRANCH   7   8
ENDBRANCH   4   6
ENDBRANCH   3   4
ENDBRANCH   2   3
ENDBRANCH   1   2
BRANCH   1  19
ATOM     19  O   UNL A   1      45.992  19.448  25.407  1.00  0.00    -0.374 OA
BRANCH  19  20
ATOM     20  C   UNL A   1      44.925  18.619  25.875  1.00  0.00     0.202 C 
BRANCH  20  21
ATOM     21  C   UNL A   1      43.756  18.432  24.899  1.00  0.00     0.261 C 
BRANCH  21  22
ATOM     22  O   UNL A   1      42.906  19.596  24.858  1.00  0.00    -0.460 OA
BRANCH  22  23
ATOM     23  C   UNL A   1      41.965  19.653  25.827  1.00  0.00     0.338 C 
ATOM     24  O   UNL A   1      41.267  18.735  26.240  1.00  0.00    -0.246 OA
BRANCH  23  25
ATOM     25  C   UNL A   1      41.993  20.974  26.479  1.00  0.00     0.060 A 
ATOM     26  C   UNL A   1      42.186  22.096  25.662  1.00  0.00     0.016 A 
ATOM     27  C   UNL A   1      41.899  21.116  27.866  1.00  0.00     0.016 A 
ATOM     28  C   UNL A   1      42.335  23.358  26.232  1.00  0.00     0.010 A 
ATOM     29  C   UNL A   1      42.056  22.383  28.437  1.00  0.00     0.010 A 
ATOM     30  C   UNL A   1      42.307  23.504  27.625  1.00  0.00    -0.014 A 
BRANCH  30  31
ATOM     31  C   UNL A   1      42.677  24.805  28.233  1.00  0.00     0.031 A 
ATOM     32  C   UNL A   1      41.617  25.854  28.418  1.00  0.00     0.074 A 
ATOM     33  C   UNL A   1      43.935  25.039  28.645  1.00  0.00     0.049 A 
ATOM     34  N   UNL A   1      41.725  27.069  28.891  1.00  0.00    -0.248 NA
ATOM     35  C   UNL A   1      40.249  25.484  28.016  1.00  0.00     0.031 C 
ATOM     36  C   UNL A   1      45.040  24.085  28.566  1.00  0.00     0.029 A 
ATOM     37  N   UNL A   1      44.494  26.157  29.214  1.00  0.00    -0.354 N 
ATOM     38  C   UNL A   1      40.447  27.608  28.845  1.00  0.00     0.074 A 
ATOM     39  C   UNL A   1      39.581  26.600  28.270  1.00  0.00     0.031 C 
ATOM     40  C   UNL A   1      46.148  24.661  29.065  1.00  0.00     0.029 A 
ATOM     41  C   UNL A   1      45.836  26.032  29.469  1.00  0.00     0.049 A 
ATOM     42  H   UNL A   1      43.979  26.971  29.420  1.00  0.00     0.167 HD
ATOM     43  C   UNL A   1      40.029  28.828  29.255  1.00  0.00     0.037 A 
ATOM     44  C   UNL A   1      46.718  26.927  29.957  1.00  0.00     0.037 A 
ATOM     45  C   UNL A   1      40.888  29.828  29.832  1.00  0.00     0.049 A 
ATOM     46  C   UNL A   1      46.246  28.305  30.333  1.00  0.00     0.074 A 
ATOM     47  C   UNL A   1      40.552  31.090  30.289  1.00  0.00     0.029 A 
ATOM     48  N   UNL A   1      42.252  29.679  30.028  1.00  0.00    -0.354 N 
ATOM     49  N   UNL A   1      45.033  28.803  30.288  1.00  0.00    -0.248 NA
ATOM     50  C   UNL A   1      47.262  29.248  30.824  1.00  0.00     0.031 C 
ATOM     51  C   UNL A   1      41.721  31.723  30.720  1.00  0.00     0.029 A 
ATOM     52  C   UNL A   1      42.776  30.837  30.578  1.00  0.00     0.049 A 
ATOM     53  H   UNL A   1      42.770  28.872  29.810  1.00  0.00     0.167 HD
ATOM     54  C   UNL A   1      45.137  30.104  30.765  1.00  0.00     0.074 A 
ATOM     55  C   UNL A   1      46.529  30.318  31.101  1.00  0.00     0.031 C 
ATOM     56  C   UNL A   1      44.163  31.036  30.912  1.00  0.00     0.037 A 
BRANCH  43  57
ATOM     57  C   UNL A   1      38.577  29.160  29.086  1.00  0.00     0.057 A 
ATOM     58  C   UNL A   1      38.086  29.606  27.852  1.00  0.00     0.134 A 
ATOM     59  C   UNL A   1      37.679  29.102  30.158  1.00  0.00     0.134 A 
ATOM     60  F   UNL A   1      38.897  29.688  26.786  1.00  0.00    -0.206 F 
ATOM     61  C   UNL A   1      36.755  29.993  27.693  1.00  0.00     0.040 A 
ATOM     62  C   UNL A   1      36.339  29.465  30.006  1.00  0.00     0.040 A 
ATOM     63  F   UNL A   1      38.084  28.672  31.362  1.00  0.00    -0.206 F 
ATOM     64  C   UNL A   1      35.877  29.921  28.772  1.00  0.00     0.006 A 
ENDBRANCH  43  57
BRANCH  44  65
ATOM     65  C   UNL A   1      48.143  26.544  30.114  1.00  0.00     0.057 A 
ATOM     66  C   UNL A   1      49.069  26.740  29.082  1.00  0.00     0.134 A 
ATOM     67  C   UNL A   1      48.609  25.963  31.298  1.00  0.00     0.134 A 
ATOM     68  F   UNL A   1      48.682  27.292  27.921  1.00  0.00    -0.206 F 
ATOM     69  C   UNL A   1      50.403  26.355  29.213  1.00  0.00     0.040 A 
ATOM     70  C   UNL A   1      49.947  25.592  31.452  1.00  0.00     0.040 A 
ATOM     71  F   UNL A   1      47.775  25.771  32.329  1.00  0.00    -0.206 F 
ATOM     72  C   UNL A   1      50.846  25.782  30.404  1.00  0.00     0.006 A 
ENDBRANCH  44  65
BRANCH  56  73
ATOM     73  C   UNL A   1      44.552  32.369  31.480  1.00  0.00     0.057 A 
ATOM     74  C   UNL A   1      44.672  32.547  32.864  1.00  0.00     0.134 A 
ATOM     75  C   UNL A   1      44.722  33.495  30.665  1.00  0.00     0.134 A 
ATOM     76  F   UNL A   1      44.509  31.511  33.701  1.00  0.00    -0.206 F 
ATOM     77  C   UNL A   1      44.931  33.801  33.419  1.00  0.00     0.040 A 
ATOM     78  C   UNL A   1      45.004  34.750  31.206  1.00  0.00     0.040 A 
ATOM     79  F   UNL A   1      44.629  33.387  29.331  1.00  0.00    -0.206 F 
ATOM     80  C   UNL A   1      45.099  34.907  32.588  1.00  0.00     0.006 A 
ENDBRANCH  56  73
ENDBRANCH  30  31
ENDBRANCH  23  25
ENDBRANCH  22  23
ENDBRANCH  21  22
ENDBRANCH  20  21
ENDBRANCH  19  20
ENDBRANCH   1  19
TORSDOF 18
ENDMDL
MODEL 2
REMARK VINA RESULT:      -7.9      5.093      9.718
REMARK SMILES CCSCc1cc(F)cc(/C=C/C(=O)OCCOCCOC(=O)c2ccc(-c3c4nc(c(-c5c(F)cccc5F)c5ccc([nH]5)c(-c5c(F)cccc5F)c5nc(c(-c6c(F)cccc6F)c6ccc3[nH]6)C=C5)C=C4)cc2)c1
REMARK SMILES IDX 17 1 16 2 15 3 13 4 14 5 12 6 11 7 10 8 5 9 6 10 78 11 7 12
REMARK SMILES IDX 8 13 9 14 4 15 3 16 2 17 1 18 18 19 19 20 20 21 21 22 22 23
REMARK SMILES IDX 23 24 24 25 25 26 77 27 26 28 76 29 27 30 28 31 29 32 70 33
REMARK SMILES IDX 30 34 75 35 69 36 71 37 31 38 74 39 68 40 67 41 32 43 58 44
REMARK SMILES IDX 41 45 57 46 42 47 45 48 56 49 72 50 43 51 44 52 55 54 73 55
REMARK SMILES IDX 46 56 33 57 34 58 39 59 35 60 36 61 38 62 40 63 37 64 59 65
REMARK SMILES IDX 60 66 65 67 61 68 62 69 64 70 66 71 63 72 47 73 48 74 53 75
REMARK SMILES IDX 49 76 50 77 52 78 54 79 51 80
REMARK H PARENT 71 42 45 53
REMARK Flexibility Score: inf
ROOT
ATOM      1  C   UNL A   1      42.192  19.029  25.722  1.00  0.00     0.202 C 
ENDROOT
BRANCH   1   2
ATOM      2  C   UNL A   1      41.115  19.729  26.551  1.00  0.00     0.261 C 
BRANCH   2   3
ATOM      3  O   UNL A   1      39.880  19.821  25.820  1.00  0.00    -0.460 OA
BRANCH   3   4
ATOM      4  C   UNL A   1      39.307  21.047  25.810  1.00  0.00     0.330 C 
ATOM      5  O   UNL A   1      39.820  22.093  26.178  1.00  0.00    -0.247 OA
BRANCH   4   6
ATOM      6  C   UNL A   1      37.951  21.032  25.228  1.00  0.00     0.094 C 
ATOM      7  C   UNL A   1      36.966  21.914  25.461  1.00  0.00     0.016 C 
BRANCH   7   8
ATOM      8  C   UNL A   1      35.651  21.791  24.811  1.00  0.00    -0.022 A 
ATOM      9  C   UNL A   1      33.596  20.500  24.471  1.00  0.00    -0.035 A 
ATOM     10  C   UNL A   1      33.076  21.551  23.704  1.00  0.00     0.043 A 
ATOM     11  C   UNL A   1      34.896  20.623  25.001  1.00  0.00     0.013 A 
ATOM     12  C   UNL A   1      33.846  22.683  23.471  1.00  0.00     0.124 A 
ATOM     13  F   UNL A   1      33.346  23.679  22.730  1.00  0.00    -0.207 F 
ATOM     14  C   UNL A   1      35.122  22.809  24.009  1.00  0.00     0.047 A 
BRANCH   9  15
ATOM     15  C   UNL A   1      32.755  19.283  24.760  1.00  0.00     0.105 C 
BRANCH  15  16
ATOM     16  S   UNL A   1      32.786  18.047  23.420  1.00  0.00    -0.157 SA
BRANCH  16  17
ATOM     17  C   UNL A   1      34.289  17.100  23.835  1.00  0.00     0.066 C 
ATOM     18  C   UNL A   1      34.138  16.287  25.108  1.00  0.00     0.015 C 
ENDBRANCH  16  17
ENDBRANCH  15  16
ENDBRANCH   9  15
ENDBRANCH   7   8
ENDBRANCH   4   6
ENDBRANCH   3   4
ENDBRANCH   2   3
ENDBRANCH   1   2
BRANCH   1  19
ATOM     19  O   UNL A   1      43.299  19.845  25.342  1.00  0.00    -0.374 OA
BRANCH  19  20
ATOM     20  C   UNL A   1      43.203  21.240  25.639  1.00  0.00     0.202 C 
BRANCH  20  21
ATOM     21  C   UNL A   1      44.091  22.160  24.791  1.00  0.00     0.261 C 
BRANCH  21  22
ATOM     22  O   UNL A   1      43.505  23.467  24.635  1.00  0.00    -0.460 OA
BRANCH  22  23
ATOM     23  C   UNL A   1      44.265  24.493  25.083  1.00  0.00     0.338 C 
ATOM     24  O   UNL A   1      45.374  24.826  24.685  1.00  0.00    -0.246 OA
BRANCH  23  25
ATOM     25  C   UNL A   1      43.495  25.309  26.039  1.00  0.00     0.060 A 
ATOM     26  C   UNL A   1      43.749  26.687  26.065  1.00  0.00     0.016 A 
ATOM     27  C   UNL A   1      42.592  24.738  26.939  1.00  0.00     0.016 A 
ATOM     28  C   UNL A   1      43.136  27.492  27.023  1.00  0.00     0.010 A 
ATOM     29  C   UNL A   1      41.984  25.547  27.905  1.00  0.00     0.010 A 
ATOM     30  C   UNL A   1      42.278  26.921  27.972  1.00  0.00    -0.014 A 
BRANCH  30  31
ATOM     31  C   UNL A   1      41.800  27.737  29.114  1.00  0.00     0.031 A 
ATOM     32  C   UNL A   1      42.542  27.674  30.420  1.00  0.00     0.074 A 
ATOM     33  C   UNL A   1      40.738  28.550  28.981  1.00  0.00     0.049 A 
ATOM     34  N   UNL A   1      42.278  28.272  31.553  1.00  0.00    -0.248 NA
ATOM     35  C   UNL A   1      43.744  26.823  30.453  1.00  0.00     0.031 C 
ATOM     36  C   UNL A   1      39.966  28.736  27.754  1.00  0.00     0.029 A 
ATOM     37  N   UNL A   1      40.125  29.372  29.894  1.00  0.00    -0.354 N 
ATOM     38  C   UNL A   1      43.275  27.872  32.432  1.00  0.00     0.074 A 
ATOM     39  C   UNL A   1      44.135  26.956  31.712  1.00  0.00     0.031 C 
ATOM     40  C   UNL A   1      38.977  29.615  27.991  1.00  0.00     0.029 A 
ATOM     41  C   UNL A   1      39.029  30.029  29.393  1.00  0.00     0.049 A 
ATOM     42  H   UNL A   1      40.442  29.480  30.820  1.00  0.00     0.167 HD
ATOM     43  C   UNL A   1      43.466  28.243  33.719  1.00  0.00     0.037 A 
ATOM     44  C   UNL A   1      38.156  30.856  30.001  1.00  0.00     0.037 A 
ATOM     45  C   UNL A   1      42.615  29.158  34.434  1.00  0.00     0.049 A 
ATOM     46  C   UNL A   1      38.342  31.194  31.456  1.00  0.00     0.074 A 
ATOM     47  C   UNL A   1      42.736  29.602  35.739  1.00  0.00     0.029 A 
ATOM     48  N   UNL A   1      41.486  29.763  33.905  1.00  0.00    -0.354 N 
ATOM     49  N   UNL A   1      39.291  30.812  32.277  1.00  0.00    -0.248 NA
ATOM     50  C   UNL A   1      37.335  32.072  32.072  1.00  0.00     0.031 C 
ATOM     51  C   UNL A   1      41.653  30.444  36.014  1.00  0.00     0.029 A 
ATOM     52  C   UNL A   1      40.887  30.561  34.865  1.00  0.00     0.049 A 
ATOM     53  H   UNL A   1      41.160  29.646  32.984  1.00  0.00     0.167 HD
ATOM     54  C   UNL A   1      39.010  31.420  33.494  1.00  0.00     0.074 A 
ATOM     55  C   UNL A   1      37.806  32.202  33.305  1.00  0.00     0.031 C 
ATOM     56  C   UNL A   1      39.692  31.338  34.663  1.00  0.00     0.037 A 
BRANCH  43  57
ATOM     57  C   UNL A   1      44.634  27.652  34.450  1.00  0.00     0.057 A 
ATOM     58  C   UNL A   1      44.519  26.415  35.097  1.00  0.00     0.134 A 
ATOM     59  C   UNL A   1      45.850  28.335  34.567  1.00  0.00     0.134 A 
ATOM     60  F   UNL A   1      43.378  25.713  35.026  1.00  0.00    -0.206 F 
ATOM     61  C   UNL A   1      45.570  25.884  35.846  1.00  0.00     0.040 A 
ATOM     62  C   UNL A   1      46.917  27.802  35.295  1.00  0.00     0.040 A 
ATOM     63  F   UNL A   1      46.028  29.517  33.959  1.00  0.00    -0.206 F 
ATOM     64  C   UNL A   1      46.774  26.577  35.944  1.00  0.00     0.006 A 
ENDBRANCH  43  57
BRANCH  44  65
ATOM     65  C   UNL A   1      37.022  31.423  29.230  1.00  0.00     0.057 A 
ATOM     66  C   UNL A   1      37.043  32.743  28.764  1.00  0.00     0.134 A 
ATOM     67  C   UNL A   1      35.884  30.658  28.951  1.00  0.00     0.134 A 
ATOM     68  F   UNL A   1      38.107  33.526  28.999  1.00  0.00    -0.206 F 
ATOM     69  C   UNL A   1      35.968  33.289  28.063  1.00  0.00     0.040 A 
ATOM     70  C   UNL A   1      34.808  31.185  28.233  1.00  0.00     0.040 A 
ATOM     71  F   UNL A   1      35.814  29.381  29.352  1.00  0.00    -0.206 F 
ATOM     72  C   UNL A   1      34.846  32.507  27.794  1.00  0.00     0.006 A 
ENDBRANCH  44  65
BRANCH  56  73
ATOM     73  C   UNL A   1      39.174  32.126  35.831  1.00  0.00     0.057 A 
ATOM     74  C   UNL A   1      38.265  31.553  36.729  1.00  0.00     0.134 A 
ATOM     75  C   UNL A   1      39.507  33.473  36.016  1.00  0.00     0.134 A 
ATOM     76  F   UNL A   1      37.896  30.270  36.601  1.00  0.00    -0.206 F 
ATOM     77  C   UNL A   1      37.692  32.297  37.761  1.00  0.00     0.040 A 
ATOM     78  C   UNL A   1      38.958  34.222  37.058  1.00  0.00     0.040 A 
ATOM     79  F   UNL A   1      40.379  34.076  35.194  1.00  0.00    -0.206 F 
ATOM     80  C   UNL A   1      38.040  33.636  37.928  1.00  0.00     0.006 A 
ENDBRANCH  56  73
ENDBRANCH  30  31
ENDBRANCH  23  25
ENDBRANCH  22  23
ENDBRANCH  21  22
ENDBRANCH  20  21
ENDBRANCH  19  20
ENDBRANCH   1  19
TORSDOF 18
ENDMDL
MODEL 3
REMARK VINA RESULT:      -7.8      4.847      9.386
REMARK SMILES CCSCc1cc(F)cc(/C=C/C(=O)OCCOCCOC(=O)c2ccc(-c3c4nc(c(-c5c(F)cccc5F)c5ccc([nH]5)c(-c5c(F)cccc5F)c5nc(c(-c6c(F)cccc6F)c6ccc3[nH]6)C=C5)C=C4)cc2)c1
REMARK SMILES IDX 17 1 16 2 15 3 13 4 14 5 12 6 11 7 10 8 5 9 6 10 78 11 7 12
REMARK SMILES IDX 8 13 9 14 4 15 3 16 2 17 1 18 18 19 19 20 20 21 21 22 22 23
REMARK SMILES IDX 23 24 24 25 25 26 77 27 26 28 76 29 27 30 28 31 29 32 70 33
REMARK SMILES IDX 30 34 75 35 69 36 71 37 31 38 74 39 68 40 67 41 32 43 58 44
REMARK SMILES IDX 41 45 57 46 42 47 45 48 56 49 72 50 43 51 44 52 55 54 73 55
REMARK SMILES IDX 46 56 33 57 34 58 39 59 35 60 36 61 38 62 40 63 37 64 59 65
REMARK SMILES IDX 60 66 65 67 61 68 62 69 64 70 66 71 63 72 47 73 48 74 53 75
REMARK SMILES IDX 49 76 50 77 52 78 54 79 51 80
REMARK H PARENT 71 42 45 53
REMARK Flexibility Score: inf
ROOT
ATOM      1  C   UNL A   1      42.075  19.186  25.897  1.00  0.00     0.202 C 
ENDROOT
BRANCH   1   2
ATOM      2  C   UNL A   1      41.126  19.984  26.792  1.00  0.00     0.261 C 
BRANCH   2   3
ATOM      3  O   UNL A   1      39.892  20.268  26.111  1.00  0.00    -0.460 OA
BRANCH   3   4
ATOM      4  C   UNL A   1      39.515  21.567  26.122  1.00  0.00     0.330 C 
ATOM      5  O   UNL A   1      40.217  22.527  26.402  1.00  0.00    -0.247 OA
BRANCH   4   6
ATOM      6  C   UNL A   1      38.118  21.753  25.681  1.00  0.00     0.094 C 
ATOM      7  C   UNL A   1      37.282  20.800  25.236  1.00  0.00     0.016 C 
BRANCH   7   8
ATOM      8  C   UNL A   1      35.903  21.114  24.828  1.00  0.00    -0.022 A 
ATOM      9  C   UNL A   1      34.313  22.724  23.888  1.00  0.00    -0.035 A 
ATOM     10  C   UNL A   1      33.319  21.738  23.909  1.00  0.00     0.043 A 
ATOM     11  C   UNL A   1      35.598  22.406  24.371  1.00  0.00     0.013 A 
ATOM     12  C   UNL A   1      33.608  20.476  24.412  1.00  0.00     0.124 A 
ATOM     13  F   UNL A   1      32.650  19.542  24.438  1.00  0.00    -0.207 F 
ATOM     14  C   UNL A   1      34.881  20.159  24.874  1.00  0.00     0.047 A 
BRANCH   9  15
ATOM     15  C   UNL A   1      34.021  24.086  23.311  1.00  0.00     0.105 C 
BRANCH  15  16
ATOM     16  S   UNL A   1      32.470  24.816  23.931  1.00  0.00    -0.157 SA
BRANCH  16  17
ATOM     17  C   UNL A   1      32.969  25.367  25.596  1.00  0.00     0.066 C 
ATOM     18  C   UNL A   1      33.859  26.597  25.566  1.00  0.00     0.015 C 
ENDBRANCH  16  17
ENDBRANCH  15  16
ENDBRANCH   9  15
ENDBRANCH   7   8
ENDBRANCH   4   6
ENDBRANCH   3   4
ENDBRANCH   2   3
ENDBRANCH   1   2
BRANCH   1  19
ATOM     19  O   UNL A   1      43.221  19.897  25.431  1.00  0.00    -0.374 OA
BRANCH  19  20
ATOM     20  C   UNL A   1      43.313  21.277  25.793  1.00  0.00     0.202 C 
BRANCH  20  21
ATOM     21  C   UNL A   1      44.098  22.165  24.818  1.00  0.00     0.261 C 
BRANCH  21  22
ATOM     22  O   UNL A   1      43.492  23.465  24.678  1.00  0.00    -0.460 OA
BRANCH  22  23
ATOM     23  C   UNL A   1      44.246  24.499  25.112  1.00  0.00     0.338 C 
ATOM     24  O   UNL A   1      45.355  24.831  24.711  1.00  0.00    -0.246 OA
BRANCH  23  25
ATOM     25  C   UNL A   1      43.472  25.326  26.055  1.00  0.00     0.060 A 
ATOM     26  C   UNL A   1      43.766  26.695  26.109  1.00  0.00     0.016 A 
ATOM     27  C   UNL A   1      42.524  24.772  26.918  1.00  0.00     0.016 A 
ATOM     28  C   UNL A   1      43.148  27.506  27.058  1.00  0.00     0.010 A 
ATOM     29  C   UNL A   1      41.909  25.586  27.875  1.00  0.00     0.010 A 
ATOM     30  C   UNL A   1      42.243  26.949  27.971  1.00  0.00    -0.014 A 
BRANCH  30  31
ATOM     31  C   UNL A   1      41.754  27.765  29.109  1.00  0.00     0.031 A 
ATOM     32  C   UNL A   1      42.485  27.703  30.421  1.00  0.00     0.074 A 
ATOM     33  C   UNL A   1      40.692  28.576  28.967  1.00  0.00     0.049 A 
ATOM     34  N   UNL A   1      42.210  28.300  31.552  1.00  0.00    -0.248 NA
ATOM     35  C   UNL A   1      43.687  26.853  30.465  1.00  0.00     0.031 C 
ATOM     36  C   UNL A   1      39.930  28.761  27.733  1.00  0.00     0.029 A 
ATOM     37  N   UNL A   1      40.070  29.398  29.874  1.00  0.00    -0.354 N 
ATOM     38  C   UNL A   1      43.200  27.901  32.440  1.00  0.00     0.074 A 
ATOM     39  C   UNL A   1      44.068  26.987  31.727  1.00  0.00     0.031 C 
ATOM     40  C   UNL A   1      38.939  29.639  27.962  1.00  0.00     0.029 A 
ATOM     41  C   UNL A   1      38.978  30.053  29.364  1.00  0.00     0.049 A 
ATOM     42  H   UNL A   1      40.379  29.506  30.803  1.00  0.00     0.167 HD
ATOM     43  C   UNL A   1      43.379  28.273  33.729  1.00  0.00     0.037 A 
ATOM     44  C   UNL A   1      38.098  30.879  29.964  1.00  0.00     0.037 A 
ATOM     45  C   UNL A   1      42.520  29.186  34.436  1.00  0.00     0.049 A 
ATOM     46  C   UNL A   1      38.271  31.217  31.421  1.00  0.00     0.074 A 
ATOM     47  C   UNL A   1      42.629  29.631  35.742  1.00  0.00     0.029 A 
ATOM     48  N   UNL A   1      41.396  29.790  33.897  1.00  0.00    -0.354 N 
ATOM     49  N   UNL A   1      39.213  30.836  32.250  1.00  0.00    -0.248 NA
ATOM     50  C   UNL A   1      37.258  32.093  32.028  1.00  0.00     0.031 C 
ATOM     51  C   UNL A   1      41.544  30.471  36.007  1.00  0.00     0.029 A 
ATOM     52  C   UNL A   1      40.787  30.587  34.852  1.00  0.00     0.049 A 
ATOM     53  H   UNL A   1      41.078  29.673  32.974  1.00  0.00     0.167 HD
ATOM     54  C   UNL A   1      38.921  31.444  33.464  1.00  0.00     0.074 A 
ATOM     55  C   UNL A   1      37.717  32.224  33.265  1.00  0.00     0.031 C 
ATOM     56  C   UNL A   1      39.593  31.363  34.640  1.00  0.00     0.037 A 
BRANCH  43  57
ATOM     57  C   UNL A   1      44.541  27.683  34.469  1.00  0.00     0.057 A 
ATOM     58  C   UNL A   1      44.403  26.479  35.172  1.00  0.00     0.134 A 
ATOM     59  C   UNL A   1      45.776  28.338  34.541  1.00  0.00     0.134 A 
ATOM     60  F   UNL A   1      43.243  25.805  35.147  1.00  0.00    -0.206 F 
ATOM     61  C   UNL A   1      45.451  25.953  35.930  1.00  0.00     0.040 A 
ATOM     62  C   UNL A   1      46.839  27.810  35.277  1.00  0.00     0.040 A 
ATOM     63  F   UNL A   1      45.976  29.488  33.880  1.00  0.00    -0.206 F 
ATOM     64  C   UNL A   1      46.673  26.618  35.982  1.00  0.00     0.006 A 
ENDBRANCH  43  57
BRANCH  44  65
ATOM     65  C   UNL A   1      36.970  31.444  29.183  1.00  0.00     0.057 A 
ATOM     66  C   UNL A   1      37.002  32.758  28.701  1.00  0.00     0.134 A 
ATOM     67  C   UNL A   1      35.828  30.684  28.910  1.00  0.00     0.134 A 
ATOM     68  F   UNL A   1      38.071  33.537  28.930  1.00  0.00    -0.206 F 
ATOM     69  C   UNL A   1      35.932  33.303  27.991  1.00  0.00     0.040 A 
ATOM     70  C   UNL A   1      34.757  31.209  28.184  1.00  0.00     0.040 A 
ATOM     71  F   UNL A   1      35.748  29.412  29.327  1.00  0.00    -0.206 F 
ATOM     72  C   UNL A   1      34.805  32.526  27.728  1.00  0.00     0.006 A 
ENDBRANCH  44  65
BRANCH  56  73
ATOM     73  C   UNL A   1      39.064  32.150  35.803  1.00  0.00     0.057 A 
ATOM     74  C   UNL A   1      39.446  33.484  35.993  1.00  0.00     0.134 A 
ATOM     75  C   UNL A   1      38.248  31.564  36.778  1.00  0.00     0.134 A 
ATOM     76  F   UNL A   1      40.235  34.101  35.101  1.00  0.00    -0.206 F 
ATOM     77  C   UNL A   1      39.050  34.203  37.121  1.00  0.00     0.040 A 
ATOM     78  C   UNL A   1      37.827  32.279  37.900  1.00  0.00     0.040 A 
ATOM     79  F   UNL A   1      37.841  30.292  36.648  1.00  0.00    -0.206 F 
ATOM     80  C   UNL A   1      38.236  33.599  38.078  1.00  0.00     0.006 A 
ENDBRANCH  56  73
ENDBRANCH  30  31
ENDBRANCH  23  25
ENDBRANCH  22  23
ENDBRANCH  21  22
ENDBRANCH  20  21
ENDBRANCH  19  20
ENDBRANCH   1  19
TORSDOF 18
ENDMDL
