MODEL 1
REMARK VINA RESULT:     -10.5      0.000      0.000
REMARK SMILES O=C(C[C@H]1CN(c2nc(C3CC3)ns2)CCO1)OCCOCCOC(=O)c1ccc(-c2c3nc(c(-c4c(F)cccc4F)c4ccc([nH]4)c(-c4c(F)cccc4F)c4nc(c(-c5c(F)cccc5F)c5ccc2[nH]5)C=C4)C=C3)cc1
REMARK SMILES IDX 20 1 19 2 18 3 2 4 1 5 3 6 4 7 5 8 17 9 6 10 16 11 15 12
REMARK SMILES IDX 7 13 8 14 14 15 9 16 13 17 10 18 11 19 12 20 21 21 22 22
REMARK SMILES IDX 23 23 24 24 25 25 26 26 27 27 28 28 80 29 29 30 79 31 30 32
REMARK SMILES IDX 31 33 32 34 73 35 33 36 78 37 72 38 74 39 34 40 77 41 71 42
REMARK SMILES IDX 70 43 35 45 61 46 44 47 60 48 45 49 48 50 59 51 75 52 46 53
REMARK SMILES IDX 47 54 58 56 76 57 49 58 36 59 37 60 42 61 38 62 39 63 41 64
REMARK SMILES IDX 43 65 40 66 62 67 63 68 68 69 64 70 65 71 67 72 69 73 66 74
REMARK SMILES IDX 50 75 51 76 56 77 52 78 53 79 55 80 57 81 54 82
REMARK H PARENT 74 44 48 55
REMARK Flexibility Score: inf
ROOT
ATOM      1  C   UNL A   1      40.348  20.337  26.555  1.00  0.00     0.202 C 
ENDROOT
BRANCH   1   2
ATOM      2  C   UNL A   1      39.768  21.557  25.849  1.00  0.00     0.261 C 
BRANCH   2   3
ATOM      3  O   UNL A   1      38.393  21.793  26.182  1.00  0.00    -0.463 OA
BRANCH   3   4
ATOM      4  C   UNL A   1      37.310  21.608  25.405  1.00  0.00     0.308 C 
ATOM      5  O   UNL A   1      37.427  20.884  24.414  1.00  0.00    -0.252 OA
BRANCH   4   6
ATOM      6  C   UNL A   1      36.001  22.322  25.654  1.00  0.00     0.156 C 
BRANCH   6   7
ATOM      7  C   UNL A   1      34.897  21.547  26.377  1.00  0.00     0.148 C 
ATOM      8  C   UNL A   1      33.798  22.470  26.976  1.00  0.00     0.151 C 
ATOM      9  O   UNL A   1      34.299  20.552  25.505  1.00  0.00    -0.374 OA
ATOM     10  N   UNL A   1      32.922  22.991  25.932  1.00  0.00    -0.342 N 
ATOM     11  C   UNL A   1      33.474  21.135  24.477  1.00  0.00     0.182 C 
ATOM     12  C   UNL A   1      32.337  21.977  25.068  1.00  0.00     0.147 C 
BRANCH  10  13
ATOM     13  C   UNL A   1      32.324  24.194  26.111  1.00  0.00     0.205 A 
ATOM     14  N   UNL A   1      32.965  25.337  26.191  1.00  0.00    -0.203 NA
ATOM     15  S   UNL A   1      30.616  24.431  26.276  1.00  0.00     0.004 S 
ATOM     16  C   UNL A   1      32.046  26.370  26.350  1.00  0.00     0.147 A 
ATOM     17  N   UNL A   1      30.746  26.084  26.445  1.00  0.00    -0.174 NA
BRANCH  16  18
ATOM     18  C   UNL A   1      32.503  27.829  26.419  1.00  0.00     0.059 C 
ATOM     19  C   UNL A   1      33.988  28.089  26.388  1.00  0.00     0.012 C 
ATOM     20  C   UNL A   1      33.166  28.456  25.205  1.00  0.00     0.012 C 
ENDBRANCH  16  18
ENDBRANCH  10  13
ENDBRANCH   6   7
ENDBRANCH   4   6
ENDBRANCH   3   4
ENDBRANCH   2   3
ENDBRANCH   1   2
BRANCH   1  21
ATOM     21  O   UNL A   1      41.310  19.615  25.796  1.00  0.00    -0.374 OA
BRANCH  21  22
ATOM     22  C   UNL A   1      42.654  19.686  26.287  1.00  0.00     0.202 C 
BRANCH  22  23
ATOM     23  C   UNL A   1      43.489  20.857  25.756  1.00  0.00     0.261 C 
BRANCH  23  24
ATOM     24  O   UNL A   1      43.255  22.056  26.501  1.00  0.00    -0.460 OA
BRANCH  24  25
ATOM     25  C   UNL A   1      43.169  23.199  25.778  1.00  0.00     0.338 C 
ATOM     26  O   UNL A   1      43.181  23.343  24.570  1.00  0.00    -0.246 OA
BRANCH  25  27
ATOM     27  C   UNL A   1      42.842  24.284  26.710  1.00  0.00     0.060 A 
ATOM     28  C   UNL A   1      43.539  25.495  26.598  1.00  0.00     0.016 A 
ATOM     29  C   UNL A   1      41.816  24.120  27.640  1.00  0.00     0.016 A 
ATOM     30  C   UNL A   1      43.190  26.568  27.410  1.00  0.00     0.010 A 
ATOM     31  C   UNL A   1      41.483  25.184  28.465  1.00  0.00     0.010 A 
ATOM     32  C   UNL A   1      42.172  26.404  28.355  1.00  0.00    -0.014 A 
BRANCH  32  33
ATOM     33  C   UNL A   1      41.881  27.455  29.342  1.00  0.00     0.031 A 
ATOM     34  C   UNL A   1      42.620  27.420  30.642  1.00  0.00     0.074 A 
ATOM     35  C   UNL A   1      40.903  28.345  29.103  1.00  0.00     0.049 A 
ATOM     36  N   UNL A   1      42.392  28.086  31.740  1.00  0.00    -0.248 NA
ATOM     37  C   UNL A   1      43.761  26.489  30.721  1.00  0.00     0.031 C 
ATOM     38  C   UNL A   1      40.146  28.455  27.856  1.00  0.00     0.029 A 
ATOM     39  N   UNL A   1      40.349  29.294  29.921  1.00  0.00    -0.354 N 
ATOM     40  C   UNL A   1      43.338  27.636  32.650  1.00  0.00     0.074 A 
ATOM     41  C   UNL A   1      44.140  26.635  31.982  1.00  0.00     0.031 C 
ATOM     42  C   UNL A   1      39.193  29.392  28.007  1.00  0.00     0.029 A 
ATOM     43  C   UNL A   1      39.248  29.905  29.372  1.00  0.00     0.049 A 
ATOM     44  H   UNL A   1      40.704  29.514  30.812  1.00  0.00     0.167 HD
ATOM     45  C   UNL A   1      43.507  28.027  33.933  1.00  0.00     0.037 A 
ATOM     46  C   UNL A   1      38.358  30.742  29.939  1.00  0.00     0.037 A 
ATOM     47  C   UNL A   1      42.698  29.030  34.568  1.00  0.00     0.049 A 
ATOM     48  C   UNL A   1      38.544  31.120  31.385  1.00  0.00     0.074 A 
ATOM     49  C   UNL A   1      42.820  29.555  35.841  1.00  0.00     0.029 A 
ATOM     50  N   UNL A   1      41.605  29.648  33.978  1.00  0.00    -0.354 N 
ATOM     51  N   UNL A   1      39.478  30.742  32.227  1.00  0.00    -0.248 NA
ATOM     52  C   UNL A   1      37.549  32.032  31.966  1.00  0.00     0.031 C 
ATOM     53  C   UNL A   1      41.765  30.447  36.043  1.00  0.00     0.029 A 
ATOM     54  C   UNL A   1      41.018  30.520  34.876  1.00  0.00     0.049 A 
ATOM     55  H   UNL A   1      41.295  29.489  33.057  1.00  0.00     0.167 HD
ATOM     56  C   UNL A   1      39.196  31.386  33.425  1.00  0.00     0.074 A 
ATOM     57  C   UNL A   1      38.016  32.193  33.195  1.00  0.00     0.031 C 
ATOM     58  C   UNL A   1      39.847  31.315  34.611  1.00  0.00     0.037 A 
BRANCH  45  59
ATOM     59  C   UNL A   1      44.576  27.356  34.739  1.00  0.00     0.057 A 
ATOM     60  C   UNL A   1      44.351  26.152  35.418  1.00  0.00     0.134 A 
ATOM     61  C   UNL A   1      45.870  27.891  34.781  1.00  0.00     0.134 A 
ATOM     62  F   UNL A   1      43.129  25.598  35.432  1.00  0.00    -0.206 F 
ATOM     63  C   UNL A   1      45.374  25.505  36.112  1.00  0.00     0.040 A 
ATOM     64  C   UNL A   1      46.906  27.243  35.452  1.00  0.00     0.040 A 
ATOM     65  F   UNL A   1      46.150  29.045  34.155  1.00  0.00    -0.206 F 
ATOM     66  C   UNL A   1      46.659  26.045  36.120  1.00  0.00     0.006 A 
ENDBRANCH  45  59
BRANCH  46  67
ATOM     67  C   UNL A   1      37.190  31.237  29.167  1.00  0.00     0.057 A 
ATOM     68  C   UNL A   1      37.164  32.533  28.639  1.00  0.00     0.134 A 
ATOM     69  C   UNL A   1      36.053  30.441  28.971  1.00  0.00     0.134 A 
ATOM     70  F   UNL A   1      38.212  33.351  28.809  1.00  0.00    -0.206 F 
ATOM     71  C   UNL A   1      36.042  33.030  27.973  1.00  0.00     0.040 A 
ATOM     72  C   UNL A   1      34.936  30.915  28.281  1.00  0.00     0.040 A 
ATOM     73  F   UNL A   1      36.013  29.187  29.447  1.00  0.00    -0.206 F 
ATOM     74  C   UNL A   1      34.925  32.218  27.790  1.00  0.00     0.006 A 
ENDBRANCH  46  67
BRANCH  58  75
ATOM     75  C   UNL A   1      39.313  32.148  35.738  1.00  0.00     0.057 A 
ATOM     76  C   UNL A   1      39.702  33.481  35.917  1.00  0.00     0.134 A 
ATOM     77  C   UNL A   1      38.352  31.627  36.614  1.00  0.00     0.134 A 
ATOM     78  F   UNL A   1      40.628  34.032  35.118  1.00  0.00    -0.206 F 
ATOM     79  C   UNL A   1      39.165  34.263  36.940  1.00  0.00     0.040 A 
ATOM     80  C   UNL A   1      37.787  32.408  37.622  1.00  0.00     0.040 A 
ATOM     81  F   UNL A   1      37.930  30.360  36.488  1.00  0.00    -0.206 F 
ATOM     82  C   UNL A   1      38.197  33.729  37.789  1.00  0.00     0.006 A 
ENDBRANCH  58  75
ENDBRANCH  32  33
ENDBRANCH  25  27
ENDBRANCH  24  25
ENDBRANCH  23  24
ENDBRANCH  22  23
ENDBRANCH  21  22
ENDBRANCH   1  21
TORSDOF 17
ENDMDL
MODEL 2
REMARK VINA RESULT:     -10.4      1.691      3.288
REMARK SMILES O=C(C[C@H]1CN(c2nc(C3CC3)ns2)CCO1)OCCOCCOC(=O)c1ccc(-c2c3nc(c(-c4c(F)cccc4F)c4ccc([nH]4)c(-c4c(F)cccc4F)c4nc(c(-c5c(F)cccc5F)c5ccc2[nH]5)C=C4)C=C3)cc1
REMARK SMILES IDX 20 1 19 2 18 3 2 4 1 5 3 6 4 7 5 8 17 9 6 10 16 11 15 12
REMARK SMILES IDX 7 13 8 14 14 15 9 16 13 17 10 18 11 19 12 20 21 21 22 22
REMARK SMILES IDX 23 23 24 24 25 25 26 26 27 27 28 28 80 29 29 30 79 31 30 32
REMARK SMILES IDX 31 33 32 34 73 35 33 36 78 37 72 38 74 39 34 40 77 41 71 42
REMARK SMILES IDX 70 43 35 45 61 46 44 47 60 48 45 49 48 50 59 51 75 52 46 53
REMARK SMILES IDX 47 54 58 56 76 57 49 58 36 59 37 60 42 61 38 62 39 63 41 64
REMARK SMILES IDX 43 65 40 66 62 67 63 68 68 69 64 70 65 71 67 72 69 73 66 74
REMARK SMILES IDX 50 75 51 76 56 77 52 78 53 79 55 80 57 81 54 82
REMARK H PARENT 74 44 48 55
REMARK Flexibility Score: inf
ROOT
ATOM      1  C   UNL A   1      40.377  20.836  26.665  1.00  0.00     0.202 C 
ENDROOT
BRANCH   1   2
ATOM      2  C   UNL A   1      39.669  22.178  26.527  1.00  0.00     0.261 C 
BRANCH   2   3
ATOM      3  O   UNL A   1      38.344  22.058  25.990  1.00  0.00    -0.463 OA
BRANCH   3   4
ATOM      4  C   UNL A   1      37.602  23.012  25.397  1.00  0.00     0.308 C 
ATOM      5  O   UNL A   1      37.761  24.178  25.763  1.00  0.00    -0.252 OA
BRANCH   4   6
ATOM      6  C   UNL A   1      36.531  22.691  24.380  1.00  0.00     0.156 C 
BRANCH   6   7
ATOM      7  C   UNL A   1      35.107  23.165  24.678  1.00  0.00     0.148 C 
ATOM      8  C   UNL A   1      34.018  22.207  24.115  1.00  0.00     0.151 C 
ATOM      9  O   UNL A   1      34.910  23.369  26.101  1.00  0.00    -0.374 OA
ATOM     10  N   UNL A   1      33.917  20.994  24.918  1.00  0.00    -0.342 N 
ATOM     11  C   UNL A   1      34.854  22.133  26.840  1.00  0.00     0.182 C 
ATOM     12  C   UNL A   1      33.724  21.222  26.342  1.00  0.00     0.147 C 
BRANCH  10  13
ATOM     13  C   UNL A   1      33.511  19.843  24.329  1.00  0.00     0.205 A 
ATOM     14  N   UNL A   1      33.968  18.651  24.636  1.00  0.00    -0.203 NA
ATOM     15  S   UNL A   1      32.330  19.745  23.066  1.00  0.00     0.004 S 
ATOM     16  C   UNL A   1      33.320  17.696  23.859  1.00  0.00     0.147 A 
ATOM     17  N   UNL A   1      32.432  18.086  22.943  1.00  0.00    -0.174 NA
BRANCH  16  18
ATOM     18  C   UNL A   1      33.612  16.204  24.036  1.00  0.00     0.059 C 
ATOM     19  C   UNL A   1      34.449  15.801  25.224  1.00  0.00     0.012 C 
ATOM     20  C   UNL A   1      33.001  15.465  25.215  1.00  0.00     0.012 C 
ENDBRANCH  16  18
ENDBRANCH  10  13
ENDBRANCH   6   7
ENDBRANCH   4   6
ENDBRANCH   3   4
ENDBRANCH   2   3
ENDBRANCH   1   2
BRANCH   1  21
ATOM     21  O   UNL A   1      41.357  20.578  25.668  1.00  0.00    -0.374 OA
BRANCH  21  22
ATOM     22  C   UNL A   1      42.666  20.269  26.163  1.00  0.00     0.202 C 
BRANCH  22  23
ATOM     23  C   UNL A   1      43.774  21.248  25.753  1.00  0.00     0.261 C 
BRANCH  23  24
ATOM     24  O   UNL A   1      43.686  22.480  26.475  1.00  0.00    -0.460 OA
BRANCH  24  25
ATOM     25  C   UNL A   1      43.282  23.560  25.762  1.00  0.00     0.338 C 
ATOM     26  O   UNL A   1      43.074  23.653  24.567  1.00  0.00    -0.246 OA
BRANCH  25  27
ATOM     27  C   UNL A   1      42.923  24.609  26.721  1.00  0.00     0.060 A 
ATOM     28  C   UNL A   1      43.508  25.875  26.579  1.00  0.00     0.016 A 
ATOM     29  C   UNL A   1      41.972  24.356  27.710  1.00  0.00     0.016 A 
ATOM     30  C   UNL A   1      43.120  26.911  27.420  1.00  0.00     0.010 A 
ATOM     31  C   UNL A   1      41.602  25.385  28.563  1.00  0.00     0.010 A 
ATOM     32  C   UNL A   1      42.179  26.659  28.423  1.00  0.00    -0.014 A 
BRANCH  32  33
ATOM     33  C   UNL A   1      41.860  27.678  29.435  1.00  0.00     0.031 A 
ATOM     34  C   UNL A   1      42.588  27.619  30.741  1.00  0.00     0.074 A 
ATOM     35  C   UNL A   1      40.870  28.558  29.210  1.00  0.00     0.049 A 
ATOM     36  N   UNL A   1      42.338  28.251  31.854  1.00  0.00    -0.248 NA
ATOM     37  C   UNL A   1      43.742  26.704  30.807  1.00  0.00     0.031 C 
ATOM     38  C   UNL A   1      40.124  28.690  27.959  1.00  0.00     0.029 A 
ATOM     39  N   UNL A   1      40.293  29.475  30.048  1.00  0.00    -0.354 N 
ATOM     40  C   UNL A   1      43.282  27.792  32.761  1.00  0.00     0.074 A 
ATOM     41  C   UNL A   1      44.107  26.822  32.075  1.00  0.00     0.031 C 
ATOM     42  C   UNL A   1      39.154  29.607  28.126  1.00  0.00     0.029 A 
ATOM     43  C   UNL A   1      39.187  30.083  29.505  1.00  0.00     0.049 A 
ATOM     44  H   UNL A   1      40.636  29.677  30.948  1.00  0.00     0.167 HD
ATOM     45  C   UNL A   1      43.432  28.150  34.056  1.00  0.00     0.037 A 
ATOM     46  C   UNL A   1      38.279  30.891  30.085  1.00  0.00     0.037 A 
ATOM     47  C   UNL A   1      42.600  29.122  34.710  1.00  0.00     0.049 A 
ATOM     48  C   UNL A   1      38.444  31.231  31.543  1.00  0.00     0.074 A 
ATOM     49  C   UNL A   1      42.702  29.614  35.998  1.00  0.00     0.029 A 
ATOM     50  N   UNL A   1      41.504  29.739  34.126  1.00  0.00    -0.354 N 
ATOM     51  N   UNL A   1      39.376  30.846  32.383  1.00  0.00    -0.248 NA
ATOM     52  C   UNL A   1      37.429  32.111  32.138  1.00  0.00     0.031 C 
ATOM     53  C   UNL A   1      41.631  30.484  36.213  1.00  0.00     0.029 A 
ATOM     54  C   UNL A   1      40.894  30.576  35.041  1.00  0.00     0.049 A 
ATOM     55  H   UNL A   1      41.205  29.600  33.198  1.00  0.00     0.167 HD
ATOM     56  C   UNL A   1      39.072  31.452  33.596  1.00  0.00     0.074 A 
ATOM     57  C   UNL A   1      37.881  32.246  33.376  1.00  0.00     0.031 C 
ATOM     58  C   UNL A   1      39.713  31.359  34.786  1.00  0.00     0.037 A 
BRANCH  45  59
ATOM     59  C   UNL A   1      44.504  27.474  34.854  1.00  0.00     0.057 A 
ATOM     60  C   UNL A   1      44.268  26.290  35.564  1.00  0.00     0.134 A 
ATOM     61  C   UNL A   1      45.809  27.983  34.858  1.00  0.00     0.134 A 
ATOM     62  F   UNL A   1      43.036  25.762  35.616  1.00  0.00    -0.206 F 
ATOM     63  C   UNL A   1      45.293  25.638  36.252  1.00  0.00     0.040 A 
ATOM     64  C   UNL A   1      46.846  27.328  35.522  1.00  0.00     0.040 A 
ATOM     65  F   UNL A   1      46.099  29.117  34.201  1.00  0.00    -0.206 F 
ATOM     66  C   UNL A   1      46.589  26.151  36.221  1.00  0.00     0.006 A 
ENDBRANCH  45  59
BRANCH  46  67
ATOM     67  C   UNL A   1      37.110  31.387  29.315  1.00  0.00     0.057 A 
ATOM     68  C   UNL A   1      35.994  30.575  29.084  1.00  0.00     0.134 A 
ATOM     69  C   UNL A   1      37.095  32.673  28.757  1.00  0.00     0.134 A 
ATOM     70  F   UNL A   1      35.956  29.328  29.574  1.00  0.00    -0.206 F 
ATOM     71  C   UNL A   1      34.922  31.009  28.302  1.00  0.00     0.040 A 
ATOM     72  C   UNL A   1      36.017  33.131  27.999  1.00  0.00     0.040 A 
ATOM     73  F   UNL A   1      38.131  33.505  28.943  1.00  0.00    -0.206 F 
ATOM     74  C   UNL A   1      34.931  32.292  27.760  1.00  0.00     0.006 A 
ENDBRANCH  46  67
BRANCH  58  75
ATOM     75  C   UNL A   1      39.154  32.153  35.930  1.00  0.00     0.057 A 
ATOM     76  C   UNL A   1      39.526  33.483  36.154  1.00  0.00     0.134 A 
ATOM     77  C   UNL A   1      38.186  31.596  36.776  1.00  0.00     0.134 A 
ATOM     78  F   UNL A   1      40.457  34.068  35.385  1.00  0.00    -0.206 F 
ATOM     79  C   UNL A   1      38.966  34.229  37.192  1.00  0.00     0.040 A 
ATOM     80  C   UNL A   1      37.599  32.340  37.799  1.00  0.00     0.040 A 
ATOM     81  F   UNL A   1      37.780  30.328  36.606  1.00  0.00    -0.206 F 
ATOM     82  C   UNL A   1      37.993  33.659  38.011  1.00  0.00     0.006 A 
ENDBRANCH  58  75
ENDBRANCH  32  33
ENDBRANCH  25  27
ENDBRANCH  24  25
ENDBRANCH  23  24
ENDBRANCH  22  23
ENDBRANCH  21  22
ENDBRANCH   1  21
TORSDOF 17
ENDMDL
MODEL 3
REMARK VINA RESULT:     -10.2      4.214      8.275
REMARK SMILES O=C(C[C@H]1CN(c2nc(C3CC3)ns2)CCO1)OCCOCCOC(=O)c1ccc(-c2c3nc(c(-c4c(F)cccc4F)c4ccc([nH]4)c(-c4c(F)cccc4F)c4nc(c(-c5c(F)cccc5F)c5ccc2[nH]5)C=C4)C=C3)cc1
REMARK SMILES IDX 20 1 19 2 18 3 2 4 1 5 3 6 4 7 5 8 17 9 6 10 16 11 15 12
REMARK SMILES IDX 7 13 8 14 14 15 9 16 13 17 10 18 11 19 12 20 21 21 22 22
REMARK SMILES IDX 23 23 24 24 25 25 26 26 27 27 28 28 80 29 29 30 79 31 30 32
REMARK SMILES IDX 31 33 32 34 73 35 33 36 78 37 72 38 74 39 34 40 77 41 71 42
REMARK SMILES IDX 70 43 35 45 61 46 44 47 60 48 45 49 48 50 59 51 75 52 46 53
REMARK SMILES IDX 47 54 58 56 76 57 49 58 36 59 37 60 42 61 38 62 39 63 41 64
REMARK SMILES IDX 43 65 40 66 62 67 63 68 68 69 64 70 65 71 67 72 69 73 66 74
REMARK SMILES IDX 50 75 51 76 56 77 52 78 53 79 55 80 57 81 54 82
REMARK H PARENT 74 44 48 55
REMARK Flexibility Score: inf
ROOT
ATOM      1  C   UNL A   1      37.084  23.686  25.620  1.00  0.00     0.202 C 
ENDROOT
BRANCH   1   2
ATOM      2  C   UNL A   1      35.915  23.469  24.666  1.00  0.00     0.261 C 
BRANCH   2   3
ATOM      3  O   UNL A   1      34.934  24.514  24.738  1.00  0.00    -0.463 OA
BRANCH   3   4
ATOM      4  C   UNL A   1      34.011  24.717  25.695  1.00  0.00     0.308 C 
ATOM      5  O   UNL A   1      33.805  23.808  26.502  1.00  0.00    -0.252 OA
BRANCH   4   6
ATOM      6  C   UNL A   1      33.165  25.969  25.754  1.00  0.00     0.156 C 
BRANCH   6   7
ATOM      7  C   UNL A   1      33.875  27.312  25.569  1.00  0.00     0.148 C 
ATOM      8  C   UNL A   1      33.234  28.189  24.455  1.00  0.00     0.151 C 
ATOM      9  O   UNL A   1      33.935  28.049  26.818  1.00  0.00    -0.374 OA
ATOM     10  N   UNL A   1      31.976  28.774  24.905  1.00  0.00    -0.342 N 
ATOM     11  C   UNL A   1      32.654  28.569  27.221  1.00  0.00     0.182 C 
ATOM     12  C   UNL A   1      32.059  29.504  26.160  1.00  0.00     0.147 C 
BRANCH  10  13
ATOM     13  C   UNL A   1      31.013  29.051  23.992  1.00  0.00     0.205 A 
ATOM     14  N   UNL A   1      30.139  30.024  24.108  1.00  0.00    -0.203 NA
ATOM     15  S   UNL A   1      30.761  28.166  22.524  1.00  0.00     0.004 S 
ATOM     16  C   UNL A   1      29.316  30.039  22.986  1.00  0.00     0.147 A 
ATOM     17  N   UNL A   1      29.475  29.109  22.042  1.00  0.00    -0.174 NA
BRANCH  16  18
ATOM     18  C   UNL A   1      28.231  31.105  22.817  1.00  0.00     0.059 C 
ATOM     19  C   UNL A   1      28.628  32.539  23.060  1.00  0.00     0.012 C 
ATOM     20  C   UNL A   1      28.338  32.097  21.671  1.00  0.00     0.012 C 
ENDBRANCH  16  18
ENDBRANCH  10  13
ENDBRANCH   6   7
ENDBRANCH   4   6
ENDBRANCH   3   4
ENDBRANCH   2   3
ENDBRANCH   1   2
BRANCH   1  21
ATOM     21  O   UNL A   1      37.985  22.590  25.711  1.00  0.00    -0.374 OA
BRANCH  21  22
ATOM     22  C   UNL A   1      37.466  21.333  25.260  1.00  0.00     0.202 C 
BRANCH  22  23
ATOM     23  C   UNL A   1      38.514  20.246  24.989  1.00  0.00     0.261 C 
BRANCH  23  24
ATOM     24  O   UNL A   1      39.162  19.824  26.193  1.00  0.00    -0.460 OA
BRANCH  24  25
ATOM     25  C   UNL A   1      40.511  19.703  26.132  1.00  0.00     0.338 C 
ATOM     26  O   UNL A   1      41.177  18.827  25.613  1.00  0.00    -0.246 OA
BRANCH  25  27
ATOM     27  C   UNL A   1      41.087  20.953  26.639  1.00  0.00     0.060 A 
ATOM     28  C   UNL A   1      41.234  21.108  28.024  1.00  0.00     0.016 A 
ATOM     29  C   UNL A   1      41.530  21.930  25.747  1.00  0.00     0.016 A 
ATOM     30  C   UNL A   1      41.856  22.245  28.527  1.00  0.00     0.010 A 
ATOM     31  C   UNL A   1      42.131  23.073  26.251  1.00  0.00     0.010 A 
ATOM     32  C   UNL A   1      42.288  23.235  27.638  1.00  0.00    -0.014 A 
BRANCH  32  33
ATOM     33  C   UNL A   1      42.802  24.521  28.132  1.00  0.00     0.031 A 
ATOM     34  C   UNL A   1      41.809  25.588  28.472  1.00  0.00     0.074 A 
ATOM     35  C   UNL A   1      44.127  24.744  28.167  1.00  0.00     0.049 A 
ATOM     36  N   UNL A   1      42.008  26.855  28.711  1.00  0.00    -0.248 NA
ATOM     37  C   UNL A   1      40.396  25.172  28.529  1.00  0.00     0.031 C 
ATOM     38  C   UNL A   1      45.160  23.753  27.866  1.00  0.00     0.029 A 
ATOM     39  N   UNL A   1      44.825  25.893  28.427  1.00  0.00    -0.354 N 
ATOM     40  C   UNL A   1      40.747  27.395  28.917  1.00  0.00     0.074 A 
ATOM     41  C   UNL A   1      39.787  26.324  28.769  1.00  0.00     0.031 C 
ATOM     42  C   UNL A   1      46.363  24.350  27.916  1.00  0.00     0.029 A 
ATOM     43  C   UNL A   1      46.175  25.769  28.203  1.00  0.00     0.049 A 
ATOM     44  H   UNL A   1      44.402  26.725  28.741  1.00  0.00     0.167 HD
ATOM     45  C   UNL A   1      40.430  28.679  29.197  1.00  0.00     0.037 A 
ATOM     46  C   UNL A   1      47.133  26.714  28.182  1.00  0.00     0.037 A 
ATOM     47  C   UNL A   1      41.407  29.721  29.345  1.00  0.00     0.049 A 
ATOM     48  C   UNL A   1      46.741  28.144  28.447  1.00  0.00     0.074 A 
ATOM     49  C   UNL A   1      41.208  31.044  29.695  1.00  0.00     0.029 A 
ATOM     50  N   UNL A   1      42.768  29.558  29.137  1.00  0.00    -0.354 N 
ATOM     51  N   UNL A   1      45.556  28.644  28.706  1.00  0.00    -0.248 NA
ATOM     52  C   UNL A   1      47.817  29.145  28.410  1.00  0.00     0.031 C 
ATOM     53  C   UNL A   1      42.442  31.695  29.640  1.00  0.00     0.029 A 
ATOM     54  C   UNL A   1      43.418  30.766  29.310  1.00  0.00     0.049 A 
ATOM     55  H   UNL A   1      43.206  28.708  28.901  1.00  0.00     0.167 HD
ATOM     56  C   UNL A   1      45.746  30.008  28.883  1.00  0.00     0.074 A 
ATOM     57  C   UNL A   1      47.163  30.254  28.723  1.00  0.00     0.031 C 
ATOM     58  C   UNL A   1      44.833  30.974  29.150  1.00  0.00     0.037 A 
BRANCH  45  59
ATOM     59  C   UNL A   1      38.981  29.034  29.330  1.00  0.00     0.057 A 
ATOM     60  C   UNL A   1      38.301  28.941  30.551  1.00  0.00     0.134 A 
ATOM     61  C   UNL A   1      38.274  29.541  28.232  1.00  0.00     0.134 A 
ATOM     62  F   UNL A   1      38.917  28.445  31.636  1.00  0.00    -0.206 F 
ATOM     63  C   UNL A   1      36.968  29.336  30.675  1.00  0.00     0.040 A 
ATOM     64  C   UNL A   1      36.948  29.961  28.349  1.00  0.00     0.040 A 
ATOM     65  F   UNL A   1      38.866  29.651  27.033  1.00  0.00    -0.206 F 
ATOM     66  C   UNL A   1      36.293  29.859  29.574  1.00  0.00     0.006 A 
ENDBRANCH  45  59
BRANCH  46  67
ATOM     67  C   UNL A   1      48.536  26.359  27.848  1.00  0.00     0.057 A 
ATOM     68  C   UNL A   1      48.998  26.387  26.528  1.00  0.00     0.134 A 
ATOM     69  C   UNL A   1      49.440  25.944  28.836  1.00  0.00     0.134 A 
ATOM     70  F   UNL A   1      48.177  26.756  25.534  1.00  0.00    -0.206 F 
ATOM     71  C   UNL A   1      50.295  25.987  26.197  1.00  0.00     0.040 A 
ATOM     72  C   UNL A   1      50.748  25.571  28.523  1.00  0.00     0.040 A 
ATOM     73  F   UNL A   1      49.064  25.899  30.123  1.00  0.00    -0.206 F 
ATOM     74  C   UNL A   1      51.174  25.581  27.197  1.00  0.00     0.006 A 
ENDBRANCH  46  67
BRANCH  58  75
ATOM     75  C   UNL A   1      45.345  32.376  29.307  1.00  0.00     0.057 A 
ATOM     76  C   UNL A   1      45.819  32.853  30.534  1.00  0.00     0.134 A 
ATOM     77  C   UNL A   1      45.420  33.233  28.202  1.00  0.00     0.134 A 
ATOM     78  F   UNL A   1      45.761  32.083  31.631  1.00  0.00    -0.206 F 
ATOM     79  C   UNL A   1      46.336  34.142  30.661  1.00  0.00     0.040 A 
ATOM     80  C   UNL A   1      45.961  34.514  28.311  1.00  0.00     0.040 A 
ATOM     81  F   UNL A   1      44.991  32.831  26.995  1.00  0.00    -0.206 F 
ATOM     82  C   UNL A   1      46.417  34.973  29.544  1.00  0.00     0.006 A 
ENDBRANCH  58  75
ENDBRANCH  32  33
ENDBRANCH  25  27
ENDBRANCH  24  25
ENDBRANCH  23  24
ENDBRANCH  22  23
ENDBRANCH  21  22
ENDBRANCH   1  21
TORSDOF 17
ENDMDL
