MODEL 1
REMARK VINA RESULT:      -9.4      0.000      0.000
REMARK SMILES C[NH+]1CCC([N@@H+](C)Cc2ccc(C(=O)OCCOCCOC(=O)c3ccc(-c4c5nc(c(-c6c(F)cccc6F)c6ccc([nH]6)c(-c6c(F)cccc6F)c6nc(c(-c7c(F)cccc7F)c7ccc4[nH]7)C=C6)C=C5)cc3)cn2)CC1
REMARK SMILES IDX 17 1 16 2 15 3 13 4 14 5 12 6 9 7 10 8 79 9 11 10 78 11 8 12
REMARK SMILES IDX 6 13 7 14 5 16 1 17 2 18 3 19 81 20 4 22 80 23 18 24 19 25
REMARK SMILES IDX 20 26 21 27 22 28 23 29 24 30 25 31 77 32 26 33 76 34 27 35
REMARK SMILES IDX 28 36 29 37 70 38 30 39 75 40 69 41 71 42 31 43 74 44 68 45
REMARK SMILES IDX 67 46 32 48 58 49 41 50 57 51 42 52 45 53 56 54 72 55 43 56
REMARK SMILES IDX 44 57 55 59 73 60 46 61 33 62 34 63 39 64 35 65 36 66 38 67
REMARK SMILES IDX 40 68 37 69 59 70 60 71 65 72 61 73 62 74 64 75 66 76 63 77
REMARK SMILES IDX 47 78 48 79 53 80 49 81 50 82 52 83 54 84 51 85
REMARK H PARENT 6 15 2 21 71 47 45 58
REMARK Flexibility Score: inf
ROOT
ATOM      1  C   UNL A   1      34.813  35.221  33.832  1.00  0.00     0.202 C 
ENDROOT
BRANCH   1   2
ATOM      2  C   UNL A   1      36.184  34.555  33.967  1.00  0.00     0.261 C 
BRANCH   2   3
ATOM      3  O   UNL A   1      36.063  33.279  34.616  1.00  0.00    -0.460 OA
BRANCH   3   4
ATOM      4  C   UNL A   1      36.964  33.072  35.601  1.00  0.00     0.339 C 
ATOM      5  O   UNL A   1      37.043  33.669  36.666  1.00  0.00    -0.246 OA
BRANCH   4   6
ATOM      6  C   UNL A   1      37.761  31.876  35.317  1.00  0.00     0.078 A 
ATOM      7  C   UNL A   1      39.686  29.974  34.957  1.00  0.00     0.095 A 
ATOM      8  C   UNL A   1      38.867  30.319  33.874  1.00  0.00     0.031 A 
ATOM      9  N   UNL A   1      39.429  30.395  36.221  1.00  0.00    -0.254 NA
ATOM     10  C   UNL A   1      37.877  31.286  34.060  1.00  0.00     0.019 A 
ATOM     11  C   UNL A   1      38.503  31.363  36.368  1.00  0.00     0.127 A 
BRANCH   7  12
ATOM     12  C   UNL A   1      41.049  29.342  34.720  1.00  0.00     0.319 C 
BRANCH  12  13
ATOM     13  N   UNL A   1      41.847  29.008  35.932  1.00  0.00    -0.330 N 
ATOM     14  C   UNL A   1      43.038  29.852  36.052  1.00  0.00     0.333 C 
ATOM     15  H   UNL A   1      41.195  29.233  36.683  1.00  0.00     0.348 HD
BRANCH  13  16
ATOM     16  C   UNL A   1      42.135  27.577  36.215  1.00  0.00     0.195 C 
ATOM     17  C   UNL A   1      43.928  23.666  35.709  1.00  0.00     0.332 C 
ATOM     18  N   UNL A   1      43.533  25.070  35.648  1.00  0.00    -0.337 N 
ATOM     19  C   UNL A   1      43.787  25.739  36.930  1.00  0.00     0.268 C 
ATOM     20  C   UNL A   1      42.118  25.211  35.289  1.00  0.00     0.268 C 
ATOM     21  H   UNL A   1      44.097  25.514  34.923  1.00  0.00     0.347 HD
ATOM     22  C   UNL A   1      43.519  27.239  36.811  1.00  0.00     0.126 C 
ATOM     23  C   UNL A   1      41.805  26.681  35.010  1.00  0.00     0.126 C 
ENDBRANCH  13  16
ENDBRANCH  12  13
ENDBRANCH   7  12
ENDBRANCH   4   6
ENDBRANCH   3   4
ENDBRANCH   2   3
ENDBRANCH   1   2
BRANCH   1  24
ATOM     24  O   UNL A   1      34.709  36.297  32.899  1.00  0.00    -0.374 OA
BRANCH  24  25
ATOM     25  C   UNL A   1      33.424  36.881  32.687  1.00  0.00     0.202 C 
BRANCH  25  26
ATOM     26  C   UNL A   1      32.722  36.588  31.356  1.00  0.00     0.261 C 
BRANCH  26  27
ATOM     27  O   UNL A   1      32.812  35.203  30.981  1.00  0.00    -0.460 OA
BRANCH  27  28
ATOM     28  C   UNL A   1      33.224  34.993  29.709  1.00  0.00     0.338 C 
ATOM     29  O   UNL A   1      32.800  35.525  28.693  1.00  0.00    -0.246 OA
BRANCH  28  30
ATOM     30  C   UNL A   1      34.421  34.135  29.701  1.00  0.00     0.060 A 
ATOM     31  C   UNL A   1      34.558  33.212  30.747  1.00  0.00     0.016 A 
ATOM     32  C   UNL A   1      35.426  34.278  28.742  1.00  0.00     0.016 A 
ATOM     33  C   UNL A   1      35.725  32.464  30.867  1.00  0.00     0.010 A 
ATOM     34  C   UNL A   1      36.603  33.534  28.872  1.00  0.00     0.010 A 
ATOM     35  C   UNL A   1      36.771  32.652  29.956  1.00  0.00    -0.014 A 
BRANCH  35  36
ATOM     36  C   UNL A   1      38.092  32.041  30.231  1.00  0.00     0.031 A 
ATOM     37  C   UNL A   1      39.057  32.768  31.125  1.00  0.00     0.074 A 
ATOM     38  C   UNL A   1      38.412  30.838  29.724  1.00  0.00     0.049 A 
ATOM     39  N   UNL A   1      40.268  32.429  31.490  1.00  0.00    -0.248 NA
ATOM     40  C   UNL A   1      38.597  34.050  31.682  1.00  0.00     0.031 C 
ATOM     41  C   UNL A   1      37.546  30.022  28.877  1.00  0.00     0.029 A 
ATOM     42  N   UNL A   1      39.561  30.099  29.848  1.00  0.00    -0.354 N 
ATOM     43  C   UNL A   1      40.714  33.455  32.314  1.00  0.00     0.074 A 
ATOM     44  C   UNL A   1      39.658  34.443  32.372  1.00  0.00     0.031 C 
ATOM     45  C   UNL A   1      38.200  28.894  28.548  1.00  0.00     0.029 A 
ATOM     46  C   UNL A   1      39.536  28.924  29.139  1.00  0.00     0.049 A 
ATOM     47  H   UNL A   1      40.329  30.384  30.394  1.00  0.00     0.167 HD
ATOM     48  C   UNL A   1      41.893  33.560  32.970  1.00  0.00     0.037 A 
ATOM     49  C   UNL A   1      40.492  27.989  28.975  1.00  0.00     0.037 A 
ATOM     50  C   UNL A   1      42.943  32.576  32.913  1.00  0.00     0.049 A 
ATOM     51  C   UNL A   1      41.819  28.159  29.663  1.00  0.00     0.074 A 
ATOM     52  C   UNL A   1      44.166  32.581  33.559  1.00  0.00     0.029 A 
ATOM     53  N   UNL A   1      42.893  31.413  32.159  1.00  0.00    -0.354 N 
ATOM     54  N   UNL A   1      42.222  29.119  30.460  1.00  0.00    -0.248 NA
ATOM     55  C   UNL A   1      42.825  27.114  29.430  1.00  0.00     0.031 C 
ATOM     56  C   UNL A   1      44.875  31.443  33.160  1.00  0.00     0.029 A 
ATOM     57  C   UNL A   1      44.074  30.706  32.304  1.00  0.00     0.049 A 
ATOM     58  H   UNL A   1      42.130  31.133  31.603  1.00  0.00     0.167 HD
ATOM     59  C   UNL A   1      43.514  28.780  30.845  1.00  0.00     0.074 A 
ATOM     60  C   UNL A   1      43.824  27.520  30.201  1.00  0.00     0.031 C 
ATOM     61  C   UNL A   1      44.366  29.451  31.659  1.00  0.00     0.037 A 
BRANCH  48  62
ATOM     62  C   UNL A   1      42.119  34.797  33.788  1.00  0.00     0.057 A 
ATOM     63  C   UNL A   1      42.763  35.924  33.262  1.00  0.00     0.134 A 
ATOM     64  C   UNL A   1      41.664  34.870  35.110  1.00  0.00     0.134 A 
ATOM     65  F   UNL A   1      43.235  35.914  32.006  1.00  0.00    -0.206 F 
ATOM     66  C   UNL A   1      42.968  37.071  34.030  1.00  0.00     0.040 A 
ATOM     67  C   UNL A   1      41.842  36.020  35.881  1.00  0.00     0.040 A 
ATOM     68  F   UNL A   1      41.036  33.826  35.674  1.00  0.00    -0.206 F 
ATOM     69  C   UNL A   1      42.500  37.124  35.343  1.00  0.00     0.006 A 
ENDBRANCH  48  62
BRANCH  49  70
ATOM     70  C   UNL A   1      40.233  26.809  28.113  1.00  0.00     0.057 A 
ATOM     71  C   UNL A   1      40.762  26.723  26.822  1.00  0.00     0.134 A 
ATOM     72  C   UNL A   1      39.437  25.747  28.557  1.00  0.00     0.134 A 
ATOM     73  F   UNL A   1      41.513  27.720  26.332  1.00  0.00    -0.206 F 
ATOM     74  C   UNL A   1      40.498  25.629  25.996  1.00  0.00     0.040 A 
ATOM     75  C   UNL A   1      39.184  24.636  27.752  1.00  0.00     0.040 A 
ATOM     76  F   UNL A   1      38.900  25.770  29.787  1.00  0.00    -0.206 F 
ATOM     77  C   UNL A   1      39.711  24.579  26.463  1.00  0.00     0.006 A 
ENDBRANCH  49  70
BRANCH  61  78
ATOM     78  C   UNL A   1      45.700  28.819  31.928  1.00  0.00     0.057 A 
ATOM     79  C   UNL A   1      45.893  27.919  32.984  1.00  0.00     0.134 A 
ATOM     80  C   UNL A   1      46.794  29.081  31.092  1.00  0.00     0.134 A 
ATOM     81  F   UNL A   1      44.888  27.634  33.826  1.00  0.00    -0.206 F 
ATOM     82  C   UNL A   1      47.133  27.320  33.212  1.00  0.00     0.040 A 
ATOM     83  C   UNL A   1      48.031  28.469  31.297  1.00  0.00     0.040 A 
ATOM     84  F   UNL A   1      46.674  29.926  30.057  1.00  0.00    -0.206 F 
ATOM     85  C   UNL A   1      48.204  27.589  32.363  1.00  0.00     0.006 A 
ENDBRANCH  61  78
ENDBRANCH  35  36
ENDBRANCH  28  30
ENDBRANCH  27  28
ENDBRANCH  26  27
ENDBRANCH  25  26
ENDBRANCH  24  25
ENDBRANCH   1  24
TORSDOF 17
ENDMDL
MODEL 2
REMARK VINA RESULT:      -9.2      5.602     11.305
REMARK SMILES C[NH+]1CCC([N@@H+](C)Cc2ccc(C(=O)OCCOCCOC(=O)c3ccc(-c4c5nc(c(-c6c(F)cccc6F)c6ccc([nH]6)c(-c6c(F)cccc6F)c6nc(c(-c7c(F)cccc7F)c7ccc4[nH]7)C=C6)C=C5)cc3)cn2)CC1
REMARK SMILES IDX 17 1 16 2 15 3 13 4 14 5 12 6 9 7 10 8 79 9 11 10 78 11 8 12
REMARK SMILES IDX 6 13 7 14 5 16 1 17 2 18 3 19 81 20 4 22 80 23 18 24 19 25
REMARK SMILES IDX 20 26 21 27 22 28 23 29 24 30 25 31 77 32 26 33 76 34 27 35
REMARK SMILES IDX 28 36 29 37 70 38 30 39 75 40 69 41 71 42 31 43 74 44 68 45
REMARK SMILES IDX 67 46 32 48 58 49 41 50 57 51 42 52 45 53 56 54 72 55 43 56
REMARK SMILES IDX 44 57 55 59 73 60 46 61 33 62 34 63 39 64 35 65 36 66 38 67
REMARK SMILES IDX 40 68 37 69 59 70 60 71 65 72 61 73 62 74 64 75 66 76 63 77
REMARK SMILES IDX 47 78 48 79 53 80 49 81 50 82 52 83 54 84 51 85
REMARK H PARENT 6 15 2 21 71 47 45 58
REMARK Flexibility Score: inf
ROOT
ATOM      1  C   UNL A   1      42.080  19.254  25.839  1.00  0.00     0.202 C 
ENDROOT
BRANCH   1   2
ATOM      2  C   UNL A   1      41.284  19.995  26.915  1.00  0.00     0.261 C 
BRANCH   2   3
ATOM      3  O   UNL A   1      40.050  20.495  26.375  1.00  0.00    -0.460 OA
BRANCH   3   4
ATOM      4  C   UNL A   1      39.752  21.756  26.755  1.00  0.00     0.339 C 
ATOM      5  O   UNL A   1      40.376  22.460  27.537  1.00  0.00    -0.246 OA
BRANCH   4   6
ATOM      6  C   UNL A   1      38.645  22.280  25.949  1.00  0.00     0.078 A 
ATOM      7  C   UNL A   1      36.331  23.336  24.958  1.00  0.00     0.095 A 
ATOM      8  C   UNL A   1      36.741  22.072  24.514  1.00  0.00     0.031 A 
ATOM      9  N   UNL A   1      37.136  24.139  25.700  1.00  0.00    -0.254 NA
ATOM     10  C   UNL A   1      37.929  21.536  25.015  1.00  0.00     0.019 A 
ATOM     11  C   UNL A   1      38.252  23.583  26.211  1.00  0.00     0.127 A 
BRANCH   7  12
ATOM     12  C   UNL A   1      34.870  23.749  24.862  1.00  0.00     0.319 C 
BRANCH  12  13
ATOM     13  N   UNL A   1      33.924  23.067  25.788  1.00  0.00    -0.330 N 
ATOM     14  C   UNL A   1      34.540  22.777  27.084  1.00  0.00     0.333 C 
ATOM     15  H   UNL A   1      33.199  23.774  25.907  1.00  0.00     0.348 HD
BRANCH  13  16
ATOM     16  C   UNL A   1      33.131  21.921  25.268  1.00  0.00     0.195 C 
ATOM     17  C   UNL A   1      32.304  18.277  23.076  1.00  0.00     0.332 C 
ATOM     18  N   UNL A   1      32.889  19.443  23.731  1.00  0.00    -0.337 N 
ATOM     19  C   UNL A   1      32.669  19.392  25.182  1.00  0.00     0.268 C 
ATOM     20  C   UNL A   1      32.337  20.690  23.191  1.00  0.00     0.268 C 
ATOM     21  H   UNL A   1      33.892  19.425  23.545  1.00  0.00     0.347 HD
ATOM     22  C   UNL A   1      33.416  20.530  25.875  1.00  0.00     0.126 C 
ATOM     23  C   UNL A   1      33.134  21.878  23.731  1.00  0.00     0.126 C 
ENDBRANCH  13  16
ENDBRANCH  12  13
ENDBRANCH   7  12
ENDBRANCH   4   6
ENDBRANCH   3   4
ENDBRANCH   2   3
ENDBRANCH   1   2
BRANCH   1  24
ATOM     24  O   UNL A   1      43.231  19.919  25.317  1.00  0.00    -0.374 OA
BRANCH  24  25
ATOM     25  C   UNL A   1      43.480  21.260  25.734  1.00  0.00     0.202 C 
BRANCH  25  26
ATOM     26  C   UNL A   1      44.221  22.180  24.758  1.00  0.00     0.261 C 
BRANCH  26  27
ATOM     27  O   UNL A   1      43.579  23.459  24.613  1.00  0.00    -0.460 OA
BRANCH  27  28
ATOM     28  C   UNL A   1      44.316  24.508  25.045  1.00  0.00     0.338 C 
ATOM     29  O   UNL A   1      45.427  24.843  24.662  1.00  0.00    -0.246 OA
BRANCH  28  30
ATOM     30  C   UNL A   1      43.516  25.346  25.955  1.00  0.00     0.060 A 
ATOM     31  C   UNL A   1      43.910  26.681  26.113  1.00  0.00     0.016 A 
ATOM     32  C   UNL A   1      42.454  24.824  26.697  1.00  0.00     0.016 A 
ATOM     33  C   UNL A   1      43.277  27.488  27.053  1.00  0.00     0.010 A 
ATOM     34  C   UNL A   1      41.826  25.633  27.649  1.00  0.00     0.010 A 
ATOM     35  C   UNL A   1      42.261  26.955  27.857  1.00  0.00    -0.014 A 
BRANCH  35  36
ATOM     36  C   UNL A   1      41.766  27.738  29.014  1.00  0.00     0.031 A 
ATOM     37  C   UNL A   1      42.493  27.636  30.325  1.00  0.00     0.074 A 
ATOM     38  C   UNL A   1      40.707  28.556  28.887  1.00  0.00     0.049 A 
ATOM     39  N   UNL A   1      42.229  28.217  31.468  1.00  0.00    -0.248 NA
ATOM     40  C   UNL A   1      43.676  26.762  30.352  1.00  0.00     0.031 C 
ATOM     41  C   UNL A   1      39.944  28.767  27.658  1.00  0.00     0.029 A 
ATOM     42  N   UNL A   1      40.090  29.359  29.812  1.00  0.00    -0.354 N 
ATOM     43  C   UNL A   1      43.209  27.777  32.349  1.00  0.00     0.074 A 
ATOM     44  C   UNL A   1      44.054  26.857  31.619  1.00  0.00     0.031 C 
ATOM     45  C   UNL A   1      38.952  29.638  27.909  1.00  0.00     0.029 A 
ATOM     46  C   UNL A   1      38.994  30.023  29.318  1.00  0.00     0.049 A 
ATOM     47  H   UNL A   1      40.402  29.450  30.741  1.00  0.00     0.167 HD
ATOM     48  C   UNL A   1      43.393  28.116  33.647  1.00  0.00     0.037 A 
ATOM     49  C   UNL A   1      38.118  30.835  29.940  1.00  0.00     0.037 A 
ATOM     50  C   UNL A   1      42.552  29.032  34.372  1.00  0.00     0.049 A 
ATOM     51  C   UNL A   1      38.306  31.146  31.400  1.00  0.00     0.074 A 
ATOM     52  C   UNL A   1      42.668  29.455  35.684  1.00  0.00     0.029 A 
ATOM     53  N   UNL A   1      41.434  29.661  33.846  1.00  0.00    -0.354 N 
ATOM     54  N   UNL A   1      39.250  30.746  32.218  1.00  0.00    -0.248 NA
ATOM     55  C   UNL A   1      37.307  32.025  32.024  1.00  0.00     0.031 C 
ATOM     56  C   UNL A   1      41.593  30.306  35.965  1.00  0.00     0.029 A 
ATOM     57  C   UNL A   1      40.836  30.449  34.814  1.00  0.00     0.049 A 
ATOM     58  H   UNL A   1      41.113  29.560  32.920  1.00  0.00     0.167 HD
ATOM     59  C   UNL A   1      38.975  31.344  33.442  1.00  0.00     0.074 A 
ATOM     60  C   UNL A   1      37.781  32.144  33.257  1.00  0.00     0.031 C 
ATOM     61  C   UNL A   1      39.651  31.242  34.613  1.00  0.00     0.037 A 
BRANCH  48  62
ATOM     62  C   UNL A   1      44.536  27.469  34.371  1.00  0.00     0.057 A 
ATOM     63  C   UNL A   1      44.402  26.228  35.007  1.00  0.00     0.134 A 
ATOM     64  C   UNL A   1      45.793  28.085  34.414  1.00  0.00     0.134 A 
ATOM     65  F   UNL A   1      43.221  25.592  35.016  1.00  0.00    -0.206 F 
ATOM     66  C   UNL A   1      45.472  25.634  35.679  1.00  0.00     0.040 A 
ATOM     67  C   UNL A   1      46.876  27.491  35.062  1.00  0.00     0.040 A 
ATOM     68  F   UNL A   1      45.989  29.274  33.822  1.00  0.00    -0.206 F 
ATOM     69  C   UNL A   1      46.716  26.263  35.702  1.00  0.00     0.006 A 
ENDBRANCH  48  62
BRANCH  49  70
ATOM     70  C   UNL A   1      36.976  31.407  29.186  1.00  0.00     0.057 A 
ATOM     71  C   UNL A   1      35.840  30.642  28.898  1.00  0.00     0.134 A 
ATOM     72  C   UNL A   1      36.999  32.728  28.724  1.00  0.00     0.134 A 
ATOM     73  F   UNL A   1      35.770  29.364  29.294  1.00  0.00    -0.206 F 
ATOM     74  C   UNL A   1      34.774  31.166  28.163  1.00  0.00     0.040 A 
ATOM     75  C   UNL A   1      35.931  33.272  28.009  1.00  0.00     0.040 A 
ATOM     76  F   UNL A   1      38.060  33.513  28.968  1.00  0.00    -0.206 F 
ATOM     77  C   UNL A   1      34.817  32.487  27.722  1.00  0.00     0.006 A 
ENDBRANCH  49  70
BRANCH  61  78
ATOM     78  C   UNL A   1      39.136  32.040  35.775  1.00  0.00     0.057 A 
ATOM     79  C   UNL A   1      39.476  33.387  35.955  1.00  0.00     0.134 A 
ATOM     80  C   UNL A   1      38.254  31.465  36.700  1.00  0.00     0.134 A 
ATOM     81  F   UNL A   1      40.324  33.993  35.111  1.00  0.00    -0.206 F 
ATOM     82  C   UNL A   1      38.975  34.127  37.027  1.00  0.00     0.040 A 
ATOM     83  C   UNL A   1      37.728  32.202  37.761  1.00  0.00     0.040 A 
ATOM     84  F   UNL A   1      37.881  30.183  36.579  1.00  0.00    -0.206 F 
ATOM     85  C   UNL A   1      38.093  33.536  37.930  1.00  0.00     0.006 A 
ENDBRANCH  61  78
ENDBRANCH  35  36
ENDBRANCH  28  30
ENDBRANCH  27  28
ENDBRANCH  26  27
ENDBRANCH  25  26
ENDBRANCH  24  25
ENDBRANCH   1  24
TORSDOF 17
ENDMDL
MODEL 3
REMARK VINA RESULT:      -9.2      5.367     11.119
REMARK SMILES C[NH+]1CCC([N@@H+](C)Cc2ccc(C(=O)OCCOCCOC(=O)c3ccc(-c4c5nc(c(-c6c(F)cccc6F)c6ccc([nH]6)c(-c6c(F)cccc6F)c6nc(c(-c7c(F)cccc7F)c7ccc4[nH]7)C=C6)C=C5)cc3)cn2)CC1
REMARK SMILES IDX 17 1 16 2 15 3 13 4 14 5 12 6 9 7 10 8 79 9 11 10 78 11 8 12
REMARK SMILES IDX 6 13 7 14 5 16 1 17 2 18 3 19 81 20 4 22 80 23 18 24 19 25
REMARK SMILES IDX 20 26 21 27 22 28 23 29 24 30 25 31 77 32 26 33 76 34 27 35
REMARK SMILES IDX 28 36 29 37 70 38 30 39 75 40 69 41 71 42 31 43 74 44 68 45
REMARK SMILES IDX 67 46 32 48 58 49 41 50 57 51 42 52 45 53 56 54 72 55 43 56
REMARK SMILES IDX 44 57 55 59 73 60 46 61 33 62 34 63 39 64 35 65 36 66 38 67
REMARK SMILES IDX 40 68 37 69 59 70 60 71 65 72 61 73 62 74 64 75 66 76 63 77
REMARK SMILES IDX 47 78 48 79 53 80 49 81 50 82 52 83 54 84 51 85
REMARK H PARENT 6 15 2 21 71 47 45 58
REMARK Flexibility Score: inf
ROOT
ATOM      1  C   UNL A   1      42.612  19.172  25.889  1.00  0.00     0.202 C 
ENDROOT
BRANCH   1   2
ATOM      2  C   UNL A   1      42.073  19.853  27.149  1.00  0.00     0.261 C 
BRANCH   2   3
ATOM      3  O   UNL A   1      40.677  20.155  27.001  1.00  0.00    -0.460 OA
BRANCH   3   4
ATOM      4  C   UNL A   1      40.359  21.441  27.263  1.00  0.00     0.339 C 
ATOM      5  O   UNL A   1      40.924  22.198  28.040  1.00  0.00    -0.246 OA
BRANCH   4   6
ATOM      6  C   UNL A   1      39.325  21.907  26.335  1.00  0.00     0.078 A 
ATOM      7  C   UNL A   1      37.115  22.913  25.088  1.00  0.00     0.095 A 
ATOM      8  C   UNL A   1      37.511  21.600  24.804  1.00  0.00     0.031 A 
ATOM      9  N   UNL A   1      37.896  23.768  25.797  1.00  0.00    -0.254 NA
ATOM     10  C   UNL A   1      38.646  21.088  25.436  1.00  0.00     0.019 A 
ATOM     11  C   UNL A   1      38.958  23.239  26.436  1.00  0.00     0.127 A 
BRANCH   7  12
ATOM     12  C   UNL A   1      35.677  23.352  24.852  1.00  0.00     0.319 C 
BRANCH  12  13
ATOM     13  N   UNL A   1      34.758  23.275  26.021  1.00  0.00    -0.330 N 
ATOM     14  C   UNL A   1      34.357  21.897  26.312  1.00  0.00     0.333 C 
ATOM     15  H   UNL A   1      35.347  23.623  26.777  1.00  0.00     0.348 HD
BRANCH  13  16
ATOM     16  C   UNL A   1      33.615  24.224  26.083  1.00  0.00     0.195 C 
ATOM     17  C   UNL A   1      30.768  27.175  24.687  1.00  0.00     0.332 C 
ATOM     18  N   UNL A   1      31.811  26.167  24.845  1.00  0.00    -0.337 N 
ATOM     19  C   UNL A   1      31.247  24.906  25.342  1.00  0.00     0.268 C 
ATOM     20  C   UNL A   1      32.865  26.629  25.754  1.00  0.00     0.268 C 
ATOM     21  H   UNL A   1      32.224  26.009  23.925  1.00  0.00     0.347 HD
ATOM     22  C   UNL A   1      32.315  23.813  25.356  1.00  0.00     0.126 C 
ATOM     23  C   UNL A   1      34.041  25.654  25.713  1.00  0.00     0.126 C 
ENDBRANCH  13  16
ENDBRANCH  12  13
ENDBRANCH   7  12
ENDBRANCH   4   6
ENDBRANCH   3   4
ENDBRANCH   2   3
ENDBRANCH   1   2
BRANCH   1  24
ATOM     24  O   UNL A   1      43.397  19.976  25.007  1.00  0.00    -0.374 OA
BRANCH  24  25
ATOM     25  C   UNL A   1      43.880  21.228  25.491  1.00  0.00     0.202 C 
BRANCH  25  26
ATOM     26  C   UNL A   1      44.265  22.289  24.454  1.00  0.00     0.261 C 
BRANCH  26  27
ATOM     27  O   UNL A   1      43.535  23.516  24.625  1.00  0.00    -0.460 OA
BRANCH  27  28
ATOM     28  C   UNL A   1      44.277  24.549  25.086  1.00  0.00     0.338 C 
ATOM     29  O   UNL A   1      45.401  24.874  24.730  1.00  0.00    -0.246 OA
BRANCH  28  30
ATOM     30  C   UNL A   1      43.470  25.387  25.989  1.00  0.00     0.060 A 
ATOM     31  C   UNL A   1      43.849  26.728  26.134  1.00  0.00     0.016 A 
ATOM     32  C   UNL A   1      42.415  24.860  26.738  1.00  0.00     0.016 A 
ATOM     33  C   UNL A   1      43.209  27.536  27.068  1.00  0.00     0.010 A 
ATOM     34  C   UNL A   1      41.780  25.671  27.684  1.00  0.00     0.010 A 
ATOM     35  C   UNL A   1      42.200  27.000  27.879  1.00  0.00    -0.014 A 
BRANCH  35  36
ATOM     36  C   UNL A   1      41.699  27.788  29.029  1.00  0.00     0.031 A 
ATOM     37  C   UNL A   1      42.426  27.701  30.342  1.00  0.00     0.074 A 
ATOM     38  C   UNL A   1      40.635  28.599  28.895  1.00  0.00     0.049 A 
ATOM     39  N   UNL A   1      42.157  28.289  31.480  1.00  0.00    -0.248 NA
ATOM     40  C   UNL A   1      43.614  26.835  30.377  1.00  0.00     0.031 C 
ATOM     41  C   UNL A   1      39.873  28.795  27.664  1.00  0.00     0.029 A 
ATOM     42  N   UNL A   1      40.012  29.405  29.813  1.00  0.00    -0.354 N 
ATOM     43  C   UNL A   1      43.138  27.862  32.365  1.00  0.00     0.074 A 
ATOM     44  C   UNL A   1      43.990  26.942  31.643  1.00  0.00     0.031 C 
ATOM     45  C   UNL A   1      38.875  29.662  27.906  1.00  0.00     0.029 A 
ATOM     46  C   UNL A   1      38.913  30.058  29.313  1.00  0.00     0.049 A 
ATOM     47  H   UNL A   1      40.323  29.505  30.742  1.00  0.00     0.167 HD
ATOM     48  C   UNL A   1      43.318  28.211  33.661  1.00  0.00     0.037 A 
ATOM     49  C   UNL A   1      38.031  30.869  29.927  1.00  0.00     0.037 A 
ATOM     50  C   UNL A   1      42.471  29.128  34.378  1.00  0.00     0.049 A 
ATOM     51  C   UNL A   1      38.215  31.193  31.385  1.00  0.00     0.074 A 
ATOM     52  C   UNL A   1      42.583  29.562  35.687  1.00  0.00     0.029 A 
ATOM     53  N   UNL A   1      41.350  29.745  33.846  1.00  0.00    -0.354 N 
ATOM     54  N   UNL A   1      39.160  30.804  32.207  1.00  0.00    -0.248 NA
ATOM     55  C   UNL A   1      37.210  32.070  32.002  1.00  0.00     0.031 C 
ATOM     56  C   UNL A   1      41.502  30.408  35.960  1.00  0.00     0.029 A 
ATOM     57  C   UNL A   1      40.745  30.537  34.808  1.00  0.00     0.049 A 
ATOM     58  H   UNL A   1      41.030  29.636  32.920  1.00  0.00     0.167 HD
ATOM     59  C   UNL A   1      38.880  31.410  33.426  1.00  0.00     0.074 A 
ATOM     60  C   UNL A   1      37.681  32.200  33.234  1.00  0.00     0.031 C 
ATOM     61  C   UNL A   1      39.555  31.321  34.599  1.00  0.00     0.037 A 
BRANCH  48  62
ATOM     62  C   UNL A   1      44.465  27.577  34.392  1.00  0.00     0.057 A 
ATOM     63  C   UNL A   1      45.727  28.181  34.453  1.00  0.00     0.134 A 
ATOM     64  C   UNL A   1      44.297  26.359  35.062  1.00  0.00     0.134 A 
ATOM     65  F   UNL A   1      45.958  29.341  33.820  1.00  0.00    -0.206 F 
ATOM     66  C   UNL A   1      46.788  27.583  35.136  1.00  0.00     0.040 A 
ATOM     67  C   UNL A   1      45.343  25.764  35.767  1.00  0.00     0.040 A 
ATOM     68  F   UNL A   1      43.111  25.730  35.045  1.00  0.00    -0.206 F 
ATOM     69  C   UNL A   1      46.595  26.374  35.802  1.00  0.00     0.006 A 
ENDBRANCH  48  62
BRANCH  49  70
ATOM     70  C   UNL A   1      36.886  31.428  29.168  1.00  0.00     0.057 A 
ATOM     71  C   UNL A   1      35.765  30.647  28.864  1.00  0.00     0.134 A 
ATOM     72  C   UNL A   1      36.891  32.753  28.716  1.00  0.00     0.134 A 
ATOM     73  F   UNL A   1      35.712  29.365  29.250  1.00  0.00    -0.206 F 
ATOM     74  C   UNL A   1      34.697  31.159  28.125  1.00  0.00     0.040 A 
ATOM     75  C   UNL A   1      35.821  33.285  27.996  1.00  0.00     0.040 A 
ATOM     76  F   UNL A   1      37.937  33.553  28.975  1.00  0.00    -0.206 F 
ATOM     77  C   UNL A   1      34.722  32.484  27.693  1.00  0.00     0.006 A 
ENDBRANCH  49  70
BRANCH  61  78
ATOM     78  C   UNL A   1      39.034  32.125  35.754  1.00  0.00     0.057 A 
ATOM     79  C   UNL A   1      38.211  31.560  36.737  1.00  0.00     0.134 A 
ATOM     80  C   UNL A   1      39.395  33.470  35.907  1.00  0.00     0.134 A 
ATOM     81  F   UNL A   1      37.820  30.280  36.642  1.00  0.00    -0.206 F 
ATOM     82  C   UNL A   1      37.748  32.310  37.819  1.00  0.00     0.040 A 
ATOM     83  C   UNL A   1      38.959  34.223  36.997  1.00  0.00     0.040 A 
ATOM     84  F   UNL A   1      40.188  34.069  35.006  1.00  0.00    -0.206 F 
ATOM     85  C   UNL A   1      38.128  33.644  37.954  1.00  0.00     0.006 A 
ENDBRANCH  61  78
ENDBRANCH  35  36
ENDBRANCH  28  30
ENDBRANCH  27  28
ENDBRANCH  26  27
ENDBRANCH  25  26
ENDBRANCH  24  25
ENDBRANCH   1  24
TORSDOF 17
ENDMDL
