MODEL 1
REMARK VINA RESULT:     -11.0      0.000      0.000
REMARK SMILES O=C(Cc1ccc(F)c(F)c1)NC1(C(=O)OCCOCCOC(=O)c2ccc(-c3c4nc(c(-c5c(F)cccc5F)c5ccc([nH]5)c(-c5c(F)cccc5F)c5nc(c(-c6c(F)cccc6F)c6ccc3[nH]6)C=C5)C=C4)cc2)CCCC1
REMARK SMILES IDX 18 1 17 2 16 3 14 4 15 5 13 6 79 7 82 8 80 9 81 10 12 11
REMARK SMILES IDX 1 12 2 13 3 15 4 16 5 17 11 18 6 19 9 20 7 21 10 22 8 23
REMARK SMILES IDX 19 24 20 25 21 26 22 27 23 28 24 29 25 30 26 31 78 32 27 33
REMARK SMILES IDX 77 34 28 35 29 36 30 37 71 38 31 39 76 40 70 41 72 42 32 43
REMARK SMILES IDX 75 44 69 45 68 46 33 48 59 49 42 50 58 51 43 52 46 53 57 54
REMARK SMILES IDX 73 55 44 56 45 57 56 59 74 60 47 61 34 62 35 63 40 64 36 65
REMARK SMILES IDX 37 66 39 67 41 68 38 69 60 70 61 71 66 72 62 73 63 74 65 75
REMARK SMILES IDX 67 76 64 77 48 78 49 79 54 80 50 81 51 82 53 83 55 84 52 85
REMARK H PARENT 12 14 72 47 46 58
REMARK Flexibility Score: inf
ROOT
ATOM      1  C   UNL A   1      33.470  30.441  27.299  1.00  0.00     0.202 C 
ENDROOT
BRANCH   1   2
ATOM      2  C   UNL A   1      34.354  29.311  26.756  1.00  0.00     0.261 C 
BRANCH   2   3
ATOM      3  O   UNL A   1      33.543  28.210  26.313  1.00  0.00    -0.461 OA
BRANCH   3   4
ATOM      4  C   UNL A   1      33.573  27.982  24.970  1.00  0.00     0.331 C 
ATOM      5  O   UNL A   1      34.364  28.509  24.194  1.00  0.00    -0.249 OA
BRANCH   4   6
ATOM      6  C   UNL A   1      32.519  26.913  24.542  1.00  0.00     0.138 C 
ATOM      7  C   UNL A   1      32.596  25.767  25.569  1.00  0.00     0.040 C 
ATOM      8  C   UNL A   1      32.811  26.148  23.237  1.00  0.00     0.040 C 
ATOM      9  C   UNL A   1      33.803  24.951  25.123  1.00  0.00     0.003 C 
ATOM     10  C   UNL A   1      33.791  25.030  23.602  1.00  0.00     0.003 C 
BRANCH   6  11
ATOM     11  N   UNL A   1      31.156  27.485  24.540  1.00  0.00    -0.340 N 
ATOM     12  O   UNL A   1      31.466  28.919  22.777  1.00  0.00    -0.275 OA
ATOM     13  C   UNL A   1      30.722  28.382  23.588  1.00  0.00     0.225 C 
ATOM     14  H   UNL A   1      30.532  27.214  25.251  1.00  0.00     0.164 HD
BRANCH  13  15
ATOM     15  C   UNL A   1      29.230  28.646  23.571  1.00  0.00     0.135 C 
BRANCH  15  16
ATOM     16  C   UNL A   1      28.815  29.901  22.828  1.00  0.00    -0.036 A 
ATOM     17  C   UNL A   1      28.316  29.890  21.513  1.00  0.00     0.007 A 
ATOM     18  C   UNL A   1      28.980  31.140  23.471  1.00  0.00     0.046 A 
ATOM     19  C   UNL A   1      27.954  31.081  20.875  1.00  0.00     0.043 A 
ATOM     20  C   UNL A   1      28.623  32.321  22.826  1.00  0.00     0.159 A 
ATOM     21  C   UNL A   1      28.105  32.291  21.539  1.00  0.00     0.158 A 
ATOM     22  F   UNL A   1      28.782  33.488  23.464  1.00  0.00    -0.204 F 
ATOM     23  F   UNL A   1      27.751  33.428  20.925  1.00  0.00    -0.204 F 
ENDBRANCH  15  16
ENDBRANCH  13  15
ENDBRANCH   6  11
ENDBRANCH   4   6
ENDBRANCH   3   4
ENDBRANCH   2   3
ENDBRANCH   1   2
BRANCH   1  24
ATOM     24  O   UNL A   1      32.194  30.622  26.681  1.00  0.00    -0.374 OA
BRANCH  24  25
ATOM     25  C   UNL A   1      31.567  31.891  26.852  1.00  0.00     0.202 C 
BRANCH  25  26
ATOM     26  C   UNL A   1      32.503  33.096  26.978  1.00  0.00     0.261 C 
BRANCH  26  27
ATOM     27  O   UNL A   1      32.191  33.896  28.130  1.00  0.00    -0.460 OA
BRANCH  27  28
ATOM     28  C   UNL A   1      33.200  34.697  28.540  1.00  0.00     0.338 C 
ATOM     29  O   UNL A   1      33.163  35.903  28.744  1.00  0.00    -0.246 OA
BRANCH  28  30
ATOM     30  C   UNL A   1      34.373  33.879  28.884  1.00  0.00     0.060 A 
ATOM     31  C   UNL A   1      34.192  32.844  29.811  1.00  0.00     0.016 A 
ATOM     32  C   UNL A   1      35.638  34.167  28.369  1.00  0.00     0.016 A 
ATOM     33  C   UNL A   1      35.289  32.125  30.275  1.00  0.00     0.010 A 
ATOM     34  C   UNL A   1      36.741  33.456  28.847  1.00  0.00     0.010 A 
ATOM     35  C   UNL A   1      36.572  32.464  29.830  1.00  0.00    -0.014 A 
BRANCH  35  36
ATOM     36  C   UNL A   1      37.757  31.929  30.535  1.00  0.00     0.031 A 
ATOM     37  C   UNL A   1      38.551  30.843  29.871  1.00  0.00     0.074 A 
ATOM     38  C   UNL A   1      38.112  32.391  31.746  1.00  0.00     0.049 A 
ATOM     39  N   UNL A   1      39.545  30.134  30.337  1.00  0.00    -0.248 NA
ATOM     40  C   UNL A   1      38.159  30.501  28.494  1.00  0.00     0.031 C 
ATOM     41  C   UNL A   1      37.444  33.473  32.464  1.00  0.00     0.029 A 
ATOM     42  N   UNL A   1      39.110  31.983  32.592  1.00  0.00    -0.354 N 
ATOM     43  C   UNL A   1      39.884  29.250  29.321  1.00  0.00     0.074 A 
ATOM     44  C   UNL A   1      38.977  29.497  28.221  1.00  0.00     0.031 C 
ATOM     45  C   UNL A   1      38.030  33.621  33.664  1.00  0.00     0.029 A 
ATOM     46  C   UNL A   1      39.086  32.619  33.807  1.00  0.00     0.049 A 
ATOM     47  H   UNL A   1      39.777  31.300  32.352  1.00  0.00     0.167 HD
ATOM     48  C   UNL A   1      40.864  28.317  29.308  1.00  0.00     0.037 A 
ATOM     49  C   UNL A   1      39.809  32.389  34.920  1.00  0.00     0.037 A 
ATOM     50  C   UNL A   1      41.761  28.079  30.406  1.00  0.00     0.049 A 
ATOM     51  C   UNL A   1      40.854  31.308  34.911  1.00  0.00     0.074 A 
ATOM     52  C   UNL A   1      42.807  27.179  30.488  1.00  0.00     0.029 A 
ATOM     53  N   UNL A   1      41.706  28.746  31.623  1.00  0.00    -0.354 N 
ATOM     54  N   UNL A   1      41.186  30.489  33.941  1.00  0.00    -0.248 NA
ATOM     55  C   UNL A   1      41.627  31.117  36.146  1.00  0.00     0.031 C 
ATOM     56  C   UNL A   1      43.353  27.264  31.774  1.00  0.00     0.029 A 
ATOM     57  C   UNL A   1      42.682  28.255  32.474  1.00  0.00     0.049 A 
ATOM     58  H   UNL A   1      41.068  29.461  31.848  1.00  0.00     0.167 HD
ATOM     59  C   UNL A   1      42.220  29.705  34.437  1.00  0.00     0.074 A 
ATOM     60  C   UNL A   1      42.462  30.146  35.796  1.00  0.00     0.031 C 
ATOM     61  C   UNL A   1      42.912  28.715  33.821  1.00  0.00     0.037 A 
BRANCH  48  62
ATOM     62  C   UNL A   1      40.975  27.458  28.083  1.00  0.00     0.057 A 
ATOM     63  C   UNL A   1      41.778  27.815  26.992  1.00  0.00     0.134 A 
ATOM     64  C   UNL A   1      40.255  26.259  27.989  1.00  0.00     0.134 A 
ATOM     65  F   UNL A   1      42.480  28.958  27.010  1.00  0.00    -0.206 F 
ATOM     66  C   UNL A   1      41.834  27.030  25.839  1.00  0.00     0.040 A 
ATOM     67  C   UNL A   1      40.325  25.452  26.854  1.00  0.00     0.040 A 
ATOM     68  F   UNL A   1      39.468  25.857  29.000  1.00  0.00    -0.206 F 
ATOM     69  C   UNL A   1      41.108  25.842  25.769  1.00  0.00     0.006 A 
ENDBRANCH  48  62
BRANCH  49  70
ATOM     70  C   UNL A   1      39.539  33.190  36.138  1.00  0.00     0.057 A 
ATOM     71  C   UNL A   1      40.179  34.412  36.363  1.00  0.00     0.134 A 
ATOM     72  C   UNL A   1      38.603  32.766  37.091  1.00  0.00     0.134 A 
ATOM     73  F   UNL A   1      41.100  34.861  35.497  1.00  0.00    -0.206 F 
ATOM     74  C   UNL A   1      39.900  35.186  37.491  1.00  0.00     0.040 A 
ATOM     75  C   UNL A   1      38.298  33.539  38.212  1.00  0.00     0.040 A 
ATOM     76  F   UNL A   1      37.952  31.604  36.930  1.00  0.00    -0.206 F 
ATOM     77  C   UNL A   1      38.950  34.753  38.415  1.00  0.00     0.006 A 
ENDBRANCH  49  70
BRANCH  61  78
ATOM     78  C   UNL A   1      44.023  28.061  34.586  1.00  0.00     0.057 A 
ATOM     79  C   UNL A   1      43.805  26.939  35.394  1.00  0.00     0.134 A 
ATOM     80  C   UNL A   1      45.343  28.510  34.442  1.00  0.00     0.134 A 
ATOM     81  F   UNL A   1      42.563  26.467  35.581  1.00  0.00    -0.206 F 
ATOM     82  C   UNL A   1      44.861  26.287  36.034  1.00  0.00     0.040 A 
ATOM     83  C   UNL A   1      46.408  27.854  35.059  1.00  0.00     0.040 A 
ATOM     84  F   UNL A   1      45.619  29.575  33.674  1.00  0.00    -0.206 F 
ATOM     85  C   UNL A   1      46.167  26.739  35.858  1.00  0.00     0.006 A 
ENDBRANCH  61  78
ENDBRANCH  35  36
ENDBRANCH  28  30
ENDBRANCH  27  28
ENDBRANCH  26  27
ENDBRANCH  25  26
ENDBRANCH  24  25
ENDBRANCH   1  24
TORSDOF 17
ENDMDL
MODEL 2
REMARK VINA RESULT:     -10.9      5.642     10.671
REMARK SMILES O=C(Cc1ccc(F)c(F)c1)NC1(C(=O)OCCOCCOC(=O)c2ccc(-c3c4nc(c(-c5c(F)cccc5F)c5ccc([nH]5)c(-c5c(F)cccc5F)c5nc(c(-c6c(F)cccc6F)c6ccc3[nH]6)C=C5)C=C4)cc2)CCCC1
REMARK SMILES IDX 18 1 17 2 16 3 14 4 15 5 13 6 79 7 82 8 80 9 81 10 12 11
REMARK SMILES IDX 1 12 2 13 3 15 4 16 5 17 11 18 6 19 9 20 7 21 10 22 8 23
REMARK SMILES IDX 19 24 20 25 21 26 22 27 23 28 24 29 25 30 26 31 78 32 27 33
REMARK SMILES IDX 77 34 28 35 29 36 30 37 71 38 31 39 76 40 70 41 72 42 32 43
REMARK SMILES IDX 75 44 69 45 68 46 33 48 59 49 42 50 58 51 43 52 46 53 57 54
REMARK SMILES IDX 73 55 44 56 45 57 56 59 74 60 47 61 34 62 35 63 40 64 36 65
REMARK SMILES IDX 37 66 39 67 41 68 38 69 60 70 61 71 66 72 62 73 63 74 65 75
REMARK SMILES IDX 67 76 64 77 48 78 49 79 54 80 50 81 51 82 53 83 55 84 52 85
REMARK H PARENT 12 14 72 47 46 58
REMARK Flexibility Score: inf
ROOT
ATOM      1  C   UNL A   1      37.437  22.054  25.267  1.00  0.00     0.202 C 
ENDROOT
BRANCH   1   2
ATOM      2  C   UNL A   1      36.226  22.843  25.782  1.00  0.00     0.261 C 
BRANCH   2   3
ATOM      3  O   UNL A   1      36.074  24.066  25.041  1.00  0.00    -0.461 OA
BRANCH   3   4
ATOM      4  C   UNL A   1      35.150  24.018  24.041  1.00  0.00     0.331 C 
ATOM      5  O   UNL A   1      35.393  23.680  22.887  1.00  0.00    -0.249 OA
BRANCH   4   6
ATOM      6  C   UNL A   1      33.722  24.382  24.556  1.00  0.00     0.138 C 
ATOM      7  C   UNL A   1      32.964  25.016  23.374  1.00  0.00     0.040 C 
ATOM      8  C   UNL A   1      33.637  25.518  25.593  1.00  0.00     0.040 C 
ATOM      9  C   UNL A   1      33.466  26.455  23.343  1.00  0.00     0.003 C 
ATOM     10  C   UNL A   1      33.683  26.828  24.803  1.00  0.00     0.003 C 
BRANCH   6  11
ATOM     11  N   UNL A   1      33.002  23.176  25.015  1.00  0.00    -0.340 N 
ATOM     12  O   UNL A   1      32.605  22.289  22.937  1.00  0.00    -0.275 OA
ATOM     13  C   UNL A   1      32.583  22.181  24.157  1.00  0.00     0.225 C 
ATOM     14  H   UNL A   1      32.813  23.078  25.976  1.00  0.00     0.164 HD
BRANCH  13  15
ATOM     15  C   UNL A   1      32.118  20.900  24.818  1.00  0.00     0.135 C 
BRANCH  15  16
ATOM     16  C   UNL A   1      32.709  19.632  24.234  1.00  0.00    -0.036 A 
ATOM     17  C   UNL A   1      32.078  18.878  23.229  1.00  0.00     0.007 A 
ATOM     18  C   UNL A   1      33.928  19.165  24.756  1.00  0.00     0.046 A 
ATOM     19  C   UNL A   1      32.669  17.712  22.731  1.00  0.00     0.043 A 
ATOM     20  C   UNL A   1      34.507  18.000  24.259  1.00  0.00     0.159 A 
ATOM     21  C   UNL A   1      33.885  17.283  23.248  1.00  0.00     0.158 A 
ATOM     22  F   UNL A   1      35.673  17.581  24.768  1.00  0.00    -0.204 F 
ATOM     23  F   UNL A   1      34.449  16.168  22.763  1.00  0.00    -0.204 F 
ENDBRANCH  15  16
ENDBRANCH  13  15
ENDBRANCH   6  11
ENDBRANCH   4   6
ENDBRANCH   3   4
ENDBRANCH   2   3
ENDBRANCH   1   2
BRANCH   1  24
ATOM     24  O   UNL A   1      37.401  20.634  25.424  1.00  0.00    -0.374 OA
BRANCH  24  25
ATOM     25  C   UNL A   1      38.505  19.898  24.902  1.00  0.00     0.202 C 
BRANCH  25  26
ATOM     26  C   UNL A   1      39.492  19.339  25.930  1.00  0.00     0.261 C 
BRANCH  26  27
ATOM     27  O   UNL A   1      40.786  19.102  25.354  1.00  0.00    -0.460 OA
BRANCH  27  28
ATOM     28  C   UNL A   1      41.814  19.233  26.223  1.00  0.00     0.338 C 
ATOM     29  O   UNL A   1      42.651  18.393  26.524  1.00  0.00    -0.246 OA
BRANCH  28  30
ATOM     30  C   UNL A   1      41.908  20.631  26.670  1.00  0.00     0.060 A 
ATOM     31  C   UNL A   1      42.112  21.613  25.691  1.00  0.00     0.016 A 
ATOM     32  C   UNL A   1      41.876  20.966  28.025  1.00  0.00     0.016 A 
ATOM     33  C   UNL A   1      42.342  22.932  26.065  1.00  0.00     0.010 A 
ATOM     34  C   UNL A   1      42.123  22.288  28.401  1.00  0.00     0.010 A 
ATOM     35  C   UNL A   1      42.398  23.262  27.424  1.00  0.00    -0.014 A 
BRANCH  35  36
ATOM     36  C   UNL A   1      42.942  24.574  27.838  1.00  0.00     0.031 A 
ATOM     37  C   UNL A   1      41.976  25.652  28.236  1.00  0.00     0.074 A 
ATOM     38  C   UNL A   1      44.264  24.806  27.846  1.00  0.00     0.049 A 
ATOM     39  N   UNL A   1      42.200  26.910  28.514  1.00  0.00    -0.248 NA
ATOM     40  C   UNL A   1      40.561  25.257  28.320  1.00  0.00     0.031 C 
ATOM     41  C   UNL A   1      45.295  23.821  27.524  1.00  0.00     0.029 A 
ATOM     42  N   UNL A   1      44.962  25.956  28.112  1.00  0.00    -0.354 N 
ATOM     43  C   UNL A   1      40.955  27.461  28.785  1.00  0.00     0.074 A 
ATOM     44  C   UNL A   1      39.977  26.408  28.619  1.00  0.00     0.031 C 
ATOM     45  C   UNL A   1      46.496  24.421  27.576  1.00  0.00     0.029 A 
ATOM     46  C   UNL A   1      46.311  25.836  27.899  1.00  0.00     0.049 A 
ATOM     47  H   UNL A   1      44.535  26.786  28.426  1.00  0.00     0.167 HD
ATOM     48  C   UNL A   1      40.656  28.732  29.141  1.00  0.00     0.037 A 
ATOM     49  C   UNL A   1      47.279  26.772  27.922  1.00  0.00     0.037 A 
ATOM     50  C   UNL A   1      41.635  29.771  29.304  1.00  0.00     0.049 A 
ATOM     51  C   UNL A   1      46.922  28.194  28.260  1.00  0.00     0.074 A 
ATOM     52  C   UNL A   1      41.444  31.085  29.690  1.00  0.00     0.029 A 
ATOM     53  N   UNL A   1      42.995  29.611  29.079  1.00  0.00    -0.354 N 
ATOM     54  N   UNL A   1      45.747  28.706  28.537  1.00  0.00    -0.248 NA
ATOM     55  C   UNL A   1      48.022  29.167  28.292  1.00  0.00     0.031 C 
ATOM     56  C   UNL A   1      42.683  31.734  29.648  1.00  0.00     0.029 A 
ATOM     57  C   UNL A   1      43.653  30.811  29.289  1.00  0.00     0.049 A 
ATOM     58  H   UNL A   1      43.429  28.769  28.810  1.00  0.00     0.167 HD
ATOM     59  C   UNL A   1      45.967  30.053  28.800  1.00  0.00     0.074 A 
ATOM     60  C   UNL A   1      47.391  30.278  28.650  1.00  0.00     0.031 C 
ATOM     61  C   UNL A   1      45.073  31.012  29.143  1.00  0.00     0.037 A 
BRANCH  48  62
ATOM     62  C   UNL A   1      39.205  29.067  29.326  1.00  0.00     0.057 A 
ATOM     63  C   UNL A   1      38.566  28.953  30.567  1.00  0.00     0.134 A 
ATOM     64  C   UNL A   1      38.432  29.498  28.239  1.00  0.00     0.134 A 
ATOM     65  F   UNL A   1      39.244  28.529  31.644  1.00  0.00    -0.206 F 
ATOM     66  C   UNL A   1      37.204  29.223  30.715  1.00  0.00     0.040 A 
ATOM     67  C   UNL A   1      37.077  29.797  28.380  1.00  0.00     0.040 A 
ATOM     68  F   UNL A   1      38.983  29.631  27.022  1.00  0.00    -0.206 F 
ATOM     69  C   UNL A   1      36.456  29.650  29.618  1.00  0.00     0.006 A 
ENDBRANCH  48  62
BRANCH  49  70
ATOM     70  C   UNL A   1      48.670  26.385  27.586  1.00  0.00     0.057 A 
ATOM     71  C   UNL A   1      49.566  25.963  28.573  1.00  0.00     0.134 A 
ATOM     72  C   UNL A   1      49.125  26.395  26.262  1.00  0.00     0.134 A 
ATOM     73  F   UNL A   1      49.195  25.951  29.862  1.00  0.00    -0.206 F 
ATOM     74  C   UNL A   1      50.865  25.563  28.256  1.00  0.00     0.040 A 
ATOM     75  C   UNL A   1      50.414  25.977  25.927  1.00  0.00     0.040 A 
ATOM     76  F   UNL A   1      48.312  26.785  25.269  1.00  0.00    -0.206 F 
ATOM     77  C   UNL A   1      51.289  25.561  26.927  1.00  0.00     0.006 A 
ENDBRANCH  49  70
BRANCH  61  78
ATOM     78  C   UNL A   1      45.600  32.389  29.419  1.00  0.00     0.057 A 
ATOM     79  C   UNL A   1      46.075  32.760  30.681  1.00  0.00     0.134 A 
ATOM     80  C   UNL A   1      45.714  33.325  28.382  1.00  0.00     0.134 A 
ATOM     81  F   UNL A   1      45.986  31.912  31.718  1.00  0.00    -0.206 F 
ATOM     82  C   UNL A   1      46.642  34.017  30.905  1.00  0.00     0.040 A 
ATOM     83  C   UNL A   1      46.298  34.575  28.587  1.00  0.00     0.040 A 
ATOM     84  F   UNL A   1      45.284  33.027  27.146  1.00  0.00    -0.206 F 
ATOM     85  C   UNL A   1      46.763  34.923  29.853  1.00  0.00     0.006 A 
ENDBRANCH  61  78
ENDBRANCH  35  36
ENDBRANCH  28  30
ENDBRANCH  27  28
ENDBRANCH  26  27
ENDBRANCH  25  26
ENDBRANCH  24  25
ENDBRANCH   1  24
TORSDOF 17
ENDMDL
MODEL 3
REMARK VINA RESULT:     -10.8      5.301      9.310
REMARK SMILES O=C(Cc1ccc(F)c(F)c1)NC1(C(=O)OCCOCCOC(=O)c2ccc(-c3c4nc(c(-c5c(F)cccc5F)c5ccc([nH]5)c(-c5c(F)cccc5F)c5nc(c(-c6c(F)cccc6F)c6ccc3[nH]6)C=C5)C=C4)cc2)CCCC1
REMARK SMILES IDX 18 1 17 2 16 3 14 4 15 5 13 6 79 7 82 8 80 9 81 10 12 11
REMARK SMILES IDX 1 12 2 13 3 15 4 16 5 17 11 18 6 19 9 20 7 21 10 22 8 23
REMARK SMILES IDX 19 24 20 25 21 26 22 27 23 28 24 29 25 30 26 31 78 32 27 33
REMARK SMILES IDX 77 34 28 35 29 36 30 37 71 38 31 39 76 40 70 41 72 42 32 43
REMARK SMILES IDX 75 44 69 45 68 46 33 48 59 49 42 50 58 51 43 52 46 53 57 54
REMARK SMILES IDX 73 55 44 56 45 57 56 59 74 60 47 61 34 62 35 63 40 64 36 65
REMARK SMILES IDX 37 66 39 67 41 68 38 69 60 70 61 71 66 72 62 73 63 74 65 75
REMARK SMILES IDX 67 76 64 77 48 78 49 79 54 80 50 81 51 82 53 83 55 84 52 85
REMARK H PARENT 12 14 72 47 46 58
REMARK Flexibility Score: inf
ROOT
ATOM      1  C   UNL A   1      37.043  21.987  25.350  1.00  0.00     0.202 C 
ENDROOT
BRANCH   1   2
ATOM      2  C   UNL A   1      37.090  23.446  24.880  1.00  0.00     0.261 C 
BRANCH   2   3
ATOM      3  O   UNL A   1      35.841  24.102  25.158  1.00  0.00    -0.461 OA
BRANCH   3   4
ATOM      4  C   UNL A   1      34.944  24.084  24.133  1.00  0.00     0.331 C 
ATOM      5  O   UNL A   1      35.231  23.842  22.965  1.00  0.00    -0.249 OA
BRANCH   4   6
ATOM      6  C   UNL A   1      33.489  24.344  24.633  1.00  0.00     0.138 C 
ATOM      7  C   UNL A   1      32.694  24.903  23.438  1.00  0.00     0.040 C 
ATOM      8  C   UNL A   1      33.310  25.483  25.655  1.00  0.00     0.040 C 
ATOM      9  C   UNL A   1      33.084  26.375  23.391  1.00  0.00     0.003 C 
ATOM     10  C   UNL A   1      33.260  26.783  24.848  1.00  0.00     0.003 C 
BRANCH   6  11
ATOM     11  N   UNL A   1      32.860  23.092  25.104  1.00  0.00    -0.340 N 
ATOM     12  O   UNL A   1      32.452  22.198  23.031  1.00  0.00    -0.275 OA
ATOM     13  C   UNL A   1      32.476  22.079  24.250  1.00  0.00     0.225 C 
ATOM     14  H   UNL A   1      32.708  22.976  26.069  1.00  0.00     0.164 HD
BRANCH  13  15
ATOM     15  C   UNL A   1      32.113  20.767  24.914  1.00  0.00     0.135 C 
BRANCH  15  16
ATOM     16  C   UNL A   1      32.705  19.536  24.256  1.00  0.00    -0.036 A 
ATOM     17  C   UNL A   1      32.138  18.914  23.129  1.00  0.00     0.007 A 
ATOM     18  C   UNL A   1      33.855  18.965  24.829  1.00  0.00     0.046 A 
ATOM     19  C   UNL A   1      32.727  17.776  22.567  1.00  0.00     0.043 A 
ATOM     20  C   UNL A   1      34.431  17.829  24.267  1.00  0.00     0.159 A 
ATOM     21  C   UNL A   1      33.876  17.243  23.139  1.00  0.00     0.158 A 
ATOM     22  F   UNL A   1      35.531  17.309  24.827  1.00  0.00    -0.204 F 
ATOM     23  F   UNL A   1      34.438  16.157  22.593  1.00  0.00    -0.204 F 
ENDBRANCH  15  16
ENDBRANCH  13  15
ENDBRANCH   6  11
ENDBRANCH   4   6
ENDBRANCH   3   4
ENDBRANCH   2   3
ENDBRANCH   1   2
BRANCH   1  24
ATOM     24  O   UNL A   1      37.715  21.021  24.539  1.00  0.00    -0.374 OA
BRANCH  24  25
ATOM     25  C   UNL A   1      37.807  19.694  25.053  1.00  0.00     0.202 C 
BRANCH  25  26
ATOM     26  C   UNL A   1      39.205  19.223  25.461  1.00  0.00     0.261 C 
BRANCH  26  27
ATOM     27  O   UNL A   1      39.619  19.799  26.710  1.00  0.00    -0.460 OA
BRANCH  27  28
ATOM     28  C   UNL A   1      40.920  20.165  26.750  1.00  0.00     0.338 C 
ATOM     29  O   UNL A   1      41.889  19.530  26.356  1.00  0.00    -0.246 OA
BRANCH  28  30
ATOM     30  C   UNL A   1      41.028  21.560  27.204  1.00  0.00     0.060 A 
ATOM     31  C   UNL A   1      40.265  22.522  26.528  1.00  0.00     0.016 A 
ATOM     32  C   UNL A   1      41.913  21.930  28.218  1.00  0.00     0.016 A 
ATOM     33  C   UNL A   1      40.427  23.872  26.823  1.00  0.00     0.010 A 
ATOM     34  C   UNL A   1      42.086  23.285  28.503  1.00  0.00     0.010 A 
ATOM     35  C   UNL A   1      41.375  24.259  27.777  1.00  0.00    -0.014 A 
BRANCH  35  36
ATOM     36  C   UNL A   1      41.775  25.679  27.878  1.00  0.00     0.031 A 
ATOM     37  C   UNL A   1      43.105  26.086  27.313  1.00  0.00     0.074 A 
ATOM     38  C   UNL A   1      40.980  26.584  28.472  1.00  0.00     0.049 A 
ATOM     39  N   UNL A   1      43.727  27.233  27.390  1.00  0.00    -0.248 NA
ATOM     40  C   UNL A   1      43.839  25.049  26.569  1.00  0.00     0.031 C 
ATOM     41  C   UNL A   1      39.651  26.312  29.014  1.00  0.00     0.029 A 
ATOM     42  N   UNL A   1      41.194  27.911  28.739  1.00  0.00    -0.354 N 
ATOM     43  C   UNL A   1      44.931  27.052  26.724  1.00  0.00     0.074 A 
ATOM     44  C   UNL A   1      44.964  25.680  26.267  1.00  0.00     0.031 C 
ATOM     45  C   UNL A   1      39.180  27.434  29.584  1.00  0.00     0.029 A 
ATOM     46  C   UNL A   1      40.190  28.486  29.477  1.00  0.00     0.049 A 
ATOM     47  H   UNL A   1      41.989  28.404  28.432  1.00  0.00     0.167 HD
ATOM     48  C   UNL A   1      45.921  27.950  26.513  1.00  0.00     0.037 A 
ATOM     49  C   UNL A   1      40.117  29.709  30.036  1.00  0.00     0.037 A 
ATOM     50  C   UNL A   1      45.880  29.312  26.971  1.00  0.00     0.049 A 
ATOM     51  C   UNL A   1      41.252  30.677  29.844  1.00  0.00     0.074 A 
ATOM     52  C   UNL A   1      46.814  30.314  26.788  1.00  0.00     0.029 A 
ATOM     53  N   UNL A   1      44.844  29.858  27.717  1.00  0.00    -0.354 N 
ATOM     54  N   UNL A   1      42.379  30.509  29.196  1.00  0.00    -0.248 NA
ATOM     55  C   UNL A   1      41.107  32.004  30.459  1.00  0.00     0.031 C 
ATOM     56  C   UNL A   1      46.368  31.453  27.467  1.00  0.00     0.029 A 
ATOM     57  C   UNL A   1      45.131  31.177  28.027  1.00  0.00     0.049 A 
ATOM     58  H   UNL A   1      44.027  29.380  27.985  1.00  0.00     0.167 HD
ATOM     59  C   UNL A   1      43.066  31.712  29.300  1.00  0.00     0.074 A 
ATOM     60  C   UNL A   1      42.227  32.604  30.076  1.00  0.00     0.031 C 
ATOM     61  C   UNL A   1      44.277  32.050  28.793  1.00  0.00     0.037 A 
BRANCH  48  62
ATOM     62  C   UNL A   1      47.147  27.463  25.797  1.00  0.00     0.057 A 
ATOM     63  C   UNL A   1      48.220  26.869  26.475  1.00  0.00     0.134 A 
ATOM     64  C   UNL A   1      47.260  27.604  24.408  1.00  0.00     0.134 A 
ATOM     65  F   UNL A   1      48.183  26.720  27.808  1.00  0.00    -0.206 F 
ATOM     66  C   UNL A   1      49.374  26.464  25.802  1.00  0.00     0.040 A 
ATOM     67  C   UNL A   1      48.396  27.178  23.721  1.00  0.00     0.040 A 
ATOM     68  F   UNL A   1      46.268  28.163  23.697  1.00  0.00    -0.206 F 
ATOM     69  C   UNL A   1      49.463  26.616  24.419  1.00  0.00     0.006 A 
ENDBRANCH  48  62
BRANCH  49  70
ATOM     70  C   UNL A   1      38.930  30.063  30.851  1.00  0.00     0.057 A 
ATOM     71  C   UNL A   1      38.864  29.752  32.213  1.00  0.00     0.134 A 
ATOM     72  C   UNL A   1      37.848  30.756  30.293  1.00  0.00     0.134 A 
ATOM     73  F   UNL A   1      39.860  29.071  32.799  1.00  0.00    -0.206 F 
ATOM     74  C   UNL A   1      37.764  30.117  32.991  1.00  0.00     0.040 A 
ATOM     75  C   UNL A   1      36.753  31.146  31.064  1.00  0.00     0.040 A 
ATOM     76  F   UNL A   1      37.855  31.088  28.993  1.00  0.00    -0.206 F 
ATOM     77  C   UNL A   1      36.708  30.824  32.418  1.00  0.00     0.006 A 
ENDBRANCH  49  70
BRANCH  61  78
ATOM     78  C   UNL A   1      44.761  33.451  29.022  1.00  0.00     0.057 A 
ATOM     79  C   UNL A   1      44.413  34.503  28.168  1.00  0.00     0.134 A 
ATOM     80  C   UNL A   1      45.515  33.763  30.162  1.00  0.00     0.134 A 
ATOM     81  F   UNL A   1      43.702  34.268  27.055  1.00  0.00    -0.206 F 
ATOM     82  C   UNL A   1      44.799  35.818  28.438  1.00  0.00     0.040 A 
ATOM     83  C   UNL A   1      45.888  35.075  30.454  1.00  0.00     0.040 A 
ATOM     84  F   UNL A   1      45.874  32.800  31.025  1.00  0.00    -0.206 F 
ATOM     85  C   UNL A   1      45.530  36.106  29.589  1.00  0.00     0.006 A 
ENDBRANCH  61  78
ENDBRANCH  35  36
ENDBRANCH  28  30
ENDBRANCH  27  28
ENDBRANCH  26  27
ENDBRANCH  25  26
ENDBRANCH  24  25
ENDBRANCH   1  24
TORSDOF 17
ENDMDL
