MODEL 1
REMARK VINA RESULT:     -12.4      0.000      0.000
REMARK SMILES O=C(OCCOCCOC(=O)C1CCN(C2=[NH+]C(Cl)=[NH+]C3=[NH+]C=N[C@@H]32)CC1)c1ccc(-c2c3nc(c(-c4c(F)cccc4F)c4ccc([nH]4)c(-c4c(F)cccc4F)c4nc(c(-c5c(F)cccc5F)c5ccc2[nH]5)C=C4)C=C3)cc1
REMARK SMILES IDX 5 1 4 2 3 3 2 4 1 5 28 6 29 7 81 8 30 9 80 10 31 11 32 12
REMARK SMILES IDX 33 13 74 14 34 15 79 16 73 17 75 18 35 19 78 20 72 21 71 22
REMARK SMILES IDX 36 24 62 25 45 26 61 27 46 28 49 29 60 30 76 31 47 32 48 33
REMARK SMILES IDX 59 35 77 36 50 37 37 38 38 39 43 40 39 41 40 42 42 43 44 44
REMARK SMILES IDX 41 45 63 46 64 47 69 48 65 49 66 50 68 51 70 52 67 53 51 54
REMARK SMILES IDX 52 55 57 56 53 57 54 58 56 59 58 60 55 61 6 62 7 63 8 64
REMARK SMILES IDX 9 65 10 66 11 67 12 68 13 69 27 70 14 71 26 72 15 73 16 74
REMARK SMILES IDX 17 75 25 76 18 77 21 79 24 80 19 81 20 82 22 83 23 84
REMARK H PARENT 75 23 49 34 17 78 20 85 22 86
REMARK Flexibility Score: inf
ROOT
ATOM      1  C   UNL A   1      42.217  18.964  25.747  1.00  0.00     0.202 C 
ENDROOT
BRANCH   1   2
ATOM      2  C   UNL A   1      43.664  18.537  26.038  1.00  0.00     0.261 C 
BRANCH   2   3
ATOM      3  O   UNL A   1      44.498  18.574  24.874  1.00  0.00    -0.460 OA
BRANCH   3   4
ATOM      4  C   UNL A   1      44.700  19.606  24.021  1.00  0.00     0.338 C 
ATOM      5  O   UNL A   1      44.553  19.413  22.822  1.00  0.00    -0.246 OA
BRANCH   4   6
ATOM      6  C   UNL A   1      45.016  20.986  24.489  1.00  0.00     0.060 A 
ATOM      7  C   UNL A   1      45.916  21.317  25.495  1.00  0.00     0.016 A 
ATOM      8  C   UNL A   1      44.247  22.014  23.922  1.00  0.00     0.016 A 
ATOM      9  C   UNL A   1      45.791  22.510  26.166  1.00  0.00     0.010 A 
ATOM     10  C   UNL A   1      44.217  23.271  24.507  1.00  0.00     0.010 A 
ATOM     11  C   UNL A   1      44.886  23.462  25.709  1.00  0.00    -0.014 A 
BRANCH  11  12
ATOM     12  C   UNL A   1      44.710  24.629  26.560  1.00  0.00     0.031 A 
ATOM     13  C   UNL A   1      45.871  25.564  26.620  1.00  0.00     0.074 A 
ATOM     14  C   UNL A   1      43.578  24.853  27.252  1.00  0.00     0.049 A 
ATOM     15  N   UNL A   1      46.556  25.946  27.651  1.00  0.00    -0.248 NA
ATOM     16  C   UNL A   1      46.406  26.035  25.332  1.00  0.00     0.031 C 
ATOM     17  C   UNL A   1      42.280  24.183  27.141  1.00  0.00     0.029 A 
ATOM     18  N   UNL A   1      43.343  25.836  28.157  1.00  0.00    -0.354 N 
ATOM     19  C   UNL A   1      47.520  26.826  27.162  1.00  0.00     0.074 A 
ATOM     20  C   UNL A   1      47.453  26.759  25.725  1.00  0.00     0.031 C 
ATOM     21  C   UNL A   1      41.342  24.942  27.749  1.00  0.00     0.029 A 
ATOM     22  C   UNL A   1      42.002  26.054  28.408  1.00  0.00     0.049 A 
ATOM     23  H   UNL A   1      44.061  26.347  28.596  1.00  0.00     0.167 HD
ATOM     24  C   UNL A   1      48.210  27.686  27.960  1.00  0.00     0.037 A 
ATOM     25  C   UNL A   1      41.476  27.134  29.028  1.00  0.00     0.037 A 
ATOM     26  C   UNL A   1      48.231  27.267  29.331  1.00  0.00     0.049 A 
ATOM     27  C   UNL A   1      42.558  27.783  29.811  1.00  0.00     0.074 A 
ATOM     28  C   UNL A   1      48.750  26.177  30.003  1.00  0.00     0.029 A 
ATOM     29  N   UNL A   1      47.378  27.870  30.220  1.00  0.00    -0.354 N 
ATOM     30  N   UNL A   1      43.106  27.261  30.873  1.00  0.00    -0.248 NA
ATOM     31  C   UNL A   1      43.333  28.831  29.162  1.00  0.00     0.031 C 
ATOM     32  C   UNL A   1      47.817  25.906  31.047  1.00  0.00     0.029 A 
ATOM     33  C   UNL A   1      46.806  26.863  30.956  1.00  0.00     0.049 A 
ATOM     34  H   UNL A   1      47.208  28.835  30.311  1.00  0.00     0.167 HD
ATOM     35  C   UNL A   1      44.446  27.616  30.797  1.00  0.00     0.074 A 
ATOM     36  C   UNL A   1      44.506  28.659  29.777  1.00  0.00     0.031 C 
ATOM     37  C   UNL A   1      45.422  26.849  31.366  1.00  0.00     0.037 A 
BRANCH  24  38
ATOM     38  C   UNL A   1      48.631  29.057  27.510  1.00  0.00     0.057 A 
ATOM     39  C   UNL A   1      49.988  29.417  27.497  1.00  0.00     0.134 A 
ATOM     40  C   UNL A   1      47.722  30.121  27.336  1.00  0.00     0.134 A 
ATOM     41  F   UNL A   1      50.947  28.500  27.693  1.00  0.00    -0.206 F 
ATOM     42  C   UNL A   1      50.405  30.747  27.350  1.00  0.00     0.040 A 
ATOM     43  C   UNL A   1      48.127  31.442  27.137  1.00  0.00     0.040 A 
ATOM     44  F   UNL A   1      46.397  29.947  27.445  1.00  0.00    -0.206 F 
ATOM     45  C   UNL A   1      49.474  31.764  27.168  1.00  0.00     0.006 A 
ENDBRANCH  24  38
BRANCH  25  46
ATOM     46  C   UNL A   1      40.209  27.807  28.682  1.00  0.00     0.057 A 
ATOM     47  C   UNL A   1      39.175  27.929  29.614  1.00  0.00     0.134 A 
ATOM     48  C   UNL A   1      40.075  28.562  27.501  1.00  0.00     0.134 A 
ATOM     49  F   UNL A   1      39.241  27.288  30.790  1.00  0.00    -0.206 F 
ATOM     50  C   UNL A   1      38.068  28.757  29.388  1.00  0.00     0.040 A 
ATOM     51  C   UNL A   1      38.972  29.382  27.256  1.00  0.00     0.040 A 
ATOM     52  F   UNL A   1      41.050  28.594  26.580  1.00  0.00    -0.206 F 
ATOM     53  C   UNL A   1      37.968  29.491  28.207  1.00  0.00     0.006 A 
ENDBRANCH  25  46
BRANCH  37  54
ATOM     54  C   UNL A   1      44.990  25.718  32.259  1.00  0.00     0.057 A 
ATOM     55  C   UNL A   1      44.631  24.450  31.777  1.00  0.00     0.134 A 
ATOM     56  C   UNL A   1      45.092  25.859  33.647  1.00  0.00     0.134 A 
ATOM     57  F   UNL A   1      44.619  24.188  30.464  1.00  0.00    -0.206 F 
ATOM     58  C   UNL A   1      44.333  23.389  32.636  1.00  0.00     0.040 A 
ATOM     59  C   UNL A   1      44.829  24.797  34.516  1.00  0.00     0.040 A 
ATOM     60  F   UNL A   1      45.498  27.022  34.181  1.00  0.00    -0.206 F 
ATOM     61  C   UNL A   1      44.435  23.560  34.013  1.00  0.00     0.006 A 
ENDBRANCH  37  54
ENDBRANCH  11  12
ENDBRANCH   4   6
ENDBRANCH   3   4
ENDBRANCH   2   3
ENDBRANCH   1   2
BRANCH   1  62
ATOM     62  O   UNL A   1      41.832  20.302  26.033  1.00  0.00    -0.374 OA
BRANCH  62  63
ATOM     63  C   UNL A   1      40.475  20.560  26.419  1.00  0.00     0.202 C 
BRANCH  63  64
ATOM     64  C   UNL A   1      39.903  21.972  26.252  1.00  0.00     0.261 C 
BRANCH  64  65
ATOM     65  O   UNL A   1      38.456  21.985  26.239  1.00  0.00    -0.463 OA
BRANCH  65  66
ATOM     66  C   UNL A   1      37.892  23.203  26.036  1.00  0.00     0.309 C 
ATOM     67  O   UNL A   1      38.390  24.259  26.415  1.00  0.00    -0.252 OA
BRANCH  66  68
ATOM     68  C   UNL A   1      36.581  23.181  25.262  1.00  0.00     0.108 C 
ATOM     69  C   UNL A   1      35.264  23.087  26.037  1.00  0.00     0.070 C 
ATOM     70  C   UNL A   1      36.657  22.144  24.130  1.00  0.00     0.070 C 
ATOM     71  C   UNL A   1      34.785  21.676  26.342  1.00  0.00     0.277 C 
ATOM     72  C   UNL A   1      36.247  20.739  24.543  1.00  0.00     0.277 C 
ATOM     73  N   UNL A   1      34.962  20.766  25.216  1.00  0.00    -0.230 N 
ATOM     74  C   UNL A   1      34.007  19.821  24.880  1.00  0.00     0.383 C 
ATOM     75  N   UNL A   1      34.286  18.546  24.850  1.00  0.00    -0.155 N 
ATOM     76  C   UNL A   1      32.624  20.285  24.470  1.00  0.00     0.523 C 
ATOM     77  C   UNL A   1      33.305  17.671  24.437  1.00  0.00     0.414 C 
ATOM     78  H   UNL A   1      35.175  18.217  25.116  1.00  0.00     0.367 HD
ATOM     79  C   UNL A   1      32.192  19.293  23.460  1.00  0.00     0.389 C 
ATOM     80  N   UNL A   1      32.646  21.523  23.658  1.00  0.00     0.003 NA
ATOM     81  Cl  UNL A   1      33.529  16.035  24.886  1.00  0.00     0.028 Cl
ATOM     82  N   UNL A   1      32.259  17.973  23.739  1.00  0.00    -0.155 N 
ATOM     83  N   UNL A   1      31.909  19.807  22.318  1.00  0.00    -0.169 N 
ATOM     84  C   UNL A   1      32.208  21.136  22.495  1.00  0.00     0.532 C 
ATOM     85  H   UNL A   1      31.588  17.317  23.444  1.00  0.00     0.367 HD
ATOM     86  H   UNL A   1      31.564  19.359  21.512  1.00  0.00     0.365 HD
ENDBRANCH  66  68
ENDBRANCH  65  66
ENDBRANCH  64  65
ENDBRANCH  63  64
ENDBRANCH  62  63
ENDBRANCH   1  62
TORSDOF 14
ENDMDL
MODEL 2
REMARK VINA RESULT:     -12.1      6.767     11.393
REMARK SMILES O=C(OCCOCCOC(=O)C1CCN(C2=[NH+]C(Cl)=[NH+]C3=[NH+]C=N[C@@H]32)CC1)c1ccc(-c2c3nc(c(-c4c(F)cccc4F)c4ccc([nH]4)c(-c4c(F)cccc4F)c4nc(c(-c5c(F)cccc5F)c5ccc2[nH]5)C=C4)C=C3)cc1
REMARK SMILES IDX 5 1 4 2 3 3 2 4 1 5 28 6 29 7 81 8 30 9 80 10 31 11 32 12
REMARK SMILES IDX 33 13 74 14 34 15 79 16 73 17 75 18 35 19 78 20 72 21 71 22
REMARK SMILES IDX 36 24 62 25 45 26 61 27 46 28 49 29 60 30 76 31 47 32 48 33
REMARK SMILES IDX 59 35 77 36 50 37 37 38 38 39 43 40 39 41 40 42 42 43 44 44
REMARK SMILES IDX 41 45 63 46 64 47 69 48 65 49 66 50 68 51 70 52 67 53 51 54
REMARK SMILES IDX 52 55 57 56 53 57 54 58 56 59 58 60 55 61 6 62 7 63 8 64
REMARK SMILES IDX 9 65 10 66 11 67 12 68 13 69 27 70 14 71 26 72 15 73 16 74
REMARK SMILES IDX 17 75 25 76 18 77 21 79 24 80 19 81 20 82 22 83 23 84
REMARK H PARENT 75 23 49 34 17 78 20 85 22 86
REMARK Flexibility Score: inf
ROOT
ATOM      1  C   UNL A   1      33.908  35.191  29.201  1.00  0.00     0.202 C 
ENDROOT
BRANCH   1   2
ATOM      2  C   UNL A   1      32.863  36.148  29.792  1.00  0.00     0.261 C 
BRANCH   2   3
ATOM      3  O   UNL A   1      32.980  36.287  31.213  1.00  0.00    -0.460 OA
BRANCH   3   4
ATOM      4  C   UNL A   1      33.029  35.309  32.148  1.00  0.00     0.338 C 
ATOM      5  O   UNL A   1      31.978  34.881  32.605  1.00  0.00    -0.246 OA
BRANCH   4   6
ATOM      6  C   UNL A   1      34.307  34.676  32.586  1.00  0.00     0.060 A 
ATOM      7  C   UNL A   1      35.483  35.351  32.894  1.00  0.00     0.016 A 
ATOM      8  C   UNL A   1      34.330  33.273  32.573  1.00  0.00     0.016 A 
ATOM      9  C   UNL A   1      36.691  34.699  32.816  1.00  0.00     0.010 A 
ATOM     10  C   UNL A   1      35.535  32.592  32.635  1.00  0.00     0.010 A 
ATOM     11  C   UNL A   1      36.716  33.323  32.614  1.00  0.00    -0.014 A 
BRANCH  11  12
ATOM     12  C   UNL A   1      38.030  32.739  32.394  1.00  0.00     0.031 A 
ATOM     13  C   UNL A   1      38.973  32.820  33.549  1.00  0.00     0.074 A 
ATOM     14  C   UNL A   1      38.379  32.165  31.229  1.00  0.00     0.049 A 
ATOM     15  N   UNL A   1      40.143  33.373  33.605  1.00  0.00    -0.248 NA
ATOM     16  C   UNL A   1      38.478  32.319  34.842  1.00  0.00     0.031 C 
ATOM     17  C   UNL A   1      37.532  31.796  30.092  1.00  0.00     0.029 A 
ATOM     18  N   UNL A   1      39.600  31.693  30.872  1.00  0.00    -0.354 N 
ATOM     19  C   UNL A   1      40.601  33.159  34.904  1.00  0.00     0.074 A 
ATOM     20  C   UNL A   1      39.499  32.606  35.648  1.00  0.00     0.031 C 
ATOM     21  C   UNL A   1      38.211  30.937  29.301  1.00  0.00     0.029 A 
ATOM     22  C   UNL A   1      39.570  30.824  29.798  1.00  0.00     0.049 A 
ATOM     23  H   UNL A   1      40.431  31.946  31.335  1.00  0.00     0.167 HD
ATOM     24  C   UNL A   1      41.907  33.293  35.260  1.00  0.00     0.037 A 
ATOM     25  C   UNL A   1      40.569  29.997  29.418  1.00  0.00     0.037 A 
ATOM     26  C   UNL A   1      42.641  34.129  34.354  1.00  0.00     0.049 A 
ATOM     27  C   UNL A   1      41.833  30.510  30.004  1.00  0.00     0.074 A 
ATOM     28  C   UNL A   1      42.570  35.461  33.992  1.00  0.00     0.029 A 
ATOM     29  N   UNL A   1      43.446  33.538  33.415  1.00  0.00    -0.354 N 
ATOM     30  N   UNL A   1      42.414  31.617  29.634  1.00  0.00    -0.248 NA
ATOM     31  C   UNL A   1      42.233  30.003  31.309  1.00  0.00     0.031 C 
ATOM     32  C   UNL A   1      42.911  35.487  32.608  1.00  0.00     0.029 A 
ATOM     33  C   UNL A   1      43.190  34.174  32.226  1.00  0.00     0.049 A 
ATOM     34  H   UNL A   1      44.083  32.802  33.563  1.00  0.00     0.167 HD
ATOM     35  C   UNL A   1      42.936  32.156  30.803  1.00  0.00     0.074 A 
ATOM     36  C   UNL A   1      42.877  31.074  31.781  1.00  0.00     0.031 C 
ATOM     37  C   UNL A   1      43.116  33.502  30.950  1.00  0.00     0.037 A 
BRANCH  24  38
ATOM     38  C   UNL A   1      42.565  32.426  36.297  1.00  0.00     0.057 A 
ATOM     39  C   UNL A   1      43.166  32.998  37.429  1.00  0.00     0.134 A 
ATOM     40  C   UNL A   1      42.851  31.061  36.085  1.00  0.00     0.134 A 
ATOM     41  F   UNL A   1      43.002  34.298  37.713  1.00  0.00    -0.206 F 
ATOM     42  C   UNL A   1      44.015  32.268  38.272  1.00  0.00     0.040 A 
ATOM     43  C   UNL A   1      43.653  30.311  36.947  1.00  0.00     0.040 A 
ATOM     44  F   UNL A   1      42.446  30.413  34.984  1.00  0.00    -0.206 F 
ATOM     45  C   UNL A   1      44.259  30.920  38.033  1.00  0.00     0.006 A 
ENDBRANCH  24  38
BRANCH  25  46
ATOM     46  C   UNL A   1      40.415  28.627  28.893  1.00  0.00     0.057 A 
ATOM     47  C   UNL A   1      39.835  27.615  29.664  1.00  0.00     0.134 A 
ATOM     48  C   UNL A   1      40.616  28.334  27.530  1.00  0.00     0.134 A 
ATOM     49  F   UNL A   1      39.560  27.822  30.959  1.00  0.00    -0.206 F 
ATOM     50  C   UNL A   1      39.470  26.381  29.112  1.00  0.00     0.040 A 
ATOM     51  C   UNL A   1      40.268  27.103  26.969  1.00  0.00     0.040 A 
ATOM     52  F   UNL A   1      41.079  29.261  26.679  1.00  0.00    -0.206 F 
ATOM     53  C   UNL A   1      39.682  26.125  27.759  1.00  0.00     0.006 A 
ENDBRANCH  25  46
BRANCH  37  54
ATOM     54  C   UNL A   1      42.930  34.370  29.736  1.00  0.00     0.057 A 
ATOM     55  C   UNL A   1      41.687  34.886  29.341  1.00  0.00     0.134 A 
ATOM     56  C   UNL A   1      44.054  34.827  29.038  1.00  0.00     0.134 A 
ATOM     57  F   UNL A   1      40.571  34.596  30.021  1.00  0.00    -0.206 F 
ATOM     58  C   UNL A   1      41.561  35.772  28.268  1.00  0.00     0.040 A 
ATOM     59  C   UNL A   1      43.945  35.738  27.985  1.00  0.00     0.040 A 
ATOM     60  F   UNL A   1      45.284  34.431  29.403  1.00  0.00    -0.206 F 
ATOM     61  C   UNL A   1      42.694  36.205  27.587  1.00  0.00     0.006 A 
ENDBRANCH  37  54
ENDBRANCH  11  12
ENDBRANCH   4   6
ENDBRANCH   3   4
ENDBRANCH   2   3
ENDBRANCH   1   2
BRANCH   1  62
ATOM     62  O   UNL A   1      33.478  33.919  28.731  1.00  0.00    -0.374 OA
BRANCH  62  63
ATOM     63  C   UNL A   1      34.353  32.794  28.892  1.00  0.00     0.202 C 
BRANCH  63  64
ATOM     64  C   UNL A   1      34.547  31.823  27.723  1.00  0.00     0.261 C 
BRANCH  64  65
ATOM     65  O   UNL A   1      34.017  30.506  28.004  1.00  0.00    -0.463 OA
BRANCH  65  66
ATOM     66  C   UNL A   1      34.630  29.486  27.350  1.00  0.00     0.309 C 
ATOM     67  O   UNL A   1      35.847  29.344  27.293  1.00  0.00    -0.252 OA
BRANCH  66  68
ATOM     68  C   UNL A   1      33.686  28.484  26.700  1.00  0.00     0.108 C 
ATOM     69  C   UNL A   1      33.841  28.179  25.207  1.00  0.00     0.070 C 
ATOM     70  C   UNL A   1      32.231  28.814  27.070  1.00  0.00     0.070 C 
ATOM     71  C   UNL A   1      33.067  29.095  24.271  1.00  0.00     0.277 C 
ATOM     72  C   UNL A   1      31.559  29.806  26.134  1.00  0.00     0.277 C 
ATOM     73  N   UNL A   1      31.722  29.387  24.754  1.00  0.00    -0.230 N 
ATOM     74  C   UNL A   1      30.631  29.438  23.903  1.00  0.00     0.383 C 
ATOM     75  N   UNL A   1      29.900  30.513  23.789  1.00  0.00    -0.155 N 
ATOM     76  C   UNL A   1      30.237  28.191  23.137  1.00  0.00     0.523 C 
ATOM     77  C   UNL A   1      28.788  30.466  22.977  1.00  0.00     0.414 C 
ATOM     78  H   UNL A   1      30.138  31.338  24.272  1.00  0.00     0.367 HD
ATOM     79  C   UNL A   1      28.762  28.271  23.048  1.00  0.00     0.389 C 
ATOM     80  N   UNL A   1      30.405  26.950  23.927  1.00  0.00     0.003 NA
ATOM     81  Cl  UNL A   1      28.174  31.979  22.467  1.00  0.00     0.028 Cl
ATOM     82  N   UNL A   1      28.173  29.396  22.589  1.00  0.00    -0.155 N 
ATOM     83  N   UNL A   1      28.157  27.264  23.566  1.00  0.00    -0.169 N 
ATOM     84  C   UNL A   1      29.188  26.516  24.081  1.00  0.00     0.532 C 
ATOM     85  H   UNL A   1      27.368  29.402  22.024  1.00  0.00     0.367 HD
ATOM     86  H   UNL A   1      27.191  27.074  23.589  1.00  0.00     0.365 HD
ENDBRANCH  66  68
ENDBRANCH  65  66
ENDBRANCH  64  65
ENDBRANCH  63  64
ENDBRANCH  62  63
ENDBRANCH   1  62
TORSDOF 14
ENDMDL
MODEL 3
REMARK VINA RESULT:     -11.7      4.072      8.485
REMARK SMILES O=C(OCCOCCOC(=O)C1CCN(C2=[NH+]C(Cl)=[NH+]C3=[NH+]C=N[C@@H]32)CC1)c1ccc(-c2c3nc(c(-c4c(F)cccc4F)c4ccc([nH]4)c(-c4c(F)cccc4F)c4nc(c(-c5c(F)cccc5F)c5ccc2[nH]5)C=C4)C=C3)cc1
REMARK SMILES IDX 5 1 4 2 3 3 2 4 1 5 28 6 29 7 81 8 30 9 80 10 31 11 32 12
REMARK SMILES IDX 33 13 74 14 34 15 79 16 73 17 75 18 35 19 78 20 72 21 71 22
REMARK SMILES IDX 36 24 62 25 45 26 61 27 46 28 49 29 60 30 76 31 47 32 48 33
REMARK SMILES IDX 59 35 77 36 50 37 37 38 38 39 43 40 39 41 40 42 42 43 44 44
REMARK SMILES IDX 41 45 63 46 64 47 69 48 65 49 66 50 68 51 70 52 67 53 51 54
REMARK SMILES IDX 52 55 57 56 53 57 54 58 56 59 58 60 55 61 6 62 7 63 8 64
REMARK SMILES IDX 9 65 10 66 11 67 12 68 13 69 27 70 14 71 26 72 15 73 16 74
REMARK SMILES IDX 17 75 25 76 18 77 21 79 24 80 19 81 20 82 22 83 23 84
REMARK H PARENT 75 23 49 34 17 78 20 85 22 86
REMARK Flexibility Score: inf
ROOT
ATOM      1  C   UNL A   1      32.455  29.681  27.230  1.00  0.00     0.202 C 
ENDROOT
BRANCH   1   2
ATOM      2  C   UNL A   1      33.335  30.918  26.997  1.00  0.00     0.261 C 
BRANCH   2   3
ATOM      3  O   UNL A   1      34.134  31.253  28.137  1.00  0.00    -0.460 OA
BRANCH   3   4
ATOM      4  C   UNL A   1      35.378  31.786  28.159  1.00  0.00     0.338 C 
ATOM      5  O   UNL A   1      35.562  32.867  27.617  1.00  0.00    -0.246 OA
BRANCH   4   6
ATOM      6  C   UNL A   1      36.515  31.150  28.886  1.00  0.00     0.060 A 
ATOM      7  C   UNL A   1      37.726  31.760  29.194  1.00  0.00     0.016 A 
ATOM      8  C   UNL A   1      36.367  29.785  29.176  1.00  0.00     0.016 A 
ATOM      9  C   UNL A   1      38.845  30.995  29.416  1.00  0.00     0.010 A 
ATOM     10  C   UNL A   1      37.466  29.023  29.540  1.00  0.00     0.010 A 
ATOM     11  C   UNL A   1      38.723  29.614  29.518  1.00  0.00    -0.014 A 
BRANCH  11  12
ATOM     12  C   UNL A   1      39.971  28.871  29.603  1.00  0.00     0.031 A 
ATOM     13  C   UNL A   1      40.558  28.750  30.970  1.00  0.00     0.074 A 
ATOM     14  C   UNL A   1      40.564  28.330  28.523  1.00  0.00     0.049 A 
ATOM     15  N   UNL A   1      41.721  29.134  31.392  1.00  0.00    -0.248 NA
ATOM     16  C   UNL A   1      39.670  28.240  32.027  1.00  0.00     0.031 C 
ATOM     17  C   UNL A   1      40.031  28.152  27.170  1.00  0.00     0.029 A 
ATOM     18  N   UNL A   1      41.774  27.720  28.462  1.00  0.00    -0.354 N 
ATOM     19  C   UNL A   1      41.772  28.778  32.739  1.00  0.00     0.074 A 
ATOM     20  C   UNL A   1      40.451  28.334  33.102  1.00  0.00     0.031 C 
ATOM     21  C   UNL A   1      40.801  27.260  26.510  1.00  0.00     0.029 A 
ATOM     22  C   UNL A   1      41.946  26.933  27.339  1.00  0.00     0.049 A 
ATOM     23  H   UNL A   1      42.467  27.828  29.153  1.00  0.00     0.167 HD
ATOM     24  C   UNL A   1      42.934  28.711  33.444  1.00  0.00     0.037 A 
ATOM     25  C   UNL A   1      42.912  26.004  27.162  1.00  0.00     0.037 A 
ATOM     26  C   UNL A   1      43.980  29.494  32.855  1.00  0.00     0.049 A 
ATOM     27  C   UNL A   1      44.012  26.301  28.113  1.00  0.00     0.074 A 
ATOM     28  C   UNL A   1      44.164  30.844  32.619  1.00  0.00     0.029 A 
ATOM     29  N   UNL A   1      44.943  28.860  32.112  1.00  0.00    -0.354 N 
ATOM     30  N   UNL A   1      44.795  27.341  28.023  1.00  0.00    -0.248 NA
ATOM     31  C   UNL A   1      43.972  25.664  29.421  1.00  0.00     0.031 C 
ATOM     32  C   UNL A   1      44.879  30.911  31.386  1.00  0.00     0.029 A 
ATOM     33  C   UNL A   1      45.102  29.600  30.966  1.00  0.00     0.049 A 
ATOM     34  H   UNL A   1      45.426  28.037  32.352  1.00  0.00     0.167 HD
ATOM     35  C   UNL A   1      45.028  27.728  29.336  1.00  0.00     0.074 A 
ATOM     36  C   UNL A   1      44.576  26.605  30.151  1.00  0.00     0.031 C 
ATOM     37  C   UNL A   1      45.311  29.026  29.658  1.00  0.00     0.037 A 
BRANCH  24  38
ATOM     38  C   UNL A   1      43.173  27.698  34.528  1.00  0.00     0.057 A 
ATOM     39  C   UNL A   1      43.385  26.347  34.208  1.00  0.00     0.134 A 
ATOM     40  C   UNL A   1      42.945  27.966  35.893  1.00  0.00     0.134 A 
ATOM     41  F   UNL A   1      43.573  25.961  32.937  1.00  0.00    -0.206 F 
ATOM     42  C   UNL A   1      43.342  25.336  35.177  1.00  0.00     0.040 A 
ATOM     43  C   UNL A   1      42.951  26.973  36.874  1.00  0.00     0.040 A 
ATOM     44  F   UNL A   1      42.611  29.189  36.330  1.00  0.00    -0.206 F 
ATOM     45  C   UNL A   1      43.126  25.648  36.515  1.00  0.00     0.006 A 
ENDBRANCH  24  38
BRANCH  25  46
ATOM     46  C   UNL A   1      42.756  24.703  26.483  1.00  0.00     0.057 A 
ATOM     47  C   UNL A   1      43.524  24.372  25.364  1.00  0.00     0.134 A 
ATOM     48  C   UNL A   1      42.018  23.653  27.064  1.00  0.00     0.134 A 
ATOM     49  F   UNL A   1      44.299  25.295  24.776  1.00  0.00    -0.206 F 
ATOM     50  C   UNL A   1      43.561  23.070  24.849  1.00  0.00     0.040 A 
ATOM     51  C   UNL A   1      42.036  22.353  26.554  1.00  0.00     0.040 A 
ATOM     52  F   UNL A   1      41.320  23.834  28.195  1.00  0.00    -0.206 F 
ATOM     53  C   UNL A   1      42.819  22.055  25.448  1.00  0.00     0.006 A 
ENDBRANCH  25  46
BRANCH  37  54
ATOM     54  C   UNL A   1      45.570  29.986  28.530  1.00  0.00     0.057 A 
ATOM     55  C   UNL A   1      44.552  30.680  27.860  1.00  0.00     0.134 A 
ATOM     56  C   UNL A   1      46.887  30.340  28.217  1.00  0.00     0.134 A 
ATOM     57  F   UNL A   1      43.264  30.491  28.174  1.00  0.00    -0.206 F 
ATOM     58  C   UNL A   1      44.830  31.641  26.884  1.00  0.00     0.040 A 
ATOM     59  C   UNL A   1      47.179  31.323  27.268  1.00  0.00     0.040 A 
ATOM     60  F   UNL A   1      47.914  29.769  28.867  1.00  0.00    -0.206 F 
ATOM     61  C   UNL A   1      46.149  31.969  26.588  1.00  0.00     0.006 A 
ENDBRANCH  37  54
ENDBRANCH  11  12
ENDBRANCH   4   6
ENDBRANCH   3   4
ENDBRANCH   2   3
ENDBRANCH   1   2
BRANCH   1  62
ATOM     62  O   UNL A   1      32.266  28.768  26.156  1.00  0.00    -0.374 OA
BRANCH  62  63
ATOM     63  C   UNL A   1      33.101  28.887  24.996  1.00  0.00     0.202 C 
BRANCH  63  64
ATOM     64  C   UNL A   1      32.575  28.404  23.640  1.00  0.00     0.261 C 
BRANCH  64  65
ATOM     65  O   UNL A   1      31.424  27.535  23.772  1.00  0.00    -0.463 OA
BRANCH  65  66
ATOM     66  C   UNL A   1      31.289  26.606  22.791  1.00  0.00     0.309 C 
ATOM     67  O   UNL A   1      31.037  26.878  21.621  1.00  0.00    -0.252 OA
BRANCH  66  68
ATOM     68  C   UNL A   1      31.505  25.167  23.239  1.00  0.00     0.108 C 
ATOM     69  C   UNL A   1      31.420  24.834  24.731  1.00  0.00     0.070 C 
ATOM     70  C   UNL A   1      32.781  24.602  22.596  1.00  0.00     0.070 C 
ATOM     71  C   UNL A   1      32.721  24.977  25.506  1.00  0.00     0.277 C 
ATOM     72  C   UNL A   1      34.049  24.866  23.391  1.00  0.00     0.277 C 
ATOM     73  N   UNL A   1      33.872  24.461  24.773  1.00  0.00    -0.230 N 
ATOM     74  C   UNL A   1      34.877  23.741  25.397  1.00  0.00     0.383 C 
ATOM     75  N   UNL A   1      36.120  24.138  25.374  1.00  0.00    -0.155 N 
ATOM     76  C   UNL A   1      34.533  22.424  26.062  1.00  0.00     0.523 C 
ATOM     77  C   UNL A   1      37.075  23.333  25.955  1.00  0.00     0.414 C 
ATOM     78  H   UNL A   1      36.369  24.992  24.953  1.00  0.00     0.367 HD
ATOM     79  C   UNL A   1      35.741  21.591  25.865  1.00  0.00     0.389 C 
ATOM     80  N   UNL A   1      33.524  21.642  25.312  1.00  0.00     0.003 NA
ATOM     81  Cl  UNL A   1      38.555  24.097  26.347  1.00  0.00     0.028 Cl
ATOM     82  N   UNL A   1      36.955  22.070  26.209  1.00  0.00    -0.155 N 
ATOM     83  N   UNL A   1      35.515  20.496  25.232  1.00  0.00    -0.169 N 
ATOM     84  C   UNL A   1      34.181  20.588  24.922  1.00  0.00     0.532 C 
ATOM     85  H   UNL A   1      37.668  21.521  26.607  1.00  0.00     0.367 HD
ATOM     86  H   UNL A   1      36.146  19.770  25.021  1.00  0.00     0.365 HD
ENDBRANCH  66  68
ENDBRANCH  65  66
ENDBRANCH  64  65
ENDBRANCH  63  64
ENDBRANCH  62  63
ENDBRANCH   1  62
TORSDOF 14
ENDMDL
