MODEL 1
REMARK VINA RESULT:     -10.9      0.000      0.000
REMARK SMILES Nc1ccc([C@H]([NH3+])C(=O)OCCOCCOC(=O)c2ccc(-c3c4nc(c(-c5c(F)cccc5F)c5ccc([nH]5)c(-c5c(F)cccc5F)c5nc(c(-c6c(F)cccc6F)c6ccc3[nH]6)C=C5)C=C4)cc2)cc1C(F)(F)F
REMARK SMILES IDX 13 1 12 2 11 3 10 4 8 5 9 6 6 7 5 8 2 9 3 10 74 11 4 12
REMARK SMILES IDX 73 13 1 14 75 17 76 18 77 19 78 20 7 21 14 25 15 26 16 27
REMARK SMILES IDX 17 28 18 29 19 30 20 31 72 32 21 33 71 34 22 35 23 36 24 37
REMARK SMILES IDX 65 38 25 39 70 40 64 41 66 42 26 43 69 44 63 45 62 46 27 48
REMARK SMILES IDX 53 49 36 50 52 51 37 52 40 53 51 54 67 55 38 56 39 57 50 59
REMARK SMILES IDX 68 60 41 61 28 62 29 63 34 64 30 65 31 66 33 67 35 68 32 69
REMARK SMILES IDX 54 70 55 71 60 72 56 73 57 74 59 75 61 76 58 77 42 78 43 79
REMARK SMILES IDX 48 80 44 81 45 82 47 83 49 84 46 85
REMARK H PARENT 1 15 1 16 7 22 7 23 7 24 66 47 40 58
REMARK Flexibility Score: inf
ROOT
ATOM      1  O   UNL A   1      31.738  30.795  26.080  1.00  0.00    -0.374 OA
ENDROOT
BRANCH   1   2
ATOM      2  C   UNL A   1      32.465  29.912  26.934  1.00  0.00     0.202 C 
BRANCH   2   3
ATOM      3  C   UNL A   1      33.490  29.003  26.253  1.00  0.00     0.261 C 
BRANCH   3   4
ATOM      4  O   UNL A   1      33.415  29.130  24.822  1.00  0.00    -0.459 OA
BRANCH   4   5
ATOM      5  C   UNL A   1      33.171  27.973  24.135  1.00  0.00     0.369 C 
ATOM      6  O   UNL A   1      33.480  26.851  24.521  1.00  0.00    -0.245 OA
BRANCH   5   7
ATOM      7  C   UNL A   1      32.507  28.243  22.769  1.00  0.00     0.323 C 
BRANCH   7   8
ATOM      8  C   UNL A   1      31.009  28.381  22.929  1.00  0.00     0.021 A 
ATOM      9  C   UNL A   1      28.181  28.527  23.032  1.00  0.00     0.044 A 
ATOM     10  C   UNL A   1      28.871  27.396  23.490  1.00  0.00     0.026 A 
ATOM     11  C   UNL A   1      28.918  29.605  22.519  1.00  0.00     0.079 A 
ATOM     12  C   UNL A   1      30.264  27.322  23.447  1.00  0.00     0.013 A 
ATOM     13  C   UNL A   1      30.327  29.524  22.486  1.00  0.00     0.025 A 
BRANCH   9  14
ATOM     14  N   UNL A   1      26.797  28.491  23.019  1.00  0.00    -0.398 N 
ATOM     15  H   UNL A   1      26.298  28.490  23.867  1.00  0.00     0.156 HD
ATOM     16  H   UNL A   1      26.313  28.468  22.162  1.00  0.00     0.156 HD
ENDBRANCH   9  14
BRANCH  11  17
ATOM     17  C   UNL A   1      28.286  30.857  21.964  1.00  0.00     0.418 C 
ATOM     18  F   UNL A   1      27.378  31.399  22.826  1.00  0.00    -0.166 F 
ATOM     19  F   UNL A   1      29.203  31.841  21.738  1.00  0.00    -0.166 F 
ATOM     20  F   UNL A   1      27.619  30.697  20.785  1.00  0.00    -0.166 F 
ENDBRANCH  11  17
ENDBRANCH   7   8
BRANCH   7  21
ATOM     21  N   UNL A   1      32.866  27.246  21.733  1.00  0.00    -0.342 N 
ATOM     22  H   UNL A   1      33.492  27.676  21.051  1.00  0.00     0.345 HD
ATOM     23  H   UNL A   1      32.019  26.925  21.264  1.00  0.00     0.345 HD
ATOM     24  H   UNL A   1      33.334  26.453  22.172  1.00  0.00     0.345 HD
ENDBRANCH   7  21
ENDBRANCH   5   7
ENDBRANCH   4   5
ENDBRANCH   3   4
ENDBRANCH   2   3
ENDBRANCH   1   2
BRANCH   1  25
ATOM     25  C   UNL A   1      31.342  32.057  26.619  1.00  0.00     0.202 C 
BRANCH  25  26
ATOM     26  C   UNL A   1      32.462  33.066  26.897  1.00  0.00     0.261 C 
BRANCH  26  27
ATOM     27  O   UNL A   1      32.188  33.915  28.027  1.00  0.00    -0.460 OA
BRANCH  27  28
ATOM     28  C   UNL A   1      33.249  34.633  28.463  1.00  0.00     0.338 C 
ATOM     29  O   UNL A   1      33.278  35.823  28.743  1.00  0.00    -0.246 OA
BRANCH  28  30
ATOM     30  C   UNL A   1      34.398  33.745  28.717  1.00  0.00     0.060 A 
ATOM     31  C   UNL A   1      34.157  32.566  29.434  1.00  0.00     0.016 A 
ATOM     32  C   UNL A   1      35.697  34.103  28.350  1.00  0.00     0.016 A 
ATOM     33  C   UNL A   1      35.224  31.765  29.836  1.00  0.00     0.010 A 
ATOM     34  C   UNL A   1      36.768  33.300  28.763  1.00  0.00     0.010 A 
ATOM     35  C   UNL A   1      36.538  32.151  29.539  1.00  0.00    -0.014 A 
BRANCH  35  36
ATOM     36  C   UNL A   1      37.667  31.430  30.175  1.00  0.00     0.031 A 
ATOM     37  C   UNL A   1      37.986  31.701  31.620  1.00  0.00     0.074 A 
ATOM     38  C   UNL A   1      38.380  30.523  29.486  1.00  0.00     0.049 A 
ATOM     39  N   UNL A   1      38.933  31.199  32.370  1.00  0.00    -0.248 NA
ATOM     40  C   UNL A   1      37.117  32.667  32.312  1.00  0.00     0.031 C 
ATOM     41  C   UNL A   1      38.148  30.147  28.093  1.00  0.00     0.029 A 
ATOM     42  N   UNL A   1      39.450  29.754  29.871  1.00  0.00    -0.354 N 
ATOM     43  C   UNL A   1      38.780  31.790  33.618  1.00  0.00     0.074 A 
ATOM     44  C   UNL A   1      37.666  32.709  33.517  1.00  0.00     0.031 C 
ATOM     45  C   UNL A   1      39.057  29.224  27.735  1.00  0.00     0.029 A 
ATOM     46  C   UNL A   1      39.948  28.965  28.865  1.00  0.00     0.049 A 
ATOM     47  H   UNL A   1      39.824  29.768  30.781  1.00  0.00     0.167 HD
ATOM     48  C   UNL A   1      39.496  31.580  34.748  1.00  0.00     0.037 A 
ATOM     49  C   UNL A   1      41.013  28.141  28.853  1.00  0.00     0.037 A 
ATOM     50  C   UNL A   1      40.601  30.665  34.849  1.00  0.00     0.049 A 
ATOM     51  C   UNL A   1      41.832  27.970  30.104  1.00  0.00     0.074 A 
ATOM     52  C   UNL A   1      41.375  30.367  35.957  1.00  0.00     0.029 A 
ATOM     53  N   UNL A   1      41.093  29.904  33.800  1.00  0.00    -0.354 N 
ATOM     54  N   UNL A   1      41.662  28.514  31.286  1.00  0.00    -0.248 NA
ATOM     55  C   UNL A   1      42.991  27.067  30.021  1.00  0.00     0.031 C 
ATOM     56  C   UNL A   1      42.364  29.457  35.567  1.00  0.00     0.029 A 
ATOM     57  C   UNL A   1      42.177  29.155  34.227  1.00  0.00     0.049 A 
ATOM     58  H   UNL A   1      40.728  29.898  32.886  1.00  0.00     0.167 HD
ATOM     59  C   UNL A   1      42.672  28.001  32.091  1.00  0.00     0.074 A 
ATOM     60  C   UNL A   1      43.446  27.096  31.266  1.00  0.00     0.031 C 
ATOM     61  C   UNL A   1      42.933  28.253  33.397  1.00  0.00     0.037 A 
BRANCH  48  62
ATOM     62  C   UNL A   1      39.116  32.376  35.961  1.00  0.00     0.057 A 
ATOM     63  C   UNL A   1      39.597  33.674  36.175  1.00  0.00     0.134 A 
ATOM     64  C   UNL A   1      38.238  31.845  36.915  1.00  0.00     0.134 A 
ATOM     65  F   UNL A   1      40.453  34.233  35.305  1.00  0.00    -0.206 F 
ATOM     66  C   UNL A   1      39.236  34.408  37.306  1.00  0.00     0.040 A 
ATOM     67  C   UNL A   1      37.852  32.579  38.038  1.00  0.00     0.040 A 
ATOM     68  F   UNL A   1      37.740  30.609  36.768  1.00  0.00    -0.206 F 
ATOM     69  C   UNL A   1      38.356  33.862  38.238  1.00  0.00     0.006 A 
ENDBRANCH  48  62
BRANCH  49  70
ATOM     70  C   UNL A   1      41.375  27.418  27.610  1.00  0.00     0.057 A 
ATOM     71  C   UNL A   1      42.174  28.015  26.629  1.00  0.00     0.134 A 
ATOM     72  C   UNL A   1      40.918  26.117  27.367  1.00  0.00     0.134 A 
ATOM     73  F   UNL A   1      42.622  29.268  26.793  1.00  0.00    -0.206 F 
ATOM     74  C   UNL A   1      42.499  27.348  25.446  1.00  0.00     0.040 A 
ATOM     75  C   UNL A   1      41.253  25.430  26.200  1.00  0.00     0.040 A 
ATOM     76  F   UNL A   1      40.145  25.492  28.268  1.00  0.00    -0.206 F 
ATOM     77  C   UNL A   1      42.043  26.048  25.233  1.00  0.00     0.006 A 
ENDBRANCH  49  70
BRANCH  61  78
ATOM     78  C   UNL A   1      44.080  27.519  34.025  1.00  0.00     0.057 A 
ATOM     79  C   UNL A   1      45.373  28.058  34.059  1.00  0.00     0.134 A 
ATOM     80  C   UNL A   1      43.878  26.279  34.644  1.00  0.00     0.134 A 
ATOM     81  F   UNL A   1      45.634  29.237  33.473  1.00  0.00    -0.206 F 
ATOM     82  C   UNL A   1      46.428  27.379  34.670  1.00  0.00     0.040 A 
ATOM     83  C   UNL A   1      44.921  25.603  35.279  1.00  0.00     0.040 A 
ATOM     84  F   UNL A   1      42.663  25.713  34.656  1.00  0.00    -0.206 F 
ATOM     85  C   UNL A   1      46.202  26.151  35.289  1.00  0.00     0.006 A 
ENDBRANCH  61  78
ENDBRANCH  35  36
ENDBRANCH  28  30
ENDBRANCH  27  28
ENDBRANCH  26  27
ENDBRANCH  25  26
ENDBRANCH   1  25
TORSDOF 18
ENDMDL
MODEL 2
REMARK VINA RESULT:     -10.9      5.384     10.062
REMARK SMILES Nc1ccc([C@H]([NH3+])C(=O)OCCOCCOC(=O)c2ccc(-c3c4nc(c(-c5c(F)cccc5F)c5ccc([nH]5)c(-c5c(F)cccc5F)c5nc(c(-c6c(F)cccc6F)c6ccc3[nH]6)C=C5)C=C4)cc2)cc1C(F)(F)F
REMARK SMILES IDX 13 1 12 2 11 3 10 4 8 5 9 6 6 7 5 8 2 9 3 10 74 11 4 12
REMARK SMILES IDX 73 13 1 14 75 17 76 18 77 19 78 20 7 21 14 25 15 26 16 27
REMARK SMILES IDX 17 28 18 29 19 30 20 31 72 32 21 33 71 34 22 35 23 36 24 37
REMARK SMILES IDX 65 38 25 39 70 40 64 41 66 42 26 43 69 44 63 45 62 46 27 48
REMARK SMILES IDX 53 49 36 50 52 51 37 52 40 53 51 54 67 55 38 56 39 57 50 59
REMARK SMILES IDX 68 60 41 61 28 62 29 63 34 64 30 65 31 66 33 67 35 68 32 69
REMARK SMILES IDX 54 70 55 71 60 72 56 73 57 74 59 75 61 76 58 77 42 78 43 79
REMARK SMILES IDX 48 80 44 81 45 82 47 83 49 84 46 85
REMARK H PARENT 1 15 1 16 7 22 7 23 7 24 66 47 40 58
REMARK Flexibility Score: inf
ROOT
ATOM      1  O   UNL A   1      45.936  20.819  25.204  1.00  0.00    -0.374 OA
ENDROOT
BRANCH   1   2
ATOM      2  C   UNL A   1      45.354  19.744  24.466  1.00  0.00     0.202 C 
BRANCH   2   3
ATOM      3  C   UNL A   1      44.146  19.059  25.109  1.00  0.00     0.261 C 
BRANCH   3   4
ATOM      4  O   UNL A   1      42.973  19.883  25.001  1.00  0.00    -0.459 OA
BRANCH   4   5
ATOM      5  C   UNL A   1      42.554  20.476  26.160  1.00  0.00     0.369 C 
ATOM      6  O   UNL A   1      43.205  21.291  26.804  1.00  0.00    -0.245 OA
BRANCH   5   7
ATOM      7  C   UNL A   1      41.173  19.955  26.608  1.00  0.00     0.323 C 
BRANCH   7   8
ATOM      8  C   UNL A   1      40.108  20.999  26.356  1.00  0.00     0.021 A 
ATOM      9  C   UNL A   1      38.039  22.919  26.096  1.00  0.00     0.044 A 
ATOM     10  C   UNL A   1      39.269  23.246  26.683  1.00  0.00     0.026 A 
ATOM     11  C   UNL A   1      37.843  21.613  25.625  1.00  0.00     0.079 A 
ATOM     12  C   UNL A   1      40.293  22.306  26.809  1.00  0.00     0.013 A 
ATOM     13  C   UNL A   1      38.887  20.670  25.749  1.00  0.00     0.025 A 
BRANCH   9  14
ATOM     14  N   UNL A   1      37.039  23.876  26.091  1.00  0.00    -0.398 N 
ATOM     15  H   UNL A   1      37.210  24.767  26.473  1.00  0.00     0.156 HD
ATOM     16  H   UNL A   1      36.158  23.666  25.705  1.00  0.00     0.156 HD
ENDBRANCH   9  14
BRANCH  11  17
ATOM     17  C   UNL A   1      36.552  21.134  25.009  1.00  0.00     0.418 C 
ATOM     18  F   UNL A   1      36.235  21.827  23.876  1.00  0.00    -0.166 F 
ATOM     19  F   UNL A   1      36.616  19.826  24.626  1.00  0.00    -0.166 F 
ATOM     20  F   UNL A   1      35.455  21.230  25.813  1.00  0.00    -0.166 F 
ENDBRANCH  11  17
ENDBRANCH   7   8
BRANCH   7  21
ATOM     21  N   UNL A   1      41.153  19.469  28.007  1.00  0.00    -0.342 N 
ATOM     22  H   UNL A   1      41.136  20.267  28.644  1.00  0.00     0.345 HD
ATOM     23  H   UNL A   1      41.987  18.909  28.184  1.00  0.00     0.345 HD
ATOM     24  H   UNL A   1      40.321  18.897  28.157  1.00  0.00     0.345 HD
ENDBRANCH   7  21
ENDBRANCH   5   7
ENDBRANCH   4   5
ENDBRANCH   3   4
ENDBRANCH   2   3
ENDBRANCH   1   2
BRANCH   1  25
ATOM     25  C   UNL A   1      46.100  22.067  24.531  1.00  0.00     0.202 C 
BRANCH  25  26
ATOM     26  C   UNL A   1      44.837  22.693  23.928  1.00  0.00     0.261 C 
BRANCH  26  27
ATOM     27  O   UNL A   1      44.102  23.495  24.869  1.00  0.00    -0.460 OA
BRANCH  27  28
ATOM     28  C   UNL A   1      44.652  24.704  25.129  1.00  0.00     0.338 C 
ATOM     29  O   UNL A   1      45.656  25.189  24.626  1.00  0.00    -0.246 OA
BRANCH  28  30
ATOM     30  C   UNL A   1      43.780  25.479  26.030  1.00  0.00     0.060 A 
ATOM     31  C   UNL A   1      44.004  26.859  26.116  1.00  0.00     0.016 A 
ATOM     32  C   UNL A   1      42.832  24.860  26.848  1.00  0.00     0.016 A 
ATOM     33  C   UNL A   1      43.317  27.619  27.061  1.00  0.00     0.010 A 
ATOM     34  C   UNL A   1      42.149  25.624  27.801  1.00  0.00     0.010 A 
ATOM     35  C   UNL A   1      42.418  26.997  27.937  1.00  0.00    -0.014 A 
BRANCH  35  36
ATOM     36  C   UNL A   1      41.880  27.762  29.088  1.00  0.00     0.031 A 
ATOM     37  C   UNL A   1      42.571  27.660  30.420  1.00  0.00     0.074 A 
ATOM     38  C   UNL A   1      40.810  28.562  28.944  1.00  0.00     0.049 A 
ATOM     39  N   UNL A   1      42.266  28.225  31.560  1.00  0.00    -0.248 NA
ATOM     40  C   UNL A   1      43.768  26.805  30.472  1.00  0.00     0.031 C 
ATOM     41  C   UNL A   1      40.074  28.773  27.699  1.00  0.00     0.029 A 
ATOM     42  N   UNL A   1      40.155  29.345  29.861  1.00  0.00    -0.354 N 
ATOM     43  C   UNL A   1      43.227  27.793  32.465  1.00  0.00     0.074 A 
ATOM     44  C   UNL A   1      44.110  26.896  31.749  1.00  0.00     0.031 C 
ATOM     45  C   UNL A   1      39.060  29.623  27.932  1.00  0.00     0.029 A 
ATOM     46  C   UNL A   1      39.061  29.995  29.346  1.00  0.00     0.049 A 
ATOM     47  H   UNL A   1      40.441  29.432  30.798  1.00  0.00     0.167 HD
ATOM     48  C   UNL A   1      43.368  28.120  33.771  1.00  0.00     0.037 A 
ATOM     49  C   UNL A   1      38.155  30.785  29.952  1.00  0.00     0.037 A 
ATOM     50  C   UNL A   1      42.493  29.014  34.482  1.00  0.00     0.049 A 
ATOM     51  C   UNL A   1      38.296  31.087  31.419  1.00  0.00     0.074 A 
ATOM     52  C   UNL A   1      42.567  29.425  35.802  1.00  0.00     0.029 A 
ATOM     53  N   UNL A   1      41.380  29.630  33.933  1.00  0.00    -0.354 N 
ATOM     54  N   UNL A   1      39.224  30.693  32.259  1.00  0.00    -0.248 NA
ATOM     55  C   UNL A   1      37.265  31.944  32.023  1.00  0.00     0.031 C 
ATOM     56  C   UNL A   1      41.472  30.257  36.062  1.00  0.00     0.029 A 
ATOM     57  C   UNL A   1      40.743  30.399  34.892  1.00  0.00     0.049 A 
ATOM     58  H   UNL A   1      41.085  29.535  32.998  1.00  0.00     0.167 HD
ATOM     59  C   UNL A   1      38.904  31.275  33.480  1.00  0.00     0.074 A 
ATOM     60  C   UNL A   1      37.702  32.055  33.271  1.00  0.00     0.031 C 
ATOM     61  C   UNL A   1      39.551  31.175  34.667  1.00  0.00     0.037 A 
BRANCH  48  62
ATOM     62  C   UNL A   1      44.501  27.486  34.521  1.00  0.00     0.057 A 
ATOM     63  C   UNL A   1      44.386  26.216  35.101  1.00  0.00     0.134 A 
ATOM     64  C   UNL A   1      45.731  28.145  34.644  1.00  0.00     0.134 A 
ATOM     65  F   UNL A   1      43.229  25.539  35.030  1.00  0.00    -0.206 F 
ATOM     66  C   UNL A   1      45.448  25.633  35.795  1.00  0.00     0.040 A 
ATOM     67  C   UNL A   1      46.806  27.562  35.316  1.00  0.00     0.040 A 
ATOM     68  F   UNL A   1      45.908  29.363  34.111  1.00  0.00    -0.206 F 
ATOM     69  C   UNL A   1      46.664  26.304  35.898  1.00  0.00     0.006 A 
ENDBRANCH  48  62
BRANCH  49  70
ATOM     70  C   UNL A   1      37.023  31.344  29.172  1.00  0.00     0.057 A 
ATOM     71  C   UNL A   1      35.915  30.559  28.835  1.00  0.00     0.134 A 
ATOM     72  C   UNL A   1      37.029  32.675  28.735  1.00  0.00     0.134 A 
ATOM     73  F   UNL A   1      35.863  29.271  29.204  1.00  0.00    -0.206 F 
ATOM     74  C   UNL A   1      34.858  31.073  28.082  1.00  0.00     0.040 A 
ATOM     75  C   UNL A   1      35.969  33.208  28.001  1.00  0.00     0.040 A 
ATOM     76  F   UNL A   1      38.065  33.477  29.024  1.00  0.00    -0.206 F 
ATOM     77  C   UNL A   1      34.881  32.403  27.669  1.00  0.00     0.006 A 
ENDBRANCH  49  70
BRANCH  61  78
ATOM     78  C   UNL A   1      38.993  31.952  35.823  1.00  0.00     0.057 A 
ATOM     79  C   UNL A   1      38.154  31.359  36.775  1.00  0.00     0.134 A 
ATOM     80  C   UNL A   1      39.338  33.297  36.010  1.00  0.00     0.134 A 
ATOM     81  F   UNL A   1      37.778  30.078  36.647  1.00  0.00    -0.206 F 
ATOM     82  C   UNL A   1      37.662  32.083  37.863  1.00  0.00     0.040 A 
ATOM     83  C   UNL A   1      38.871  34.024  37.105  1.00  0.00     0.040 A 
ATOM     84  F   UNL A   1      40.144  33.921  35.139  1.00  0.00    -0.206 F 
ATOM     85  C   UNL A   1      38.027  33.418  38.034  1.00  0.00     0.006 A 
ENDBRANCH  61  78
ENDBRANCH  35  36
ENDBRANCH  28  30
ENDBRANCH  27  28
ENDBRANCH  26  27
ENDBRANCH  25  26
ENDBRANCH   1  25
TORSDOF 18
ENDMDL
MODEL 3
REMARK VINA RESULT:     -10.8      4.507      7.611
REMARK SMILES Nc1ccc([C@H]([NH3+])C(=O)OCCOCCOC(=O)c2ccc(-c3c4nc(c(-c5c(F)cccc5F)c5ccc([nH]5)c(-c5c(F)cccc5F)c5nc(c(-c6c(F)cccc6F)c6ccc3[nH]6)C=C5)C=C4)cc2)cc1C(F)(F)F
REMARK SMILES IDX 13 1 12 2 11 3 10 4 8 5 9 6 6 7 5 8 2 9 3 10 74 11 4 12
REMARK SMILES IDX 73 13 1 14 75 17 76 18 77 19 78 20 7 21 14 25 15 26 16 27
REMARK SMILES IDX 17 28 18 29 19 30 20 31 72 32 21 33 71 34 22 35 23 36 24 37
REMARK SMILES IDX 65 38 25 39 70 40 64 41 66 42 26 43 69 44 63 45 62 46 27 48
REMARK SMILES IDX 53 49 36 50 52 51 37 52 40 53 51 54 67 55 38 56 39 57 50 59
REMARK SMILES IDX 68 60 41 61 28 62 29 63 34 64 30 65 31 66 33 67 35 68 32 69
REMARK SMILES IDX 54 70 55 71 60 72 56 73 57 74 59 75 61 76 58 77 42 78 43 79
REMARK SMILES IDX 48 80 44 81 45 82 47 83 49 84 46 85
REMARK H PARENT 1 15 1 16 7 22 7 23 7 24 66 47 40 58
REMARK Flexibility Score: inf
ROOT
ATOM      1  O   UNL A   1      34.408  36.922  33.228  1.00  0.00    -0.374 OA
ENDROOT
BRANCH   1   2
ATOM      2  C   UNL A   1      33.650  37.442  32.135  1.00  0.00     0.202 C 
BRANCH   2   3
ATOM      3  C   UNL A   1      32.542  36.538  31.589  1.00  0.00     0.261 C 
BRANCH   3   4
ATOM      4  O   UNL A   1      32.757  36.247  30.198  1.00  0.00    -0.459 OA
BRANCH   4   5
ATOM      5  C   UNL A   1      33.288  35.017  29.923  1.00  0.00     0.369 C 
ATOM      6  O   UNL A   1      33.526  34.154  30.761  1.00  0.00    -0.245 OA
BRANCH   5   7
ATOM      7  C   UNL A   1      33.617  34.853  28.425  1.00  0.00     0.323 C 
BRANCH   7   8
ATOM      8  C   UNL A   1      33.963  33.413  28.116  1.00  0.00     0.021 A 
ATOM      9  C   UNL A   1      34.677  30.785  27.331  1.00  0.00     0.044 A 
ATOM     10  C   UNL A   1      35.630  31.682  27.832  1.00  0.00     0.026 A 
ATOM     11  C   UNL A   1      33.344  31.208  27.226  1.00  0.00     0.079 A 
ATOM     12  C   UNL A   1      35.283  32.975  28.225  1.00  0.00     0.013 A 
ATOM     13  C   UNL A   1      33.000  32.515  27.633  1.00  0.00     0.025 A 
BRANCH   9  14
ATOM     14  N   UNL A   1      35.112  29.554  26.873  1.00  0.00    -0.398 N 
ATOM     15  H   UNL A   1      34.716  29.163  26.060  1.00  0.00     0.156 HD
ATOM     16  H   UNL A   1      35.817  29.068  27.359  1.00  0.00     0.156 HD
ENDBRANCH   9  14
BRANCH  11  17
ATOM     17  C   UNL A   1      32.239  30.346  26.669  1.00  0.00     0.418 C 
ATOM     18  F   UNL A   1      32.170  29.133  27.290  1.00  0.00    -0.166 F 
ATOM     19  F   UNL A   1      31.008  30.910  26.839  1.00  0.00    -0.166 F 
ATOM     20  F   UNL A   1      32.335  30.067  25.337  1.00  0.00    -0.166 F 
ENDBRANCH  11  17
ENDBRANCH   7   8
BRANCH   7  21
ATOM     21  N   UNL A   1      34.660  35.790  27.945  1.00  0.00    -0.342 N 
ATOM     22  H   UNL A   1      34.517  35.975  26.951  1.00  0.00     0.345 HD
ATOM     23  H   UNL A   1      35.580  35.375  28.085  1.00  0.00     0.345 HD
ATOM     24  H   UNL A   1      34.597  36.664  28.466  1.00  0.00     0.345 HD
ENDBRANCH   7  21
ENDBRANCH   5   7
ENDBRANCH   4   5
ENDBRANCH   3   4
ENDBRANCH   2   3
ENDBRANCH   1   2
BRANCH   1  25
ATOM     25  C   UNL A   1      34.537  35.504  33.325  1.00  0.00     0.202 C 
BRANCH  25  26
ATOM     26  C   UNL A   1      35.963  34.940  33.285  1.00  0.00     0.261 C 
BRANCH  26  27
ATOM     27  O   UNL A   1      36.054  33.689  32.580  1.00  0.00    -0.460 OA
BRANCH  27  28
ATOM     28  C   UNL A   1      36.658  32.696  33.272  1.00  0.00     0.338 C 
ATOM     29  O   UNL A   1      36.467  32.377  34.438  1.00  0.00    -0.246 OA
BRANCH  28  30
ATOM     30  C   UNL A   1      37.517  31.899  32.378  1.00  0.00     0.060 A 
ATOM     31  C   UNL A   1      38.421  31.011  32.973  1.00  0.00     0.016 A 
ATOM     32  C   UNL A   1      37.510  32.086  30.994  1.00  0.00     0.016 A 
ATOM     33  C   UNL A   1      39.362  30.344  32.190  1.00  0.00     0.010 A 
ATOM     34  C   UNL A   1      38.461  31.422  30.210  1.00  0.00     0.010 A 
ATOM     35  C   UNL A   1      39.414  30.580  30.809  1.00  0.00    -0.014 A 
BRANCH  35  36
ATOM     36  C   UNL A   1      40.562  30.062  30.027  1.00  0.00     0.031 A 
ATOM     37  C   UNL A   1      41.726  30.972  29.747  1.00  0.00     0.074 A 
ATOM     38  C   UNL A   1      40.584  28.789  29.599  1.00  0.00     0.049 A 
ATOM     39  N   UNL A   1      42.823  30.736  29.074  1.00  0.00    -0.248 NA
ATOM     40  C   UNL A   1      41.642  32.333  30.304  1.00  0.00     0.031 C 
ATOM     41  C   UNL A   1      39.535  27.799  29.835  1.00  0.00     0.029 A 
ATOM     42  N   UNL A   1      41.530  28.112  28.869  1.00  0.00    -0.354 N 
ATOM     43  C   UNL A   1      43.555  31.915  29.120  1.00  0.00     0.074 A 
ATOM     44  C   UNL A   1      42.767  32.875  29.864  1.00  0.00     0.031 C 
ATOM     45  C   UNL A   1      39.890  26.642  29.251  1.00  0.00     0.029 A 
ATOM     46  C   UNL A   1      41.177  26.817  28.580  1.00  0.00     0.049 A 
ATOM     47  H   UNL A   1      42.378  28.517  28.580  1.00  0.00     0.167 HD
ATOM     48  C   UNL A   1      44.778  32.173  28.599  1.00  0.00     0.037 A 
ATOM     49  C   UNL A   1      41.813  25.887  27.843  1.00  0.00     0.037 A 
ATOM     50  C   UNL A   1      45.563  31.219  27.862  1.00  0.00     0.049 A 
ATOM     51  C   UNL A   1      43.144  26.216  27.221  1.00  0.00     0.074 A 
ATOM     52  C   UNL A   1      46.824  31.379  27.313  1.00  0.00     0.029 A 
ATOM     53  N   UNL A   1      45.159  29.926  27.567  1.00  0.00    -0.354 N 
ATOM     54  N   UNL A   1      43.839  27.325  27.293  1.00  0.00    -0.248 NA
ATOM     55  C   UNL A   1      43.779  25.161  26.416  1.00  0.00     0.031 C 
ATOM     56  C   UNL A   1      47.164  30.196  26.647  1.00  0.00     0.029 A 
ATOM     57  C   UNL A   1      46.134  29.285  26.821  1.00  0.00     0.049 A 
ATOM     58  H   UNL A   1      44.305  29.523  27.845  1.00  0.00     0.167 HD
ATOM     59  C   UNL A   1      45.002  27.094  26.569  1.00  0.00     0.074 A 
ATOM     60  C   UNL A   1      44.923  25.737  26.072  1.00  0.00     0.031 C 
ATOM     61  C   UNL A   1      46.044  27.930  26.339  1.00  0.00     0.037 A 
BRANCH  48  62
ATOM     62  C   UNL A   1      45.331  33.554  28.789  1.00  0.00     0.057 A 
ATOM     63  C   UNL A   1      46.141  33.882  29.884  1.00  0.00     0.134 A 
ATOM     64  C   UNL A   1      45.069  34.562  27.852  1.00  0.00     0.134 A 
ATOM     65  F   UNL A   1      46.417  32.965  30.824  1.00  0.00    -0.206 F 
ATOM     66  C   UNL A   1      46.653  35.170  30.052  1.00  0.00     0.040 A 
ATOM     67  C   UNL A   1      45.594  35.846  27.998  1.00  0.00     0.040 A 
ATOM     68  F   UNL A   1      44.302  34.312  26.781  1.00  0.00    -0.206 F 
ATOM     69  C   UNL A   1      46.384  36.155  29.103  1.00  0.00     0.006 A 
ENDBRANCH  48  62
BRANCH  49  70
ATOM     70  C   UNL A   1      41.196  24.553  27.645  1.00  0.00     0.057 A 
ATOM     71  C   UNL A   1      41.654  23.429  28.340  1.00  0.00     0.134 A 
ATOM     72  C   UNL A   1      40.139  24.369  26.744  1.00  0.00     0.134 A 
ATOM     73  F   UNL A   1      42.680  23.538  29.198  1.00  0.00    -0.206 F 
ATOM     74  C   UNL A   1      41.092  22.167  28.141  1.00  0.00     0.040 A 
ATOM     75  C   UNL A   1      39.552  23.118  26.552  1.00  0.00     0.040 A 
ATOM     76  F   UNL A   1      39.656  25.407  26.046  1.00  0.00    -0.206 F 
ATOM     77  C   UNL A   1      40.033  22.011  27.248  1.00  0.00     0.006 A 
ENDBRANCH  49  70
BRANCH  61  78
ATOM     78  C   UNL A   1      47.197  27.393  25.544  1.00  0.00     0.057 A 
ATOM     79  C   UNL A   1      47.293  27.585  24.160  1.00  0.00     0.134 A 
ATOM     80  C   UNL A   1      48.245  26.714  26.178  1.00  0.00     0.134 A 
ATOM     81  F   UNL A   1      46.317  28.217  23.491  1.00  0.00    -0.206 F 
ATOM     82  C   UNL A   1      48.384  27.105  23.432  1.00  0.00     0.040 A 
ATOM     83  C   UNL A   1      49.351  26.250  25.466  1.00  0.00     0.040 A 
ATOM     84  F   UNL A   1      48.218  26.504  27.503  1.00  0.00    -0.206 F 
ATOM     85  C   UNL A   1      49.420  26.441  24.087  1.00  0.00     0.006 A 
ENDBRANCH  61  78
ENDBRANCH  35  36
ENDBRANCH  28  30
ENDBRANCH  27  28
ENDBRANCH  26  27
ENDBRANCH  25  26
ENDBRANCH   1  25
TORSDOF 18
ENDMDL
