MODEL 1
REMARK VINA RESULT:     -10.8      0.000      0.000
REMARK SMILES O=C(Cc1c(F)cc(Cl)cc1F)OCCOCCOC(=O)c1ccc(-c2c3nc(c(-c4c(F)cccc4F)c4ccc([nH]4)c(-c4c(F)cccc4F)c4nc(c(-c5c(F)cccc5F)c5ccc2[nH]5)C=C4)C=C3)cc1
REMARK SMILES IDX 17 1 16 2 15 3 14 4 13 5 2 6 1 7 3 8 4 9 5 10 11 11 6 12
REMARK SMILES IDX 7 13 10 14 12 15 8 16 9 17 18 18 19 19 20 20 21 21 22 22
REMARK SMILES IDX 23 23 75 24 24 25 74 26 25 27 26 28 27 29 68 30 28 31 73 32
REMARK SMILES IDX 67 33 69 34 29 35 72 36 66 37 65 38 30 40 56 41 39 42 55 43
REMARK SMILES IDX 40 44 43 45 54 46 70 47 41 48 42 49 53 51 71 52 44 53 31 54
REMARK SMILES IDX 32 55 37 56 33 57 34 58 36 59 38 60 35 61 57 62 58 63 63 64
REMARK SMILES IDX 59 65 60 66 62 67 64 68 61 69 45 70 46 71 51 72 47 73 48 74
REMARK SMILES IDX 50 75 52 76 49 77
REMARK H PARENT 69 39 43 50
REMARK Flexibility Score: inf
ROOT
ATOM      1  C   UNL A   1      45.909  21.996  24.258  1.00  0.00     0.202 C 
ENDROOT
BRANCH   1   2
ATOM      2  O   UNL A   1      45.958  21.150  25.415  1.00  0.00    -0.374 OA
BRANCH   2   3
ATOM      3  C   UNL A   1      45.938  19.755  25.126  1.00  0.00     0.202 C 
BRANCH   3   4
ATOM      4  C   UNL A   1      44.656  19.267  24.466  1.00  0.00     0.261 C 
BRANCH   4   5
ATOM      5  O   UNL A   1      43.471  19.679  25.166  1.00  0.00    -0.463 OA
BRANCH   5   6
ATOM      6  C   UNL A   1      42.734  18.906  25.995  1.00  0.00     0.310 C 
ATOM      7  O   UNL A   1      42.528  17.733  25.682  1.00  0.00    -0.252 OA
BRANCH   6   8
ATOM      8  C   UNL A   1      42.137  19.480  27.263  1.00  0.00     0.164 C 
BRANCH   8   9
ATOM      9  C   UNL A   1      41.148  20.592  27.071  1.00  0.00     0.035 A 
ATOM     10  C   UNL A   1      41.331  21.830  27.686  1.00  0.00     0.131 A 
ATOM     11  C   UNL A   1      40.020  20.428  26.262  1.00  0.00     0.131 A 
ATOM     12  F   UNL A   1      42.369  22.013  28.512  1.00  0.00    -0.207 F 
ATOM     13  C   UNL A   1      40.454  22.887  27.463  1.00  0.00     0.060 A 
ATOM     14  C   UNL A   1      39.151  21.478  25.997  1.00  0.00     0.060 A 
ATOM     15  F   UNL A   1      39.794  19.249  25.665  1.00  0.00    -0.207 F 
ATOM     16  C   UNL A   1      39.377  22.711  26.599  1.00  0.00     0.046 A 
ATOM     17  Cl  UNL A   1      38.322  24.026  26.266  1.00  0.00    -0.084 Cl
ENDBRANCH   8   9
ENDBRANCH   6   8
ENDBRANCH   5   6
ENDBRANCH   4   5
ENDBRANCH   3   4
ENDBRANCH   2   3
ENDBRANCH   1   2
BRANCH   1  18
ATOM     18  C   UNL A   1      44.721  22.966  24.265  1.00  0.00     0.261 C 
BRANCH  18  19
ATOM     19  O   UNL A   1      44.651  23.663  25.521  1.00  0.00    -0.460 OA
BRANCH  19  20
ATOM     20  C   UNL A   1      45.014  24.968  25.482  1.00  0.00     0.338 C 
ATOM     21  O   UNL A   1      45.756  25.509  24.680  1.00  0.00    -0.246 OA
BRANCH  20  22
ATOM     22  C   UNL A   1      44.178  25.715  26.446  1.00  0.00     0.060 A 
ATOM     23  C   UNL A   1      44.330  27.108  26.494  1.00  0.00     0.016 A 
ATOM     24  C   UNL A   1      43.227  25.080  27.251  1.00  0.00     0.016 A 
ATOM     25  C   UNL A   1      43.556  27.866  27.370  1.00  0.00     0.010 A 
ATOM     26  C   UNL A   1      42.460  25.838  28.137  1.00  0.00     0.010 A 
ATOM     27  C   UNL A   1      42.646  27.228  28.221  1.00  0.00    -0.014 A 
BRANCH  27  28
ATOM     28  C   UNL A   1      42.043  27.992  29.336  1.00  0.00     0.031 A 
ATOM     29  C   UNL A   1      42.721  27.942  30.675  1.00  0.00     0.074 A 
ATOM     30  C   UNL A   1      40.938  28.733  29.155  1.00  0.00     0.049 A 
ATOM     31  N   UNL A   1      42.394  28.534  31.792  1.00  0.00    -0.248 NA
ATOM     32  C   UNL A   1      43.931  27.108  30.764  1.00  0.00     0.031 C 
ATOM     33  C   UNL A   1      40.210  28.872  27.896  1.00  0.00     0.029 A 
ATOM     34  N   UNL A   1      40.234  29.510  30.041  1.00  0.00    -0.354 N 
ATOM     35  C   UNL A   1      43.356  28.146  32.715  1.00  0.00     0.074 A 
ATOM     36  C   UNL A   1      44.256  27.238  32.041  1.00  0.00     0.031 C 
ATOM     37  C   UNL A   1      39.156  29.685  28.091  1.00  0.00     0.029 A 
ATOM     38  C   UNL A   1      39.126  30.104  29.492  1.00  0.00     0.049 A 
ATOM     39  H   UNL A   1      40.500  29.628  30.983  1.00  0.00     0.167 HD
ATOM     40  C   UNL A   1      43.485  28.526  34.006  1.00  0.00     0.037 A 
ATOM     41  C   UNL A   1      38.191  30.890  30.062  1.00  0.00     0.037 A 
ATOM     42  C   UNL A   1      42.588  29.430  34.670  1.00  0.00     0.049 A 
ATOM     43  C   UNL A   1      38.318  31.251  31.517  1.00  0.00     0.074 A 
ATOM     44  C   UNL A   1      42.651  29.908  35.966  1.00  0.00     0.029 A 
ATOM     45  N   UNL A   1      41.454  29.981  34.092  1.00  0.00    -0.354 N 
ATOM     46  N   UNL A   1      39.258  30.921  32.370  1.00  0.00    -0.248 NA
ATOM     47  C   UNL A   1      37.259  32.095  32.092  1.00  0.00     0.031 C 
ATOM     48  C   UNL A   1      41.526  30.706  36.189  1.00  0.00     0.029 A 
ATOM     49  C   UNL A   1      40.790  30.768  35.016  1.00  0.00     0.049 A 
ATOM     50  H   UNL A   1      41.165  29.835  33.162  1.00  0.00     0.167 HD
ATOM     51  C   UNL A   1      38.916  31.527  33.573  1.00  0.00     0.074 A 
ATOM     52  C   UNL A   1      37.687  32.255  33.338  1.00  0.00     0.031 C 
ATOM     53  C   UNL A   1      39.564  31.484  34.763  1.00  0.00     0.037 A 
BRANCH  40  54
ATOM     54  C   UNL A   1      44.629  27.949  34.786  1.00  0.00     0.057 A 
ATOM     55  C   UNL A   1      45.875  28.587  34.851  1.00  0.00     0.134 A 
ATOM     56  C   UNL A   1      44.474  26.756  35.501  1.00  0.00     0.134 A 
ATOM     57  F   UNL A   1      46.094  29.723  34.173  1.00  0.00    -0.206 F 
ATOM     58  C   UNL A   1      46.932  28.047  35.586  1.00  0.00     0.040 A 
ATOM     59  C   UNL A   1      45.514  26.220  36.260  1.00  0.00     0.040 A 
ATOM     60  F   UNL A   1      43.305  26.095  35.480  1.00  0.00    -0.206 F 
ATOM     61  C   UNL A   1      46.750  26.863  36.299  1.00  0.00     0.006 A 
ENDBRANCH  40  54
BRANCH  41  62
ATOM     62  C   UNL A   1      37.061  31.393  29.240  1.00  0.00     0.057 A 
ATOM     63  C   UNL A   1      35.950  30.589  28.969  1.00  0.00     0.134 A 
ATOM     64  C   UNL A   1      37.049  32.700  28.740  1.00  0.00     0.134 A 
ATOM     65  F   UNL A   1      35.911  29.321  29.404  1.00  0.00    -0.206 F 
ATOM     66  C   UNL A   1      34.864  31.066  28.232  1.00  0.00     0.040 A 
ATOM     67  C   UNL A   1      35.962  33.198  28.020  1.00  0.00     0.040 A 
ATOM     68  F   UNL A   1      38.085  33.521  28.966  1.00  0.00    -0.206 F 
ATOM     69  C   UNL A   1      34.865  32.380  27.764  1.00  0.00     0.006 A 
ENDBRANCH  41  62
BRANCH  53  70
ATOM     70  C   UNL A   1      38.972  32.245  35.913  1.00  0.00     0.057 A 
ATOM     71  C   UNL A   1      38.148  31.620  36.857  1.00  0.00     0.134 A 
ATOM     72  C   UNL A   1      39.318  33.583  36.139  1.00  0.00     0.134 A 
ATOM     73  F   UNL A   1      37.774  30.342  36.694  1.00  0.00    -0.206 F 
ATOM     74  C   UNL A   1      37.689  32.301  37.986  1.00  0.00     0.040 A 
ATOM     75  C   UNL A   1      38.886  34.267  37.277  1.00  0.00     0.040 A 
ATOM     76  F   UNL A   1      40.115  34.235  35.279  1.00  0.00    -0.206 F 
ATOM     77  C   UNL A   1      38.069  33.624  38.205  1.00  0.00     0.006 A 
ENDBRANCH  53  70
ENDBRANCH  27  28
ENDBRANCH  20  22
ENDBRANCH  19  20
ENDBRANCH  18  19
ENDBRANCH   1  18
TORSDOF 15
ENDMDL
MODEL 2
REMARK VINA RESULT:     -10.3      1.274      2.284
REMARK SMILES O=C(Cc1c(F)cc(Cl)cc1F)OCCOCCOC(=O)c1ccc(-c2c3nc(c(-c4c(F)cccc4F)c4ccc([nH]4)c(-c4c(F)cccc4F)c4nc(c(-c5c(F)cccc5F)c5ccc2[nH]5)C=C4)C=C3)cc1
REMARK SMILES IDX 17 1 16 2 15 3 14 4 13 5 2 6 1 7 3 8 4 9 5 10 11 11 6 12
REMARK SMILES IDX 7 13 10 14 12 15 8 16 9 17 18 18 19 19 20 20 21 21 22 22
REMARK SMILES IDX 23 23 75 24 24 25 74 26 25 27 26 28 27 29 68 30 28 31 73 32
REMARK SMILES IDX 67 33 69 34 29 35 72 36 66 37 65 38 30 40 56 41 39 42 55 43
REMARK SMILES IDX 40 44 43 45 54 46 70 47 41 48 42 49 53 51 71 52 44 53 31 54
REMARK SMILES IDX 32 55 37 56 33 57 34 58 36 59 38 60 35 61 57 62 58 63 63 64
REMARK SMILES IDX 59 65 60 66 62 67 64 68 61 69 45 70 46 71 51 72 47 73 48 74
REMARK SMILES IDX 50 75 52 76 49 77
REMARK H PARENT 69 39 43 50
REMARK Flexibility Score: inf
ROOT
ATOM      1  C   UNL A   1      44.830  20.917  24.640  1.00  0.00     0.202 C 
ENDROOT
BRANCH   1   2
ATOM      2  O   UNL A   1      43.737  19.992  24.559  1.00  0.00    -0.374 OA
BRANCH   2   3
ATOM      3  C   UNL A   1      43.285  19.503  25.819  1.00  0.00     0.202 C 
BRANCH   3   4
ATOM      4  C   UNL A   1      41.785  19.256  25.897  1.00  0.00     0.261 C 
BRANCH   4   5
ATOM      5  O   UNL A   1      41.177  19.853  27.054  1.00  0.00    -0.463 OA
BRANCH   5   6
ATOM      6  C   UNL A   1      40.800  21.147  27.170  1.00  0.00     0.310 C 
ATOM      7  O   UNL A   1      40.783  21.659  28.290  1.00  0.00    -0.252 OA
BRANCH   6   8
ATOM      8  C   UNL A   1      40.367  21.940  25.955  1.00  0.00     0.164 C 
BRANCH   8   9
ATOM      9  C   UNL A   1      38.890  22.175  25.824  1.00  0.00     0.035 A 
ATOM     10  C   UNL A   1      38.031  21.148  25.439  1.00  0.00     0.131 A 
ATOM     11  C   UNL A   1      38.329  23.426  26.094  1.00  0.00     0.131 A 
ATOM     12  F   UNL A   1      38.532  19.947  25.119  1.00  0.00    -0.207 F 
ATOM     13  C   UNL A   1      36.654  21.338  25.376  1.00  0.00     0.060 A 
ATOM     14  C   UNL A   1      36.955  23.632  26.073  1.00  0.00     0.060 A 
ATOM     15  F   UNL A   1      39.119  24.449  26.450  1.00  0.00    -0.207 F 
ATOM     16  C   UNL A   1      36.120  22.578  25.716  1.00  0.00     0.046 A 
ATOM     17  Cl  UNL A   1      34.418  22.811  25.704  1.00  0.00    -0.084 Cl
ENDBRANCH   8   9
ENDBRANCH   6   8
ENDBRANCH   5   6
ENDBRANCH   4   5
ENDBRANCH   3   4
ENDBRANCH   2   3
ENDBRANCH   1   2
BRANCH   1  18
ATOM     18  C   UNL A   1      44.703  21.906  25.804  1.00  0.00     0.261 C 
BRANCH  18  19
ATOM     19  O   UNL A   1      43.769  22.949  25.476  1.00  0.00    -0.460 OA
BRANCH  19  20
ATOM     20  C   UNL A   1      44.291  24.199  25.416  1.00  0.00     0.338 C 
ATOM     21  O   UNL A   1      45.083  24.634  24.597  1.00  0.00    -0.246 OA
BRANCH  20  22
ATOM     22  C   UNL A   1      43.567  25.055  26.381  1.00  0.00     0.060 A 
ATOM     23  C   UNL A   1      43.946  26.402  26.463  1.00  0.00     0.016 A 
ATOM     24  C   UNL A   1      42.507  24.570  27.152  1.00  0.00     0.016 A 
ATOM     25  C   UNL A   1      43.288  27.260  27.341  1.00  0.00     0.010 A 
ATOM     26  C   UNL A   1      41.855  25.427  28.041  1.00  0.00     0.010 A 
ATOM     27  C   UNL A   1      42.266  26.765  28.160  1.00  0.00    -0.014 A 
BRANCH  27  28
ATOM     28  C   UNL A   1      41.772  27.596  29.280  1.00  0.00     0.031 A 
ATOM     29  C   UNL A   1      42.506  27.527  30.588  1.00  0.00     0.074 A 
ATOM     30  C   UNL A   1      40.716  28.412  29.129  1.00  0.00     0.049 A 
ATOM     31  N   UNL A   1      42.274  28.168  31.703  1.00  0.00    -0.248 NA
ATOM     32  C   UNL A   1      43.655  26.609  30.645  1.00  0.00     0.031 C 
ATOM     33  C   UNL A   1      39.943  28.576  27.900  1.00  0.00     0.029 A 
ATOM     34  N   UNL A   1      40.112  29.259  30.025  1.00  0.00    -0.354 N 
ATOM     35  C   UNL A   1      43.248  27.731  32.592  1.00  0.00     0.074 A 
ATOM     36  C   UNL A   1      44.047  26.744  31.902  1.00  0.00     0.031 C 
ATOM     37  C   UNL A   1      38.961  29.468  28.121  1.00  0.00     0.029 A 
ATOM     38  C   UNL A   1      39.026  29.920  29.511  1.00  0.00     0.049 A 
ATOM     39  H   UNL A   1      40.429  29.379  30.950  1.00  0.00     0.167 HD
ATOM     40  C   UNL A   1      43.463  28.130  33.865  1.00  0.00     0.037 A 
ATOM     41  C   UNL A   1      38.177  30.786  30.100  1.00  0.00     0.037 A 
ATOM     42  C   UNL A   1      42.665  29.112  34.545  1.00  0.00     0.049 A 
ATOM     43  C   UNL A   1      38.397  31.169  31.539  1.00  0.00     0.074 A 
ATOM     44  C   UNL A   1      42.823  29.614  35.824  1.00  0.00     0.029 A 
ATOM     45  N   UNL A   1      41.549  29.732  34.004  1.00  0.00    -0.354 N 
ATOM     46  N   UNL A   1      39.349  30.790  32.358  1.00  0.00    -0.248 NA
ATOM     47  C   UNL A   1      37.430  32.101  32.138  1.00  0.00     0.031 C 
ATOM     48  C   UNL A   1      41.770  30.497  36.076  1.00  0.00     0.029 A 
ATOM     49  C   UNL A   1      40.987  30.586  34.936  1.00  0.00     0.049 A 
ATOM     50  H   UNL A   1      41.208  29.586  33.092  1.00  0.00     0.167 HD
ATOM     51  C   UNL A   1      39.108  31.447  33.558  1.00  0.00     0.074 A 
ATOM     52  C   UNL A   1      37.925  32.258  33.360  1.00  0.00     0.031 C 
ATOM     53  C   UNL A   1      39.805  31.384  34.719  1.00  0.00     0.037 A 
BRANCH  40  54
ATOM     54  C   UNL A   1      44.597  27.488  34.608  1.00  0.00     0.057 A 
ATOM     55  C   UNL A   1      45.887  28.037  34.605  1.00  0.00     0.134 A 
ATOM     56  C   UNL A   1      44.391  26.324  35.357  1.00  0.00     0.134 A 
ATOM     57  F   UNL A   1      46.154  29.141  33.893  1.00  0.00    -0.206 F 
ATOM     58  C   UNL A   1      46.935  27.438  35.307  1.00  0.00     0.040 A 
ATOM     59  C   UNL A   1      45.424  25.730  36.082  1.00  0.00     0.040 A 
ATOM     60  F   UNL A   1      43.179  25.748  35.401  1.00  0.00    -0.206 F 
ATOM     61  C   UNL A   1      46.702  26.284  36.054  1.00  0.00     0.006 A 
ENDBRANCH  40  54
BRANCH  41  62
ATOM     62  C   UNL A   1      37.050  31.351  29.317  1.00  0.00     0.057 A 
ATOM     63  C   UNL A   1      37.099  32.655  28.816  1.00  0.00     0.134 A 
ATOM     64  C   UNL A   1      35.915  30.587  29.019  1.00  0.00     0.134 A 
ATOM     65  F   UNL A   1      38.150  33.443  29.085  1.00  0.00    -0.206 F 
ATOM     66  C   UNL A   1      36.061  33.182  28.043  1.00  0.00     0.040 A 
ATOM     67  C   UNL A   1      34.880  31.092  28.230  1.00  0.00     0.040 A 
ATOM     68  F   UNL A   1      35.807  29.329  29.470  1.00  0.00    -0.206 F 
ATOM     69  C   UNL A   1      34.952  32.394  27.740  1.00  0.00     0.006 A 
ENDBRANCH  41  62
BRANCH  53  70
ATOM     70  C   UNL A   1      39.323  32.212  35.874  1.00  0.00     0.057 A 
ATOM     71  C   UNL A   1      39.728  33.542  36.041  1.00  0.00     0.134 A 
ATOM     72  C   UNL A   1      38.361  31.711  36.760  1.00  0.00     0.134 A 
ATOM     73  F   UNL A   1      40.652  34.079  35.230  1.00  0.00    -0.206 F 
ATOM     74  C   UNL A   1      39.193  34.344  37.050  1.00  0.00     0.040 A 
ATOM     75  C   UNL A   1      37.801  32.510  37.757  1.00  0.00     0.040 A 
ATOM     76  F   UNL A   1      37.921  30.448  36.645  1.00  0.00    -0.206 F 
ATOM     77  C   UNL A   1      38.217  33.832  37.903  1.00  0.00     0.006 A 
ENDBRANCH  53  70
ENDBRANCH  27  28
ENDBRANCH  20  22
ENDBRANCH  19  20
ENDBRANCH  18  19
ENDBRANCH   1  18
TORSDOF 15
ENDMDL
MODEL 3
REMARK VINA RESULT:     -10.1      2.515      3.150
REMARK SMILES O=C(Cc1c(F)cc(Cl)cc1F)OCCOCCOC(=O)c1ccc(-c2c3nc(c(-c4c(F)cccc4F)c4ccc([nH]4)c(-c4c(F)cccc4F)c4nc(c(-c5c(F)cccc5F)c5ccc2[nH]5)C=C4)C=C3)cc1
REMARK SMILES IDX 17 1 16 2 15 3 14 4 13 5 2 6 1 7 3 8 4 9 5 10 11 11 6 12
REMARK SMILES IDX 7 13 10 14 12 15 8 16 9 17 18 18 19 19 20 20 21 21 22 22
REMARK SMILES IDX 23 23 75 24 24 25 74 26 25 27 26 28 27 29 68 30 28 31 73 32
REMARK SMILES IDX 67 33 69 34 29 35 72 36 66 37 65 38 30 40 56 41 39 42 55 43
REMARK SMILES IDX 40 44 43 45 54 46 70 47 41 48 42 49 53 51 71 52 44 53 31 54
REMARK SMILES IDX 32 55 37 56 33 57 34 58 36 59 38 60 35 61 57 62 58 63 63 64
REMARK SMILES IDX 59 65 60 66 62 67 64 68 61 69 45 70 46 71 51 72 47 73 48 74
REMARK SMILES IDX 50 75 52 76 49 77
REMARK H PARENT 69 39 43 50
REMARK Flexibility Score: inf
ROOT
ATOM      1  C   UNL A   1      42.684  21.241  26.066  1.00  0.00     0.202 C 
ENDROOT
BRANCH   1   2
ATOM      2  O   UNL A   1      41.351  21.430  25.572  1.00  0.00    -0.374 OA
BRANCH   2   3
ATOM      3  C   UNL A   1      40.352  21.503  26.585  1.00  0.00     0.202 C 
BRANCH   3   4
ATOM      4  C   UNL A   1      39.058  22.176  26.147  1.00  0.00     0.261 C 
BRANCH   4   5
ATOM      5  O   UNL A   1      38.334  21.416  25.166  1.00  0.00    -0.463 OA
BRANCH   5   6
ATOM      6  C   UNL A   1      37.061  21.644  24.771  1.00  0.00     0.310 C 
ATOM      7  O   UNL A   1      36.170  20.906  25.194  1.00  0.00    -0.252 OA
BRANCH   6   8
ATOM      8  C   UNL A   1      36.740  22.758  23.797  1.00  0.00     0.164 C 
BRANCH   8   9
ATOM      9  C   UNL A   1      35.534  23.588  24.131  1.00  0.00     0.035 A 
ATOM     10  C   UNL A   1      35.493  24.363  25.288  1.00  0.00     0.131 A 
ATOM     11  C   UNL A   1      34.420  23.619  23.287  1.00  0.00     0.131 A 
ATOM     12  F   UNL A   1      36.517  24.321  26.151  1.00  0.00    -0.207 F 
ATOM     13  C   UNL A   1      34.408  25.184  25.574  1.00  0.00     0.060 A 
ATOM     14  C   UNL A   1      33.340  24.457  23.533  1.00  0.00     0.060 A 
ATOM     15  F   UNL A   1      34.407  22.875  22.172  1.00  0.00    -0.207 F 
ATOM     16  C   UNL A   1      33.342  25.243  24.680  1.00  0.00     0.046 A 
ATOM     17  Cl  UNL A   1      32.022  26.299  24.988  1.00  0.00    -0.084 Cl
ENDBRANCH   8   9
ENDBRANCH   6   8
ENDBRANCH   5   6
ENDBRANCH   4   5
ENDBRANCH   3   4
ENDBRANCH   2   3
ENDBRANCH   1   2
BRANCH   1  18
ATOM     18  C   UNL A   1      43.740  22.023  25.276  1.00  0.00     0.261 C 
BRANCH  18  19
ATOM     19  O   UNL A   1      43.223  23.305  24.881  1.00  0.00    -0.460 OA
BRANCH  19  20
ATOM     20  C   UNL A   1      44.012  24.367  25.177  1.00  0.00     0.338 C 
ATOM     21  O   UNL A   1      45.050  24.696  24.628  1.00  0.00    -0.246 OA
BRANCH  20  22
ATOM     22  C   UNL A   1      43.295  25.227  26.142  1.00  0.00     0.060 A 
ATOM     23  C   UNL A   1      43.750  26.545  26.299  1.00  0.00     0.016 A 
ATOM     24  C   UNL A   1      42.171  24.779  26.843  1.00  0.00     0.016 A 
ATOM     25  C   UNL A   1      43.103  27.407  27.180  1.00  0.00     0.010 A 
ATOM     26  C   UNL A   1      41.530  25.640  27.736  1.00  0.00     0.010 A 
ATOM     27  C   UNL A   1      42.014  26.945  27.930  1.00  0.00    -0.014 A 
BRANCH  27  28
ATOM     28  C   UNL A   1      41.517  27.760  29.060  1.00  0.00     0.031 A 
ATOM     29  C   UNL A   1      42.246  27.670  30.370  1.00  0.00     0.074 A 
ATOM     30  C   UNL A   1      40.464  28.581  28.916  1.00  0.00     0.049 A 
ATOM     31  N   UNL A   1      42.011  28.295  31.493  1.00  0.00    -0.248 NA
ATOM     32  C   UNL A   1      43.392  26.749  30.419  1.00  0.00     0.031 C 
ATOM     33  C   UNL A   1      39.696  28.764  27.687  1.00  0.00     0.029 A 
ATOM     34  N   UNL A   1      39.858  29.415  29.822  1.00  0.00    -0.354 N 
ATOM     35  C   UNL A   1      42.980  27.843  32.380  1.00  0.00     0.074 A 
ATOM     36  C   UNL A   1      43.780  26.865  31.679  1.00  0.00     0.031 C 
ATOM     37  C   UNL A   1      38.715  29.655  27.917  1.00  0.00     0.029 A 
ATOM     38  C   UNL A   1      38.775  30.086  29.313  1.00  0.00     0.049 A 
ATOM     39  H   UNL A   1      40.171  29.521  30.750  1.00  0.00     0.167 HD
ATOM     40  C   UNL A   1      43.191  28.223  33.660  1.00  0.00     0.037 A 
ATOM     41  C   UNL A   1      37.926  30.945  29.912  1.00  0.00     0.037 A 
ATOM     42  C   UNL A   1      42.392  29.197  34.350  1.00  0.00     0.049 A 
ATOM     43  C   UNL A   1      38.141  31.307  31.357  1.00  0.00     0.074 A 
ATOM     44  C   UNL A   1      42.545  29.679  35.637  1.00  0.00     0.029 A 
ATOM     45  N   UNL A   1      41.279  29.827  33.813  1.00  0.00    -0.354 N 
ATOM     46  N   UNL A   1      39.089  30.915  32.174  1.00  0.00    -0.248 NA
ATOM     47  C   UNL A   1      37.173  32.232  31.965  1.00  0.00     0.031 C 
ATOM     48  C   UNL A   1      41.493  30.561  35.897  1.00  0.00     0.029 A 
ATOM     49  C   UNL A   1      40.715  30.669  34.756  1.00  0.00     0.049 A 
ATOM     50  H   UNL A   1      40.942  29.695  32.898  1.00  0.00     0.167 HD
ATOM     51  C   UNL A   1      38.844  31.554  33.383  1.00  0.00     0.074 A 
ATOM     52  C   UNL A   1      37.664  32.371  33.191  1.00  0.00     0.031 C 
ATOM     53  C   UNL A   1      39.536  31.473  34.546  1.00  0.00     0.037 A 
BRANCH  40  54
ATOM     54  C   UNL A   1      44.320  27.568  34.398  1.00  0.00     0.057 A 
ATOM     55  C   UNL A   1      45.605  28.127  34.428  1.00  0.00     0.134 A 
ATOM     56  C   UNL A   1      44.113  26.380  35.108  1.00  0.00     0.134 A 
ATOM     57  F   UNL A   1      45.873  29.254  33.753  1.00  0.00    -0.206 F 
ATOM     58  C   UNL A   1      46.649  27.515  35.125  1.00  0.00     0.040 A 
ATOM     59  C   UNL A   1      45.142  25.773  35.829  1.00  0.00     0.040 A 
ATOM     60  F   UNL A   1      42.906  25.794  35.119  1.00  0.00    -0.206 F 
ATOM     61  C   UNL A   1      46.416  26.338  35.834  1.00  0.00     0.006 A 
ENDBRANCH  40  54
BRANCH  41  62
ATOM     62  C   UNL A   1      36.803  31.524  29.132  1.00  0.00     0.057 A 
ATOM     63  C   UNL A   1      35.657  30.775  28.849  1.00  0.00     0.134 A 
ATOM     64  C   UNL A   1      36.834  32.851  28.686  1.00  0.00     0.134 A 
ATOM     65  F   UNL A   1      35.576  29.493  29.232  1.00  0.00    -0.206 F 
ATOM     66  C   UNL A   1      34.578  31.324  28.152  1.00  0.00     0.040 A 
ATOM     67  C   UNL A   1      35.755  33.420  28.007  1.00  0.00     0.040 A 
ATOM     68  F   UNL A   1      37.905  33.621  28.926  1.00  0.00    -0.206 F 
ATOM     69  C   UNL A   1      34.623  32.655  27.738  1.00  0.00     0.006 A 
ENDBRANCH  41  62
BRANCH  53  70
ATOM     70  C   UNL A   1      39.051  32.285  35.710  1.00  0.00     0.057 A 
ATOM     71  C   UNL A   1      38.271  31.716  36.725  1.00  0.00     0.134 A 
ATOM     72  C   UNL A   1      39.461  33.614  35.875  1.00  0.00     0.134 A 
ATOM     73  F   UNL A   1      37.840  30.450  36.623  1.00  0.00    -0.206 F 
ATOM     74  C   UNL A   1      37.915  32.443  37.862  1.00  0.00     0.040 A 
ATOM     75  C   UNL A   1      39.132  34.343  37.019  1.00  0.00     0.040 A 
ATOM     76  F   UNL A   1      40.221  34.213  34.946  1.00  0.00    -0.206 F 
ATOM     77  C   UNL A   1      38.357  33.756  38.017  1.00  0.00     0.006 A 
ENDBRANCH  53  70
ENDBRANCH  27  28
ENDBRANCH  20  22
ENDBRANCH  19  20
ENDBRANCH  18  19
ENDBRANCH   1  18
TORSDOF 15
ENDMDL
