MODEL 1
REMARK VINA RESULT:     -12.5      0.000      0.000
REMARK SMILES Cc1ccccc1C(=O)Nc1ccc(N2CCCCC2)cc1C(=O)OCCOCCOC(=O)c1ccc(-c2c3nc(c(-c4c(F)cccc4F)c4ccc([nH]4)c(-c4c(F)cccc4F)c4nc(c(-c5c(F)cccc5F)c5ccc2[nH]5)C=C4)C=C3)cc1
REMARK SMILES IDX 28 1 27 2 26 3 25 4 23 5 24 6 22 7 11 8 12 9 13 10 21 11
REMARK SMILES IDX 14 12 10 13 8 14 9 15 7 17 1 18 2 19 3 20 4 21 6 22 5 23
REMARK SMILES IDX 15 24 16 25 20 26 17 27 19 28 18 29 29 30 30 31 31 32 32 33
REMARK SMILES IDX 33 34 34 35 35 36 87 37 36 38 86 39 37 40 38 41 39 42 80 43
REMARK SMILES IDX 40 44 85 45 79 46 81 47 41 48 84 49 78 50 77 51 42 53 68 54
REMARK SMILES IDX 51 55 67 56 52 57 55 58 66 59 82 60 53 61 54 62 65 64 83 65
REMARK SMILES IDX 56 66 43 67 44 68 49 69 45 70 46 71 48 72 50 73 47 74 69 75
REMARK SMILES IDX 70 76 75 77 71 78 72 79 74 80 76 81 73 82 57 83 58 84 63 85
REMARK SMILES IDX 59 86 60 87 62 88 64 89 61 90
REMARK H PARENT 10 16 81 52 55 63
REMARK Flexibility Score: inf
ROOT
ATOM      1  O   UNL A   1      34.324  32.029  27.602  1.00  0.00    -0.374 OA
ENDROOT
BRANCH   1   2
ATOM      2  C   UNL A   1      33.295  31.079  27.575  1.00  0.00     0.202 C 
BRANCH   2   3
ATOM      3  C   UNL A   1      33.715  29.731  27.019  1.00  0.00     0.261 C 
BRANCH   3   4
ATOM      4  O   UNL A   1      32.816  28.945  26.233  1.00  0.00    -0.460 OA
BRANCH   4   5
ATOM      5  C   UNL A   1      31.751  28.189  26.618  1.00  0.00     0.340 C 
ATOM      6  O   UNL A   1      31.266  28.012  27.697  1.00  0.00    -0.246 OA
BRANCH   5   7
ATOM      7  C   UNL A   1      31.206  27.744  25.309  1.00  0.00     0.085 A 
ATOM      8  C   UNL A   1      30.501  26.538  25.259  1.00  0.00     0.056 A 
ATOM      9  C   UNL A   1      29.537  26.348  24.271  1.00  0.00     0.029 A 
ATOM     10  C   UNL A   1      29.182  27.428  23.456  1.00  0.00     0.028 A 
ATOM     11  C   UNL A   1      30.940  28.768  24.387  1.00  0.00     0.043 A 
ATOM     12  C   UNL A   1      29.827  28.674  23.553  1.00  0.00     0.038 A 
BRANCH   8  13
ATOM     13  N   UNL A   1      30.744  25.524  26.170  1.00  0.00    -0.321 N 
ATOM     14  C   UNL A   1      31.765  24.626  26.350  1.00  0.00     0.255 C 
ATOM     15  O   UNL A   1      31.719  24.068  27.457  1.00  0.00    -0.269 OA
ATOM     16  H   UNL A   1      30.025  25.425  26.833  1.00  0.00     0.170 HD
BRANCH  14  17
ATOM     17  C   UNL A   1      32.806  24.123  25.353  1.00  0.00     0.043 A 
ATOM     18  C   UNL A   1      31.558  23.285  23.195  1.00  0.00     0.045 C 
ATOM     19  C   UNL A   1      32.738  23.490  24.089  1.00  0.00    -0.038 A 
ATOM     20  C   UNL A   1      33.937  23.020  23.477  1.00  0.00     0.004 A 
ATOM     21  C   UNL A   1      35.188  23.164  24.061  1.00  0.00     0.000 A 
ATOM     22  C   UNL A   1      34.118  24.265  25.900  1.00  0.00     0.014 A 
ATOM     23  C   UNL A   1      35.280  23.801  25.278  1.00  0.00     0.001 A 
ENDBRANCH  14  17
ENDBRANCH   8  13
BRANCH  12  24
ATOM     24  N   UNL A   1      29.260  29.804  22.970  1.00  0.00    -0.372 N 
ATOM     25  C   UNL A   1      29.209  30.996  23.832  1.00  0.00     0.116 C 
ATOM     26  C   UNL A   1      29.501  30.109  21.556  1.00  0.00     0.116 C 
ATOM     27  C   UNL A   1      28.049  31.880  23.389  1.00  0.00     0.021 C 
ATOM     28  C   UNL A   1      28.340  30.960  21.046  1.00  0.00     0.021 C 
ATOM     29  C   UNL A   1      28.130  32.211  21.900  1.00  0.00     0.004 C 
ENDBRANCH  12  24
ENDBRANCH   5   7
ENDBRANCH   4   5
ENDBRANCH   3   4
ENDBRANCH   2   3
ENDBRANCH   1   2
BRANCH   1  30
ATOM     30  C   UNL A   1      33.918  33.320  28.019  1.00  0.00     0.202 C 
BRANCH  30  31
ATOM     31  C   UNL A   1      34.480  33.789  29.369  1.00  0.00     0.261 C 
BRANCH  31  32
ATOM     32  O   UNL A   1      35.563  33.101  30.066  1.00  0.00    -0.460 OA
BRANCH  32  33
ATOM     33  C   UNL A   1      35.701  31.985  30.814  1.00  0.00     0.338 C 
ATOM     34  O   UNL A   1      35.239  31.925  31.949  1.00  0.00    -0.246 OA
BRANCH  33  35
ATOM     35  C   UNL A   1      36.529  30.877  30.320  1.00  0.00     0.060 A 
ATOM     36  C   UNL A   1      36.715  29.770  31.164  1.00  0.00     0.016 A 
ATOM     37  C   UNL A   1      37.261  31.019  29.152  1.00  0.00     0.016 A 
ATOM     38  C   UNL A   1      37.814  28.936  30.967  1.00  0.00     0.010 A 
ATOM     39  C   UNL A   1      38.407  30.250  29.022  1.00  0.00     0.010 A 
ATOM     40  C   UNL A   1      38.727  29.251  29.960  1.00  0.00    -0.014 A 
BRANCH  40  41
ATOM     41  C   UNL A   1      40.103  28.736  29.940  1.00  0.00     0.031 A 
ATOM     42  C   UNL A   1      40.427  27.428  29.336  1.00  0.00     0.074 A 
ATOM     43  C   UNL A   1      41.138  29.509  30.343  1.00  0.00     0.049 A 
ATOM     44  N   UNL A   1      41.542  26.812  29.543  1.00  0.00    -0.248 NA
ATOM     45  C   UNL A   1      39.503  26.652  28.518  1.00  0.00     0.031 C 
ATOM     46  C   UNL A   1      42.559  29.356  30.021  1.00  0.00     0.029 A 
ATOM     47  N   UNL A   1      41.105  30.648  31.150  1.00  0.00    -0.354 N 
ATOM     48  C   UNL A   1      41.628  25.788  28.637  1.00  0.00     0.074 A 
ATOM     49  C   UNL A   1      40.279  25.625  28.161  1.00  0.00     0.031 C 
ATOM     50  C   UNL A   1      43.281  30.207  30.762  1.00  0.00     0.029 A 
ATOM     51  C   UNL A   1      42.386  30.847  31.705  1.00  0.00     0.049 A 
ATOM     52  H   UNL A   1      40.317  31.217  31.306  1.00  0.00     0.167 HD
ATOM     53  C   UNL A   1      42.861  25.297  28.323  1.00  0.00     0.037 A 
ATOM     54  C   UNL A   1      42.553  30.816  33.060  1.00  0.00     0.037 A 
ATOM     55  C   UNL A   1      43.893  25.805  29.250  1.00  0.00     0.049 A 
ATOM     56  C   UNL A   1      43.189  29.527  33.546  1.00  0.00     0.074 A 
ATOM     57  C   UNL A   1      45.009  26.621  29.154  1.00  0.00     0.029 A 
ATOM     58  N   UNL A   1      43.692  25.625  30.612  1.00  0.00    -0.354 N 
ATOM     59  N   UNL A   1      43.826  28.688  32.775  1.00  0.00    -0.248 NA
ATOM     60  C   UNL A   1      43.084  29.035  34.922  1.00  0.00     0.031 C 
ATOM     61  C   UNL A   1      45.416  26.979  30.482  1.00  0.00     0.029 A 
ATOM     62  C   UNL A   1      44.572  26.357  31.386  1.00  0.00     0.049 A 
ATOM     63  H   UNL A   1      42.996  25.037  30.987  1.00  0.00     0.167 HD
ATOM     64  C   UNL A   1      44.013  27.513  33.445  1.00  0.00     0.074 A 
ATOM     65  C   UNL A   1      43.606  27.800  34.810  1.00  0.00     0.031 C 
ATOM     66  C   UNL A   1      44.397  26.353  32.835  1.00  0.00     0.037 A 
BRANCH  53  67
ATOM     67  C   UNL A   1      43.169  24.431  27.111  1.00  0.00     0.057 A 
ATOM     68  C   UNL A   1      43.806  24.987  25.984  1.00  0.00     0.134 A 
ATOM     69  C   UNL A   1      42.815  23.074  26.942  1.00  0.00     0.134 A 
ATOM     70  F   UNL A   1      44.184  26.273  25.955  1.00  0.00    -0.206 F 
ATOM     71  C   UNL A   1      44.077  24.259  24.813  1.00  0.00     0.040 A 
ATOM     72  C   UNL A   1      43.129  22.321  25.800  1.00  0.00     0.040 A 
ATOM     73  F   UNL A   1      42.092  22.393  27.833  1.00  0.00    -0.206 F 
ATOM     74  C   UNL A   1      43.756  22.915  24.723  1.00  0.00     0.006 A 
ENDBRANCH  53  67
BRANCH  54  75
ATOM     75  C   UNL A   1      41.524  31.636  33.753  1.00  0.00     0.057 A 
ATOM     76  C   UNL A   1      41.707  33.031  33.749  1.00  0.00     0.134 A 
ATOM     77  C   UNL A   1      40.227  31.164  33.974  1.00  0.00     0.134 A 
ATOM     78  F   UNL A   1      42.924  33.552  33.525  1.00  0.00    -0.206 F 
ATOM     79  C   UNL A   1      40.627  33.917  33.823  1.00  0.00     0.040 A 
ATOM     80  C   UNL A   1      39.138  32.043  34.032  1.00  0.00     0.040 A 
ATOM     81  F   UNL A   1      39.977  29.848  33.995  1.00  0.00    -0.206 F 
ATOM     82  C   UNL A   1      39.332  33.419  33.917  1.00  0.00     0.006 A 
ENDBRANCH  54  75
BRANCH  66  83
ATOM     83  C   UNL A   1      44.598  25.092  33.617  1.00  0.00     0.057 A 
ATOM     84  C   UNL A   1      45.838  24.441  33.642  1.00  0.00     0.134 A 
ATOM     85  C   UNL A   1      43.537  24.430  34.261  1.00  0.00     0.134 A 
ATOM     86  F   UNL A   1      46.909  24.984  33.042  1.00  0.00    -0.206 F 
ATOM     87  C   UNL A   1      46.015  23.207  34.275  1.00  0.00     0.040 A 
ATOM     88  C   UNL A   1      43.689  23.175  34.855  1.00  0.00     0.040 A 
ATOM     89  F   UNL A   1      42.320  24.986  34.355  1.00  0.00    -0.206 F 
ATOM     90  C   UNL A   1      44.934  22.561  34.868  1.00  0.00     0.006 A 
ENDBRANCH  66  83
ENDBRANCH  40  41
ENDBRANCH  33  35
ENDBRANCH  32  33
ENDBRANCH  31  32
ENDBRANCH  30  31
ENDBRANCH   1  30
TORSDOF 17
ENDMDL
MODEL 2
REMARK VINA RESULT:     -12.2      3.893      9.171
REMARK SMILES Cc1ccccc1C(=O)Nc1ccc(N2CCCCC2)cc1C(=O)OCCOCCOC(=O)c1ccc(-c2c3nc(c(-c4c(F)cccc4F)c4ccc([nH]4)c(-c4c(F)cccc4F)c4nc(c(-c5c(F)cccc5F)c5ccc2[nH]5)C=C4)C=C3)cc1
REMARK SMILES IDX 28 1 27 2 26 3 25 4 23 5 24 6 22 7 11 8 12 9 13 10 21 11
REMARK SMILES IDX 14 12 10 13 8 14 9 15 7 17 1 18 2 19 3 20 4 21 6 22 5 23
REMARK SMILES IDX 15 24 16 25 20 26 17 27 19 28 18 29 29 30 30 31 31 32 32 33
REMARK SMILES IDX 33 34 34 35 35 36 87 37 36 38 86 39 37 40 38 41 39 42 80 43
REMARK SMILES IDX 40 44 85 45 79 46 81 47 41 48 84 49 78 50 77 51 42 53 68 54
REMARK SMILES IDX 51 55 67 56 52 57 55 58 66 59 82 60 53 61 54 62 65 64 83 65
REMARK SMILES IDX 56 66 43 67 44 68 49 69 45 70 46 71 48 72 50 73 47 74 69 75
REMARK SMILES IDX 70 76 75 77 71 78 72 79 74 80 76 81 73 82 57 83 58 84 63 85
REMARK SMILES IDX 59 86 60 87 62 88 64 89 61 90
REMARK H PARENT 10 16 81 52 55 63
REMARK Flexibility Score: inf
ROOT
ATOM      1  O   UNL A   1      39.697  21.815  25.740  1.00  0.00    -0.374 OA
ENDROOT
BRANCH   1   2
ATOM      2  C   UNL A   1      38.957  22.805  26.399  1.00  0.00     0.202 C 
BRANCH   2   3
ATOM      3  C   UNL A   1      37.517  22.912  25.931  1.00  0.00     0.261 C 
BRANCH   3   4
ATOM      4  O   UNL A   1      37.028  22.105  24.857  1.00  0.00    -0.460 OA
BRANCH   4   5
ATOM      5  C   UNL A   1      36.312  22.459  23.754  1.00  0.00     0.340 C 
ATOM      6  O   UNL A   1      36.667  22.859  22.685  1.00  0.00    -0.246 OA
BRANCH   5   7
ATOM      7  C   UNL A   1      34.935  22.062  24.149  1.00  0.00     0.085 A 
ATOM      8  C   UNL A   1      33.861  22.574  23.415  1.00  0.00     0.056 A 
ATOM      9  C   UNL A   1      32.669  21.856  23.354  1.00  0.00     0.029 A 
ATOM     10  C   UNL A   1      32.627  20.564  23.890  1.00  0.00     0.028 A 
ATOM     11  C   UNL A   1      34.829  20.827  24.807  1.00  0.00     0.043 A 
ATOM     12  C   UNL A   1      33.731  20.005  24.559  1.00  0.00     0.038 A 
BRANCH   8  13
ATOM     13  N   UNL A   1      33.955  23.784  22.750  1.00  0.00    -0.321 N 
ATOM     14  C   UNL A   1      33.743  25.091  23.110  1.00  0.00     0.255 C 
ATOM     15  O   UNL A   1      34.210  25.894  22.286  1.00  0.00    -0.269 OA
ATOM     16  H   UNL A   1      34.235  23.685  21.812  1.00  0.00     0.170 HD
BRANCH  14  17
ATOM     17  C   UNL A   1      32.905  25.663  24.249  1.00  0.00     0.043 A 
ATOM     18  C   UNL A   1      30.384  25.041  23.824  1.00  0.00     0.045 C 
ATOM     19  C   UNL A   1      31.516  25.729  24.518  1.00  0.00    -0.038 A 
ATOM     20  C   UNL A   1      31.055  26.475  25.641  1.00  0.00     0.004 A 
ATOM     21  C   UNL A   1      31.912  27.143  26.505  1.00  0.00     0.000 A 
ATOM     22  C   UNL A   1      33.744  26.348  25.181  1.00  0.00     0.014 A 
ATOM     23  C   UNL A   1      33.268  27.070  26.279  1.00  0.00     0.001 A 
ENDBRANCH  14  17
ENDBRANCH   8  13
BRANCH  12  24
ATOM     24  N   UNL A   1      33.782  18.634  24.800  1.00  0.00    -0.372 N 
ATOM     25  C   UNL A   1      32.474  17.962  24.876  1.00  0.00     0.116 C 
ATOM     26  C   UNL A   1      34.832  17.811  24.191  1.00  0.00     0.116 C 
ATOM     27  C   UNL A   1      32.602  16.725  25.757  1.00  0.00     0.021 C 
ATOM     28  C   UNL A   1      35.035  16.573  25.062  1.00  0.00     0.021 C 
ATOM     29  C   UNL A   1      33.728  15.809  25.280  1.00  0.00     0.004 C 
ENDBRANCH  12  24
ENDBRANCH   5   7
ENDBRANCH   4   5
ENDBRANCH   3   4
ENDBRANCH   2   3
ENDBRANCH   1   2
BRANCH   1  30
ATOM     30  C   UNL A   1      39.778  20.584  26.435  1.00  0.00     0.202 C 
BRANCH  30  31
ATOM     31  C   UNL A   1      40.900  19.638  25.982  1.00  0.00     0.261 C 
BRANCH  31  32
ATOM     32  O   UNL A   1      42.319  19.962  26.108  1.00  0.00    -0.460 OA
BRANCH  32  33
ATOM     33  C   UNL A   1      43.118  21.015  25.828  1.00  0.00     0.338 C 
ATOM     34  O   UNL A   1      43.634  21.138  24.722  1.00  0.00    -0.246 OA
BRANCH  33  35
ATOM     35  C   UNL A   1      43.485  21.952  26.897  1.00  0.00     0.060 A 
ATOM     36  C   UNL A   1      42.746  21.907  28.091  1.00  0.00     0.016 A 
ATOM     37  C   UNL A   1      44.386  22.975  26.651  1.00  0.00     0.016 A 
ATOM     38  C   UNL A   1      42.725  23.023  28.925  1.00  0.00     0.010 A 
ATOM     39  C   UNL A   1      44.280  24.118  27.429  1.00  0.00     0.010 A 
ATOM     40  C   UNL A   1      43.404  24.175  28.528  1.00  0.00    -0.014 A 
BRANCH  40  41
ATOM     41  C   UNL A   1      43.104  25.507  29.071  1.00  0.00     0.031 A 
ATOM     42  C   UNL A   1      41.952  26.294  28.587  1.00  0.00     0.074 A 
ATOM     43  C   UNL A   1      43.787  25.992  30.133  1.00  0.00     0.049 A 
ATOM     44  N   UNL A   1      41.814  27.556  28.816  1.00  0.00    -0.248 NA
ATOM     45  C   UNL A   1      40.896  25.762  27.734  1.00  0.00     0.031 C 
ATOM     46  C   UNL A   1      43.387  27.057  31.055  1.00  0.00     0.029 A 
ATOM     47  N   UNL A   1      45.031  25.586  30.620  1.00  0.00    -0.354 N 
ATOM     48  C   UNL A   1      40.534  27.906  28.475  1.00  0.00     0.074 A 
ATOM     49  C   UNL A   1      40.079  26.816  27.652  1.00  0.00     0.031 C 
ATOM     50  C   UNL A   1      44.415  27.369  31.854  1.00  0.00     0.029 A 
ATOM     51  C   UNL A   1      45.575  26.630  31.397  1.00  0.00     0.049 A 
ATOM     52  H   UNL A   1      45.458  24.716  30.448  1.00  0.00     0.167 HD
ATOM     53  C   UNL A   1      39.989  29.021  29.041  1.00  0.00     0.037 A 
ATOM     54  C   UNL A   1      46.755  27.210  31.027  1.00  0.00     0.037 A 
ATOM     55  C   UNL A   1      41.014  29.821  29.743  1.00  0.00     0.049 A 
ATOM     56  C   UNL A   1      46.567  28.575  30.391  1.00  0.00     0.074 A 
ATOM     57  C   UNL A   1      41.274  30.183  31.056  1.00  0.00     0.029 A 
ATOM     58  N   UNL A   1      42.143  30.206  29.031  1.00  0.00    -0.354 N 
ATOM     59  N   UNL A   1      45.475  29.284  30.488  1.00  0.00    -0.248 NA
ATOM     60  C   UNL A   1      47.559  29.213  29.523  1.00  0.00     0.031 C 
ATOM     61  C   UNL A   1      42.603  30.719  31.116  1.00  0.00     0.029 A 
ATOM     62  C   UNL A   1      43.140  30.715  29.841  1.00  0.00     0.049 A 
ATOM     63  H   UNL A   1      42.223  30.126  28.053  1.00  0.00     0.167 HD
ATOM     64  C   UNL A   1      45.517  30.301  29.577  1.00  0.00     0.074 A 
ATOM     65  C   UNL A   1      46.871  30.268  29.052  1.00  0.00     0.031 C 
ATOM     66  C   UNL A   1      44.427  31.049  29.237  1.00  0.00     0.037 A 
BRANCH  53  67
ATOM     67  C   UNL A   1      38.505  29.353  29.054  1.00  0.00     0.057 A 
ATOM     68  C   UNL A   1      37.853  29.741  27.867  1.00  0.00     0.134 A 
ATOM     69  C   UNL A   1      37.667  29.385  30.190  1.00  0.00     0.134 A 
ATOM     70  F   UNL A   1      38.504  29.800  26.696  1.00  0.00    -0.206 F 
ATOM     71  C   UNL A   1      36.498  30.108  27.815  1.00  0.00     0.040 A 
ATOM     72  C   UNL A   1      36.299  29.696  30.143  1.00  0.00     0.040 A 
ATOM     73  F   UNL A   1      38.113  29.179  31.431  1.00  0.00    -0.206 F 
ATOM     74  C   UNL A   1      35.709  30.069  28.952  1.00  0.00     0.006 A 
ENDBRANCH  53  67
BRANCH  54  75
ATOM     75  C   UNL A   1      47.781  26.188  30.691  1.00  0.00     0.057 A 
ATOM     76  C   UNL A   1      47.969  25.891  29.329  1.00  0.00     0.134 A 
ATOM     77  C   UNL A   1      48.832  25.880  31.560  1.00  0.00     0.134 A 
ATOM     78  F   UNL A   1      47.006  26.176  28.437  1.00  0.00    -0.206 F 
ATOM     79  C   UNL A   1      49.195  25.438  28.834  1.00  0.00     0.040 A 
ATOM     80  C   UNL A   1      50.070  25.443  31.072  1.00  0.00     0.040 A 
ATOM     81  F   UNL A   1      48.725  26.131  32.872  1.00  0.00    -0.206 F 
ATOM     82  C   UNL A   1      50.265  25.258  29.703  1.00  0.00     0.006 A 
ENDBRANCH  54  75
BRANCH  66  83
ATOM     83  C   UNL A   1      44.526  32.162  28.239  1.00  0.00     0.057 A 
ATOM     84  C   UNL A   1      44.489  33.504  28.640  1.00  0.00     0.134 A 
ATOM     85  C   UNL A   1      44.539  31.929  26.852  1.00  0.00     0.134 A 
ATOM     86  F   UNL A   1      44.459  33.830  29.941  1.00  0.00    -0.206 F 
ATOM     87  C   UNL A   1      44.470  34.553  27.715  1.00  0.00     0.040 A 
ATOM     88  C   UNL A   1      44.473  32.965  25.919  1.00  0.00     0.040 A 
ATOM     89  F   UNL A   1      44.637  30.687  26.353  1.00  0.00    -0.206 F 
ATOM     90  C   UNL A   1      44.443  34.284  26.350  1.00  0.00     0.006 A 
ENDBRANCH  66  83
ENDBRANCH  40  41
ENDBRANCH  33  35
ENDBRANCH  32  33
ENDBRANCH  31  32
ENDBRANCH  30  31
ENDBRANCH   1  30
TORSDOF 17
ENDMDL
MODEL 3
REMARK VINA RESULT:     -12.2      4.083      9.647
REMARK SMILES Cc1ccccc1C(=O)Nc1ccc(N2CCCCC2)cc1C(=O)OCCOCCOC(=O)c1ccc(-c2c3nc(c(-c4c(F)cccc4F)c4ccc([nH]4)c(-c4c(F)cccc4F)c4nc(c(-c5c(F)cccc5F)c5ccc2[nH]5)C=C4)C=C3)cc1
REMARK SMILES IDX 28 1 27 2 26 3 25 4 23 5 24 6 22 7 11 8 12 9 13 10 21 11
REMARK SMILES IDX 14 12 10 13 8 14 9 15 7 17 1 18 2 19 3 20 4 21 6 22 5 23
REMARK SMILES IDX 15 24 16 25 20 26 17 27 19 28 18 29 29 30 30 31 31 32 32 33
REMARK SMILES IDX 33 34 34 35 35 36 87 37 36 38 86 39 37 40 38 41 39 42 80 43
REMARK SMILES IDX 40 44 85 45 79 46 81 47 41 48 84 49 78 50 77 51 42 53 68 54
REMARK SMILES IDX 51 55 67 56 52 57 55 58 66 59 82 60 53 61 54 62 65 64 83 65
REMARK SMILES IDX 56 66 43 67 44 68 49 69 45 70 46 71 48 72 50 73 47 74 69 75
REMARK SMILES IDX 70 76 75 77 71 78 72 79 74 80 76 81 73 82 57 83 58 84 63 85
REMARK SMILES IDX 59 86 60 87 62 88 64 89 61 90
REMARK H PARENT 10 16 81 52 55 63
REMARK Flexibility Score: inf
ROOT
ATOM      1  O   UNL A   1      39.251  22.674  27.033  1.00  0.00    -0.374 OA
ENDROOT
BRANCH   1   2
ATOM      2  C   UNL A   1      38.354  23.250  26.125  1.00  0.00     0.202 C 
BRANCH   2   3
ATOM      3  C   UNL A   1      37.668  22.247  25.216  1.00  0.00     0.261 C 
BRANCH   3   4
ATOM      4  O   UNL A   1      36.287  22.386  24.872  1.00  0.00    -0.460 OA
BRANCH   4   5
ATOM      5  C   UNL A   1      35.706  22.609  23.661  1.00  0.00     0.340 C 
ATOM      6  O   UNL A   1      36.178  22.960  22.620  1.00  0.00    -0.246 OA
BRANCH   5   7
ATOM      7  C   UNL A   1      34.317  22.138  23.901  1.00  0.00     0.085 A 
ATOM      8  C   UNL A   1      33.315  22.555  23.021  1.00  0.00     0.056 A 
ATOM      9  C   UNL A   1      32.184  21.760  22.844  1.00  0.00     0.029 A 
ATOM     10  C   UNL A   1      32.153  20.488  23.425  1.00  0.00     0.028 A 
ATOM     11  C   UNL A   1      34.204  20.922  24.592  1.00  0.00     0.043 A 
ATOM     12  C   UNL A   1      33.197  20.023  24.246  1.00  0.00     0.038 A 
BRANCH   8  13
ATOM     13  N   UNL A   1      33.419  23.745  22.322  1.00  0.00    -0.321 N 
ATOM     14  C   UNL A   1      33.347  25.069  22.674  1.00  0.00     0.255 C 
ATOM     15  O   UNL A   1      33.772  25.822  21.783  1.00  0.00    -0.269 OA
ATOM     16  H   UNL A   1      33.578  23.612  21.360  1.00  0.00     0.170 HD
BRANCH  14  17
ATOM     17  C   UNL A   1      32.693  25.718  23.890  1.00  0.00     0.043 A 
ATOM     18  C   UNL A   1      33.956  24.907  26.050  1.00  0.00     0.045 C 
ATOM     19  C   UNL A   1      32.871  25.599  25.289  1.00  0.00    -0.038 A 
ATOM     20  C   UNL A   1      31.973  26.272  26.168  1.00  0.00     0.004 A 
ATOM     21  C   UNL A   1      30.923  27.058  25.716  1.00  0.00     0.000 A 
ATOM     22  C   UNL A   1      31.612  26.556  23.477  1.00  0.00     0.014 A 
ATOM     23  C   UNL A   1      30.747  27.211  24.359  1.00  0.00     0.001 A 
ENDBRANCH  14  17
ENDBRANCH   8  13
BRANCH  12  24
ATOM     24  N   UNL A   1      33.298  18.668  24.550  1.00  0.00    -0.372 N 
ATOM     25  C   UNL A   1      34.604  18.054  24.251  1.00  0.00     0.116 C 
ATOM     26  C   UNL A   1      32.654  18.126  25.750  1.00  0.00     0.116 C 
ATOM     27  C   UNL A   1      34.403  16.567  23.986  1.00  0.00     0.021 C 
ATOM     28  C   UNL A   1      32.388  16.640  25.521  1.00  0.00     0.021 C 
ATOM     29  C   UNL A   1      33.661  15.885  25.134  1.00  0.00     0.004 C 
ENDBRANCH  12  24
ENDBRANCH   5   7
ENDBRANCH   4   5
ENDBRANCH   3   4
ENDBRANCH   2   3
ENDBRANCH   1   2
BRANCH   1  30
ATOM     30  C   UNL A   1      40.129  21.721  26.464  1.00  0.00     0.202 C 
BRANCH  30  31
ATOM     31  C   UNL A   1      41.576  22.191  26.254  1.00  0.00     0.261 C 
BRANCH  31  32
ATOM     32  O   UNL A   1      42.031  23.543  26.569  1.00  0.00    -0.460 OA
BRANCH  32  33
ATOM     33  C   UNL A   1      42.080  24.737  25.939  1.00  0.00     0.338 C 
ATOM     34  O   UNL A   1      42.849  24.924  25.001  1.00  0.00    -0.246 OA
BRANCH  33  35
ATOM     35  C   UNL A   1      41.305  25.868  26.464  1.00  0.00     0.060 A 
ATOM     36  C   UNL A   1      41.427  27.106  25.812  1.00  0.00     0.016 A 
ATOM     37  C   UNL A   1      40.645  25.760  27.677  1.00  0.00     0.016 A 
ATOM     38  C   UNL A   1      41.109  28.276  26.499  1.00  0.00     0.010 A 
ATOM     39  C   UNL A   1      40.428  26.928  28.391  1.00  0.00     0.010 A 
ATOM     40  C   UNL A   1      40.720  28.188  27.836  1.00  0.00    -0.014 A 
BRANCH  40  41
ATOM     41  C   UNL A   1      40.789  29.324  28.765  1.00  0.00     0.031 A 
ATOM     42  C   UNL A   1      39.640  30.230  28.960  1.00  0.00     0.074 A 
ATOM     43  C   UNL A   1      41.858  29.490  29.579  1.00  0.00     0.049 A 
ATOM     44  N   UNL A   1      39.739  31.384  29.531  1.00  0.00    -0.248 NA
ATOM     45  C   UNL A   1      38.296  29.968  28.461  1.00  0.00     0.031 C 
ATOM     46  C   UNL A   1      41.938  30.267  30.817  1.00  0.00     0.029 A 
ATOM     47  N   UNL A   1      43.138  28.948  29.446  1.00  0.00    -0.354 N 
ATOM     48  C   UNL A   1      38.472  31.832  29.793  1.00  0.00     0.074 A 
ATOM     49  C   UNL A   1      37.630  31.016  28.956  1.00  0.00     0.031 C 
ATOM     50  C   UNL A   1      43.213  30.333  31.223  1.00  0.00     0.029 A 
ATOM     51  C   UNL A   1      44.039  29.731  30.197  1.00  0.00     0.049 A 
ATOM     52  H   UNL A   1      43.372  28.152  28.916  1.00  0.00     0.167 HD
ATOM     53  C   UNL A   1      38.297  32.757  30.780  1.00  0.00     0.037 A 
ATOM     54  C   UNL A   1      45.069  30.373  29.569  1.00  0.00     0.037 A 
ATOM     55  C   UNL A   1      39.590  33.319  31.223  1.00  0.00     0.049 A 
ATOM     56  C   UNL A   1      44.825  31.863  29.411  1.00  0.00     0.074 A 
ATOM     57  C   UNL A   1      40.341  33.303  32.387  1.00  0.00     0.029 A 
ATOM     58  N   UNL A   1      40.427  33.868  30.260  1.00  0.00    -0.354 N 
ATOM     59  N   UNL A   1      43.929  32.534  30.083  1.00  0.00    -0.248 NA
ATOM     60  C   UNL A   1      45.509  32.700  28.423  1.00  0.00     0.031 C 
ATOM     61  C   UNL A   1      41.657  33.783  32.078  1.00  0.00     0.029 A 
ATOM     62  C   UNL A   1      41.699  34.121  30.736  1.00  0.00     0.049 A 
ATOM     63  H   UNL A   1      40.144  34.058  29.336  1.00  0.00     0.167 HD
ATOM     64  C   UNL A   1      43.761  33.761  29.508  1.00  0.00     0.074 A 
ATOM     65  C   UNL A   1      44.825  33.854  28.523  1.00  0.00     0.031 C 
ATOM     66  C   UNL A   1      42.715  34.589  29.798  1.00  0.00     0.037 A 
BRANCH  53  67
ATOM     67  C   UNL A   1      36.964  33.094  31.430  1.00  0.00     0.057 A 
ATOM     68  C   UNL A   1      35.991  33.823  30.719  1.00  0.00     0.134 A 
ATOM     69  C   UNL A   1      36.587  32.805  32.760  1.00  0.00     0.134 A 
ATOM     70  F   UNL A   1      36.193  34.212  29.452  1.00  0.00    -0.206 F 
ATOM     71  C   UNL A   1      34.759  34.210  31.273  1.00  0.00     0.040 A 
ATOM     72  C   UNL A   1      35.339  33.138  33.309  1.00  0.00     0.040 A 
ATOM     73  F   UNL A   1      37.411  32.237  33.644  1.00  0.00    -0.206 F 
ATOM     74  C   UNL A   1      34.420  33.852  32.567  1.00  0.00     0.006 A 
ENDBRANCH  53  67
BRANCH  54  75
ATOM     75  C   UNL A   1      45.782  29.468  28.630  1.00  0.00     0.057 A 
ATOM     76  C   UNL A   1      46.690  28.549  29.189  1.00  0.00     0.134 A 
ATOM     77  C   UNL A   1      45.277  29.171  27.361  1.00  0.00     0.134 A 
ATOM     78  F   UNL A   1      47.200  28.764  30.412  1.00  0.00    -0.206 F 
ATOM     79  C   UNL A   1      46.975  27.326  28.575  1.00  0.00     0.040 A 
ATOM     80  C   UNL A   1      45.543  27.940  26.746  1.00  0.00     0.040 A 
ATOM     81  F   UNL A   1      44.411  30.000  26.763  1.00  0.00    -0.206 F 
ATOM     82  C   UNL A   1      46.362  27.000  27.371  1.00  0.00     0.006 A 
ENDBRANCH  54  75
BRANCH  66  83
ATOM     83  C   UNL A   1      42.581  35.931  29.147  1.00  0.00     0.057 A 
ATOM     84  C   UNL A   1      41.941  36.079  27.910  1.00  0.00     0.134 A 
ATOM     85  C   UNL A   1      43.187  37.086  29.673  1.00  0.00     0.134 A 
ATOM     86  F   UNL A   1      41.345  35.032  27.317  1.00  0.00    -0.206 F 
ATOM     87  C   UNL A   1      41.902  37.304  27.237  1.00  0.00     0.040 A 
ATOM     88  C   UNL A   1      43.197  38.303  28.989  1.00  0.00     0.040 A 
ATOM     89  F   UNL A   1      43.776  37.079  30.878  1.00  0.00    -0.206 F 
ATOM     90  C   UNL A   1      42.548  38.416  27.767  1.00  0.00     0.006 A 
ENDBRANCH  66  83
ENDBRANCH  40  41
ENDBRANCH  33  35
ENDBRANCH  32  33
ENDBRANCH  31  32
ENDBRANCH  30  31
ENDBRANCH   1  30
TORSDOF 17
ENDMDL
