MODEL 1
REMARK VINA RESULT:      -7.2      0.000      0.000
REMARK SMILES CC(C)C[C@H](NC(=O)[C@H](C)NC(=O)[C@@H](NC(=O)CNC(=O)OCc1ccccc1)C(C)C)C(=O)OCCOCCOC(=O)c1ccc(-c2c3nc(c(-c4c(F)cccc4F)c4ccc([nH]4)c(-c4c(F)cccc4F)c4nc(c(-c5c(F)cccc5F)c5ccc2[nH]5)C=C4)C=C3)cc1
REMARK SMILES IDX 33 1 34 2 5 3 4 4 2 5 1 6 3 7 6 8 7 9 8 11 9 12 10 13 11 14
REMARK SMILES IDX 12 15 13 17 14 18 15 19 16 20 17 22 18 23 19 24 20 25 21 27
REMARK SMILES IDX 22 28 23 29 24 30 25 31 29 32 26 33 28 34 27 35 30 36 31 37
REMARK SMILES IDX 32 38 35 39 36 40 37 41 38 42 39 43 40 44 41 45 42 46 43 47
REMARK SMILES IDX 44 48 45 49 97 50 46 51 96 52 47 53 48 54 49 55 90 56 50 57
REMARK SMILES IDX 95 58 89 59 91 60 51 61 94 62 88 63 87 64 52 66 78 67 61 68
REMARK SMILES IDX 77 69 62 70 65 71 76 72 92 73 63 74 64 75 75 77 93 78 66 79
REMARK SMILES IDX 53 80 54 81 59 82 55 83 56 84 58 85 60 86 57 87 79 88 80 89
REMARK SMILES IDX 85 90 81 91 82 92 84 93 86 94 83 95 67 96 68 97 73 98 69 99
REMARK SMILES IDX 70 100 72 101 74 102 71 103
REMARK H PARENT 6 10 11 16 15 21 19 26 91 65 65 76
REMARK Flexibility Score: inf
ROOT
ATOM      1  C   UNL A   1      39.318  27.102  28.556  1.00  0.00     0.328 C 
ATOM      2  O   UNL A   1      39.384  28.047  27.756  1.00  0.00    -0.250 OA
ENDROOT
BRANCH   1   3
ATOM      3  C   UNL A   1      40.027  25.691  28.048  1.00  0.00     0.192 C 
BRANCH   3   4
ATOM      4  C   UNL A   1      39.560  24.114  27.383  1.00  0.00     0.040 C 
BRANCH   4   5
ATOM      5  C   UNL A   1      38.473  23.428  26.108  1.00  0.00    -0.015 C 
ATOM      6  C   UNL A   1      38.552  21.902  25.870  1.00  0.00     0.007 C 
ATOM      7  C   UNL A   1      36.925  23.669  26.031  1.00  0.00     0.007 C 
ENDBRANCH   4   5
ENDBRANCH   3   4
BRANCH   3   8
ATOM      8  N   UNL A   1      41.321  25.905  28.820  1.00  0.00    -0.341 N 
ATOM      9  C   UNL A   1      42.596  26.329  28.747  1.00  0.00     0.242 C 
ATOM     10  H   UNL A   1      41.160  25.619  29.747  1.00  0.00     0.164 HD
ATOM     11  O   UNL A   1      43.210  26.432  29.813  1.00  0.00    -0.273 OA
BRANCH   9  12
ATOM     12  C   UNL A   1      43.226  26.731  27.439  1.00  0.00     0.168 C 
ATOM     13  C   UNL A   1      42.811  28.141  27.034  1.00  0.00     0.041 C 
BRANCH  12  14
ATOM     14  N   UNL A   1      42.830  25.768  26.436  1.00  0.00    -0.343 N 
ATOM     15  C   UNL A   1      43.155  24.473  26.241  1.00  0.00     0.243 C 
ATOM     16  H   UNL A   1      42.203  26.126  25.765  1.00  0.00     0.164 HD
ATOM     17  O   UNL A   1      42.618  23.924  25.271  1.00  0.00    -0.273 OA
BRANCH  15  18
ATOM     18  C   UNL A   1      44.054  23.642  27.201  1.00  0.00     0.174 C 
BRANCH  18  19
ATOM     19  N   UNL A   1      45.548  24.060  27.348  1.00  0.00    -0.343 N 
ATOM     20  C   UNL A   1      46.563  24.976  27.345  1.00  0.00     0.240 C 
ATOM     21  H   UNL A   1      46.004  23.212  27.553  1.00  0.00     0.164 HD
ATOM     22  O   UNL A   1      47.658  24.375  27.442  1.00  0.00    -0.273 OA
BRANCH  20  23
ATOM     23  C   UNL A   1      46.734  26.651  27.317  1.00  0.00     0.219 C 
BRANCH  23  24
ATOM     24  N   UNL A   1      47.284  27.710  26.374  1.00  0.00    -0.312 N 
ATOM     25  C   UNL A   1      48.586  28.282  26.390  1.00  0.00     0.407 C 
ATOM     26  H   UNL A   1      46.671  28.035  25.676  1.00  0.00     0.167 HD
ATOM     27  O   UNL A   1      49.547  27.524  26.274  1.00  0.00    -0.225 OA
BRANCH  25  28
ATOM     28  O   UNL A   1      48.826  29.706  26.473  1.00  0.00    -0.445 OA
BRANCH  28  29
ATOM     29  C   UNL A   1      48.764  31.215  27.144  1.00  0.00     0.270 C 
BRANCH  29  30
ATOM     30  C   UNL A   1      47.541  32.157  27.264  1.00  0.00    -0.011 A 
ATOM     31  C   UNL A   1      46.317  31.952  26.593  1.00  0.00     0.007 A 
ATOM     32  C   UNL A   1      47.618  33.277  28.102  1.00  0.00     0.007 A 
ATOM     33  C   UNL A   1      45.336  32.953  26.545  1.00  0.00     0.000 A 
ATOM     34  C   UNL A   1      46.623  34.260  28.089  1.00  0.00     0.000 A 
ATOM     35  C   UNL A   1      45.508  34.125  27.266  1.00  0.00     0.000 A 
ENDBRANCH  29  30
ENDBRANCH  28  29
ENDBRANCH  25  28
ENDBRANCH  23  24
ENDBRANCH  20  23
ENDBRANCH  18  19
BRANCH  18  36
ATOM     36  C   UNL A   1      43.257  23.016  28.422  1.00  0.00     0.015 C 
ATOM     37  C   UNL A   1      42.454  21.719  28.189  1.00  0.00     0.010 C 
ATOM     38  C   UNL A   1      44.024  22.878  29.747  1.00  0.00     0.010 C 
ENDBRANCH  18  36
ENDBRANCH  15  18
ENDBRANCH  12  14
ENDBRANCH   9  12
ENDBRANCH   3   8
ENDBRANCH   1   3
BRANCH   1  39
ATOM     39  O   UNL A   1      39.117  27.390  29.884  1.00  0.00    -0.462 OA
BRANCH  39  40
ATOM     40  C   UNL A   1      39.456  28.726  30.406  1.00  0.00     0.261 C 
BRANCH  40  41
ATOM     41  C   UNL A   1      38.490  29.875  30.648  1.00  0.00     0.202 C 
BRANCH  41  42
ATOM     42  O   UNL A   1      38.993  31.194  30.701  1.00  0.00    -0.374 OA
BRANCH  42  43
ATOM     43  C   UNL A   1      40.245  31.341  31.352  1.00  0.00     0.202 C 
BRANCH  43  44
ATOM     44  C   UNL A   1      41.104  32.495  30.858  1.00  0.00     0.261 C 
BRANCH  44  45
ATOM     45  O   UNL A   1      42.129  31.954  29.999  1.00  0.00    -0.460 OA
BRANCH  45  46
ATOM     46  C   UNL A   1      43.264  32.677  29.956  1.00  0.00     0.338 C 
ATOM     47  O   UNL A   1      43.357  33.897  30.022  1.00  0.00    -0.246 OA
BRANCH  46  48
ATOM     48  C   UNL A   1      44.444  31.781  30.039  1.00  0.00     0.060 A 
ATOM     49  C   UNL A   1      44.393  30.597  29.282  1.00  0.00     0.016 A 
ATOM     50  C   UNL A   1      45.545  32.050  30.858  1.00  0.00     0.016 A 
ATOM     51  C   UNL A   1      45.349  29.611  29.462  1.00  0.00     0.010 A 
ATOM     52  C   UNL A   1      46.489  31.044  31.073  1.00  0.00     0.010 A 
ATOM     53  C   UNL A   1      46.317  29.793  30.453  1.00  0.00    -0.014 A 
BRANCH  53  54
ATOM     54  C   UNL A   1      46.798  28.570  31.129  1.00  0.00     0.031 A 
ATOM     55  C   UNL A   1      48.219  28.152  30.846  1.00  0.00     0.074 A 
ATOM     56  C   UNL A   1      46.052  27.938  32.044  1.00  0.00     0.049 A 
ATOM     57  N   UNL A   1      48.909  27.148  31.320  1.00  0.00    -0.248 NA
ATOM     58  C   UNL A   1      48.974  28.994  29.897  1.00  0.00     0.031 C 
ATOM     59  C   UNL A   1      44.705  28.327  32.454  1.00  0.00     0.029 A 
ATOM     60  N   UNL A   1      46.338  26.835  32.802  1.00  0.00    -0.354 N 
ATOM     61  C   UNL A   1      50.162  27.240  30.722  1.00  0.00     0.074 A 
ATOM     62  C   UNL A   1      50.136  28.372  29.831  1.00  0.00     0.031 C 
ATOM     63  C   UNL A   1      44.275  27.465  33.393  1.00  0.00     0.029 A 
ATOM     64  C   UNL A   1      45.306  26.455  33.621  1.00  0.00     0.049 A 
ATOM     65  H   UNL A   1      47.200  26.363  32.765  1.00  0.00     0.167 HD
ATOM     66  C   UNL A   1      51.244  26.449  30.905  1.00  0.00     0.037 A 
ATOM     67  C   UNL A   1      45.215  25.394  34.444  1.00  0.00     0.037 A 
ATOM     68  C   UNL A   1      51.249  25.320  31.791  1.00  0.00     0.049 A 
ATOM     69  C   UNL A   1      46.398  24.470  34.565  1.00  0.00     0.074 A 
ATOM     70  C   UNL A   1      52.271  24.429  32.053  1.00  0.00     0.029 A 
ATOM     71  N   UNL A   1      50.160  24.926  32.556  1.00  0.00    -0.354 N 
ATOM     72  N   UNL A   1      47.575  24.551  33.990  1.00  0.00    -0.248 NA
ATOM     73  C   UNL A   1      46.242  23.312  35.454  1.00  0.00     0.031 C 
ATOM     74  C   UNL A   1      51.782  23.462  32.938  1.00  0.00     0.029 A 
ATOM     75  C   UNL A   1      50.475  23.787  33.272  1.00  0.00     0.049 A 
ATOM     76  H   UNL A   1      49.291  25.388  32.583  1.00  0.00     0.167 HD
ATOM     77  C   UNL A   1      48.311  23.473  34.468  1.00  0.00     0.074 A 
ATOM     78  C   UNL A   1      47.446  22.760  35.387  1.00  0.00     0.031 C 
ATOM     79  C   UNL A   1      49.586  23.106  34.182  1.00  0.00     0.037 A 
BRANCH  66  80
ATOM     80  C   UNL A   1      52.465  26.756  30.086  1.00  0.00     0.057 A 
ATOM     81  C   UNL A   1      52.598  26.344  28.753  1.00  0.00     0.134 A 
ATOM     82  C   UNL A   1      53.544  27.445  30.656  1.00  0.00     0.134 A 
ATOM     83  F   UNL A   1      51.616  25.655  28.152  1.00  0.00    -0.206 F 
ATOM     84  C   UNL A   1      53.770  26.577  28.028  1.00  0.00     0.040 A 
ATOM     85  C   UNL A   1      54.709  27.709  29.933  1.00  0.00     0.040 A 
ATOM     86  F   UNL A   1      53.489  27.862  31.930  1.00  0.00    -0.206 F 
ATOM     87  C   UNL A   1      54.828  27.265  28.618  1.00  0.00     0.006 A 
ENDBRANCH  66  80
BRANCH  67  88
ATOM     88  C   UNL A   1      43.963  25.157  35.203  1.00  0.00     0.057 A 
ATOM     89  C   UNL A   1      43.674  25.869  36.372  1.00  0.00     0.134 A 
ATOM     90  C   UNL A   1      43.013  24.224  34.766  1.00  0.00     0.134 A 
ATOM     91  F   UNL A   1      44.551  26.763  36.853  1.00  0.00    -0.206 F 
ATOM     92  C   UNL A   1      42.489  25.659  37.082  1.00  0.00     0.040 A 
ATOM     93  C   UNL A   1      41.815  24.022  35.452  1.00  0.00     0.040 A 
ATOM     94  F   UNL A   1      43.230  23.510  33.652  1.00  0.00    -0.206 F 
ATOM     95  C   UNL A   1      41.552  24.739  36.617  1.00  0.00     0.006 A 
ENDBRANCH  67  88
BRANCH  79  96
ATOM     96  C   UNL A   1      50.129  21.909  34.905  1.00  0.00     0.057 A 
ATOM     97  C   UNL A   1      50.039  20.618  34.374  1.00  0.00     0.134 A 
ATOM     98  C   UNL A   1      50.792  22.064  36.130  1.00  0.00     0.134 A 
ATOM     99  F   UNL A   1      49.409  20.404  33.209  1.00  0.00    -0.206 F 
ATOM    100  C   UNL A   1      50.563  19.516  35.050  1.00  0.00     0.040 A 
ATOM    101  C   UNL A   1      51.347  20.975  36.799  1.00  0.00     0.040 A 
ATOM    102  F   UNL A   1      50.926  23.278  36.684  1.00  0.00    -0.206 F 
ATOM    103  C   UNL A   1      51.226  19.695  36.264  1.00  0.00     0.006 A 
ENDBRANCH  79  96
ENDBRANCH  53  54
ENDBRANCH  46  48
ENDBRANCH  45  46
ENDBRANCH  44  45
ENDBRANCH  43  44
ENDBRANCH  42  43
ENDBRANCH  41  42
ENDBRANCH  40  41
ENDBRANCH  39  40
ENDBRANCH   1  39
TORSDOF 27
ENDMDL
MODEL 2
REMARK VINA RESULT:      -7.1      5.341      9.987
REMARK SMILES CC(C)C[C@H](NC(=O)[C@H](C)NC(=O)[C@@H](NC(=O)CNC(=O)OCc1ccccc1)C(C)C)C(=O)OCCOCCOC(=O)c1ccc(-c2c3nc(c(-c4c(F)cccc4F)c4ccc([nH]4)c(-c4c(F)cccc4F)c4nc(c(-c5c(F)cccc5F)c5ccc2[nH]5)C=C4)C=C3)cc1
REMARK SMILES IDX 33 1 34 2 5 3 4 4 2 5 1 6 3 7 6 8 7 9 8 11 9 12 10 13 11 14
REMARK SMILES IDX 12 15 13 17 14 18 15 19 16 20 17 22 18 23 19 24 20 25 21 27
REMARK SMILES IDX 22 28 23 29 24 30 25 31 29 32 26 33 28 34 27 35 30 36 31 37
REMARK SMILES IDX 32 38 35 39 36 40 37 41 38 42 39 43 40 44 41 45 42 46 43 47
REMARK SMILES IDX 44 48 45 49 97 50 46 51 96 52 47 53 48 54 49 55 90 56 50 57
REMARK SMILES IDX 95 58 89 59 91 60 51 61 94 62 88 63 87 64 52 66 78 67 61 68
REMARK SMILES IDX 77 69 62 70 65 71 76 72 92 73 63 74 64 75 75 77 93 78 66 79
REMARK SMILES IDX 53 80 54 81 59 82 55 83 56 84 58 85 60 86 57 87 79 88 80 89
REMARK SMILES IDX 85 90 81 91 82 92 84 93 86 94 83 95 67 96 68 97 73 98 69 99
REMARK SMILES IDX 70 100 72 101 74 102 71 103
REMARK H PARENT 6 10 11 16 15 21 19 26 91 65 65 76
REMARK Flexibility Score: inf
ROOT
ATOM      1  C   UNL A   1      38.381  32.839  30.240  1.00  0.00     0.328 C 
ATOM      2  O   UNL A   1      39.590  32.830  30.519  1.00  0.00    -0.250 OA
ENDROOT
BRANCH   1   3
ATOM      3  C   UNL A   1      37.895  31.685  29.151  1.00  0.00     0.192 C 
BRANCH   3   4
ATOM      4  C   UNL A   1      38.418  30.102  28.545  1.00  0.00     0.040 C 
BRANCH   4   5
ATOM      5  C   UNL A   1      39.115  28.553  29.171  1.00  0.00    -0.015 C 
ATOM      6  C   UNL A   1      39.814  27.636  28.141  1.00  0.00     0.007 C 
ATOM      7  C   UNL A   1      40.093  28.443  30.392  1.00  0.00     0.007 C 
ENDBRANCH   4   5
ENDBRANCH   3   4
BRANCH   3   8
ATOM      8  N   UNL A   1      37.023  32.629  28.336  1.00  0.00    -0.341 N 
ATOM      9  C   UNL A   1      35.762  32.953  27.993  1.00  0.00     0.242 C 
ATOM     10  H   UNL A   1      37.623  33.256  27.873  1.00  0.00     0.164 HD
ATOM     11  O   UNL A   1      35.610  33.999  27.357  1.00  0.00    -0.273 OA
BRANCH   9  12
ATOM     12  C   UNL A   1      34.583  32.123  28.427  1.00  0.00     0.168 C 
ATOM     13  C   UNL A   1      34.169  32.450  29.857  1.00  0.00     0.041 C 
BRANCH  12  14
ATOM     14  N   UNL A   1      34.945  30.729  28.302  1.00  0.00    -0.343 N 
ATOM     15  C   UNL A   1      34.553  29.761  27.447  1.00  0.00     0.243 C 
ATOM     16  H   UNL A   1      35.605  30.427  28.969  1.00  0.00     0.164 HD
ATOM     17  O   UNL A   1      35.080  28.653  27.611  1.00  0.00    -0.273 OA
BRANCH  15  18
ATOM     18  C   UNL A   1      33.590  29.991  26.247  1.00  0.00     0.174 C 
BRANCH  18  19
ATOM     19  N   UNL A   1      34.015  29.441  24.853  1.00  0.00    -0.343 N 
ATOM     20  C   UNL A   1      34.018  28.495  23.865  1.00  0.00     0.240 C 
ATOM     21  H   UNL A   1      34.586  30.156  24.488  1.00  0.00     0.164 HD
ATOM     22  O   UNL A   1      34.844  28.827  22.982  1.00  0.00    -0.273 OA
BRANCH  20  23
ATOM     23  C   UNL A   1      33.187  27.081  23.487  1.00  0.00     0.219 C 
BRANCH  23  24
ATOM     24  N   UNL A   1      31.756  26.570  23.537  1.00  0.00    -0.312 N 
ATOM     25  C   UNL A   1      30.694  26.902  22.650  1.00  0.00     0.407 C 
ATOM     26  H   UNL A   1      31.540  25.942  24.263  1.00  0.00     0.167 HD
ATOM     27  O   UNL A   1      30.851  26.668  21.453  1.00  0.00    -0.225 OA
BRANCH  25  28
ATOM     28  O   UNL A   1      29.427  27.440  23.096  1.00  0.00    -0.445 OA
BRANCH  28  29
ATOM     29  C   UNL A   1      28.128  28.462  23.083  1.00  0.00     0.270 C 
BRANCH  29  30
ATOM     30  C   UNL A   1      28.073  29.929  22.592  1.00  0.00    -0.011 A 
ATOM     31  C   UNL A   1      27.975  30.305  21.236  1.00  0.00     0.007 A 
ATOM     32  C   UNL A   1      28.096  30.968  23.532  1.00  0.00     0.007 A 
ATOM     33  C   UNL A   1      28.172  31.634  20.832  1.00  0.00     0.000 A 
ATOM     34  C   UNL A   1      28.251  32.300  23.134  1.00  0.00     0.000 A 
ATOM     35  C   UNL A   1      28.347  32.627  21.784  1.00  0.00     0.000 A 
ENDBRANCH  29  30
ENDBRANCH  28  29
ENDBRANCH  25  28
ENDBRANCH  23  24
ENDBRANCH  20  23
ENDBRANCH  18  19
BRANCH  18  36
ATOM     36  C   UNL A   1      32.062  30.047  26.671  1.00  0.00     0.015 C 
ATOM     37  C   UNL A   1      31.006  30.328  25.580  1.00  0.00     0.010 C 
ATOM     38  C   UNL A   1      31.550  28.900  27.555  1.00  0.00     0.010 C 
ENDBRANCH  18  36
ENDBRANCH  15  18
ENDBRANCH  12  14
ENDBRANCH   9  12
ENDBRANCH   3   8
ENDBRANCH   1   3
BRANCH   1  39
ATOM     39  O   UNL A   1      37.515  33.423  31.132  1.00  0.00    -0.462 OA
BRANCH  39  40
ATOM     40  C   UNL A   1      36.767  32.586  32.086  1.00  0.00     0.261 C 
BRANCH  40  41
ATOM     41  C   UNL A   1      36.022  33.066  33.322  1.00  0.00     0.202 C 
BRANCH  41  42
ATOM     42  O   UNL A   1      36.523  32.729  34.599  1.00  0.00    -0.374 OA
BRANCH  42  43
ATOM     43  C   UNL A   1      37.548  31.748  34.610  1.00  0.00     0.202 C 
BRANCH  43  44
ATOM     44  C   UNL A   1      38.718  32.042  35.536  1.00  0.00     0.261 C 
BRANCH  44  45
ATOM     45  O   UNL A   1      39.925  31.582  34.892  1.00  0.00    -0.460 OA
BRANCH  45  46
ATOM     46  C   UNL A   1      40.310  30.340  35.243  1.00  0.00     0.338 C 
ATOM     47  O   UNL A   1      39.837  29.655  36.142  1.00  0.00    -0.246 OA
BRANCH  46  48
ATOM     48  C   UNL A   1      41.262  29.797  34.243  1.00  0.00     0.060 A 
ATOM     49  C   UNL A   1      41.283  28.401  34.082  1.00  0.00     0.016 A 
ATOM     50  C   UNL A   1      42.142  30.605  33.516  1.00  0.00     0.016 A 
ATOM     51  C   UNL A   1      42.279  27.799  33.332  1.00  0.00     0.010 A 
ATOM     52  C   UNL A   1      43.171  30.002  32.791  1.00  0.00     0.010 A 
ATOM     53  C   UNL A   1      43.291  28.601  32.798  1.00  0.00    -0.014 A 
BRANCH  53  54
ATOM     54  C   UNL A   1      44.627  27.981  32.688  1.00  0.00     0.031 A 
ATOM     55  C   UNL A   1      45.346  27.684  33.981  1.00  0.00     0.074 A 
ATOM     56  C   UNL A   1      45.120  27.587  31.507  1.00  0.00     0.049 A 
ATOM     57  N   UNL A   1      46.507  27.119  34.184  1.00  0.00    -0.248 NA
ATOM     58  C   UNL A   1      44.649  28.072  35.222  1.00  0.00     0.031 C 
ATOM     59  C   UNL A   1      44.454  27.744  30.216  1.00  0.00     0.029 A 
ATOM     60  N   UNL A   1      46.300  26.959  31.212  1.00  0.00    -0.354 N 
ATOM     61  C   UNL A   1      46.674  27.095  35.565  1.00  0.00     0.074 A 
ATOM     62  C   UNL A   1      45.519  27.725  36.153  1.00  0.00     0.031 C 
ATOM     63  C   UNL A   1      45.245  27.228  29.258  1.00  0.00     0.029 A 
ATOM     64  C   UNL A   1      46.477  26.735  29.871  1.00  0.00     0.049 A 
ATOM     65  H   UNL A   1      46.955  26.692  31.895  1.00  0.00     0.167 HD
ATOM     66  C   UNL A   1      47.701  26.587  36.283  1.00  0.00     0.037 A 
ATOM     67  C   UNL A   1      47.532  26.206  29.225  1.00  0.00     0.037 A 
ATOM     68  C   UNL A   1      48.849  25.970  35.680  1.00  0.00     0.049 A 
ATOM     69  C   UNL A   1      48.709  25.729  30.033  1.00  0.00     0.074 A 
ATOM     70  C   UNL A   1      49.965  25.433  36.290  1.00  0.00     0.029 A 
ATOM     71  N   UNL A   1      49.023  25.821  34.310  1.00  0.00    -0.354 N 
ATOM     72  N   UNL A   1      48.871  25.720  31.337  1.00  0.00    -0.248 NA
ATOM     73  C   UNL A   1      49.848  25.184  29.284  1.00  0.00     0.031 C 
ATOM     74  C   UNL A   1      50.841  25.007  35.286  1.00  0.00     0.029 A 
ATOM     75  C   UNL A   1      50.242  25.223  34.053  1.00  0.00     0.049 A 
ATOM     76  H   UNL A   1      48.375  26.101  33.624  1.00  0.00     0.167 HD
ATOM     77  C   UNL A   1      50.113  25.143  31.565  1.00  0.00     0.074 A 
ATOM     78  C   UNL A   1      50.658  24.808  30.264  1.00  0.00     0.031 C 
ATOM     79  C   UNL A   1      50.749  24.903  32.741  1.00  0.00     0.037 A 
BRANCH  66  80
ATOM     80  C   UNL A   1      47.640  26.741  37.776  1.00  0.00     0.057 A 
ATOM     81  C   UNL A   1      48.178  27.852  38.439  1.00  0.00     0.134 A 
ATOM     82  C   UNL A   1      47.063  25.738  38.566  1.00  0.00     0.134 A 
ATOM     83  F   UNL A   1      48.771  28.837  37.746  1.00  0.00    -0.206 F 
ATOM     84  C   UNL A   1      48.175  27.945  39.833  1.00  0.00     0.040 A 
ATOM     85  C   UNL A   1      47.027  25.833  39.959  1.00  0.00     0.040 A 
ATOM     86  F   UNL A   1      46.535  24.643  37.999  1.00  0.00    -0.206 F 
ATOM     87  C   UNL A   1      47.594  26.935  40.597  1.00  0.00     0.006 A 
ENDBRANCH  66  80
BRANCH  67  88
ATOM     88  C   UNL A   1      47.515  26.107  27.745  1.00  0.00     0.057 A 
ATOM     89  C   UNL A   1      47.065  24.953  27.096  1.00  0.00     0.134 A 
ATOM     90  C   UNL A   1      47.931  27.177  26.941  1.00  0.00     0.134 A 
ATOM     91  F   UNL A   1      46.671  23.887  27.810  1.00  0.00    -0.206 F 
ATOM     92  C   UNL A   1      47.034  24.861  25.702  1.00  0.00     0.040 A 
ATOM     93  C   UNL A   1      47.882  27.109  25.548  1.00  0.00     0.040 A 
ATOM     94  F   UNL A   1      48.372  28.313  27.501  1.00  0.00    -0.206 F 
ATOM     95  C   UNL A   1      47.436  25.946  24.925  1.00  0.00     0.006 A 
ENDBRANCH  67  88
BRANCH  79  96
ATOM     96  C   UNL A   1      52.077  24.209  32.669  1.00  0.00     0.057 A 
ATOM     97  C   UNL A   1      53.273  24.915  32.494  1.00  0.00     0.134 A 
ATOM     98  C   UNL A   1      52.158  22.819  32.823  1.00  0.00     0.134 A 
ATOM     99  F   UNL A   1      53.260  26.246  32.332  1.00  0.00    -0.206 F 
ATOM    100  C   UNL A   1      54.503  24.258  32.445  1.00  0.00     0.040 A 
ATOM    101  C   UNL A   1      53.384  22.156  32.808  1.00  0.00     0.040 A 
ATOM    102  F   UNL A   1      51.049  22.088  33.011  1.00  0.00    -0.206 F 
ATOM    103  C   UNL A   1      54.560  22.874  32.609  1.00  0.00     0.006 A 
ENDBRANCH  79  96
ENDBRANCH  53  54
ENDBRANCH  46  48
ENDBRANCH  45  46
ENDBRANCH  44  45
ENDBRANCH  43  44
ENDBRANCH  42  43
ENDBRANCH  41  42
ENDBRANCH  40  41
ENDBRANCH  39  40
ENDBRANCH   1  39
TORSDOF 27
ENDMDL
MODEL 3
REMARK VINA RESULT:      -6.9      8.555     14.024
REMARK SMILES CC(C)C[C@H](NC(=O)[C@H](C)NC(=O)[C@@H](NC(=O)CNC(=O)OCc1ccccc1)C(C)C)C(=O)OCCOCCOC(=O)c1ccc(-c2c3nc(c(-c4c(F)cccc4F)c4ccc([nH]4)c(-c4c(F)cccc4F)c4nc(c(-c5c(F)cccc5F)c5ccc2[nH]5)C=C4)C=C3)cc1
REMARK SMILES IDX 33 1 34 2 5 3 4 4 2 5 1 6 3 7 6 8 7 9 8 11 9 12 10 13 11 14
REMARK SMILES IDX 12 15 13 17 14 18 15 19 16 20 17 22 18 23 19 24 20 25 21 27
REMARK SMILES IDX 22 28 23 29 24 30 25 31 29 32 26 33 28 34 27 35 30 36 31 37
REMARK SMILES IDX 32 38 35 39 36 40 37 41 38 42 39 43 40 44 41 45 42 46 43 47
REMARK SMILES IDX 44 48 45 49 97 50 46 51 96 52 47 53 48 54 49 55 90 56 50 57
REMARK SMILES IDX 95 58 89 59 91 60 51 61 94 62 88 63 87 64 52 66 78 67 61 68
REMARK SMILES IDX 77 69 62 70 65 71 76 72 92 73 63 74 64 75 75 77 93 78 66 79
REMARK SMILES IDX 53 80 54 81 59 82 55 83 56 84 58 85 60 86 57 87 79 88 80 89
REMARK SMILES IDX 85 90 81 91 82 92 84 93 86 94 83 95 67 96 68 97 73 98 69 99
REMARK SMILES IDX 70 100 72 101 74 102 71 103
REMARK H PARENT 6 10 11 16 15 21 19 26 91 65 65 76
REMARK Flexibility Score: inf
ROOT
ATOM      1  C   UNL A   1      38.199  33.911  30.322  1.00  0.00     0.328 C 
ATOM      2  O   UNL A   1      39.406  34.191  30.361  1.00  0.00    -0.250 OA
ENDROOT
BRANCH   1   3
ATOM      3  C   UNL A   1      37.809  32.572  29.423  1.00  0.00     0.192 C 
BRANCH   3   4
ATOM      4  C   UNL A   1      38.447  30.954  29.072  1.00  0.00     0.040 C 
BRANCH   4   5
ATOM      5  C   UNL A   1      38.159  29.231  29.549  1.00  0.00    -0.015 C 
ATOM      6  C   UNL A   1      38.820  28.144  28.669  1.00  0.00     0.007 C 
ATOM      7  C   UNL A   1      38.401  28.651  30.986  1.00  0.00     0.007 C 
ENDBRANCH   4   5
ENDBRANCH   3   4
BRANCH   3   8
ATOM      8  N   UNL A   1      36.889  33.316  28.466  1.00  0.00    -0.341 N 
ATOM      9  C   UNL A   1      35.643  33.393  27.963  1.00  0.00     0.242 C 
ATOM     10  H   UNL A   1      37.420  34.030  28.044  1.00  0.00     0.164 HD
ATOM     11  O   UNL A   1      35.386  34.376  27.262  1.00  0.00    -0.273 OA
BRANCH   9  12
ATOM     12  C   UNL A   1      34.587  32.373  28.299  1.00  0.00     0.168 C 
ATOM     13  C   UNL A   1      34.102  32.528  29.736  1.00  0.00     0.041 C 
BRANCH  12  14
ATOM     14  N   UNL A   1      35.148  31.059  28.082  1.00  0.00    -0.343 N 
ATOM     15  C   UNL A   1      34.779  30.033  27.287  1.00  0.00     0.243 C 
ATOM     16  H   UNL A   1      35.954  30.877  28.619  1.00  0.00     0.164 HD
ATOM     17  O   UNL A   1      35.503  29.030  27.333  1.00  0.00    -0.273 OA
BRANCH  15  18
ATOM     18  C   UNL A   1      33.599  30.090  26.276  1.00  0.00     0.174 C 
BRANCH  18  19
ATOM     19  N   UNL A   1      33.774  29.372  24.905  1.00  0.00    -0.343 N 
ATOM     20  C   UNL A   1      33.482  28.392  23.996  1.00  0.00     0.240 C 
ATOM     21  H   UNL A   1      34.461  29.910  24.450  1.00  0.00     0.164 HD
ATOM     22  O   UNL A   1      34.289  28.467  23.040  1.00  0.00    -0.273 OA
BRANCH  20  23
ATOM     23  C   UNL A   1      32.323  27.190  23.784  1.00  0.00     0.219 C 
BRANCH  23  24
ATOM     24  N   UNL A   1      32.071  26.024  22.840  1.00  0.00    -0.312 N 
ATOM     25  C   UNL A   1      31.473  24.774  23.160  1.00  0.00     0.407 C 
ATOM     26  H   UNL A   1      32.355  26.148  21.906  1.00  0.00     0.167 HD
ATOM     27  O   UNL A   1      30.335  24.784  23.625  1.00  0.00    -0.225 OA
BRANCH  25  28
ATOM     28  O   UNL A   1      32.112  23.501  22.907  1.00  0.00    -0.445 OA
BRANCH  28  29
ATOM     29  C   UNL A   1      33.083  22.204  23.233  1.00  0.00     0.270 C 
BRANCH  29  30
ATOM     30  C   UNL A   1      34.481  22.201  23.899  1.00  0.00    -0.011 A 
ATOM     31  C   UNL A   1      34.809  21.444  25.043  1.00  0.00     0.007 A 
ATOM     32  C   UNL A   1      35.509  22.970  23.338  1.00  0.00     0.007 A 
ATOM     33  C   UNL A   1      36.006  21.662  25.742  1.00  0.00     0.000 A 
ATOM     34  C   UNL A   1      36.720  23.158  24.011  1.00  0.00     0.000 A 
ATOM     35  C   UNL A   1      36.946  22.549  25.242  1.00  0.00     0.000 A 
ENDBRANCH  29  30
ENDBRANCH  28  29
ENDBRANCH  25  28
ENDBRANCH  23  24
ENDBRANCH  20  23
ENDBRANCH  18  19
BRANCH  18  36
ATOM     36  C   UNL A   1      32.177  30.176  26.976  1.00  0.00     0.015 C 
ATOM     37  C   UNL A   1      31.110  31.108  26.363  1.00  0.00     0.010 C 
ATOM     38  C   UNL A   1      31.504  28.842  27.335  1.00  0.00     0.010 C 
ENDBRANCH  18  36
ENDBRANCH  15  18
ENDBRANCH  12  14
ENDBRANCH   9  12
ENDBRANCH   3   8
ENDBRANCH   1   3
BRANCH   1  39
ATOM     39  O   UNL A   1      37.390  34.385  31.326  1.00  0.00    -0.462 OA
BRANCH  39  40
ATOM     40  C   UNL A   1      36.359  33.513  31.914  1.00  0.00     0.261 C 
BRANCH  40  41
ATOM     41  C   UNL A   1      36.068  33.325  33.396  1.00  0.00     0.202 C 
BRANCH  41  42
ATOM     42  O   UNL A   1      36.432  32.111  34.017  1.00  0.00    -0.374 OA
BRANCH  42  43
ATOM     43  C   UNL A   1      37.400  31.339  33.323  1.00  0.00     0.202 C 
BRANCH  43  44
ATOM     44  C   UNL A   1      38.716  31.134  34.056  1.00  0.00     0.261 C 
BRANCH  44  45
ATOM     45  O   UNL A   1      39.786  31.242  33.093  1.00  0.00    -0.460 OA
BRANCH  45  46
ATOM     46  C   UNL A   1      41.010  30.966  33.582  1.00  0.00     0.338 C 
ATOM     47  O   UNL A   1      41.546  29.866  33.631  1.00  0.00    -0.246 OA
BRANCH  46  48
ATOM     48  C   UNL A   1      41.743  32.224  33.865  1.00  0.00     0.060 A 
ATOM     49  C   UNL A   1      40.989  33.410  33.859  1.00  0.00     0.016 A 
ATOM     50  C   UNL A   1      43.124  32.266  34.083  1.00  0.00     0.016 A 
ATOM     51  C   UNL A   1      41.621  34.641  33.904  1.00  0.00     0.010 A 
ATOM     52  C   UNL A   1      43.770  33.503  34.088  1.00  0.00     0.010 A 
ATOM     53  C   UNL A   1      43.019  34.675  33.888  1.00  0.00    -0.014 A 
BRANCH  53  54
ATOM     54  C   UNL A   1      43.637  35.833  33.210  1.00  0.00     0.031 A 
ATOM     55  C   UNL A   1      43.755  35.758  31.708  1.00  0.00     0.074 A 
ATOM     56  C   UNL A   1      43.958  36.947  33.882  1.00  0.00     0.049 A 
ATOM     57  N   UNL A   1      44.222  36.634  30.859  1.00  0.00    -0.248 NA
ATOM     58  C   UNL A   1      43.266  34.518  31.074  1.00  0.00     0.031 C 
ATOM     59  C   UNL A   1      43.789  37.147  35.319  1.00  0.00     0.029 A 
ATOM     60  N   UNL A   1      44.486  38.125  33.429  1.00  0.00    -0.354 N 
ATOM     61  C   UNL A   1      44.089  36.045  29.604  1.00  0.00     0.074 A 
ATOM     62  C   UNL A   1      43.528  34.732  29.798  1.00  0.00     0.031 C 
ATOM     63  C   UNL A   1      44.215  38.383  35.634  1.00  0.00     0.029 A 
ATOM     64  C   UNL A   1      44.710  39.039  34.426  1.00  0.00     0.049 A 
ATOM     65  H   UNL A   1      44.685  38.299  32.481  1.00  0.00     0.167 HD
ATOM     66  C   UNL A   1      44.403  36.559  28.393  1.00  0.00     0.037 A 
ATOM     67  C   UNL A   1      45.271  40.261  34.355  1.00  0.00     0.037 A 
ATOM     68  C   UNL A   1      44.969  37.867  28.220  1.00  0.00     0.049 A 
ATOM     69  C   UNL A   1      45.701  40.781  33.008  1.00  0.00     0.074 A 
ATOM     70  C   UNL A   1      45.350  38.498  27.052  1.00  0.00     0.029 A 
ATOM     71  N   UNL A   1      45.244  38.741  29.263  1.00  0.00    -0.354 N 
ATOM     72  N   UNL A   1      45.587  40.218  31.827  1.00  0.00    -0.248 NA
ATOM     73  C   UNL A   1      46.332  42.106  32.984  1.00  0.00     0.031 C 
ATOM     74  C   UNL A   1      45.905  39.736  27.394  1.00  0.00     0.029 A 
ATOM     75  C   UNL A   1      45.814  39.899  28.769  1.00  0.00     0.049 A 
ATOM     76  H   UNL A   1      45.060  38.562  30.214  1.00  0.00     0.167 HD
ATOM     77  C   UNL A   1      46.103  41.131  30.916  1.00  0.00     0.074 A 
ATOM     78  C   UNL A   1      46.523  42.287  31.684  1.00  0.00     0.031 C 
ATOM     79  C   UNL A   1      46.217  41.031  29.567  1.00  0.00     0.037 A 
BRANCH  66  80
ATOM     80  C   UNL A   1      44.194  35.675  27.197  1.00  0.00     0.057 A 
ATOM     81  C   UNL A   1      43.034  35.736  26.412  1.00  0.00     0.134 A 
ATOM     82  C   UNL A   1      45.157  34.719  26.848  1.00  0.00     0.134 A 
ATOM     83  F   UNL A   1      42.058  36.608  26.706  1.00  0.00    -0.206 F 
ATOM     84  C   UNL A   1      42.826  34.858  25.345  1.00  0.00     0.040 A 
ATOM     85  C   UNL A   1      44.973  33.856  25.766  1.00  0.00     0.040 A 
ATOM     86  F   UNL A   1      46.288  34.600  27.560  1.00  0.00    -0.206 F 
ATOM     87  C   UNL A   1      43.800  33.917  25.018  1.00  0.00     0.006 A 
ENDBRANCH  66  80
BRANCH  67  88
ATOM     88  C   UNL A   1      45.455  41.059  35.591  1.00  0.00     0.057 A 
ATOM     89  C   UNL A   1      44.454  41.915  36.061  1.00  0.00     0.134 A 
ATOM     90  C   UNL A   1      46.633  40.970  36.345  1.00  0.00     0.134 A 
ATOM     91  F   UNL A   1      43.310  42.059  35.375  1.00  0.00    -0.206 F 
ATOM     92  C   UNL A   1      44.618  42.658  37.233  1.00  0.00     0.040 A 
ATOM     93  C   UNL A   1      46.800  41.688  37.530  1.00  0.00     0.040 A 
ATOM     94  F   UNL A   1      47.630  40.167  35.948  1.00  0.00    -0.206 F 
ATOM     95  C   UNL A   1      45.791  42.538  37.975  1.00  0.00     0.006 A 
ENDBRANCH  67  88
BRANCH  79  96
ATOM     96  C   UNL A   1      46.775  42.219  28.840  1.00  0.00     0.057 A 
ATOM     97  C   UNL A   1      45.955  43.246  28.359  1.00  0.00     0.134 A 
ATOM     98  C   UNL A   1      48.158  42.353  28.663  1.00  0.00     0.134 A 
ATOM     99  F   UNL A   1      44.623  43.172  28.490  1.00  0.00    -0.206 F 
ATOM    100  C   UNL A   1      46.490  44.353  27.699  1.00  0.00     0.040 A 
ATOM    101  C   UNL A   1      48.706  43.470  28.034  1.00  0.00     0.040 A 
ATOM    102  F   UNL A   1      48.998  41.411  29.116  1.00  0.00    -0.206 F 
ATOM    103  C   UNL A   1      47.871  44.470  27.542  1.00  0.00     0.006 A 
ENDBRANCH  79  96
ENDBRANCH  53  54
ENDBRANCH  46  48
ENDBRANCH  45  46
ENDBRANCH  44  45
ENDBRANCH  43  44
ENDBRANCH  42  43
ENDBRANCH  41  42
ENDBRANCH  40  41
ENDBRANCH  39  40
ENDBRANCH   1  39
TORSDOF 27
ENDMDL
