MODEL 1
REMARK VINA RESULT:     -10.2      0.000      0.000
REMARK SMILES C[C@@H](C(=O)[C@H](C)[C@@H](C)C(=O)OCCOCCOC(=O)c1ccc(-c2c3nc(c(-c4c(F)cccc4F)c4ccc([nH]4)c(-c4c(F)cccc4F)c4nc(c(-c5c(F)cccc5F)c5ccc2[nH]5)C=C4)C=C3)cc1)c1ccccc1
REMARK SMILES IDX 13 1 12 2 11 3 9 4 10 5 7 6 8 7 5 8 6 9 3 10 4 11 2 12 1 13
REMARK SMILES IDX 74 14 75 15 79 16 76 17 78 18 77 19 14 20 15 21 16 22 17 23
REMARK SMILES IDX 18 24 19 25 20 26 21 27 73 28 22 29 72 30 23 31 24 32 25 33
REMARK SMILES IDX 66 34 26 35 71 36 65 37 67 38 27 39 70 40 64 41 63 42 28 44
REMARK SMILES IDX 54 45 37 46 53 47 38 48 41 49 52 50 68 51 39 52 40 53 51 55
REMARK SMILES IDX 69 56 42 57 29 58 30 59 35 60 31 61 32 62 34 63 36 64 33 65
REMARK SMILES IDX 55 66 56 67 61 68 57 69 58 70 60 71 62 72 59 73 43 74 44 75
REMARK SMILES IDX 49 76 45 77 46 78 48 79 50 80 47 81
REMARK H PARENT 67 43 41 54
REMARK Flexibility Score: inf
ROOT
ATOM      1  C   UNL A   1      33.809  29.698  26.526  1.00  0.00     0.202 C 
ENDROOT
BRANCH   1   2
ATOM      2  C   UNL A   1      33.420  28.539  25.604  1.00  0.00     0.261 C 
BRANCH   2   3
ATOM      3  O   UNL A   1      33.168  27.294  26.293  1.00  0.00    -0.463 OA
BRANCH   3   4
ATOM      4  C   UNL A   1      31.866  26.957  26.504  1.00  0.00     0.309 C 
ATOM      5  O   UNL A   1      31.147  27.460  27.356  1.00  0.00    -0.252 OA
BRANCH   4   6
ATOM      6  C   UNL A   1      31.399  25.813  25.609  1.00  0.00     0.106 C 
ATOM      7  C   UNL A   1      29.941  25.544  26.046  1.00  0.00     0.021 C 
BRANCH   6   8
ATOM      8  C   UNL A   1      32.304  24.543  25.576  1.00  0.00     0.067 C 
ATOM      9  C   UNL A   1      31.876  23.595  26.728  1.00  0.00     0.017 C 
BRANCH   8  10
ATOM     10  C   UNL A   1      32.342  23.647  24.278  1.00  0.00     0.143 C 
ATOM     11  O   UNL A   1      31.374  22.915  24.030  1.00  0.00    -0.299 OA
BRANCH  10  12
ATOM     12  C   UNL A   1      33.582  23.584  23.364  1.00  0.00     0.083 C 
ATOM     13  C   UNL A   1      33.180  23.161  21.955  1.00  0.00     0.021 C 
BRANCH  12  14
ATOM     14  C   UNL A   1      34.709  22.660  23.881  1.00  0.00    -0.038 A 
ATOM     15  C   UNL A   1      34.434  21.479  24.594  1.00  0.00     0.004 A 
ATOM     16  C   UNL A   1      36.062  22.990  23.706  1.00  0.00     0.004 A 
ATOM     17  C   UNL A   1      35.452  20.642  25.068  1.00  0.00     0.000 A 
ATOM     18  C   UNL A   1      37.085  22.179  24.217  1.00  0.00     0.000 A 
ATOM     19  C   UNL A   1      36.781  20.998  24.888  1.00  0.00     0.000 A 
ENDBRANCH  12  14
ENDBRANCH  10  12
ENDBRANCH   8  10
ENDBRANCH   6   8
ENDBRANCH   4   6
ENDBRANCH   3   4
ENDBRANCH   2   3
ENDBRANCH   1   2
BRANCH   1  20
ATOM     20  O   UNL A   1      32.759  30.343  27.232  1.00  0.00    -0.374 OA
BRANCH  20  21
ATOM     21  C   UNL A   1      31.815  31.139  26.523  1.00  0.00     0.202 C 
BRANCH  21  22
ATOM     22  C   UNL A   1      31.724  32.624  26.879  1.00  0.00     0.261 C 
BRANCH  22  23
ATOM     23  O   UNL A   1      32.970  33.265  26.972  1.00  0.00    -0.460 OA
BRANCH  23  24
ATOM     24  C   UNL A   1      33.169  34.044  28.053  1.00  0.00     0.338 C 
ATOM     25  O   UNL A   1      32.516  34.953  28.491  1.00  0.00    -0.246 OA
BRANCH  24  26
ATOM     26  C   UNL A   1      34.356  33.392  28.589  1.00  0.00     0.060 A 
ATOM     27  C   UNL A   1      35.591  34.004  28.367  1.00  0.00     0.016 A 
ATOM     28  C   UNL A   1      34.158  32.421  29.577  1.00  0.00     0.016 A 
ATOM     29  C   UNL A   1      36.668  33.620  29.148  1.00  0.00     0.010 A 
ATOM     30  C   UNL A   1      35.227  32.063  30.373  1.00  0.00     0.010 A 
ATOM     31  C   UNL A   1      36.483  32.648  30.142  1.00  0.00    -0.014 A 
BRANCH  31  32
ATOM     32  C   UNL A   1      37.643  32.087  30.841  1.00  0.00     0.031 A 
ATOM     33  C   UNL A   1      38.393  31.001  30.136  1.00  0.00     0.074 A 
ATOM     34  C   UNL A   1      37.962  32.512  32.075  1.00  0.00     0.049 A 
ATOM     35  N   UNL A   1      39.395  30.283  30.556  1.00  0.00    -0.248 NA
ATOM     36  C   UNL A   1      37.932  30.663  28.775  1.00  0.00     0.031 C 
ATOM     37  C   UNL A   1      37.258  33.555  32.823  1.00  0.00     0.029 A 
ATOM     38  N   UNL A   1      38.952  32.099  32.921  1.00  0.00    -0.354 N 
ATOM     39  C   UNL A   1      39.673  29.402  29.521  1.00  0.00     0.074 A 
ATOM     40  C   UNL A   1      38.719  29.646  28.466  1.00  0.00     0.031 C 
ATOM     41  C   UNL A   1      37.834  33.689  34.030  1.00  0.00     0.029 A 
ATOM     42  C   UNL A   1      38.926  32.727  34.143  1.00  0.00     0.049 A 
ATOM     43  H   UNL A   1      39.619  31.417  32.680  1.00  0.00     0.167 HD
ATOM     44  C   UNL A   1      40.654  28.476  29.463  1.00  0.00     0.037 A 
ATOM     45  C   UNL A   1      39.697  32.515  35.226  1.00  0.00     0.037 A 
ATOM     46  C   UNL A   1      41.595  28.267  30.526  1.00  0.00     0.049 A 
ATOM     47  C   UNL A   1      40.778  31.470  35.132  1.00  0.00     0.074 A 
ATOM     48  C   UNL A   1      42.667  27.398  30.569  1.00  0.00     0.029 A 
ATOM     49  N   UNL A   1      41.563  28.941  31.738  1.00  0.00    -0.354 N 
ATOM     50  N   UNL A   1      41.086  30.687  34.124  1.00  0.00    -0.248 NA
ATOM     51  C   UNL A   1      41.620  31.279  36.319  1.00  0.00     0.031 C 
ATOM     52  C   UNL A   1      43.260  27.515  31.830  1.00  0.00     0.029 A 
ATOM     53  C   UNL A   1      42.584  28.489  32.552  1.00  0.00     0.049 A 
ATOM     54  H   UNL A   1      40.912  29.636  31.983  1.00  0.00     0.167 HD
ATOM     55  C   UNL A   1      42.171  29.930  34.544  1.00  0.00     0.074 A 
ATOM     56  C   UNL A   1      42.476  30.361  35.894  1.00  0.00     0.031 C 
ATOM     57  C   UNL A   1      42.854  28.961  33.886  1.00  0.00     0.037 A 
BRANCH  44  58
ATOM     58  C   UNL A   1      40.735  27.628  28.233  1.00  0.00     0.057 A 
ATOM     59  C   UNL A   1      40.053  26.410  28.125  1.00  0.00     0.134 A 
ATOM     60  C   UNL A   1      41.498  28.043  27.135  1.00  0.00     0.134 A 
ATOM     61  F   UNL A   1      39.329  25.942  29.154  1.00  0.00    -0.206 F 
ATOM     62  C   UNL A   1      40.134  25.629  26.971  1.00  0.00     0.040 A 
ATOM     63  C   UNL A   1      41.569  27.282  25.968  1.00  0.00     0.040 A 
ATOM     64  F   UNL A   1      42.187  29.194  27.180  1.00  0.00    -0.206 F 
ATOM     65  C   UNL A   1      40.886  26.071  25.885  1.00  0.00     0.006 A 
ENDBRANCH  44  58
BRANCH  45  66
ATOM     66  C   UNL A   1      39.475  33.283  36.477  1.00  0.00     0.057 A 
ATOM     67  C   UNL A   1      38.601  32.823  37.470  1.00  0.00     0.134 A 
ATOM     68  C   UNL A   1      40.103  34.515  36.699  1.00  0.00     0.134 A 
ATOM     69  F   UNL A   1      37.956  31.657  37.311  1.00  0.00    -0.206 F 
ATOM     70  C   UNL A   1      38.336  33.571  38.619  1.00  0.00     0.040 A 
ATOM     71  C   UNL A   1      39.868  35.261  37.855  1.00  0.00     0.040 A 
ATOM     72  F   UNL A   1      40.959  35.011  35.794  1.00  0.00    -0.206 F 
ATOM     73  C   UNL A   1      38.973  34.795  38.815  1.00  0.00     0.006 A 
ENDBRANCH  45  66
BRANCH  57  74
ATOM     74  C   UNL A   1      44.004  28.334  34.609  1.00  0.00     0.057 A 
ATOM     75  C   UNL A   1      45.287  28.892  34.572  1.00  0.00     0.134 A 
ATOM     76  C   UNL A   1      43.809  27.193  35.397  1.00  0.00     0.134 A 
ATOM     77  F   UNL A   1      45.535  29.979  33.825  1.00  0.00    -0.206 F 
ATOM     78  C   UNL A   1      46.344  28.322  35.279  1.00  0.00     0.040 A 
ATOM     79  C   UNL A   1      44.853  26.631  36.131  1.00  0.00     0.040 A 
ATOM     80  F   UNL A   1      42.598  26.622  35.482  1.00  0.00    -0.206 F 
ATOM     81  C   UNL A   1      46.126  27.193  36.069  1.00  0.00     0.006 A 
ENDBRANCH  57  74
ENDBRANCH  31  32
ENDBRANCH  24  26
ENDBRANCH  23  24
ENDBRANCH  22  23
ENDBRANCH  21  22
ENDBRANCH  20  21
ENDBRANCH   1  20
TORSDOF 18
ENDMDL
MODEL 2
REMARK VINA RESULT:     -10.1      3.066      8.107
REMARK SMILES C[C@@H](C(=O)[C@H](C)[C@@H](C)C(=O)OCCOCCOC(=O)c1ccc(-c2c3nc(c(-c4c(F)cccc4F)c4ccc([nH]4)c(-c4c(F)cccc4F)c4nc(c(-c5c(F)cccc5F)c5ccc2[nH]5)C=C4)C=C3)cc1)c1ccccc1
REMARK SMILES IDX 13 1 12 2 11 3 9 4 10 5 7 6 8 7 5 8 6 9 3 10 4 11 2 12 1 13
REMARK SMILES IDX 74 14 75 15 79 16 76 17 78 18 77 19 14 20 15 21 16 22 17 23
REMARK SMILES IDX 18 24 19 25 20 26 21 27 73 28 22 29 72 30 23 31 24 32 25 33
REMARK SMILES IDX 66 34 26 35 71 36 65 37 67 38 27 39 70 40 64 41 63 42 28 44
REMARK SMILES IDX 54 45 37 46 53 47 38 48 41 49 52 50 68 51 39 52 40 53 51 55
REMARK SMILES IDX 69 56 42 57 29 58 30 59 35 60 31 61 32 62 34 63 36 64 33 65
REMARK SMILES IDX 55 66 56 67 61 68 57 69 58 70 60 71 62 72 59 73 43 74 44 75
REMARK SMILES IDX 49 76 45 77 46 78 48 79 50 80 47 81
REMARK H PARENT 67 43 41 54
REMARK Flexibility Score: inf
ROOT
ATOM      1  C   UNL A   1      39.339  21.338  26.127  1.00  0.00     0.202 C 
ENDROOT
BRANCH   1   2
ATOM      2  C   UNL A   1      38.461  22.589  26.065  1.00  0.00     0.261 C 
BRANCH   2   3
ATOM      3  O   UNL A   1      37.388  22.512  25.099  1.00  0.00    -0.463 OA
BRANCH   3   4
ATOM      4  C   UNL A   1      36.265  21.840  25.476  1.00  0.00     0.309 C 
ATOM      5  O   UNL A   1      36.035  20.668  25.212  1.00  0.00    -0.252 OA
BRANCH   4   6
ATOM      6  C   UNL A   1      35.263  22.728  26.209  1.00  0.00     0.106 C 
ATOM      7  C   UNL A   1      34.689  21.829  27.329  1.00  0.00     0.021 C 
BRANCH   6   8
ATOM      8  C   UNL A   1      34.182  23.427  25.330  1.00  0.00     0.067 C 
ATOM      9  C   UNL A   1      34.779  24.740  24.757  1.00  0.00     0.017 C 
BRANCH   8  10
ATOM     10  C   UNL A   1      33.568  22.663  24.095  1.00  0.00     0.143 C 
ATOM     11  O   UNL A   1      34.121  22.770  22.991  1.00  0.00    -0.299 OA
BRANCH  10  12
ATOM     12  C   UNL A   1      32.251  21.868  24.197  1.00  0.00     0.083 C 
ATOM     13  C   UNL A   1      31.492  22.259  25.461  1.00  0.00     0.021 C 
BRANCH  12  14
ATOM     14  C   UNL A   1      32.428  20.332  24.155  1.00  0.00    -0.038 A 
ATOM     15  C   UNL A   1      32.760  19.590  25.303  1.00  0.00     0.004 A 
ATOM     16  C   UNL A   1      32.319  19.617  22.951  1.00  0.00     0.004 A 
ATOM     17  C   UNL A   1      32.925  18.200  25.267  1.00  0.00     0.000 A 
ATOM     18  C   UNL A   1      32.528  18.231  22.902  1.00  0.00     0.000 A 
ATOM     19  C   UNL A   1      32.820  17.520  24.062  1.00  0.00     0.000 A 
ENDBRANCH  12  14
ENDBRANCH  10  12
ENDBRANCH   8  10
ENDBRANCH   6   8
ENDBRANCH   4   6
ENDBRANCH   3   4
ENDBRANCH   2   3
ENDBRANCH   1   2
BRANCH   1  20
ATOM     20  O   UNL A   1      40.577  21.381  25.432  1.00  0.00    -0.374 OA
BRANCH  20  21
ATOM     21  C   UNL A   1      41.798  21.277  26.158  1.00  0.00     0.202 C 
BRANCH  21  22
ATOM     22  C   UNL A   1      42.972  22.151  25.708  1.00  0.00     0.261 C 
BRANCH  22  23
ATOM     23  O   UNL A   1      42.591  23.424  25.254  1.00  0.00    -0.460 OA
BRANCH  23  24
ATOM     24  C   UNL A   1      43.543  24.378  25.263  1.00  0.00     0.338 C 
ATOM     25  O   UNL A   1      44.558  24.474  24.626  1.00  0.00    -0.246 OA
BRANCH  24  26
ATOM     26  C   UNL A   1      42.927  25.308  26.200  1.00  0.00     0.060 A 
ATOM     27  C   UNL A   1      41.942  24.811  27.057  1.00  0.00     0.016 A 
ATOM     28  C   UNL A   1      43.595  26.515  26.431  1.00  0.00     0.016 A 
ATOM     29  C   UNL A   1      41.604  25.557  28.174  1.00  0.00     0.010 A 
ATOM     30  C   UNL A   1      43.275  27.240  27.561  1.00  0.00     0.010 A 
ATOM     31  C   UNL A   1      42.266  26.769  28.417  1.00  0.00    -0.014 A 
BRANCH  31  32
ATOM     32  C   UNL A   1      41.789  27.663  29.476  1.00  0.00     0.031 A 
ATOM     33  C   UNL A   1      42.474  27.561  30.802  1.00  0.00     0.074 A 
ATOM     34  C   UNL A   1      40.752  28.486  29.252  1.00  0.00     0.049 A 
ATOM     35  N   UNL A   1      42.201  28.168  31.922  1.00  0.00    -0.248 NA
ATOM     36  C   UNL A   1      43.613  26.626  30.882  1.00  0.00     0.031 C 
ATOM     37  C   UNL A   1      40.029  28.618  27.986  1.00  0.00     0.029 A 
ATOM     38  N   UNL A   1      40.115  29.353  30.096  1.00  0.00    -0.354 N 
ATOM     39  C   UNL A   1      43.120  27.679  32.838  1.00  0.00     0.074 A 
ATOM     40  C   UNL A   1      43.939  26.701  32.161  1.00  0.00     0.031 C 
ATOM     41  C   UNL A   1      39.033  29.507  28.143  1.00  0.00     0.029 A 
ATOM     42  C   UNL A   1      39.038  29.983  29.523  1.00  0.00     0.049 A 
ATOM     43  H   UNL A   1      40.399  29.509  31.025  1.00  0.00     0.167 HD
ATOM     44  C   UNL A   1      43.267  28.031  34.133  1.00  0.00     0.037 A 
ATOM     45  C   UNL A   1      38.153  30.833  30.079  1.00  0.00     0.037 A 
ATOM     46  C   UNL A   1      42.444  29.017  34.772  1.00  0.00     0.049 A 
ATOM     47  C   UNL A   1      38.339  31.201  31.528  1.00  0.00     0.074 A 
ATOM     48  C   UNL A   1      42.524  29.501  36.063  1.00  0.00     0.029 A 
ATOM     49  N   UNL A   1      41.381  29.662  34.157  1.00  0.00    -0.354 N 
ATOM     50  N   UNL A   1      39.256  30.790  32.373  1.00  0.00    -0.248 NA
ATOM     51  C   UNL A   1      37.376  32.149  32.100  1.00  0.00     0.031 C 
ATOM     52  C   UNL A   1      41.479  30.412  36.242  1.00  0.00     0.029 A 
ATOM     53  C   UNL A   1      40.778  30.526  35.050  1.00  0.00     0.049 A 
ATOM     54  H   UNL A   1      41.099  29.526  33.224  1.00  0.00     0.167 HD
ATOM     55  C   UNL A   1      38.997  31.447  33.568  1.00  0.00     0.074 A 
ATOM     56  C   UNL A   1      37.846  32.296  33.330  1.00  0.00     0.031 C 
ATOM     57  C   UNL A   1      39.639  31.360  34.759  1.00  0.00     0.037 A 
BRANCH  44  58
ATOM     58  C   UNL A   1      44.331  27.338  34.924  1.00  0.00     0.057 A 
ATOM     59  C   UNL A   1      44.068  26.181  35.668  1.00  0.00     0.134 A 
ATOM     60  C   UNL A   1      45.643  27.829  34.931  1.00  0.00     0.134 A 
ATOM     61  F   UNL A   1      42.826  25.678  35.727  1.00  0.00    -0.206 F 
ATOM     62  C   UNL A   1      45.070  25.541  36.400  1.00  0.00     0.040 A 
ATOM     63  C   UNL A   1      46.657  27.185  35.640  1.00  0.00     0.040 A 
ATOM     64  F   UNL A   1      45.957  28.941  34.250  1.00  0.00    -0.206 F 
ATOM     65  C   UNL A   1      46.371  26.038  36.378  1.00  0.00     0.006 A 
ENDBRANCH  44  58
BRANCH  45  66
ATOM     66  C   UNL A   1      37.022  31.377  29.285  1.00  0.00     0.057 A 
ATOM     67  C   UNL A   1      35.902  30.594  28.980  1.00  0.00     0.134 A 
ATOM     68  C   UNL A   1      37.046  32.683  28.781  1.00  0.00     0.134 A 
ATOM     69  F   UNL A   1      35.825  29.329  29.420  1.00  0.00    -0.206 F 
ATOM     70  C   UNL A   1      34.865  31.077  28.179  1.00  0.00     0.040 A 
ATOM     71  C   UNL A   1      36.004  33.188  28.001  1.00  0.00     0.040 A 
ATOM     72  F   UNL A   1      38.084  33.491  29.042  1.00  0.00    -0.206 F 
ATOM     73  C   UNL A   1      34.914  32.380  27.688  1.00  0.00     0.006 A 
ENDBRANCH  45  66
BRANCH  57  74
ATOM     74  C   UNL A   1      39.126  32.221  35.870  1.00  0.00     0.057 A 
ATOM     75  C   UNL A   1      38.242  31.725  36.835  1.00  0.00     0.134 A 
ATOM     76  C   UNL A   1      39.567  33.543  36.005  1.00  0.00     0.134 A 
ATOM     77  F   UNL A   1      37.777  30.469  36.750  1.00  0.00    -0.206 F 
ATOM     78  C   UNL A   1      37.798  32.522  37.888  1.00  0.00     0.040 A 
ATOM     79  C   UNL A   1      39.152  34.341  37.070  1.00  0.00     0.040 A 
ATOM     80  F   UNL A   1      40.424  34.069  35.118  1.00  0.00    -0.206 F 
ATOM     81  C   UNL A   1      38.261  33.832  38.012  1.00  0.00     0.006 A 
ENDBRANCH  57  74
ENDBRANCH  31  32
ENDBRANCH  24  26
ENDBRANCH  23  24
ENDBRANCH  22  23
ENDBRANCH  21  22
ENDBRANCH  20  21
ENDBRANCH   1  20
TORSDOF 18
ENDMDL
MODEL 3
REMARK VINA RESULT:     -10.1      1.825      3.685
REMARK SMILES C[C@@H](C(=O)[C@H](C)[C@@H](C)C(=O)OCCOCCOC(=O)c1ccc(-c2c3nc(c(-c4c(F)cccc4F)c4ccc([nH]4)c(-c4c(F)cccc4F)c4nc(c(-c5c(F)cccc5F)c5ccc2[nH]5)C=C4)C=C3)cc1)c1ccccc1
REMARK SMILES IDX 13 1 12 2 11 3 9 4 10 5 7 6 8 7 5 8 6 9 3 10 4 11 2 12 1 13
REMARK SMILES IDX 74 14 75 15 79 16 76 17 78 18 77 19 14 20 15 21 16 22 17 23
REMARK SMILES IDX 18 24 19 25 20 26 21 27 73 28 22 29 72 30 23 31 24 32 25 33
REMARK SMILES IDX 66 34 26 35 71 36 65 37 67 38 27 39 70 40 64 41 63 42 28 44
REMARK SMILES IDX 54 45 37 46 53 47 38 48 41 49 52 50 68 51 39 52 40 53 51 55
REMARK SMILES IDX 69 56 42 57 29 58 30 59 35 60 31 61 32 62 34 63 36 64 33 65
REMARK SMILES IDX 55 66 56 67 61 68 57 69 58 70 60 71 62 72 59 73 43 74 44 75
REMARK SMILES IDX 49 76 45 77 46 78 48 79 50 80 47 81
REMARK H PARENT 67 43 41 54
REMARK Flexibility Score: inf
ROOT
ATOM      1  C   UNL A   1      33.251  29.713  26.872  1.00  0.00     0.202 C 
ENDROOT
BRANCH   1   2
ATOM      2  C   UNL A   1      33.155  28.324  26.237  1.00  0.00     0.261 C 
BRANCH   2   3
ATOM      3  O   UNL A   1      33.995  28.146  25.074  1.00  0.00    -0.463 OA
BRANCH   3   4
ATOM      4  C   UNL A   1      33.820  27.003  24.354  1.00  0.00     0.309 C 
ATOM      5  O   UNL A   1      33.879  25.873  24.820  1.00  0.00    -0.252 OA
BRANCH   4   6
ATOM      6  C   UNL A   1      33.616  27.267  22.866  1.00  0.00     0.106 C 
ATOM      7  C   UNL A   1      33.864  28.784  22.700  1.00  0.00     0.021 C 
BRANCH   6   8
ATOM      8  C   UNL A   1      32.275  26.764  22.249  1.00  0.00     0.067 C 
ATOM      9  C   UNL A   1      32.595  25.739  21.128  1.00  0.00     0.017 C 
BRANCH   8  10
ATOM     10  C   UNL A   1      31.205  26.065  23.173  1.00  0.00     0.143 C 
ATOM     11  O   UNL A   1      30.923  24.876  22.966  1.00  0.00    -0.299 OA
BRANCH  10  12
ATOM     12  C   UNL A   1      30.434  26.838  24.260  1.00  0.00     0.083 C 
ATOM     13  C   UNL A   1      29.569  25.883  25.077  1.00  0.00     0.021 C 
BRANCH  12  14
ATOM     14  C   UNL A   1      29.561  27.996  23.723  1.00  0.00    -0.038 A 
ATOM     15  C   UNL A   1      28.201  27.816  23.405  1.00  0.00     0.004 A 
ATOM     16  C   UNL A   1      30.104  29.267  23.475  1.00  0.00     0.004 A 
ATOM     17  C   UNL A   1      27.410  28.861  22.914  1.00  0.00     0.000 A 
ATOM     18  C   UNL A   1      29.326  30.303  22.941  1.00  0.00     0.000 A 
ATOM     19  C   UNL A   1      27.975  30.105  22.671  1.00  0.00     0.000 A 
ENDBRANCH  12  14
ENDBRANCH  10  12
ENDBRANCH   8  10
ENDBRANCH   6   8
ENDBRANCH   4   6
ENDBRANCH   3   4
ENDBRANCH   2   3
ENDBRANCH   1   2
BRANCH   1  20
ATOM     20  O   UNL A   1      32.030  30.365  27.189  1.00  0.00    -0.374 OA
BRANCH  20  21
ATOM     21  C   UNL A   1      31.639  31.525  26.462  1.00  0.00     0.202 C 
BRANCH  21  22
ATOM     22  C   UNL A   1      31.782  32.883  27.155  1.00  0.00     0.261 C 
BRANCH  22  23
ATOM     23  O   UNL A   1      33.087  33.165  27.590  1.00  0.00    -0.460 OA
BRANCH  23  24
ATOM     24  C   UNL A   1      33.244  34.264  28.353  1.00  0.00     0.338 C 
ATOM     25  O   UNL A   1      32.603  35.280  28.401  1.00  0.00    -0.246 OA
BRANCH  24  26
ATOM     26  C   UNL A   1      34.361  33.815  29.173  1.00  0.00     0.060 A 
ATOM     27  C   UNL A   1      34.150  32.723  30.018  1.00  0.00     0.016 A 
ATOM     28  C   UNL A   1      35.637  34.256  28.807  1.00  0.00     0.016 A 
ATOM     29  C   UNL A   1      35.255  32.061  30.526  1.00  0.00     0.010 A 
ATOM     30  C   UNL A   1      36.735  33.574  29.293  1.00  0.00     0.010 A 
ATOM     31  C   UNL A   1      36.540  32.493  30.167  1.00  0.00    -0.014 A 
BRANCH  31  32
ATOM     32  C   UNL A   1      37.714  31.935  30.845  1.00  0.00     0.031 A 
ATOM     33  C   UNL A   1      38.470  30.870  30.114  1.00  0.00     0.074 A 
ATOM     34  C   UNL A   1      38.041  32.344  32.082  1.00  0.00     0.049 A 
ATOM     35  N   UNL A   1      39.486  30.158  30.513  1.00  0.00    -0.248 NA
ATOM     36  C   UNL A   1      38.000  30.549  28.753  1.00  0.00     0.031 C 
ATOM     37  C   UNL A   1      37.331  33.366  32.854  1.00  0.00     0.029 A 
ATOM     38  N   UNL A   1      39.045  31.930  32.912  1.00  0.00    -0.354 N 
ATOM     39  C   UNL A   1      39.764  29.298  29.461  1.00  0.00     0.074 A 
ATOM     40  C   UNL A   1      38.796  29.547  28.420  1.00  0.00     0.031 C 
ATOM     41  C   UNL A   1      37.918  33.487  34.058  1.00  0.00     0.029 A 
ATOM     42  C   UNL A   1      39.023  32.538  34.143  1.00  0.00     0.049 A 
ATOM     43  H   UNL A   1      39.718  31.261  32.653  1.00  0.00     0.167 HD
ATOM     44  C   UNL A   1      40.755  28.385  29.378  1.00  0.00     0.037 A 
ATOM     45  C   UNL A   1      39.808  32.318  35.215  1.00  0.00     0.037 A 
ATOM     46  C   UNL A   1      41.710  28.171  30.427  1.00  0.00     0.049 A 
ATOM     47  C   UNL A   1      40.901  31.288  35.094  1.00  0.00     0.074 A 
ATOM     48  C   UNL A   1      42.793  27.314  30.446  1.00  0.00     0.029 A 
ATOM     49  N   UNL A   1      41.682  28.825  31.651  1.00  0.00    -0.354 N 
ATOM     50  N   UNL A   1      41.208  30.526  34.069  1.00  0.00    -0.248 NA
ATOM     51  C   UNL A   1      41.757  31.088  36.268  1.00  0.00     0.031 C 
ATOM     52  C   UNL A   1      43.397  27.419  31.702  1.00  0.00     0.029 A 
ATOM     53  C   UNL A   1      42.717  28.372  32.446  1.00  0.00     0.049 A 
ATOM     54  H   UNL A   1      41.025  29.508  31.913  1.00  0.00     0.167 HD
ATOM     55  C   UNL A   1      42.306  29.775  34.466  1.00  0.00     0.074 A 
ATOM     56  C   UNL A   1      42.620  30.189  35.819  1.00  0.00     0.031 C 
ATOM     57  C   UNL A   1      42.994  28.826  33.785  1.00  0.00     0.037 A 
BRANCH  44  58
ATOM     58  C   UNL A   1      40.835  27.559  28.133  1.00  0.00     0.057 A 
ATOM     59  C   UNL A   1      41.563  27.975  27.011  1.00  0.00     0.134 A 
ATOM     60  C   UNL A   1      40.182  26.322  28.060  1.00  0.00     0.134 A 
ATOM     61  F   UNL A   1      42.185  29.164  27.007  1.00  0.00    -0.206 F 
ATOM     62  C   UNL A   1      41.632  27.194  25.856  1.00  0.00     0.040 A 
ATOM     63  C   UNL A   1      40.263  25.522  26.920  1.00  0.00     0.040 A 
ATOM     64  F   UNL A   1      39.456  25.873  29.095  1.00  0.00    -0.206 F 
ATOM     65  C   UNL A   1      40.989  25.959  25.814  1.00  0.00     0.006 A 
ENDBRANCH  44  58
BRANCH  45  66
ATOM     66  C   UNL A   1      39.589  33.063  36.481  1.00  0.00     0.057 A 
ATOM     67  C   UNL A   1      40.280  34.249  36.758  1.00  0.00     0.134 A 
ATOM     68  C   UNL A   1      38.711  32.590  37.464  1.00  0.00     0.134 A 
ATOM     69  F   UNL A   1      41.148  34.747  35.864  1.00  0.00    -0.206 F 
ATOM     70  C   UNL A   1      40.130  34.920  37.973  1.00  0.00     0.040 A 
ATOM     71  C   UNL A   1      38.531  33.263  38.673  1.00  0.00     0.040 A 
ATOM     72  F   UNL A   1      38.010  31.464  37.261  1.00  0.00    -0.206 F 
ATOM     73  C   UNL A   1      39.250  34.427  38.936  1.00  0.00     0.006 A 
ENDBRANCH  45  66
BRANCH  57  74
ATOM     74  C   UNL A   1      44.160  28.202  34.487  1.00  0.00     0.057 A 
ATOM     75  C   UNL A   1      44.028  27.014  35.215  1.00  0.00     0.134 A 
ATOM     76  C   UNL A   1      45.437  28.767  34.382  1.00  0.00     0.134 A 
ATOM     77  F   UNL A   1      42.827  26.434  35.359  1.00  0.00    -0.206 F 
ATOM     78  C   UNL A   1      45.126  26.419  35.834  1.00  0.00     0.040 A 
ATOM     79  C   UNL A   1      46.547  28.166  34.973  1.00  0.00     0.040 A 
ATOM     80  F   UNL A   1      45.627  29.898  33.686  1.00  0.00    -0.206 F 
ATOM     81  C   UNL A   1      46.392  26.991  35.706  1.00  0.00     0.006 A 
ENDBRANCH  57  74
ENDBRANCH  31  32
ENDBRANCH  24  26
ENDBRANCH  23  24
ENDBRANCH  22  23
ENDBRANCH  21  22
ENDBRANCH  20  21
ENDBRANCH   1  20
TORSDOF 18
ENDMDL
