MODEL 1
REMARK VINA RESULT:     -11.7      0.000      0.000
REMARK SMILES CS(=O)(=O)c1ccc(/C=C(/C(=O)OCCOCCOC(=O)c2ccc(-c3c4nc(c(-c5c(F)cccc5F)c5ccc([nH]5)c(-c5c(F)cccc5F)c5nc(c(-c6c(F)cccc6F)c6ccc3[nH]6)C=C5)C=C4)cc2)c2cccc(Br)c2)cc1
REMARK SMILES IDX 16 1 15 2 14 3 13 4 11 5 12 6 10 7 9 8 8 9 5 10 6 11 84 12
REMARK SMILES IDX 7 13 83 14 2 15 1 16 3 17 4 18 76 19 77 20 82 21 78 22 80 23
REMARK SMILES IDX 79 24 81 25 17 26 18 27 19 28 20 29 21 30 22 31 23 32 75 33
REMARK SMILES IDX 24 34 74 35 25 36 26 37 27 38 68 39 28 40 73 41 67 42 69 43
REMARK SMILES IDX 29 44 72 45 66 46 65 47 30 49 56 50 39 51 55 52 40 53 43 54
REMARK SMILES IDX 54 55 70 56 41 57 42 58 53 60 71 61 44 62 31 63 32 64 37 65
REMARK SMILES IDX 33 66 34 67 36 68 38 69 35 70 57 71 58 72 63 73 59 74 60 75
REMARK SMILES IDX 62 76 64 77 61 78 45 79 46 80 51 81 47 82 48 83 50 84 52 85
REMARK SMILES IDX 49 86
REMARK H PARENT 69 48 43 59
REMARK Flexibility Score: inf
ROOT
ATOM      1  O   UNL A   1      35.604  21.886  24.715  1.00  0.00    -0.374 OA
ENDROOT
BRANCH   1   2
ATOM      2  C   UNL A   1      34.354  21.917  24.025  1.00  0.00     0.202 C 
BRANCH   2   3
ATOM      3  C   UNL A   1      33.107  22.234  24.858  1.00  0.00     0.261 C 
BRANCH   3   4
ATOM      4  O   UNL A   1      32.554  23.516  24.504  1.00  0.00    -0.460 OA
BRANCH   4   5
ATOM      5  C   UNL A   1      33.000  24.555  25.258  1.00  0.00     0.338 C 
ATOM      6  O   UNL A   1      33.857  24.486  26.127  1.00  0.00    -0.246 OA
BRANCH   5   7
ATOM      7  C   UNL A   1      32.402  25.859  24.826  1.00  0.00     0.067 C 
ATOM      8  C   UNL A   1      31.767  25.966  23.635  1.00  0.00     0.024 C 
BRANCH   8   9
ATOM      9  C   UNL A   1      30.916  27.089  23.166  1.00  0.00    -0.025 A 
ATOM     10  C   UNL A   1      29.243  29.305  22.745  1.00  0.00     0.067 A 
ATOM     11  C   UNL A   1      30.591  29.382  22.401  1.00  0.00     0.021 A 
ATOM     12  C   UNL A   1      28.694  28.099  23.179  1.00  0.00     0.021 A 
ATOM     13  C   UNL A   1      31.410  28.265  22.584  1.00  0.00     0.009 A 
ATOM     14  C   UNL A   1      29.532  26.998  23.390  1.00  0.00     0.009 A 
BRANCH  10  15
ATOM     15  S   UNL A   1      28.246  30.772  22.651  1.00  0.00     0.175 S 
ATOM     16  C   UNL A   1      28.029  31.017  20.904  1.00  0.00     0.163 C 
ATOM     17  O   UNL A   1      29.045  31.879  23.152  1.00  0.00    -0.224 OA
ATOM     18  O   UNL A   1      26.962  30.453  23.235  1.00  0.00    -0.224 OA
ENDBRANCH  10  15
ENDBRANCH   8   9
BRANCH   7  19
ATOM     19  C   UNL A   1      32.476  26.964  25.803  1.00  0.00    -0.010 A 
ATOM     20  C   UNL A   1      31.370  27.233  26.628  1.00  0.00     0.009 A 
ATOM     21  C   UNL A   1      33.653  27.701  25.969  1.00  0.00     0.024 A 
ATOM     22  C   UNL A   1      31.448  28.202  27.627  1.00  0.00     0.002 A 
ATOM     23  C   UNL A   1      33.726  28.662  26.978  1.00  0.00     0.018 A 
ATOM     24  C   UNL A   1      32.633  28.913  27.808  1.00  0.00     0.016 A 
ATOM     25  Br  UNL A   1      35.343  29.600  27.251  1.00  0.00    -0.051 Br
ENDBRANCH   7  19
ENDBRANCH   5   7
ENDBRANCH   4   5
ENDBRANCH   3   4
ENDBRANCH   2   3
ENDBRANCH   1   2
BRANCH   1  26
ATOM     26  C   UNL A   1      36.032  20.638  25.251  1.00  0.00     0.202 C 
BRANCH  26  27
ATOM     27  C   UNL A   1      37.477  20.204  24.981  1.00  0.00     0.261 C 
BRANCH  27  28
ATOM     28  O   UNL A   1      38.418  21.275  25.143  1.00  0.00    -0.460 OA
BRANCH  28  29
ATOM     29  C   UNL A   1      39.416  20.995  26.014  1.00  0.00     0.338 C 
ATOM     30  O   UNL A   1      40.029  19.943  26.125  1.00  0.00    -0.246 OA
BRANCH  29  31
ATOM     31  C   UNL A   1      39.813  22.209  26.748  1.00  0.00     0.060 A 
ATOM     32  C   UNL A   1      39.138  23.392  26.424  1.00  0.00     0.016 A 
ATOM     33  C   UNL A   1      40.873  22.218  27.658  1.00  0.00     0.016 A 
ATOM     34  C   UNL A   1      39.574  24.604  26.945  1.00  0.00     0.010 A 
ATOM     35  C   UNL A   1      41.313  23.439  28.180  1.00  0.00     0.010 A 
ATOM     36  C   UNL A   1      40.698  24.641  27.781  1.00  0.00    -0.014 A 
BRANCH  36  37
ATOM     37  C   UNL A   1      41.321  25.954  28.066  1.00  0.00     0.031 A 
ATOM     38  C   UNL A   1      42.705  26.229  27.541  1.00  0.00     0.074 A 
ATOM     39  C   UNL A   1      40.633  26.919  28.701  1.00  0.00     0.049 A 
ATOM     40  N   UNL A   1      43.413  27.328  27.601  1.00  0.00    -0.248 NA
ATOM     41  C   UNL A   1      43.378  25.116  26.852  1.00  0.00     0.031 C 
ATOM     42  C   UNL A   1      39.276  26.782  29.226  1.00  0.00     0.029 A 
ATOM     43  N   UNL A   1      40.984  28.211  28.999  1.00  0.00    -0.354 N 
ATOM     44  C   UNL A   1      44.611  27.040  26.958  1.00  0.00     0.074 A 
ATOM     45  C   UNL A   1      44.551  25.653  26.552  1.00  0.00     0.031 C 
ATOM     46  C   UNL A   1      38.905  27.951  29.778  1.00  0.00     0.029 A 
ATOM     47  C   UNL A   1      40.004  28.908  29.659  1.00  0.00     0.049 A 
ATOM     48  H   UNL A   1      41.856  28.602  28.760  1.00  0.00     0.167 HD
ATOM     49  C   UNL A   1      45.660  27.860  26.713  1.00  0.00     0.037 A 
ATOM     50  C   UNL A   1      39.998  30.174  30.117  1.00  0.00     0.037 A 
ATOM     51  C   UNL A   1      45.718  29.241  27.114  1.00  0.00     0.049 A 
ATOM     52  C   UNL A   1      41.195  31.053  29.874  1.00  0.00     0.074 A 
ATOM     53  C   UNL A   1      46.732  30.159  26.903  1.00  0.00     0.029 A 
ATOM     54  N   UNL A   1      44.720  29.900  27.815  1.00  0.00    -0.354 N 
ATOM     55  N   UNL A   1      42.309  30.778  29.239  1.00  0.00    -0.248 NA
ATOM     56  C   UNL A   1      41.127  32.422  30.401  1.00  0.00     0.031 C 
ATOM     57  C   UNL A   1      46.364  31.363  27.515  1.00  0.00     0.029 A 
ATOM     58  C   UNL A   1      45.101  31.209  28.062  1.00  0.00     0.049 A 
ATOM     59  H   UNL A   1      43.866  29.497  28.095  1.00  0.00     0.167 HD
ATOM     60  C   UNL A   1      43.061  31.946  29.267  1.00  0.00     0.074 A 
ATOM     61  C   UNL A   1      42.268  32.936  29.965  1.00  0.00     0.031 C 
ATOM     62  C   UNL A   1      44.297  32.180  28.759  1.00  0.00     0.037 A 
BRANCH  49  63
ATOM     63  C   UNL A   1      46.838  27.273  25.991  1.00  0.00     0.057 A 
ATOM     64  C   UNL A   1      47.846  26.572  26.665  1.00  0.00     0.134 A 
ATOM     65  C   UNL A   1      46.956  27.398  24.601  1.00  0.00     0.134 A 
ATOM     66  F   UNL A   1      47.802  26.431  27.998  1.00  0.00    -0.206 F 
ATOM     67  C   UNL A   1      48.942  26.034  25.985  1.00  0.00     0.040 A 
ATOM     68  C   UNL A   1      48.033  26.844  23.907  1.00  0.00     0.040 A 
ATOM     69  F   UNL A   1      46.025  28.056  23.895  1.00  0.00    -0.206 F 
ATOM     70  C   UNL A   1      49.033  26.165  24.600  1.00  0.00     0.006 A 
ENDBRANCH  49  63
BRANCH  50  71
ATOM     71  C   UNL A   1      38.814  30.694  30.848  1.00  0.00     0.057 A 
ATOM     72  C   UNL A   1      38.676  30.518  32.229  1.00  0.00     0.134 A 
ATOM     73  C   UNL A   1      37.782  31.358  30.175  1.00  0.00     0.134 A 
ATOM     74  F   UNL A   1      39.621  29.870  32.925  1.00  0.00    -0.206 F 
ATOM     75  C   UNL A   1      37.543  30.964  32.913  1.00  0.00     0.040 A 
ATOM     76  C   UNL A   1      36.656  31.832  30.849  1.00  0.00     0.040 A 
ATOM     77  F   UNL A   1      37.856  31.561  28.851  1.00  0.00    -0.206 F 
ATOM     78  C   UNL A   1      36.531  31.628  32.222  1.00  0.00     0.006 A 
ENDBRANCH  50  71
BRANCH  62  79
ATOM     79  C   UNL A   1      44.847  33.570  28.914  1.00  0.00     0.057 A 
ATOM     80  C   UNL A   1      44.591  34.577  27.974  1.00  0.00     0.134 A 
ATOM     81  C   UNL A   1      45.630  33.906  30.026  1.00  0.00     0.134 A 
ATOM     82  F   UNL A   1      43.858  34.318  26.882  1.00  0.00    -0.206 F 
ATOM     83  C   UNL A   1      45.122  35.860  28.119  1.00  0.00     0.040 A 
ATOM     84  C   UNL A   1      46.143  35.192  30.195  1.00  0.00     0.040 A 
ATOM     85  F   UNL A   1      45.904  32.992  30.969  1.00  0.00    -0.206 F 
ATOM     86  C   UNL A   1      45.898  36.171  29.234  1.00  0.00     0.006 A 
ENDBRANCH  62  79
ENDBRANCH  36  37
ENDBRANCH  29  31
ENDBRANCH  28  29
ENDBRANCH  27  28
ENDBRANCH  26  27
ENDBRANCH   1  26
TORSDOF 17
ENDMDL
MODEL 2
REMARK VINA RESULT:     -11.6      4.185      9.476
REMARK SMILES CS(=O)(=O)c1ccc(/C=C(/C(=O)OCCOCCOC(=O)c2ccc(-c3c4nc(c(-c5c(F)cccc5F)c5ccc([nH]5)c(-c5c(F)cccc5F)c5nc(c(-c6c(F)cccc6F)c6ccc3[nH]6)C=C5)C=C4)cc2)c2cccc(Br)c2)cc1
REMARK SMILES IDX 16 1 15 2 14 3 13 4 11 5 12 6 10 7 9 8 8 9 5 10 6 11 84 12
REMARK SMILES IDX 7 13 83 14 2 15 1 16 3 17 4 18 76 19 77 20 82 21 78 22 80 23
REMARK SMILES IDX 79 24 81 25 17 26 18 27 19 28 20 29 21 30 22 31 23 32 75 33
REMARK SMILES IDX 24 34 74 35 25 36 26 37 27 38 68 39 28 40 73 41 67 42 69 43
REMARK SMILES IDX 29 44 72 45 66 46 65 47 30 49 56 50 39 51 55 52 40 53 43 54
REMARK SMILES IDX 54 55 70 56 41 57 42 58 53 60 71 61 44 62 31 63 32 64 37 65
REMARK SMILES IDX 33 66 34 67 36 68 38 69 35 70 57 71 58 72 63 73 59 74 60 75
REMARK SMILES IDX 62 76 64 77 61 78 45 79 46 80 51 81 47 82 48 83 50 84 52 85
REMARK SMILES IDX 49 86
REMARK H PARENT 69 48 43 59
REMARK Flexibility Score: inf
ROOT
ATOM      1  O   UNL A   1      31.712  29.172  23.824  1.00  0.00    -0.374 OA
ENDROOT
BRANCH   1   2
ATOM      2  C   UNL A   1      31.845  27.899  23.190  1.00  0.00     0.202 C 
BRANCH   2   3
ATOM      3  C   UNL A   1      31.204  26.700  23.896  1.00  0.00     0.261 C 
BRANCH   3   4
ATOM      4  O   UNL A   1      32.057  25.541  23.840  1.00  0.00    -0.460 OA
BRANCH   4   5
ATOM      5  C   UNL A   1      32.656  25.217  25.016  1.00  0.00     0.338 C 
ATOM      6  O   UNL A   1      32.755  25.952  25.989  1.00  0.00    -0.246 OA
BRANCH   5   7
ATOM      7  C   UNL A   1      33.094  23.785  25.048  1.00  0.00     0.067 C 
ATOM      8  C   UNL A   1      32.199  22.795  25.276  1.00  0.00     0.024 C 
BRANCH   8   9
ATOM      9  C   UNL A   1      32.406  21.335  25.097  1.00  0.00    -0.025 A 
ATOM     10  C   UNL A   1      33.169  18.703  24.484  1.00  0.00     0.067 A 
ATOM     11  C   UNL A   1      33.320  19.181  25.784  1.00  0.00     0.021 A 
ATOM     12  C   UNL A   1      32.529  19.478  23.518  1.00  0.00     0.021 A 
ATOM     13  C   UNL A   1      32.909  20.481  26.090  1.00  0.00     0.009 A 
ATOM     14  C   UNL A   1      32.153  20.790  23.828  1.00  0.00     0.009 A 
BRANCH  10  15
ATOM     15  S   UNL A   1      33.832  17.108  24.072  1.00  0.00     0.175 S 
ATOM     16  C   UNL A   1      32.809  15.982  24.992  1.00  0.00     0.163 C 
ATOM     17  O   UNL A   1      35.174  17.032  24.627  1.00  0.00    -0.224 OA
ATOM     18  O   UNL A   1      33.594  16.898  22.661  1.00  0.00    -0.224 OA
ENDBRANCH  10  15
ENDBRANCH   8   9
BRANCH   7  19
ATOM     19  C   UNL A   1      34.515  23.532  24.732  1.00  0.00    -0.010 A 
ATOM     20  C   UNL A   1      34.871  23.112  23.438  1.00  0.00     0.009 A 
ATOM     21  C   UNL A   1      35.516  23.771  25.678  1.00  0.00     0.024 A 
ATOM     22  C   UNL A   1      36.211  22.964  23.085  1.00  0.00     0.002 A 
ATOM     23  C   UNL A   1      36.855  23.631  25.312  1.00  0.00     0.018 A 
ATOM     24  C   UNL A   1      37.207  23.233  24.023  1.00  0.00     0.016 A 
ATOM     25  Br  UNL A   1      38.207  24.032  26.570  1.00  0.00    -0.051 Br
ENDBRANCH   7  19
ENDBRANCH   5   7
ENDBRANCH   4   5
ENDBRANCH   3   4
ENDBRANCH   2   3
ENDBRANCH   1   2
BRANCH   1  26
ATOM     26  C   UNL A   1      32.329  29.343  25.096  1.00  0.00     0.202 C 
BRANCH  26  27
ATOM     27  C   UNL A   1      31.852  30.510  25.968  1.00  0.00     0.261 C 
BRANCH  27  28
ATOM     28  O   UNL A   1      32.484  30.536  27.256  1.00  0.00    -0.460 OA
BRANCH  28  29
ATOM     29  C   UNL A   1      33.223  31.648  27.477  1.00  0.00     0.338 C 
ATOM     30  O   UNL A   1      32.821  32.800  27.563  1.00  0.00    -0.246 OA
BRANCH  29  31
ATOM     31  C   UNL A   1      34.619  31.285  27.776  1.00  0.00     0.060 A 
ATOM     32  C   UNL A   1      34.886  29.930  27.995  1.00  0.00     0.016 A 
ATOM     33  C   UNL A   1      35.622  32.246  27.930  1.00  0.00     0.016 A 
ATOM     34  C   UNL A   1      36.138  29.534  28.451  1.00  0.00     0.010 A 
ATOM     35  C   UNL A   1      36.881  31.847  28.393  1.00  0.00     0.010 A 
ATOM     36  C   UNL A   1      37.125  30.496  28.706  1.00  0.00    -0.014 A 
BRANCH  36  37
ATOM     37  C   UNL A   1      38.323  30.090  29.476  1.00  0.00     0.031 A 
ATOM     38  C   UNL A   1      38.499  30.615  30.876  1.00  0.00     0.074 A 
ATOM     39  C   UNL A   1      39.193  29.196  28.973  1.00  0.00     0.049 A 
ATOM     40  N   UNL A   1      39.423  30.335  31.759  1.00  0.00    -0.248 NA
ATOM     41  C   UNL A   1      37.493  31.583  31.344  1.00  0.00     0.031 C 
ATOM     42  C   UNL A   1      39.111  28.593  27.644  1.00  0.00     0.029 A 
ATOM     43  N   UNL A   1      40.311  28.633  29.533  1.00  0.00    -0.354 N 
ATOM     44  C   UNL A   1      39.110  31.088  32.883  1.00  0.00     0.074 A 
ATOM     45  C   UNL A   1      37.936  31.868  32.559  1.00  0.00     0.031 C 
ATOM     46  C   UNL A   1      40.135  27.736  27.493  1.00  0.00     0.029 A 
ATOM     47  C   UNL A   1      40.952  27.745  28.706  1.00  0.00     0.049 A 
ATOM     48  H   UNL A   1      40.624  28.845  30.443  1.00  0.00     0.167 HD
ATOM     49  C   UNL A   1      39.735  31.117  34.084  1.00  0.00     0.037 A 
ATOM     50  C   UNL A   1      42.070  27.024  28.908  1.00  0.00     0.037 A 
ATOM     51  C   UNL A   1      40.902  30.339  34.408  1.00  0.00     0.049 A 
ATOM     52  C   UNL A   1      42.774  27.109  30.236  1.00  0.00     0.074 A 
ATOM     53  C   UNL A   1      41.602  30.289  35.601  1.00  0.00     0.029 A 
ATOM     54  N   UNL A   1      41.543  29.479  33.531  1.00  0.00    -0.354 N 
ATOM     55  N   UNL A   1      42.452  27.802  31.301  1.00  0.00    -0.248 NA
ATOM     56  C   UNL A   1      43.991  26.300  30.391  1.00  0.00     0.031 C 
ATOM     57  C   UNL A   1      42.694  29.430  35.431  1.00  0.00     0.029 A 
ATOM     58  C   UNL A   1      42.643  28.907  34.148  1.00  0.00     0.049 A 
ATOM     59  H   UNL A   1      41.257  29.300  32.605  1.00  0.00     0.167 HD
ATOM     60  C   UNL A   1      43.409  27.491  32.261  1.00  0.00     0.074 A 
ATOM     61  C   UNL A   1      44.311  26.534  31.655  1.00  0.00     0.031 C 
ATOM     62  C   UNL A   1      43.530  27.955  33.530  1.00  0.00     0.037 A 
BRANCH  49  63
ATOM     63  C   UNL A   1      39.173  32.036  35.130  1.00  0.00     0.057 A 
ATOM     64  C   UNL A   1      38.270  31.589  36.102  1.00  0.00     0.134 A 
ATOM     65  C   UNL A   1      39.556  33.383  35.174  1.00  0.00     0.134 A 
ATOM     66  F   UNL A   1      37.850  30.314  36.105  1.00  0.00    -0.206 F 
ATOM     67  C   UNL A   1      37.748  32.453  37.068  1.00  0.00     0.040 A 
ATOM     68  C   UNL A   1      39.061  34.251  36.149  1.00  0.00     0.040 A 
ATOM     69  F   UNL A   1      40.418  33.876  34.273  1.00  0.00    -0.206 F 
ATOM     70  C   UNL A   1      38.150  33.787  37.096  1.00  0.00     0.006 A 
ENDBRANCH  49  63
BRANCH  50  71
ATOM     71  C   UNL A   1      42.595  26.150  27.829  1.00  0.00     0.057 A 
ATOM     72  C   UNL A   1      43.494  26.634  26.871  1.00  0.00     0.134 A 
ATOM     73  C   UNL A   1      42.189  24.815  27.716  1.00  0.00     0.134 A 
ATOM     74  F   UNL A   1      43.902  27.911  26.913  1.00  0.00    -0.206 F 
ATOM     75  C   UNL A   1      43.954  25.829  25.827  1.00  0.00     0.040 A 
ATOM     76  C   UNL A   1      42.661  23.991  26.693  1.00  0.00     0.040 A 
ATOM     77  F   UNL A   1      41.332  24.290  28.604  1.00  0.00    -0.206 F 
ATOM     78  C   UNL A   1      43.540  24.501  25.739  1.00  0.00     0.006 A 
ENDBRANCH  50  71
BRANCH  62  79
ATOM     79  C   UNL A   1      44.660  27.405  34.353  1.00  0.00     0.057 A 
ATOM     80  C   UNL A   1      44.528  26.226  35.098  1.00  0.00     0.134 A 
ATOM     81  C   UNL A   1      45.900  28.057  34.386  1.00  0.00     0.134 A 
ATOM     82  F   UNL A   1      43.365  25.560  35.118  1.00  0.00    -0.206 F 
ATOM     83  C   UNL A   1      45.579  25.735  35.874  1.00  0.00     0.040 A 
ATOM     84  C   UNL A   1      46.965  27.559  35.136  1.00  0.00     0.040 A 
ATOM     85  F   UNL A   1      46.096  29.184  33.687  1.00  0.00    -0.206 F 
ATOM     86  C   UNL A   1      46.804  26.400  35.892  1.00  0.00     0.006 A 
ENDBRANCH  62  79
ENDBRANCH  36  37
ENDBRANCH  29  31
ENDBRANCH  28  29
ENDBRANCH  27  28
ENDBRANCH  26  27
ENDBRANCH   1  26
TORSDOF 17
ENDMDL
MODEL 3
REMARK VINA RESULT:     -11.4      4.194      7.701
REMARK SMILES CS(=O)(=O)c1ccc(/C=C(/C(=O)OCCOCCOC(=O)c2ccc(-c3c4nc(c(-c5c(F)cccc5F)c5ccc([nH]5)c(-c5c(F)cccc5F)c5nc(c(-c6c(F)cccc6F)c6ccc3[nH]6)C=C5)C=C4)cc2)c2cccc(Br)c2)cc1
REMARK SMILES IDX 16 1 15 2 14 3 13 4 11 5 12 6 10 7 9 8 8 9 5 10 6 11 84 12
REMARK SMILES IDX 7 13 83 14 2 15 1 16 3 17 4 18 76 19 77 20 82 21 78 22 80 23
REMARK SMILES IDX 79 24 81 25 17 26 18 27 19 28 20 29 21 30 22 31 23 32 75 33
REMARK SMILES IDX 24 34 74 35 25 36 26 37 27 38 68 39 28 40 73 41 67 42 69 43
REMARK SMILES IDX 29 44 72 45 66 46 65 47 30 49 56 50 39 51 55 52 40 53 43 54
REMARK SMILES IDX 54 55 70 56 41 57 42 58 53 60 71 61 44 62 31 63 32 64 37 65
REMARK SMILES IDX 33 66 34 67 36 68 38 69 35 70 57 71 58 72 63 73 59 74 60 75
REMARK SMILES IDX 62 76 64 77 61 78 45 79 46 80 51 81 47 82 48 83 50 84 52 85
REMARK SMILES IDX 49 86
REMARK H PARENT 69 48 43 59
REMARK Flexibility Score: inf
ROOT
ATOM      1  O   UNL A   1      30.592  28.869  24.041  1.00  0.00    -0.374 OA
ENDROOT
BRANCH   1   2
ATOM      2  C   UNL A   1      30.571  27.558  23.474  1.00  0.00     0.202 C 
BRANCH   2   3
ATOM      3  C   UNL A   1      30.739  26.380  24.440  1.00  0.00     0.261 C 
BRANCH   3   4
ATOM      4  O   UNL A   1      31.872  25.567  24.083  1.00  0.00    -0.460 OA
BRANCH   4   5
ATOM      5  C   UNL A   1      32.716  25.286  25.110  1.00  0.00     0.338 C 
ATOM      6  O   UNL A   1      33.041  26.063  25.996  1.00  0.00    -0.246 OA
BRANCH   5   7
ATOM      7  C   UNL A   1      33.131  23.846  25.118  1.00  0.00     0.067 C 
ATOM      8  C   UNL A   1      32.222  22.867  25.340  1.00  0.00     0.024 C 
BRANCH   8   9
ATOM      9  C   UNL A   1      32.404  21.407  25.138  1.00  0.00    -0.025 A 
ATOM     10  C   UNL A   1      33.130  18.772  24.497  1.00  0.00     0.067 A 
ATOM     11  C   UNL A   1      33.250  19.221  25.810  1.00  0.00     0.021 A 
ATOM     12  C   UNL A   1      32.538  19.578  23.527  1.00  0.00     0.021 A 
ATOM     13  C   UNL A   1      32.857  20.523  26.128  1.00  0.00     0.009 A 
ATOM     14  C   UNL A   1      32.179  20.892  23.851  1.00  0.00     0.009 A 
BRANCH  10  15
ATOM     15  S   UNL A   1      33.772  17.170  24.074  1.00  0.00     0.175 S 
ATOM     16  C   UNL A   1      32.822  16.060  25.087  1.00  0.00     0.163 C 
ATOM     17  O   UNL A   1      35.150  17.113  24.536  1.00  0.00    -0.224 OA
ATOM     18  O   UNL A   1      33.438  16.930  22.688  1.00  0.00    -0.224 OA
ENDBRANCH  10  15
ENDBRANCH   8   9
BRANCH   7  19
ATOM     19  C   UNL A   1      34.545  23.575  24.786  1.00  0.00    -0.010 A 
ATOM     20  C   UNL A   1      34.879  23.127  23.496  1.00  0.00     0.009 A 
ATOM     21  C   UNL A   1      35.562  23.824  25.713  1.00  0.00     0.024 A 
ATOM     22  C   UNL A   1      36.212  22.960  23.126  1.00  0.00     0.002 A 
ATOM     23  C   UNL A   1      36.894  23.665  25.330  1.00  0.00     0.018 A 
ATOM     24  C   UNL A   1      37.224  23.239  24.044  1.00  0.00     0.016 A 
ATOM     25  Br  UNL A   1      38.268  24.078  26.560  1.00  0.00    -0.051 Br
ENDBRANCH   7  19
ENDBRANCH   5   7
ENDBRANCH   4   5
ENDBRANCH   3   4
ENDBRANCH   2   3
ENDBRANCH   1   2
BRANCH   1  26
ATOM     26  C   UNL A   1      31.716  29.225  24.840  1.00  0.00     0.202 C 
BRANCH  26  27
ATOM     27  C   UNL A   1      31.585  30.453  25.748  1.00  0.00     0.261 C 
BRANCH  27  28
ATOM     28  O   UNL A   1      32.379  30.351  26.939  1.00  0.00    -0.460 OA
BRANCH  28  29
ATOM     29  C   UNL A   1      33.075  31.475  27.226  1.00  0.00     0.338 C 
ATOM     30  O   UNL A   1      32.653  32.622  27.251  1.00  0.00    -0.246 OA
BRANCH  29  31
ATOM     31  C   UNL A   1      34.434  31.134  27.682  1.00  0.00     0.060 A 
ATOM     32  C   UNL A   1      34.714  29.777  27.876  1.00  0.00     0.016 A 
ATOM     33  C   UNL A   1      35.381  32.111  28.003  1.00  0.00     0.016 A 
ATOM     34  C   UNL A   1      35.911  29.392  28.469  1.00  0.00     0.010 A 
ATOM     35  C   UNL A   1      36.583  31.723  28.603  1.00  0.00     0.010 A 
ATOM     36  C   UNL A   1      36.827  30.367  28.886  1.00  0.00    -0.014 A 
BRANCH  36  37
ATOM     37  C   UNL A   1      37.932  29.955  29.783  1.00  0.00     0.031 A 
ATOM     38  C   UNL A   1      38.982  29.013  29.255  1.00  0.00     0.074 A 
ATOM     39  C   UNL A   1      38.051  30.481  31.015  1.00  0.00     0.049 A 
ATOM     40  N   UNL A   1      40.075  28.581  29.830  1.00  0.00    -0.248 NA
ATOM     41  C   UNL A   1      38.772  28.495  27.894  1.00  0.00     0.031 C 
ATOM     42  C   UNL A   1      37.117  31.426  31.623  1.00  0.00     0.029 A 
ATOM     43  N   UNL A   1      39.020  30.299  31.968  1.00  0.00    -0.354 N 
ATOM     44  C   UNL A   1      40.682  27.743  28.903  1.00  0.00     0.074 A 
ATOM     45  C   UNL A   1      39.817  27.695  27.744  1.00  0.00     0.031 C 
ATOM     46  C   UNL A   1      37.564  31.748  32.849  1.00  0.00     0.029 A 
ATOM     47  C   UNL A   1      38.803  31.019  33.116  1.00  0.00     0.049 A 
ATOM     48  H   UNL A   1      39.800  29.710  31.840  1.00  0.00     0.167 HD
ATOM     49  C   UNL A   1      41.861  27.085  29.000  1.00  0.00     0.037 A 
ATOM     50  C   UNL A   1      39.523  31.078  34.252  1.00  0.00     0.037 A 
ATOM     51  C   UNL A   1      42.723  27.135  30.151  1.00  0.00     0.049 A 
ATOM     52  C   UNL A   1      40.807  30.300  34.354  1.00  0.00     0.074 A 
ATOM     53  C   UNL A   1      43.944  26.513  30.343  1.00  0.00     0.029 A 
ATOM     54  N   UNL A   1      42.449  27.845  31.309  1.00  0.00    -0.354 N 
ATOM     55  N   UNL A   1      41.385  29.535  33.460  1.00  0.00    -0.248 NA
ATOM     56  C   UNL A   1      41.545  30.405  35.620  1.00  0.00     0.031 C 
ATOM     57  C   UNL A   1      44.389  26.813  31.636  1.00  0.00     0.029 A 
ATOM     58  C   UNL A   1      43.469  27.662  32.229  1.00  0.00     0.049 A 
ATOM     59  H   UNL A   1      41.648  28.399  31.456  1.00  0.00     0.167 HD
ATOM     60  C   UNL A   1      42.566  29.091  34.044  1.00  0.00     0.074 A 
ATOM     61  C   UNL A   1      42.628  29.687  35.362  1.00  0.00     0.031 C 
ATOM     62  C   UNL A   1      43.514  28.265  33.536  1.00  0.00     0.037 A 
BRANCH  49  63
ATOM     63  C   UNL A   1      42.275  26.239  27.831  1.00  0.00     0.057 A 
ATOM     64  C   UNL A   1      43.037  26.756  26.774  1.00  0.00     0.134 A 
ATOM     65  C   UNL A   1      41.922  24.885  27.770  1.00  0.00     0.134 A 
ATOM     66  F   UNL A   1      43.394  28.049  26.763  1.00  0.00    -0.206 F 
ATOM     67  C   UNL A   1      43.413  25.963  25.688  1.00  0.00     0.040 A 
ATOM     68  C   UNL A   1      42.313  24.076  26.702  1.00  0.00     0.040 A 
ATOM     69  F   UNL A   1      41.195  24.326  28.749  1.00  0.00    -0.206 F 
ATOM     70  C   UNL A   1      43.055  24.616  25.654  1.00  0.00     0.006 A 
ENDBRANCH  49  63
BRANCH  50  71
ATOM     71  C   UNL A   1      39.052  31.912  35.387  1.00  0.00     0.057 A 
ATOM     72  C   UNL A   1      38.262  31.373  36.408  1.00  0.00     0.134 A 
ATOM     73  C   UNL A   1      39.361  33.275  35.462  1.00  0.00     0.134 A 
ATOM     74  F   UNL A   1      37.914  30.078  36.380  1.00  0.00    -0.206 F 
ATOM     75  C   UNL A   1      37.778  32.162  37.453  1.00  0.00     0.040 A 
ATOM     76  C   UNL A   1      38.906  34.072  36.513  1.00  0.00     0.040 A 
ATOM     77  F   UNL A   1      40.117  33.852  34.515  1.00  0.00    -0.206 F 
ATOM     78  C   UNL A   1      38.105  33.516  37.509  1.00  0.00     0.006 A 
ENDBRANCH  50  71
BRANCH  62  79
ATOM     79  C   UNL A   1      44.712  27.988  34.400  1.00  0.00     0.057 A 
ATOM     80  C   UNL A   1      45.860  28.791  34.354  1.00  0.00     0.134 A 
ATOM     81  C   UNL A   1      44.709  26.914  35.299  1.00  0.00     0.134 A 
ATOM     82  F   UNL A   1      45.931  29.828  33.507  1.00  0.00    -0.206 F 
ATOM     83  C   UNL A   1      46.974  28.513  35.147  1.00  0.00     0.040 A 
ATOM     84  C   UNL A   1      45.806  26.645  36.117  1.00  0.00     0.040 A 
ATOM     85  F   UNL A   1      43.638  26.114  35.402  1.00  0.00    -0.206 F 
ATOM     86  C   UNL A   1      46.948  27.439  36.035  1.00  0.00     0.006 A 
ENDBRANCH  62  79
ENDBRANCH  36  37
ENDBRANCH  29  31
ENDBRANCH  28  29
ENDBRANCH  27  28
ENDBRANCH  26  27
ENDBRANCH   1  26
TORSDOF 17
ENDMDL
