MODEL 1
REMARK VINA RESULT:     -10.8      0.000      0.000
REMARK SMILES Cc1cc(F)ccc1S(=O)(=O)N1CCO[C@H](CC(=O)OCCOCCOC(=O)c2ccc(-c3c4nc(c(-c5c(F)cccc5F)c5ccc([nH]5)c(-c5c(F)cccc5F)c5nc(c(-c6c(F)cccc6F)c6ccc3[nH]6)C=C5)C=C4)cc2)C1
REMARK SMILES IDX 22 1 21 2 20 3 18 4 19 5 17 6 16 7 12 8 13 9 83 10 14 11
REMARK SMILES IDX 15 12 9 13 10 14 11 15 8 16 1 17 2 18 3 19 4 20 7 21 5 22
REMARK SMILES IDX 6 23 23 24 24 25 25 26 26 27 27 28 28 29 29 30 30 31 82 32
REMARK SMILES IDX 31 33 81 34 32 35 33 36 34 37 75 38 35 39 80 40 74 41 76 42
REMARK SMILES IDX 36 43 79 44 73 45 72 46 37 48 63 49 46 50 62 51 47 52 50 53
REMARK SMILES IDX 61 54 77 55 48 56 49 57 60 59 78 60 51 61 38 62 39 63 44 64
REMARK SMILES IDX 40 65 41 66 43 67 45 68 42 69 64 70 65 71 70 72 66 73 67 74
REMARK SMILES IDX 69 75 71 76 68 77 52 78 53 79 58 80 54 81 55 82 57 83 59 84
REMARK SMILES IDX 56 85
REMARK H PARENT 76 47 50 58
REMARK Flexibility Score: inf
ROOT
ATOM      1  C   UNL A   1      34.135  33.213  28.229  1.00  0.00     0.202 C 
ENDROOT
BRANCH   1   2
ATOM      2  C   UNL A   1      34.471  31.728  28.376  1.00  0.00     0.261 C 
BRANCH   2   3
ATOM      3  O   UNL A   1      33.830  30.898  27.395  1.00  0.00    -0.463 OA
BRANCH   3   4
ATOM      4  C   UNL A   1      34.406  29.683  27.219  1.00  0.00     0.308 C 
ATOM      5  O   UNL A   1      35.529  29.370  27.596  1.00  0.00    -0.252 OA
BRANCH   4   6
ATOM      6  C   UNL A   1      33.524  28.738  26.458  1.00  0.00     0.156 C 
BRANCH   6   7
ATOM      7  C   UNL A   1      32.511  29.392  25.509  1.00  0.00     0.144 C 
ATOM      8  N   UNL A   1      31.657  27.254  24.721  1.00  0.00    -0.193 NA
ATOM      9  C   UNL A   1      32.173  27.475  23.350  1.00  0.00     0.131 C 
ATOM     10  C   UNL A   1      31.247  28.522  25.367  1.00  0.00     0.135 C 
ATOM     11  C   UNL A   1      33.314  28.515  23.386  1.00  0.00     0.177 C 
ATOM     12  O   UNL A   1      33.058  29.671  24.198  1.00  0.00    -0.375 OA
BRANCH   8  13
ATOM     13  S   UNL A   1      30.972  25.784  25.154  1.00  0.00     0.243 S 
ATOM     14  O   UNL A   1      30.286  25.232  24.015  1.00  0.00    -0.207 OA
ATOM     15  O   UNL A   1      30.284  26.016  26.415  1.00  0.00    -0.207 OA
BRANCH  13  16
ATOM     16  C   UNL A   1      32.333  24.646  25.516  1.00  0.00     0.085 A 
ATOM     17  C   UNL A   1      30.899  22.579  26.138  1.00  0.00     0.046 C 
ATOM     18  C   UNL A   1      32.190  23.286  25.869  1.00  0.00    -0.028 A 
ATOM     19  C   UNL A   1      33.352  22.516  26.083  1.00  0.00     0.044 A 
ATOM     20  C   UNL A   1      34.612  23.091  26.020  1.00  0.00     0.123 A 
ATOM     21  C   UNL A   1      33.624  25.212  25.477  1.00  0.00     0.025 A 
ATOM     22  F   UNL A   1      35.692  22.337  26.261  1.00  0.00    -0.207 F 
ATOM     23  C   UNL A   1      34.757  24.440  25.744  1.00  0.00     0.040 A 
ENDBRANCH  13  16
ENDBRANCH   8  13
ENDBRANCH   6   7
ENDBRANCH   4   6
ENDBRANCH   3   4
ENDBRANCH   2   3
ENDBRANCH   1   2
BRANCH   1  24
ATOM     24  O   UNL A   1      34.720  34.131  29.145  1.00  0.00    -0.374 OA
BRANCH  24  25
ATOM     25  C   UNL A   1      34.044  34.408  30.369  1.00  0.00     0.202 C 
BRANCH  25  26
ATOM     26  C   UNL A   1      34.751  34.063  31.688  1.00  0.00     0.261 C 
BRANCH  26  27
ATOM     27  O   UNL A   1      34.840  32.644  31.930  1.00  0.00    -0.460 OA
BRANCH  27  28
ATOM     28  C   UNL A   1      35.886  32.274  32.712  1.00  0.00     0.338 C 
ATOM     29  O   UNL A   1      35.994  32.419  33.918  1.00  0.00    -0.246 OA
BRANCH  28  30
ATOM     30  C   UNL A   1      36.849  31.466  31.942  1.00  0.00     0.060 A 
ATOM     31  C   UNL A   1      37.908  30.881  32.648  1.00  0.00     0.016 A 
ATOM     32  C   UNL A   1      36.798  31.397  30.550  1.00  0.00     0.016 A 
ATOM     33  C   UNL A   1      38.946  30.259  31.959  1.00  0.00     0.010 A 
ATOM     34  C   UNL A   1      37.849  30.780  29.858  1.00  0.00     0.010 A 
ATOM     35  C   UNL A   1      38.944  30.240  30.558  1.00  0.00    -0.014 A 
BRANCH  35  36
ATOM     36  C   UNL A   1      40.157  29.771  29.845  1.00  0.00     0.031 A 
ATOM     37  C   UNL A   1      41.315  30.715  29.656  1.00  0.00     0.074 A 
ATOM     38  C   UNL A   1      40.252  28.497  29.424  1.00  0.00     0.049 A 
ATOM     39  N   UNL A   1      42.469  30.506  29.076  1.00  0.00    -0.248 NA
ATOM     40  C   UNL A   1      41.150  32.074  30.195  1.00  0.00     0.031 C 
ATOM     41  C   UNL A   1      39.217  27.478  29.587  1.00  0.00     0.029 A 
ATOM     42  N   UNL A   1      41.271  27.845  28.777  1.00  0.00    -0.354 N 
ATOM     43  C   UNL A   1      43.166  31.705  29.175  1.00  0.00     0.074 A 
ATOM     44  C   UNL A   1      42.291  32.646  29.842  1.00  0.00     0.031 C 
ATOM     45  C   UNL A   1      39.653  26.326  29.050  1.00  0.00     0.029 A 
ATOM     46  C   UNL A   1      40.982  26.537  28.478  1.00  0.00     0.049 A 
ATOM     47  H   UNL A   1      42.126  28.274  28.548  1.00  0.00     0.167 HD
ATOM     48  C   UNL A   1      44.421  31.992  28.758  1.00  0.00     0.037 A 
ATOM     49  C   UNL A   1      41.699  25.618  27.803  1.00  0.00     0.037 A 
ATOM     50  C   UNL A   1      45.290  31.052  28.096  1.00  0.00     0.049 A 
ATOM     51  C   UNL A   1      43.065  25.984  27.285  1.00  0.00     0.074 A 
ATOM     52  C   UNL A   1      46.589  31.241  27.654  1.00  0.00     0.029 A 
ATOM     53  N   UNL A   1      44.944  29.749  27.771  1.00  0.00    -0.354 N 
ATOM     54  N   UNL A   1      43.724  27.111  27.409  1.00  0.00    -0.248 NA
ATOM     55  C   UNL A   1      43.789  24.947  26.537  1.00  0.00     0.031 C 
ATOM     56  C   UNL A   1      47.007  30.072  27.011  1.00  0.00     0.029 A 
ATOM     57  C   UNL A   1      45.993  29.133  27.106  1.00  0.00     0.049 A 
ATOM     58  H   UNL A   1      44.081  29.324  27.981  1.00  0.00     0.167 HD
ATOM     59  C   UNL A   1      44.947  26.910  26.781  1.00  0.00     0.074 A 
ATOM     60  C   UNL A   1      44.944  25.547  26.291  1.00  0.00     0.031 C 
ATOM     61  C   UNL A   1      45.979  27.775  26.624  1.00  0.00     0.037 A 
BRANCH  48  62
ATOM     62  C   UNL A   1      44.925  33.389  28.979  1.00  0.00     0.057 A 
ATOM     63  C   UNL A   1      45.674  33.740  30.110  1.00  0.00     0.134 A 
ATOM     64  C   UNL A   1      44.690  34.390  28.028  1.00  0.00     0.134 A 
ATOM     65  F   UNL A   1      45.926  32.833  31.067  1.00  0.00    -0.206 F 
ATOM     66  C   UNL A   1      46.150  35.039  30.297  1.00  0.00     0.040 A 
ATOM     67  C   UNL A   1      45.185  35.685  28.189  1.00  0.00     0.040 A 
ATOM     68  F   UNL A   1      43.985  34.122  26.917  1.00  0.00    -0.206 F 
ATOM     69  C   UNL A   1      45.912  36.015  29.331  1.00  0.00     0.006 A 
ENDBRANCH  48  62
BRANCH  49  70
ATOM     70  C   UNL A   1      41.136  24.266  27.564  1.00  0.00     0.057 A 
ATOM     71  C   UNL A   1      41.601  23.148  28.267  1.00  0.00     0.134 A 
ATOM     72  C   UNL A   1      40.131  24.055  26.611  1.00  0.00     0.134 A 
ATOM     73  F   UNL A   1      42.577  23.280  29.176  1.00  0.00    -0.206 F 
ATOM     74  C   UNL A   1      41.099  21.868  28.019  1.00  0.00     0.040 A 
ATOM     75  C   UNL A   1      39.601  22.787  26.372  1.00  0.00     0.040 A 
ATOM     76  F   UNL A   1      39.642  25.085  25.904  1.00  0.00    -0.206 F 
ATOM     77  C   UNL A   1      40.092  21.687  27.072  1.00  0.00     0.006 A 
ENDBRANCH  49  70
BRANCH  61  78
ATOM     78  C   UNL A   1      47.205  27.264  25.923  1.00  0.00     0.057 A 
ATOM     79  C   UNL A   1      47.387  27.411  24.541  1.00  0.00     0.134 A 
ATOM     80  C   UNL A   1      48.234  26.645  26.645  1.00  0.00     0.134 A 
ATOM     81  F   UNL A   1      46.436  27.984  23.788  1.00  0.00    -0.206 F 
ATOM     82  C   UNL A   1      48.533  26.936  23.901  1.00  0.00     0.040 A 
ATOM     83  C   UNL A   1      49.398  26.193  26.021  1.00  0.00     0.040 A 
ATOM     84  F   UNL A   1      48.132  26.481  27.973  1.00  0.00    -0.206 F 
ATOM     85  C   UNL A   1      49.545  26.331  24.642  1.00  0.00     0.006 A 
ENDBRANCH  61  78
ENDBRANCH  35  36
ENDBRANCH  28  30
ENDBRANCH  27  28
ENDBRANCH  26  27
ENDBRANCH  25  26
ENDBRANCH  24  25
ENDBRANCH   1  24
TORSDOF 17
ENDMDL
MODEL 2
REMARK VINA RESULT:     -10.8      4.543      9.665
REMARK SMILES Cc1cc(F)ccc1S(=O)(=O)N1CCO[C@H](CC(=O)OCCOCCOC(=O)c2ccc(-c3c4nc(c(-c5c(F)cccc5F)c5ccc([nH]5)c(-c5c(F)cccc5F)c5nc(c(-c6c(F)cccc6F)c6ccc3[nH]6)C=C5)C=C4)cc2)C1
REMARK SMILES IDX 22 1 21 2 20 3 18 4 19 5 17 6 16 7 12 8 13 9 83 10 14 11
REMARK SMILES IDX 15 12 9 13 10 14 11 15 8 16 1 17 2 18 3 19 4 20 7 21 5 22
REMARK SMILES IDX 6 23 23 24 24 25 25 26 26 27 27 28 28 29 29 30 30 31 82 32
REMARK SMILES IDX 31 33 81 34 32 35 33 36 34 37 75 38 35 39 80 40 74 41 76 42
REMARK SMILES IDX 36 43 79 44 73 45 72 46 37 48 63 49 46 50 62 51 47 52 50 53
REMARK SMILES IDX 61 54 77 55 48 56 49 57 60 59 78 60 51 61 38 62 39 63 44 64
REMARK SMILES IDX 40 65 41 66 43 67 45 68 42 69 64 70 65 71 70 72 66 73 67 74
REMARK SMILES IDX 69 75 71 76 68 77 52 78 53 79 58 80 54 81 55 82 57 83 59 84
REMARK SMILES IDX 56 85
REMARK H PARENT 76 47 50 58
REMARK Flexibility Score: inf
ROOT
ATOM      1  C   UNL A   1      39.668  21.821  26.186  1.00  0.00     0.202 C 
ENDROOT
BRANCH   1   2
ATOM      2  C   UNL A   1      38.293  21.545  25.575  1.00  0.00     0.261 C 
BRANCH   2   3
ATOM      3  O   UNL A   1      37.513  22.731  25.364  1.00  0.00    -0.463 OA
BRANCH   3   4
ATOM      4  C   UNL A   1      36.627  22.652  24.340  1.00  0.00     0.308 C 
ATOM      5  O   UNL A   1      36.917  22.691  23.150  1.00  0.00    -0.252 OA
BRANCH   4   6
ATOM      6  C   UNL A   1      35.209  22.547  24.817  1.00  0.00     0.156 C 
BRANCH   6   7
ATOM      7  C   UNL A   1      34.133  22.611  23.725  1.00  0.00     0.144 C 
ATOM      8  N   UNL A   1      32.745  24.160  24.988  1.00  0.00    -0.193 NA
ATOM      9  C   UNL A   1      31.662  23.164  25.152  1.00  0.00     0.131 C 
ATOM     10  C   UNL A   1      33.456  23.995  23.699  1.00  0.00     0.135 C 
ATOM     11  C   UNL A   1      32.234  21.740  24.971  1.00  0.00     0.177 C 
ATOM     12  O   UNL A   1      33.126  21.581  23.858  1.00  0.00    -0.375 OA
BRANCH   8  13
ATOM     13  S   UNL A   1      32.672  25.644  25.769  1.00  0.00     0.243 S 
ATOM     14  O   UNL A   1      34.012  26.101  26.035  1.00  0.00    -0.207 OA
ATOM     15  O   UNL A   1      31.697  25.491  26.836  1.00  0.00    -0.207 OA
BRANCH  13  16
ATOM     16  C   UNL A   1      31.965  26.830  24.597  1.00  0.00     0.085 A 
ATOM     17  C   UNL A   1      29.521  25.971  24.668  1.00  0.00     0.046 C 
ATOM     18  C   UNL A   1      30.600  26.918  24.245  1.00  0.00    -0.028 A 
ATOM     19  C   UNL A   1      30.196  27.925  23.343  1.00  0.00     0.044 A 
ATOM     20  C   UNL A   1      31.123  28.771  22.755  1.00  0.00     0.123 A 
ATOM     21  C   UNL A   1      32.891  27.690  23.971  1.00  0.00     0.025 A 
ATOM     22  F   UNL A   1      30.708  29.694  21.879  1.00  0.00    -0.207 F 
ATOM     23  C   UNL A   1      32.472  28.645  23.041  1.00  0.00     0.040 A 
ENDBRANCH  13  16
ENDBRANCH   8  13
ENDBRANCH   6   7
ENDBRANCH   4   6
ENDBRANCH   3   4
ENDBRANCH   2   3
ENDBRANCH   1   2
BRANCH   1  24
ATOM     24  O   UNL A   1      40.823  21.450  25.444  1.00  0.00    -0.374 OA
BRANCH  24  25
ATOM     25  C   UNL A   1      42.065  21.311  26.128  1.00  0.00     0.202 C 
BRANCH  25  26
ATOM     26  C   UNL A   1      43.312  21.972  25.521  1.00  0.00     0.261 C 
BRANCH  26  27
ATOM     27  O   UNL A   1      43.012  23.159  24.761  1.00  0.00    -0.460 OA
BRANCH  27  28
ATOM     28  C   UNL A   1      43.788  24.230  25.064  1.00  0.00     0.338 C 
ATOM     29  O   UNL A   1      44.877  24.511  24.592  1.00  0.00    -0.246 OA
BRANCH  28  30
ATOM     30  C   UNL A   1      43.057  25.172  25.932  1.00  0.00     0.060 A 
ATOM     31  C   UNL A   1      43.702  26.368  26.270  1.00  0.00     0.016 A 
ATOM     32  C   UNL A   1      41.834  24.834  26.510  1.00  0.00     0.016 A 
ATOM     33  C   UNL A   1      43.145  27.215  27.225  1.00  0.00     0.010 A 
ATOM     34  C   UNL A   1      41.281  25.682  27.479  1.00  0.00     0.010 A 
ATOM     35  C   UNL A   1      41.951  26.857  27.865  1.00  0.00    -0.014 A 
BRANCH  35  36
ATOM     36  C   UNL A   1      41.493  27.658  29.028  1.00  0.00     0.031 A 
ATOM     37  C   UNL A   1      42.230  27.551  30.336  1.00  0.00     0.074 A 
ATOM     38  C   UNL A   1      40.468  28.519  28.901  1.00  0.00     0.049 A 
ATOM     39  N   UNL A   1      42.006  28.169  31.467  1.00  0.00    -0.248 NA
ATOM     40  C   UNL A   1      43.374  26.627  30.372  1.00  0.00     0.031 C 
ATOM     41  C   UNL A   1      39.703  28.744  27.675  1.00  0.00     0.029 A 
ATOM     42  N   UNL A   1      39.898  29.368  29.816  1.00  0.00    -0.354 N 
ATOM     43  C   UNL A   1      42.974  27.707  32.350  1.00  0.00     0.074 A 
ATOM     44  C   UNL A   1      43.767  26.732  31.633  1.00  0.00     0.031 C 
ATOM     45  C   UNL A   1      38.760  29.669  27.915  1.00  0.00     0.029 A 
ATOM     46  C   UNL A   1      38.833  30.077  29.317  1.00  0.00     0.049 A 
ATOM     47  H   UNL A   1      40.220  29.459  30.741  1.00  0.00     0.167 HD
ATOM     48  C   UNL A   1      43.189  28.069  33.638  1.00  0.00     0.037 A 
ATOM     49  C   UNL A   1      38.000  30.943  29.927  1.00  0.00     0.037 A 
ATOM     50  C   UNL A   1      42.398  29.041  34.348  1.00  0.00     0.049 A 
ATOM     51  C   UNL A   1      38.216  31.274  31.380  1.00  0.00     0.074 A 
ATOM     52  C   UNL A   1      42.550  29.492  35.649  1.00  0.00     0.029 A 
ATOM     53  N   UNL A   1      41.300  29.705  33.822  1.00  0.00    -0.354 N 
ATOM     54  N   UNL A   1      39.150  30.852  32.196  1.00  0.00    -0.248 NA
ATOM     55  C   UNL A   1      37.260  32.207  31.994  1.00  0.00     0.031 C 
ATOM     56  C   UNL A   1      41.510  30.385  35.927  1.00  0.00     0.029 A 
ATOM     57  C   UNL A   1      40.746  30.538  34.782  1.00  0.00     0.049 A 
ATOM     58  H   UNL A   1      40.963  29.600  32.903  1.00  0.00     0.167 HD
ATOM     59  C   UNL A   1      38.914  31.487  33.410  1.00  0.00     0.074 A 
ATOM     60  C   UNL A   1      37.756  32.335  33.216  1.00  0.00     0.031 C 
ATOM     61  C   UNL A   1      39.593  31.378  34.578  1.00  0.00     0.037 A 
BRANCH  48  62
ATOM     62  C   UNL A   1      44.308  27.390  34.374  1.00  0.00     0.057 A 
ATOM     63  C   UNL A   1      45.610  27.908  34.391  1.00  0.00     0.134 A 
ATOM     64  C   UNL A   1      44.071  26.220  35.107  1.00  0.00     0.134 A 
ATOM     65  F   UNL A   1      45.909  29.018  33.699  1.00  0.00    -0.206 F 
ATOM     66  C   UNL A   1      46.638  27.275  35.091  1.00  0.00     0.040 A 
ATOM     67  C   UNL A   1      45.085  25.594  35.835  1.00  0.00     0.040 A 
ATOM     68  F   UNL A   1      42.846  25.673  35.140  1.00  0.00    -0.206 F 
ATOM     69  C   UNL A   1      46.375  26.118  35.822  1.00  0.00     0.006 A 
ENDBRANCH  48  62
BRANCH  49  70
ATOM     70  C   UNL A   1      36.876  31.548  29.171  1.00  0.00     0.057 A 
ATOM     71  C   UNL A   1      36.950  32.856  28.678  1.00  0.00     0.134 A 
ATOM     72  C   UNL A   1      35.690  30.839  28.939  1.00  0.00     0.134 A 
ATOM     73  F   UNL A   1      38.048  33.596  28.887  1.00  0.00    -0.206 F 
ATOM     74  C   UNL A   1      35.880  33.443  27.998  1.00  0.00     0.040 A 
ATOM     75  C   UNL A   1      34.625  31.401  28.236  1.00  0.00     0.040 A 
ATOM     76  F   UNL A   1      35.557  29.579  29.383  1.00  0.00    -0.206 F 
ATOM     77  C   UNL A   1      34.715  32.712  27.771  1.00  0.00     0.006 A 
ENDBRANCH  49  70
BRANCH  61  78
ATOM     78  C   UNL A   1      39.124  32.222  35.729  1.00  0.00     0.057 A 
ATOM     79  C   UNL A   1      39.531  33.553  35.889  1.00  0.00     0.134 A 
ATOM     80  C   UNL A   1      38.225  31.706  36.671  1.00  0.00     0.134 A 
ATOM     81  F   UNL A   1      40.400  34.106  35.029  1.00  0.00    -0.206 F 
ATOM     82  C   UNL A   1      39.085  34.329  36.960  1.00  0.00     0.040 A 
ATOM     83  C   UNL A   1      37.748  32.481  37.729  1.00  0.00     0.040 A 
ATOM     84  F   UNL A   1      37.784  30.442  36.573  1.00  0.00    -0.206 F 
ATOM     85  C   UNL A   1      38.185  33.796  37.879  1.00  0.00     0.006 A 
ENDBRANCH  61  78
ENDBRANCH  35  36
ENDBRANCH  28  30
ENDBRANCH  27  28
ENDBRANCH  26  27
ENDBRANCH  25  26
ENDBRANCH  24  25
ENDBRANCH   1  24
TORSDOF 17
ENDMDL
MODEL 3
REMARK VINA RESULT:     -10.8      2.834      8.086
REMARK SMILES Cc1cc(F)ccc1S(=O)(=O)N1CCO[C@H](CC(=O)OCCOCCOC(=O)c2ccc(-c3c4nc(c(-c5c(F)cccc5F)c5ccc([nH]5)c(-c5c(F)cccc5F)c5nc(c(-c6c(F)cccc6F)c6ccc3[nH]6)C=C5)C=C4)cc2)C1
REMARK SMILES IDX 22 1 21 2 20 3 18 4 19 5 17 6 16 7 12 8 13 9 83 10 14 11
REMARK SMILES IDX 15 12 9 13 10 14 11 15 8 16 1 17 2 18 3 19 4 20 7 21 5 22
REMARK SMILES IDX 6 23 23 24 24 25 25 26 26 27 27 28 28 29 29 30 30 31 82 32
REMARK SMILES IDX 31 33 81 34 32 35 33 36 34 37 75 38 35 39 80 40 74 41 76 42
REMARK SMILES IDX 36 43 79 44 73 45 72 46 37 48 63 49 46 50 62 51 47 52 50 53
REMARK SMILES IDX 61 54 77 55 48 56 49 57 60 59 78 60 51 61 38 62 39 63 44 64
REMARK SMILES IDX 40 65 41 66 43 67 45 68 42 69 64 70 65 71 70 72 66 73 67 74
REMARK SMILES IDX 69 75 71 76 68 77 52 78 53 79 58 80 54 81 55 82 57 83 59 84
REMARK SMILES IDX 56 85
REMARK H PARENT 76 47 50 58
REMARK Flexibility Score: inf
ROOT
ATOM      1  C   UNL A   1      34.343  22.786  26.653  1.00  0.00     0.202 C 
ENDROOT
BRANCH   1   2
ATOM      2  C   UNL A   1      32.917  22.232  26.621  1.00  0.00     0.261 C 
BRANCH   2   3
ATOM      3  O   UNL A   1      32.064  22.908  25.685  1.00  0.00    -0.463 OA
BRANCH   3   4
ATOM      4  C   UNL A   1      32.123  22.430  24.417  1.00  0.00     0.308 C 
ATOM      5  O   UNL A   1      32.195  21.246  24.110  1.00  0.00    -0.252 OA
BRANCH   4   6
ATOM      6  C   UNL A   1      32.134  23.525  23.393  1.00  0.00     0.156 C 
BRANCH   6   7
ATOM      7  C   UNL A   1      33.513  24.101  23.049  1.00  0.00     0.144 C 
ATOM      8  N   UNL A   1      32.841  26.385  23.554  1.00  0.00    -0.193 NA
ATOM      9  C   UNL A   1      32.980  26.811  22.142  1.00  0.00     0.131 C 
ATOM     10  C   UNL A   1      33.826  25.339  23.913  1.00  0.00     0.135 C 
ATOM     11  C   UNL A   1      32.894  25.578  21.216  1.00  0.00     0.177 C 
ATOM     12  O   UNL A   1      33.655  24.440  21.649  1.00  0.00    -0.375 OA
BRANCH   8  13
ATOM     13  S   UNL A   1      32.203  27.425  24.707  1.00  0.00     0.243 S 
ATOM     14  O   UNL A   1      33.083  28.555  24.858  1.00  0.00    -0.207 OA
ATOM     15  O   UNL A   1      31.835  26.593  25.841  1.00  0.00    -0.207 OA
BRANCH  13  16
ATOM     16  C   UNL A   1      30.657  28.085  24.033  1.00  0.00     0.085 A 
ATOM     17  C   UNL A   1      29.397  25.833  23.791  1.00  0.00     0.046 C 
ATOM     18  C   UNL A   1      29.504  27.325  23.734  1.00  0.00    -0.028 A 
ATOM     19  C   UNL A   1      28.360  27.992  23.249  1.00  0.00     0.044 A 
ATOM     20  C   UNL A   1      28.379  29.356  23.001  1.00  0.00     0.123 A 
ATOM     21  C   UNL A   1      30.658  29.468  23.754  1.00  0.00     0.025 A 
ATOM     22  F   UNL A   1      27.284  29.950  22.510  1.00  0.00    -0.207 F 
ATOM     23  C   UNL A   1      29.527  30.096  23.225  1.00  0.00     0.040 A 
ENDBRANCH  13  16
ENDBRANCH   8  13
ENDBRANCH   6   7
ENDBRANCH   4   6
ENDBRANCH   3   4
ENDBRANCH   2   3
ENDBRANCH   1   2
BRANCH   1  24
ATOM     24  O   UNL A   1      35.425  21.874  26.510  1.00  0.00    -0.374 OA
BRANCH  24  25
ATOM     25  C   UNL A   1      35.501  21.074  25.333  1.00  0.00     0.202 C 
BRANCH  25  26
ATOM     26  C   UNL A   1      36.834  20.388  25.000  1.00  0.00     0.261 C 
BRANCH  26  27
ATOM     27  O   UNL A   1      37.944  21.305  24.935  1.00  0.00    -0.460 OA
BRANCH  27  28
ATOM     28  C   UNL A   1      38.957  21.022  25.792  1.00  0.00     0.338 C 
ATOM     29  O   UNL A   1      39.557  19.965  25.903  1.00  0.00    -0.246 OA
BRANCH  28  30
ATOM     30  C   UNL A   1      39.410  22.242  26.483  1.00  0.00     0.060 A 
ATOM     31  C   UNL A   1      38.806  23.452  26.117  1.00  0.00     0.016 A 
ATOM     32  C   UNL A   1      40.490  22.225  27.365  1.00  0.00     0.016 A 
ATOM     33  C   UNL A   1      39.309  24.656  26.600  1.00  0.00     0.010 A 
ATOM     34  C   UNL A   1      41.002  23.439  27.841  1.00  0.00     0.010 A 
ATOM     35  C   UNL A   1      40.436  24.661  27.432  1.00  0.00    -0.014 A 
BRANCH  35  36
ATOM     36  C   UNL A   1      41.086  25.955  27.754  1.00  0.00     0.031 A 
ATOM     37  C   UNL A   1      42.488  26.219  27.275  1.00  0.00     0.074 A 
ATOM     38  C   UNL A   1      40.409  26.912  28.414  1.00  0.00     0.049 A 
ATOM     39  N   UNL A   1      43.233  27.283  27.434  1.00  0.00    -0.248 NA
ATOM     40  C   UNL A   1      43.135  25.140  26.512  1.00  0.00     0.031 C 
ATOM     41  C   UNL A   1      39.033  26.793  28.892  1.00  0.00     0.029 A 
ATOM     42  N   UNL A   1      40.791  28.175  28.792  1.00  0.00    -0.354 N 
ATOM     43  C   UNL A   1      44.436  27.002  26.797  1.00  0.00     0.074 A 
ATOM     44  C   UNL A   1      44.334  25.654  26.278  1.00  0.00     0.031 C 
ATOM     45  C   UNL A   1      38.685  27.938  29.504  1.00  0.00     0.029 A 
ATOM     46  C   UNL A   1      39.823  28.855  29.489  1.00  0.00     0.049 A 
ATOM     47  H   UNL A   1      41.674  28.557  28.585  1.00  0.00     0.167 HD
ATOM     48  C   UNL A   1      45.523  27.796  26.650  1.00  0.00     0.037 A 
ATOM     49  C   UNL A   1      39.857  30.072  30.066  1.00  0.00     0.037 A 
ATOM     50  C   UNL A   1      45.621  29.138  27.167  1.00  0.00     0.049 A 
ATOM     51  C   UNL A   1      41.104  30.908  29.951  1.00  0.00     0.074 A 
ATOM     52  C   UNL A   1      46.673  30.032  27.051  1.00  0.00     0.029 A 
ATOM     53  N   UNL A   1      44.636  29.775  27.906  1.00  0.00    -0.354 N 
ATOM     54  N   UNL A   1      42.224  30.643  29.324  1.00  0.00    -0.248 NA
ATOM     55  C   UNL A   1      41.088  32.215  30.621  1.00  0.00     0.031 C 
ATOM     56  C   UNL A   1      46.347  31.187  27.769  1.00  0.00     0.029 A 
ATOM     57  C   UNL A   1      45.067  31.038  28.280  1.00  0.00     0.049 A 
ATOM     58  H   UNL A   1      43.760  29.388  28.132  1.00  0.00     0.167 HD
ATOM     59  C   UNL A   1      43.034  31.758  29.500  1.00  0.00     0.074 A 
ATOM     60  C   UNL A   1      42.269  32.709  30.279  1.00  0.00     0.031 C 
ATOM     61  C   UNL A   1      44.297  31.976  29.056  1.00  0.00     0.037 A 
BRANCH  48  62
ATOM     62  C   UNL A   1      46.708  27.227  25.924  1.00  0.00     0.057 A 
ATOM     63  C   UNL A   1      46.937  27.475  24.564  1.00  0.00     0.134 A 
ATOM     64  C   UNL A   1      47.654  26.451  26.605  1.00  0.00     0.134 A 
ATOM     65  F   UNL A   1      46.064  28.201  23.849  1.00  0.00    -0.206 F 
ATOM     66  C   UNL A   1      48.050  26.953  23.904  1.00  0.00     0.040 A 
ATOM     67  C   UNL A   1      48.786  25.946  25.962  1.00  0.00     0.040 A 
ATOM     68  F   UNL A   1      47.501  26.180  27.910  1.00  0.00    -0.206 F 
ATOM     69  C   UNL A   1      48.983  26.191  24.605  1.00  0.00     0.006 A 
ENDBRANCH  48  62
BRANCH  49  70
ATOM     70  C   UNL A   1      38.678  30.569  30.819  1.00  0.00     0.057 A 
ATOM     71  C   UNL A   1      38.493  30.258  32.171  1.00  0.00     0.134 A 
ATOM     72  C   UNL A   1      37.698  31.354  30.198  1.00  0.00     0.134 A 
ATOM     73  F   UNL A   1      39.383  29.491  32.815  1.00  0.00    -0.206 F 
ATOM     74  C   UNL A   1      37.367  30.693  32.874  1.00  0.00     0.040 A 
ATOM     75  C   UNL A   1      36.583  31.820  30.895  1.00  0.00     0.040 A 
ATOM     76  F   UNL A   1      37.818  31.690  28.905  1.00  0.00    -0.206 F 
ATOM     77  C   UNL A   1      36.411  31.482  32.236  1.00  0.00     0.006 A 
ENDBRANCH  49  70
BRANCH  61  78
ATOM     78  C   UNL A   1      44.918  33.307  29.373  1.00  0.00     0.057 A 
ATOM     79  C   UNL A   1      45.710  33.505  30.512  1.00  0.00     0.134 A 
ATOM     80  C   UNL A   1      44.749  34.397  28.509  1.00  0.00     0.134 A 
ATOM     81  F   UNL A   1      45.903  32.506  31.387  1.00  0.00    -0.206 F 
ATOM     82  C   UNL A   1      46.286  34.745  30.794  1.00  0.00     0.040 A 
ATOM     83  C   UNL A   1      45.344  35.633  28.765  1.00  0.00     0.040 A 
ATOM     84  F   UNL A   1      44.012  34.276  27.394  1.00  0.00    -0.206 F 
ATOM     85  C   UNL A   1      46.110  35.811  29.915  1.00  0.00     0.006 A 
ENDBRANCH  61  78
ENDBRANCH  35  36
ENDBRANCH  28  30
ENDBRANCH  27  28
ENDBRANCH  26  27
ENDBRANCH  25  26
ENDBRANCH  24  25
ENDBRANCH   1  24
TORSDOF 17
ENDMDL
