MODEL 1
REMARK VINA RESULT:     -10.6      0.000      0.000
REMARK SMILES [NH3+][C@H](CCC(=O)OCCOCCOC(=O)c1ccc(-c2c3nc(c(-c4c(F)cccc4F)c4ccc([nH]4)c(-c4c(F)cccc4F)c4nc(c(-c5c(F)cccc5F)c5ccc2[nH]5)C=C4)C=C3)cc1)c1nccc2[nH]ccc12
REMARK SMILES IDX 9 1 8 2 7 3 5 4 6 5 4 6 3 7 2 8 1 9 70 13 71 14 78 15 72 16
REMARK SMILES IDX 74 17 77 18 73 19 75 20 76 21 10 23 11 24 12 25 13 26 14 27
REMARK SMILES IDX 15 28 16 29 17 30 69 31 18 32 68 33 19 34 20 35 21 36 62 37
REMARK SMILES IDX 22 38 67 39 61 40 63 41 23 42 66 43 60 44 59 45 24 47 50 48
REMARK SMILES IDX 33 49 49 50 34 51 37 52 48 53 64 54 35 55 36 56 47 58 65 59
REMARK SMILES IDX 38 60 25 61 26 62 31 63 27 64 28 65 30 66 32 67 29 68 51 69
REMARK SMILES IDX 52 70 57 71 53 72 54 73 56 74 58 75 55 76 39 77 40 78 45 79
REMARK SMILES IDX 41 80 42 81 44 82 46 83 43 84
REMARK H PARENT 1 10 1 11 1 12 75 22 63 46 37 57
REMARK Flexibility Score: inf
ROOT
ATOM      1  C   UNL A   1      40.854  20.474  26.339  1.00  0.00     0.202 C 
ENDROOT
BRANCH   1   2
ATOM      2  C   UNL A   1      40.265  21.823  26.752  1.00  0.00     0.261 C 
BRANCH   2   3
ATOM      3  O   UNL A   1      39.060  22.104  26.018  1.00  0.00    -0.463 OA
BRANCH   3   4
ATOM      4  C   UNL A   1      38.431  23.267  26.329  1.00  0.00     0.306 C 
ATOM      5  O   UNL A   1      38.795  24.049  27.199  1.00  0.00    -0.252 OA
BRANCH   4   6
ATOM      6  C   UNL A   1      37.215  23.527  25.473  1.00  0.00     0.129 C 
BRANCH   6   7
ATOM      7  C   UNL A   1      35.845  23.235  26.105  1.00  0.00     0.083 C 
BRANCH   7   8
ATOM      8  C   UNL A   1      35.453  21.730  26.152  1.00  0.00     0.232 C 
BRANCH   8   9
ATOM      9  N   UNL A   1      34.588  21.439  27.298  1.00  0.00    -0.350 N 
ATOM     10  H   UNL A   1      33.841  20.808  27.008  1.00  0.00     0.345 HD
ATOM     11  H   UNL A   1      34.184  22.308  27.647  1.00  0.00     0.345 HD
ATOM     12  H   UNL A   1      35.137  20.998  28.035  1.00  0.00     0.345 HD
ENDBRANCH   8   9
BRANCH   8  13
ATOM     13  C   UNL A   1      34.964  21.195  24.782  1.00  0.00     0.107 A 
ATOM     14  N   UNL A   1      34.763  19.833  24.792  1.00  0.00    -0.254 NA
ATOM     15  C   UNL A   1      34.011  21.918  24.014  1.00  0.00     0.027 A 
ATOM     16  C   UNL A   1      33.501  19.370  24.709  1.00  0.00     0.114 A 
ATOM     17  C   UNL A   1      32.703  21.425  24.007  1.00  0.00     0.049 A 
ATOM     18  C   UNL A   1      34.025  22.988  23.074  1.00  0.00     0.030 A 
ATOM     19  C   UNL A   1      32.388  20.164  24.496  1.00  0.00     0.047 A 
ATOM     20  N   UNL A   1      31.918  22.385  23.418  1.00  0.00    -0.361 N 
ATOM     21  C   UNL A   1      32.721  23.212  22.677  1.00  0.00     0.083 A 
ATOM     22  H   UNL A   1      30.941  22.466  23.512  1.00  0.00     0.166 HD
ENDBRANCH   8  13
ENDBRANCH   7   8
ENDBRANCH   6   7
ENDBRANCH   4   6
ENDBRANCH   3   4
ENDBRANCH   2   3
ENDBRANCH   1   2
BRANCH   1  23
ATOM     23  O   UNL A   1      42.112  20.513  25.667  1.00  0.00    -0.374 OA
BRANCH  23  24
ATOM     24  C   UNL A   1      43.098  21.421  26.156  1.00  0.00     0.202 C 
BRANCH  24  25
ATOM     25  C   UNL A   1      44.001  22.077  25.104  1.00  0.00     0.261 C 
BRANCH  25  26
ATOM     26  O   UNL A   1      43.499  23.350  24.654  1.00  0.00    -0.460 OA
BRANCH  26  27
ATOM     27  C   UNL A   1      44.219  24.416  25.063  1.00  0.00     0.338 C 
ATOM     28  O   UNL A   1      45.336  24.756  24.663  1.00  0.00    -0.246 OA
BRANCH  27  29
ATOM     29  C   UNL A   1      43.433  25.272  25.966  1.00  0.00     0.060 A 
ATOM     30  C   UNL A   1      43.993  26.501  26.333  1.00  0.00     0.016 A 
ATOM     31  C   UNL A   1      42.218  24.855  26.517  1.00  0.00     0.016 A 
ATOM     32  C   UNL A   1      43.376  27.288  27.301  1.00  0.00     0.010 A 
ATOM     33  C   UNL A   1      41.598  25.651  27.489  1.00  0.00     0.010 A 
ATOM     34  C   UNL A   1      42.195  26.851  27.917  1.00  0.00    -0.014 A 
BRANCH  34  35
ATOM     35  C   UNL A   1      41.679  27.605  29.088  1.00  0.00     0.031 A 
ATOM     36  C   UNL A   1      42.392  27.505  30.411  1.00  0.00     0.074 A 
ATOM     37  C   UNL A   1      40.635  28.442  28.952  1.00  0.00     0.049 A 
ATOM     38  N   UNL A   1      42.149  28.132  31.535  1.00  0.00    -0.248 NA
ATOM     39  C   UNL A   1      43.533  26.577  30.475  1.00  0.00     0.031 C 
ATOM     40  C   UNL A   1      39.870  28.644  27.723  1.00  0.00     0.029 A 
ATOM     41  N   UNL A   1      40.043  29.285  29.860  1.00  0.00    -0.354 N 
ATOM     42  C   UNL A   1      43.112  27.686  32.433  1.00  0.00     0.074 A 
ATOM     43  C   UNL A   1      43.910  26.698  31.739  1.00  0.00     0.031 C 
ATOM     44  C   UNL A   1      38.911  29.557  27.951  1.00  0.00     0.029 A 
ATOM     45  C   UNL A   1      38.978  29.985  29.347  1.00  0.00     0.049 A 
ATOM     46  H   UNL A   1      40.353  29.379  30.790  1.00  0.00     0.167 HD
ATOM     47  C   UNL A   1      43.325  28.076  33.713  1.00  0.00     0.037 A 
ATOM     48  C   UNL A   1      38.147  30.865  29.938  1.00  0.00     0.037 A 
ATOM     49  C   UNL A   1      42.526  29.053  34.410  1.00  0.00     0.049 A 
ATOM     50  C   UNL A   1      38.370  31.241  31.379  1.00  0.00     0.074 A 
ATOM     51  C   UNL A   1      42.662  29.511  35.708  1.00  0.00     0.029 A 
ATOM     52  N   UNL A   1      41.437  29.717  33.865  1.00  0.00    -0.354 N 
ATOM     53  N   UNL A   1      39.301  30.832  32.208  1.00  0.00    -0.248 NA
ATOM     54  C   UNL A   1      37.435  32.213  31.962  1.00  0.00     0.031 C 
ATOM     55  C   UNL A   1      41.631  30.421  35.963  1.00  0.00     0.029 A 
ATOM     56  C   UNL A   1      40.883  30.570  34.807  1.00  0.00     0.049 A 
ATOM     57  H   UNL A   1      41.108  29.602  32.944  1.00  0.00     0.167 HD
ATOM     58  C   UNL A   1      39.076  31.514  33.399  1.00  0.00     0.074 A 
ATOM     59  C   UNL A   1      37.939  32.381  33.176  1.00  0.00     0.031 C 
ATOM     60  C   UNL A   1      39.749  31.427  34.573  1.00  0.00     0.037 A 
BRANCH  47  61
ATOM     61  C   UNL A   1      44.467  27.439  34.449  1.00  0.00     0.057 A 
ATOM     62  C   UNL A   1      45.743  28.020  34.475  1.00  0.00     0.134 A 
ATOM     63  C   UNL A   1      44.285  26.255  35.175  1.00  0.00     0.134 A 
ATOM     64  F   UNL A   1      45.990  29.147  33.791  1.00  0.00    -0.206 F 
ATOM     65  C   UNL A   1      46.798  27.437  35.179  1.00  0.00     0.040 A 
ATOM     66  C   UNL A   1      45.325  25.677  35.904  1.00  0.00     0.040 A 
ATOM     67  F   UNL A   1      43.088  25.649  35.198  1.00  0.00    -0.206 F 
ATOM     68  C   UNL A   1      46.588  26.265  35.903  1.00  0.00     0.006 A 
ENDBRANCH  47  61
BRANCH  48  69
ATOM     69  C   UNL A   1      37.014  31.446  29.175  1.00  0.00     0.057 A 
ATOM     70  C   UNL A   1      37.057  32.755  28.679  1.00  0.00     0.134 A 
ATOM     71  C   UNL A   1      35.842  30.712  28.951  1.00  0.00     0.134 A 
ATOM     72  F   UNL A   1      38.142  33.517  28.881  1.00  0.00    -0.206 F 
ATOM     73  C   UNL A   1      35.970  33.320  28.011  1.00  0.00     0.040 A 
ATOM     74  C   UNL A   1      34.758  31.254  28.258  1.00  0.00     0.040 A 
ATOM     75  F   UNL A   1      35.737  29.452  29.399  1.00  0.00    -0.206 F 
ATOM     76  C   UNL A   1      34.817  32.566  27.795  1.00  0.00     0.006 A 
ENDBRANCH  48  69
BRANCH  60  77
ATOM     77  C   UNL A   1      39.288  32.316  35.694  1.00  0.00     0.057 A 
ATOM     78  C   UNL A   1      38.360  31.883  36.650  1.00  0.00     0.134 A 
ATOM     79  C   UNL A   1      39.785  33.619  35.823  1.00  0.00     0.134 A 
ATOM     80  F   UNL A   1      37.835  30.650  36.579  1.00  0.00    -0.206 F 
ATOM     81  C   UNL A   1      37.915  32.726  37.671  1.00  0.00     0.040 A 
ATOM     82  C   UNL A   1      39.371  34.461  36.856  1.00  0.00     0.040 A 
ATOM     83  F   UNL A   1      40.686  34.096  34.949  1.00  0.00    -0.206 F 
ATOM     84  C   UNL A   1      38.424  34.019  37.778  1.00  0.00     0.006 A 
ENDBRANCH  60  77
ENDBRANCH  34  35
ENDBRANCH  27  29
ENDBRANCH  26  27
ENDBRANCH  25  26
ENDBRANCH  24  25
ENDBRANCH  23  24
ENDBRANCH   1  23
TORSDOF 18
ENDMDL
MODEL 2
REMARK VINA RESULT:     -10.2      3.243      8.269
REMARK SMILES [NH3+][C@H](CCC(=O)OCCOCCOC(=O)c1ccc(-c2c3nc(c(-c4c(F)cccc4F)c4ccc([nH]4)c(-c4c(F)cccc4F)c4nc(c(-c5c(F)cccc5F)c5ccc2[nH]5)C=C4)C=C3)cc1)c1nccc2[nH]ccc12
REMARK SMILES IDX 9 1 8 2 7 3 5 4 6 5 4 6 3 7 2 8 1 9 70 13 71 14 78 15 72 16
REMARK SMILES IDX 74 17 77 18 73 19 75 20 76 21 10 23 11 24 12 25 13 26 14 27
REMARK SMILES IDX 15 28 16 29 17 30 69 31 18 32 68 33 19 34 20 35 21 36 62 37
REMARK SMILES IDX 22 38 67 39 61 40 63 41 23 42 66 43 60 44 59 45 24 47 50 48
REMARK SMILES IDX 33 49 49 50 34 51 37 52 48 53 64 54 35 55 36 56 47 58 65 59
REMARK SMILES IDX 38 60 25 61 26 62 31 63 27 64 28 65 30 66 32 67 29 68 51 69
REMARK SMILES IDX 52 70 57 71 53 72 54 73 56 74 58 75 55 76 39 77 40 78 45 79
REMARK SMILES IDX 41 80 42 81 44 82 46 83 43 84
REMARK H PARENT 1 10 1 11 1 12 75 22 63 46 37 57
REMARK Flexibility Score: inf
ROOT
ATOM      1  C   UNL A   1      31.869  28.768  26.391  1.00  0.00     0.202 C 
ENDROOT
BRANCH   1   2
ATOM      2  C   UNL A   1      31.479  27.549  27.228  1.00  0.00     0.261 C 
BRANCH   2   3
ATOM      3  O   UNL A   1      31.971  26.337  26.630  1.00  0.00    -0.463 OA
BRANCH   3   4
ATOM      4  C   UNL A   1      31.036  25.532  26.061  1.00  0.00     0.306 C 
ATOM      5  O   UNL A   1      29.882  25.411  26.457  1.00  0.00    -0.252 OA
BRANCH   4   6
ATOM      6  C   UNL A   1      31.552  24.791  24.852  1.00  0.00     0.129 C 
BRANCH   6   7
ATOM      7  C   UNL A   1      31.360  23.266  24.838  1.00  0.00     0.083 C 
BRANCH   7   8
ATOM      8  C   UNL A   1      31.842  22.557  23.540  1.00  0.00     0.232 C 
BRANCH   8   9
ATOM      9  N   UNL A   1      31.957  23.503  22.426  1.00  0.00    -0.350 N 
ATOM     10  H   UNL A   1      31.409  23.165  21.635  1.00  0.00     0.345 HD
ATOM     11  H   UNL A   1      32.935  23.586  22.151  1.00  0.00     0.345 HD
ATOM     12  H   UNL A   1      31.606  24.415  22.717  1.00  0.00     0.345 HD
ENDBRANCH   8   9
BRANCH   8  13
ATOM     13  C   UNL A   1      33.068  21.639  23.777  1.00  0.00     0.107 A 
ATOM     14  N   UNL A   1      34.196  22.350  24.120  1.00  0.00    -0.254 NA
ATOM     15  C   UNL A   1      32.931  20.401  24.461  1.00  0.00     0.027 A 
ATOM     16  C   UNL A   1      34.668  22.238  25.377  1.00  0.00     0.114 A 
ATOM     17  C   UNL A   1      33.386  20.356  25.781  1.00  0.00     0.049 A 
ATOM     18  C   UNL A   1      32.572  19.062  24.130  1.00  0.00     0.030 A 
ATOM     19  C   UNL A   1      34.167  21.366  26.327  1.00  0.00     0.047 A 
ATOM     20  N   UNL A   1      32.948  19.168  26.314  1.00  0.00    -0.361 N 
ATOM     21  C   UNL A   1      32.651  18.311  25.287  1.00  0.00     0.083 A 
ATOM     22  H   UNL A   1      32.860  18.967  27.274  1.00  0.00     0.166 HD
ENDBRANCH   8  13
ENDBRANCH   7   8
ENDBRANCH   6   7
ENDBRANCH   4   6
ENDBRANCH   3   4
ENDBRANCH   2   3
ENDBRANCH   1   2
BRANCH   1  23
ATOM     23  O   UNL A   1      31.780  30.035  27.041  1.00  0.00    -0.374 OA
BRANCH  23  24
ATOM     24  C   UNL A   1      31.617  31.192  26.222  1.00  0.00     0.202 C 
BRANCH  24  25
ATOM     25  C   UNL A   1      31.450  32.529  26.956  1.00  0.00     0.261 C 
BRANCH  25  26
ATOM     26  O   UNL A   1      32.616  33.369  26.856  1.00  0.00    -0.460 OA
BRANCH  26  27
ATOM     27  C   UNL A   1      33.115  33.782  28.039  1.00  0.00     0.338 C 
ATOM     28  O   UNL A   1      32.554  34.499  28.873  1.00  0.00    -0.246 OA
BRANCH  27  29
ATOM     29  C   UNL A   1      34.401  33.128  28.329  1.00  0.00     0.060 A 
ATOM     30  C   UNL A   1      34.359  31.799  28.768  1.00  0.00     0.016 A 
ATOM     31  C   UNL A   1      35.617  33.814  28.263  1.00  0.00     0.016 A 
ATOM     32  C   UNL A   1      35.522  31.171  29.205  1.00  0.00     0.010 A 
ATOM     33  C   UNL A   1      36.786  33.178  28.702  1.00  0.00     0.010 A 
ATOM     34  C   UNL A   1      36.738  31.869  29.215  1.00  0.00    -0.014 A 
BRANCH  34  35
ATOM     35  C   UNL A   1      37.912  31.248  29.881  1.00  0.00     0.031 A 
ATOM     36  C   UNL A   1      38.192  31.552  31.329  1.00  0.00     0.074 A 
ATOM     37  C   UNL A   1      38.671  30.351  29.226  1.00  0.00     0.049 A 
ATOM     38  N   UNL A   1      39.119  31.065  32.115  1.00  0.00    -0.248 NA
ATOM     39  C   UNL A   1      37.310  32.535  31.978  1.00  0.00     0.031 C 
ATOM     40  C   UNL A   1      38.494  29.955  27.829  1.00  0.00     0.029 A 
ATOM     41  N   UNL A   1      39.740  29.604  29.655  1.00  0.00    -0.354 N 
ATOM     42  C   UNL A   1      38.923  31.669  33.352  1.00  0.00     0.074 A 
ATOM     43  C   UNL A   1      37.823  32.596  33.198  1.00  0.00     0.031 C 
ATOM     44  C   UNL A   1      39.421  29.035  27.517  1.00  0.00     0.029 A 
ATOM     45  C   UNL A   1      40.271  28.794  28.682  1.00  0.00     0.049 A 
ATOM     46  H   UNL A   1      40.093  29.647  30.573  1.00  0.00     0.167 HD
ATOM     47  C   UNL A   1      39.586  31.458  34.515  1.00  0.00     0.037 A 
ATOM     48  C   UNL A   1      41.327  27.959  28.722  1.00  0.00     0.037 A 
ATOM     49  C   UNL A   1      40.688  30.542  34.669  1.00  0.00     0.049 A 
ATOM     50  C   UNL A   1      42.082  27.783  30.013  1.00  0.00     0.074 A 
ATOM     51  C   UNL A   1      41.424  30.262  35.807  1.00  0.00     0.029 A 
ATOM     52  N   UNL A   1      41.215  29.761  33.652  1.00  0.00    -0.354 N 
ATOM     53  N   UNL A   1      41.868  28.340  31.181  1.00  0.00    -0.248 NA
ATOM     54  C   UNL A   1      43.218  26.850  29.993  1.00  0.00     0.031 C 
ATOM     55  C   UNL A   1      42.424  29.344  35.468  1.00  0.00     0.029 A 
ATOM     56  C   UNL A   1      42.277  29.011  34.131  1.00  0.00     0.049 A 
ATOM     57  H   UNL A   1      40.882  29.741  32.725  1.00  0.00     0.167 HD
ATOM     58  C   UNL A   1      42.826  27.808  32.037  1.00  0.00     0.074 A 
ATOM     59  C   UNL A   1      43.603  26.865  31.260  1.00  0.00     0.031 C 
ATOM     60  C   UNL A   1      43.045  28.077  33.348  1.00  0.00     0.037 A 
BRANCH  47  61
ATOM     61  C   UNL A   1      39.139  32.239  35.717  1.00  0.00     0.057 A 
ATOM     62  C   UNL A   1      38.314  31.673  36.699  1.00  0.00     0.134 A 
ATOM     63  C   UNL A   1      39.570  33.556  35.919  1.00  0.00     0.134 A 
ATOM     64  F   UNL A   1      37.855  30.420  36.561  1.00  0.00    -0.206 F 
ATOM     65  C   UNL A   1      37.918  32.395  37.826  1.00  0.00     0.040 A 
ATOM     66  C   UNL A   1      39.202  34.279  37.055  1.00  0.00     0.040 A 
ATOM     67  F   UNL A   1      40.365  34.157  35.022  1.00  0.00    -0.206 F 
ATOM     68  C   UNL A   1      38.370  33.700  38.011  1.00  0.00     0.006 A 
ENDBRANCH  47  61
BRANCH  48  69
ATOM     69  C   UNL A   1      41.746  27.230  27.498  1.00  0.00     0.057 A 
ATOM     70  C   UNL A   1      41.321  25.921  27.241  1.00  0.00     0.134 A 
ATOM     71  C   UNL A   1      42.613  27.819  26.569  1.00  0.00     0.134 A 
ATOM     72  F   UNL A   1      40.509  25.294  28.105  1.00  0.00    -0.206 F 
ATOM     73  C   UNL A   1      41.761  25.216  26.120  1.00  0.00     0.040 A 
ATOM     74  C   UNL A   1      43.037  27.137  25.427  1.00  0.00     0.040 A 
ATOM     75  F   UNL A   1      43.056  29.071  26.755  1.00  0.00    -0.206 F 
ATOM     76  C   UNL A   1      42.618  25.827  25.206  1.00  0.00     0.006 A 
ENDBRANCH  48  69
BRANCH  60  77
ATOM     77  C   UNL A   1      44.150  27.320  34.028  1.00  0.00     0.057 A 
ATOM     78  C   UNL A   1      45.454  27.826  34.112  1.00  0.00     0.134 A 
ATOM     79  C   UNL A   1      43.904  26.071  34.613  1.00  0.00     0.134 A 
ATOM     80  F   UNL A   1      45.761  29.011  33.563  1.00  0.00    -0.206 F 
ATOM     81  C   UNL A   1      46.481  27.102  34.721  1.00  0.00     0.040 A 
ATOM     82  C   UNL A   1      44.917  25.351  35.251  1.00  0.00     0.040 A 
ATOM     83  F   UNL A   1      42.677  25.531  34.580  1.00  0.00    -0.206 F 
ATOM     84  C   UNL A   1      46.212  25.861  35.296  1.00  0.00     0.006 A 
ENDBRANCH  60  77
ENDBRANCH  34  35
ENDBRANCH  27  29
ENDBRANCH  26  27
ENDBRANCH  25  26
ENDBRANCH  24  25
ENDBRANCH  23  24
ENDBRANCH   1  23
TORSDOF 18
ENDMDL
MODEL 3
REMARK VINA RESULT:     -10.1      5.571     11.157
REMARK SMILES [NH3+][C@H](CCC(=O)OCCOCCOC(=O)c1ccc(-c2c3nc(c(-c4c(F)cccc4F)c4ccc([nH]4)c(-c4c(F)cccc4F)c4nc(c(-c5c(F)cccc5F)c5ccc2[nH]5)C=C4)C=C3)cc1)c1nccc2[nH]ccc12
REMARK SMILES IDX 9 1 8 2 7 3 5 4 6 5 4 6 3 7 2 8 1 9 70 13 71 14 78 15 72 16
REMARK SMILES IDX 74 17 77 18 73 19 75 20 76 21 10 23 11 24 12 25 13 26 14 27
REMARK SMILES IDX 15 28 16 29 17 30 69 31 18 32 68 33 19 34 20 35 21 36 62 37
REMARK SMILES IDX 22 38 67 39 61 40 63 41 23 42 66 43 60 44 59 45 24 47 50 48
REMARK SMILES IDX 33 49 49 50 34 51 37 52 48 53 64 54 35 55 36 56 47 58 65 59
REMARK SMILES IDX 38 60 25 61 26 62 31 63 27 64 28 65 30 66 32 67 29 68 51 69
REMARK SMILES IDX 52 70 57 71 53 72 54 73 56 74 58 75 55 76 39 77 40 78 45 79
REMARK SMILES IDX 41 80 42 81 44 82 46 83 43 84
REMARK H PARENT 1 10 1 11 1 12 75 22 63 46 37 57
REMARK Flexibility Score: inf
ROOT
ATOM      1  C   UNL A   1      34.405  36.273  33.260  1.00  0.00     0.202 C 
ENDROOT
BRANCH   1   2
ATOM      2  C   UNL A   1      34.868  34.910  33.776  1.00  0.00     0.261 C 
BRANCH   2   3
ATOM      3  O   UNL A   1      36.120  34.533  33.177  1.00  0.00    -0.463 OA
BRANCH   3   4
ATOM      4  C   UNL A   1      37.119  34.208  34.038  1.00  0.00     0.306 C 
ATOM      5  O   UNL A   1      37.995  34.977  34.416  1.00  0.00    -0.252 OA
BRANCH   4   6
ATOM      6  C   UNL A   1      37.043  32.779  34.517  1.00  0.00     0.129 C 
BRANCH   6   7
ATOM      7  C   UNL A   1      37.467  31.689  33.521  1.00  0.00     0.083 C 
BRANCH   7   8
ATOM      8  C   UNL A   1      38.275  30.513  34.142  1.00  0.00     0.232 C 
BRANCH   8   9
ATOM      9  N   UNL A   1      37.758  29.216  33.697  1.00  0.00    -0.350 N 
ATOM     10  H   UNL A   1      38.500  28.518  33.749  1.00  0.00     0.345 HD
ATOM     11  H   UNL A   1      37.430  29.293  32.735  1.00  0.00     0.345 HD
ATOM     12  H   UNL A   1      36.985  28.934  34.299  1.00  0.00     0.345 HD
ENDBRANCH   8   9
BRANCH   8  13
ATOM     13  C   UNL A   1      39.808  30.708  34.019  1.00  0.00     0.107 A 
ATOM     14  N   UNL A   1      40.295  31.617  34.931  1.00  0.00    -0.254 NA
ATOM     15  C   UNL A   1      40.668  29.601  33.785  1.00  0.00     0.027 A 
ATOM     16  C   UNL A   1      41.072  31.165  35.935  1.00  0.00     0.114 A 
ATOM     17  C   UNL A   1      41.410  29.137  34.874  1.00  0.00     0.049 A 
ATOM     18  C   UNL A   1      41.134  28.863  32.658  1.00  0.00     0.030 A 
ATOM     19  C   UNL A   1      41.516  29.860  36.055  1.00  0.00     0.047 A 
ATOM     20  N   UNL A   1      41.974  27.944  34.494  1.00  0.00    -0.361 N 
ATOM     21  C   UNL A   1      41.989  27.884  33.124  1.00  0.00     0.083 A 
ATOM     22  H   UNL A   1      42.311  27.247  35.103  1.00  0.00     0.166 HD
ENDBRANCH   8  13
ENDBRANCH   7   8
ENDBRANCH   6   7
ENDBRANCH   4   6
ENDBRANCH   3   4
ENDBRANCH   2   3
ENDBRANCH   1   2
BRANCH   1  23
ATOM     23  O   UNL A   1      33.080  36.331  32.731  1.00  0.00    -0.374 OA
BRANCH  23  24
ATOM     24  C   UNL A   1      32.871  37.098  31.546  1.00  0.00     0.202 C 
BRANCH  24  25
ATOM     25  C   UNL A   1      33.222  36.411  30.220  1.00  0.00     0.261 C 
BRANCH  25  26
ATOM     26  O   UNL A   1      32.868  35.015  30.205  1.00  0.00    -0.460 OA
BRANCH  26  27
ATOM     27  C   UNL A   1      33.114  34.384  29.038  1.00  0.00     0.338 C 
ATOM     28  O   UNL A   1      32.473  34.486  27.988  1.00  0.00    -0.246 OA
BRANCH  27  29
ATOM     29  C   UNL A   1      34.386  33.647  29.092  1.00  0.00     0.060 A 
ATOM     30  C   UNL A   1      34.638  32.887  30.241  1.00  0.00     0.016 A 
ATOM     31  C   UNL A   1      35.356  33.759  28.092  1.00  0.00     0.016 A 
ATOM     32  C   UNL A   1      35.882  32.291  30.426  1.00  0.00     0.010 A 
ATOM     33  C   UNL A   1      36.607  33.156  28.280  1.00  0.00     0.010 A 
ATOM     34  C   UNL A   1      36.891  32.455  29.466  1.00  0.00    -0.014 A 
BRANCH  34  35
ATOM     35  C   UNL A   1      38.265  31.990  29.788  1.00  0.00     0.031 A 
ATOM     36  C   UNL A   1      38.719  30.633  29.320  1.00  0.00     0.074 A 
ATOM     37  C   UNL A   1      39.130  32.807  30.415  1.00  0.00     0.049 A 
ATOM     38  N   UNL A   1      39.895  30.066  29.433  1.00  0.00    -0.248 NA
ATOM     39  C   UNL A   1      37.717  29.804  28.630  1.00  0.00     0.031 C 
ATOM     40  C   UNL A   1      38.821  34.150  30.902  1.00  0.00     0.029 A 
ATOM     41  N   UNL A   1      40.451  32.625  30.742  1.00  0.00    -0.354 N 
ATOM     42  C   UNL A   1      39.778  28.824  28.819  1.00  0.00     0.074 A 
ATOM     43  C   UNL A   1      38.404  28.699  28.381  1.00  0.00     0.031 C 
ATOM     44  C   UNL A   1      39.923  34.674  31.464  1.00  0.00     0.029 A 
ATOM     45  C   UNL A   1      41.008  33.696  31.398  1.00  0.00     0.049 A 
ATOM     46  H   UNL A   1      40.952  31.805  30.527  1.00  0.00     0.167 HD
ATOM     47  C   UNL A   1      40.730  27.881  28.621  1.00  0.00     0.037 A 
ATOM     48  C   UNL A   1      42.248  33.866  31.896  1.00  0.00     0.037 A 
ATOM     49  C   UNL A   1      42.096  28.000  29.064  1.00  0.00     0.049 A 
ATOM     50  C   UNL A   1      43.274  32.779  31.711  1.00  0.00     0.074 A 
ATOM     51  C   UNL A   1      43.134  27.096  28.912  1.00  0.00     0.029 A 
ATOM     52  N   UNL A   1      42.614  29.088  29.751  1.00  0.00    -0.354 N 
ATOM     53  N   UNL A   1      43.157  31.622  31.104  1.00  0.00    -0.248 NA
ATOM     54  C   UNL A   1      44.611  33.030  32.268  1.00  0.00     0.031 C 
ATOM     55  C   UNL A   1      44.267  27.618  29.544  1.00  0.00     0.029 A 
ATOM     56  C   UNL A   1      43.951  28.871  30.044  1.00  0.00     0.049 A 
ATOM     57  H   UNL A   1      42.106  29.896  29.993  1.00  0.00     0.167 HD
ATOM     58  C   UNL A   1      44.408  31.020  31.187  1.00  0.00     0.074 A 
ATOM     59  C   UNL A   1      45.274  31.951  31.879  1.00  0.00     0.031 C 
ATOM     60  C   UNL A   1      44.803  29.805  30.735  1.00  0.00     0.037 A 
BRANCH  47  61
ATOM     61  C   UNL A   1      40.325  26.631  27.895  1.00  0.00     0.057 A 
ATOM     62  C   UNL A   1      39.495  25.671  28.488  1.00  0.00     0.134 A 
ATOM     63  C   UNL A   1      40.733  26.402  26.574  1.00  0.00     0.134 A 
ATOM     64  F   UNL A   1      39.078  25.822  29.754  1.00  0.00    -0.206 F 
ATOM     65  C   UNL A   1      39.102  24.520  27.802  1.00  0.00     0.040 A 
ATOM     66  C   UNL A   1      40.325  25.268  25.870  1.00  0.00     0.040 A 
ATOM     67  F   UNL A   1      41.524  27.283  25.944  1.00  0.00    -0.206 F 
ATOM     68  C   UNL A   1      39.511  24.320  26.486  1.00  0.00     0.006 A 
ENDBRANCH  47  61
BRANCH  48  69
ATOM     69  C   UNL A   1      42.590  35.109  32.630  1.00  0.00     0.057 A 
ATOM     70  C   UNL A   1      43.281  36.160  32.013  1.00  0.00     0.134 A 
ATOM     71  C   UNL A   1      42.262  35.262  33.983  1.00  0.00     0.134 A 
ATOM     72  F   UNL A   1      43.644  36.064  30.726  1.00  0.00    -0.206 F 
ATOM     73  C   UNL A   1      43.653  37.305  32.720  1.00  0.00     0.040 A 
ATOM     74  C   UNL A   1      42.601  36.414  34.694  1.00  0.00     0.040 A 
ATOM     75  F   UNL A   1      41.599  34.294  34.632  1.00  0.00    -0.206 F 
ATOM     76  C   UNL A   1      43.308  37.436  34.064  1.00  0.00     0.006 A 
ENDBRANCH  48  69
BRANCH  60  77
ATOM     77  C   UNL A   1      46.242  29.429  30.949  1.00  0.00     0.057 A 
ATOM     78  C   UNL A   1      46.673  28.775  32.111  1.00  0.00     0.134 A 
ATOM     79  C   UNL A   1      47.208  29.718  29.976  1.00  0.00     0.134 A 
ATOM     80  F   UNL A   1      45.802  28.478  33.088  1.00  0.00    -0.206 F 
ATOM     81  C   UNL A   1      48.017  28.455  32.314  1.00  0.00     0.040 A 
ATOM     82  C   UNL A   1      48.549  29.376  30.155  1.00  0.00     0.040 A 
ATOM     83  F   UNL A   1      46.864  30.332  28.834  1.00  0.00    -0.206 F 
ATOM     84  C   UNL A   1      48.960  28.753  31.332  1.00  0.00     0.006 A 
ENDBRANCH  60  77
ENDBRANCH  34  35
ENDBRANCH  27  29
ENDBRANCH  26  27
ENDBRANCH  25  26
ENDBRANCH  24  25
ENDBRANCH  23  24
ENDBRANCH   1  23
TORSDOF 18
ENDMDL
