MODEL 1
REMARK VINA RESULT:     -11.2      0.000      0.000
REMARK SMILES CC1(C)[C@H](C(=O)Nc2ccccc2C(N)=O)[C@@H]1C(=O)OCCOCCOC(=O)c1ccc(-c2c3nc(c(-c4c(F)cccc4F)c4ccc([nH]4)c(-c4c(F)cccc4F)c4nc(c(-c5c(F)cccc5F)c5ccc2[nH]5)C=C4)C=C3)cc1
REMARK SMILES IDX 22 1 21 2 20 3 18 4 19 5 17 6 1 7 2 8 3 9 4 10 5 11 6 12
REMARK SMILES IDX 7 13 8 15 9 16 13 17 10 18 12 19 11 20 14 21 15 22 16 23
REMARK SMILES IDX 23 26 24 27 25 28 26 29 27 30 28 31 29 32 30 33 82 34 31 35
REMARK SMILES IDX 81 36 32 37 33 38 34 39 75 40 35 41 80 42 74 43 76 44 36 45
REMARK SMILES IDX 79 46 73 47 72 48 37 50 63 51 46 52 62 53 47 54 50 55 61 56
REMARK SMILES IDX 77 57 48 58 49 59 60 61 78 62 51 63 38 64 39 65 44 66 40 67
REMARK SMILES IDX 41 68 43 69 45 70 42 71 64 72 65 73 70 74 66 75 67 76 69 77
REMARK SMILES IDX 71 78 68 79 52 80 53 81 58 82 54 83 55 84 57 85 59 86 56 87
REMARK H PARENT 7 14 15 24 15 25 76 49 50 60
REMARK Flexibility Score: inf
ROOT
ATOM      1  C   UNL A   1      33.568  28.644  24.479  1.00  0.00     0.202 C 
ENDROOT
BRANCH   1   2
ATOM      2  C   UNL A   1      33.740  27.129  24.670  1.00  0.00     0.261 C 
BRANCH   2   3
ATOM      3  O   UNL A   1      33.516  26.639  25.998  1.00  0.00    -0.463 OA
BRANCH   3   4
ATOM      4  C   UNL A   1      32.290  26.070  26.143  1.00  0.00     0.310 C 
ATOM      5  O   UNL A   1      31.469  26.419  26.988  1.00  0.00    -0.252 OA
BRANCH   4   6
ATOM      6  C   UNL A   1      31.967  25.079  25.070  1.00  0.00     0.118 C 
ATOM      7  C   UNL A   1      30.293  24.594  23.125  1.00  0.00     0.013 C 
ATOM      8  C   UNL A   1      30.534  24.923  24.598  1.00  0.00    -0.009 C 
ATOM      9  C   UNL A   1      29.524  25.945  25.039  1.00  0.00     0.013 C 
ATOM     10  C   UNL A   1      31.200  23.778  25.350  1.00  0.00     0.100 C 
BRANCH  10  11
ATOM     11  C   UNL A   1      31.578  23.132  26.636  1.00  0.00     0.228 C 
ATOM     12  O   UNL A   1      30.704  23.145  27.512  1.00  0.00    -0.274 OA
ATOM     13  N   UNL A   1      32.672  22.375  26.933  1.00  0.00    -0.325 N 
ATOM     14  H   UNL A   1      32.591  21.893  27.788  1.00  0.00     0.169 HD
BRANCH  13  15
ATOM     15  C   UNL A   1      33.876  22.140  26.282  1.00  0.00     0.053 A 
ATOM     16  C   UNL A   1      34.752  23.238  26.288  1.00  0.00     0.027 A 
ATOM     17  C   UNL A   1      34.262  20.940  25.674  1.00  0.00     0.063 A 
ATOM     18  C   UNL A   1      36.076  23.086  25.893  1.00  0.00     0.002 A 
ATOM     19  C   UNL A   1      35.601  20.802  25.268  1.00  0.00     0.016 A 
ATOM     20  C   UNL A   1      36.512  21.854  25.426  1.00  0.00     0.001 A 
BRANCH  17  21
ATOM     21  C   UNL A   1      33.258  19.873  25.367  1.00  0.00     0.250 C 
ATOM     22  N   UNL A   1      33.678  18.571  25.369  1.00  0.00    -0.366 N 
ATOM     23  O   UNL A   1      32.087  20.122  25.114  1.00  0.00    -0.269 OA
ATOM     24  H   UNL A   1      34.618  18.356  25.572  1.00  0.00     0.159 HD
ATOM     25  H   UNL A   1      33.041  17.848  25.166  1.00  0.00     0.159 HD
ENDBRANCH  17  21
ENDBRANCH  13  15
ENDBRANCH  10  11
ENDBRANCH   4   6
ENDBRANCH   3   4
ENDBRANCH   2   3
ENDBRANCH   1   2
BRANCH   1  26
ATOM     26  O   UNL A   1      32.307  29.181  24.115  1.00  0.00    -0.374 OA
BRANCH  26  27
ATOM     27  C   UNL A   1      31.379  29.566  25.124  1.00  0.00     0.202 C 
BRANCH  27  28
ATOM     28  C   UNL A   1      31.581  30.864  25.914  1.00  0.00     0.261 C 
BRANCH  28  29
ATOM     29  O   UNL A   1      32.457  30.739  27.047  1.00  0.00    -0.460 OA
BRANCH  29  30
ATOM     30  C   UNL A   1      33.210  31.838  27.299  1.00  0.00     0.338 C 
ATOM     31  O   UNL A   1      32.848  33.002  27.302  1.00  0.00    -0.246 OA
BRANCH  30  32
ATOM     32  C   UNL A   1      34.547  31.439  27.761  1.00  0.00     0.060 A 
ATOM     33  C   UNL A   1      34.761  30.096  28.099  1.00  0.00     0.016 A 
ATOM     34  C   UNL A   1      35.529  32.400  27.991  1.00  0.00     0.016 A 
ATOM     35  C   UNL A   1      35.959  29.711  28.694  1.00  0.00     0.010 A 
ATOM     36  C   UNL A   1      36.723  32.016  28.607  1.00  0.00     0.010 A 
ATOM     37  C   UNL A   1      36.929  30.677  28.985  1.00  0.00    -0.014 A 
BRANCH  37  38
ATOM     38  C   UNL A   1      38.098  30.314  29.815  1.00  0.00     0.031 A 
ATOM     39  C   UNL A   1      39.122  29.369  29.256  1.00  0.00     0.074 A 
ATOM     40  C   UNL A   1      38.244  30.830  31.046  1.00  0.00     0.049 A 
ATOM     41  N   UNL A   1      40.171  28.845  29.835  1.00  0.00    -0.248 NA
ATOM     42  C   UNL A   1      38.938  28.959  27.855  1.00  0.00     0.031 C 
ATOM     43  C   UNL A   1      37.341  31.796  31.669  1.00  0.00     0.029 A 
ATOM     44  N   UNL A   1      39.202  30.598  31.999  1.00  0.00    -0.354 N 
ATOM     45  C   UNL A   1      40.765  28.034  28.876  1.00  0.00     0.074 A 
ATOM     46  C   UNL A   1      39.947  28.117  27.685  1.00  0.00     0.031 C 
ATOM     47  C   UNL A   1      37.777  32.060  32.912  1.00  0.00     0.029 A 
ATOM     48  C   UNL A   1      38.962  31.249  33.184  1.00  0.00     0.049 A 
ATOM     49  H   UNL A   1      39.986  30.020  31.848  1.00  0.00     0.167 HD
ATOM     50  C   UNL A   1      41.892  27.291  28.981  1.00  0.00     0.037 A 
ATOM     51  C   UNL A   1      39.607  31.167  34.362  1.00  0.00     0.037 A 
ATOM     52  C   UNL A   1      42.694  27.211  30.175  1.00  0.00     0.049 A 
ATOM     53  C   UNL A   1      40.801  30.257  34.485  1.00  0.00     0.074 A 
ATOM     54  C   UNL A   1      43.865  26.504  30.382  1.00  0.00     0.029 A 
ATOM     55  N   UNL A   1      42.396  27.850  31.370  1.00  0.00    -0.354 N 
ATOM     56  N   UNL A   1      41.371  29.511  33.569  1.00  0.00    -0.248 NA
ATOM     57  C   UNL A   1      41.437  30.175  35.807  1.00  0.00     0.031 C 
ATOM     58  C   UNL A   1      44.244  26.669  31.717  1.00  0.00     0.029 A 
ATOM     59  C   UNL A   1      43.341  27.524  32.329  1.00  0.00     0.049 A 
ATOM     60  H   UNL A   1      41.627  28.447  31.515  1.00  0.00     0.167 HD
ATOM     61  C   UNL A   1      42.442  28.887  34.198  1.00  0.00     0.074 A 
ATOM     62  C   UNL A   1      42.454  29.359  35.567  1.00  0.00     0.031 C 
ATOM     63  C   UNL A   1      43.334  28.002  33.689  1.00  0.00     0.037 A 
BRANCH  50  64
ATOM     64  C   UNL A   1      42.300  26.478  27.787  1.00  0.00     0.057 A 
ATOM     65  C   UNL A   1      43.152  26.986  26.798  1.00  0.00     0.134 A 
ATOM     66  C   UNL A   1      41.854  25.159  27.639  1.00  0.00     0.134 A 
ATOM     67  F   UNL A   1      43.605  28.247  26.871  1.00  0.00    -0.206 F 
ATOM     68  C   UNL A   1      43.523  26.220  25.691  1.00  0.00     0.040 A 
ATOM     69  C   UNL A   1      42.240  24.374  26.551  1.00  0.00     0.040 A 
ATOM     70  F   UNL A   1      41.039  24.608  28.552  1.00  0.00    -0.206 F 
ATOM     71  C   UNL A   1      43.072  24.907  25.569  1.00  0.00     0.006 A 
ENDBRANCH  50  64
BRANCH  51  72
ATOM     72  C   UNL A   1      39.119  31.942  35.530  1.00  0.00     0.057 A 
ATOM     73  C   UNL A   1      39.538  33.258  35.754  1.00  0.00     0.134 A 
ATOM     74  C   UNL A   1      38.232  31.382  36.460  1.00  0.00     0.134 A 
ATOM     75  F   UNL A   1      40.404  33.841  34.913  1.00  0.00    -0.206 F 
ATOM     76  C   UNL A   1      39.107  33.985  36.864  1.00  0.00     0.040 A 
ATOM     77  C   UNL A   1      37.771  32.106  37.559  1.00  0.00     0.040 A 
ATOM     78  F   UNL A   1      37.793  30.124  36.302  1.00  0.00    -0.206 F 
ATOM     79  C   UNL A   1      38.215  33.410  37.768  1.00  0.00     0.006 A 
ENDBRANCH  51  72
BRANCH  63  80
ATOM     80  C   UNL A   1      44.411  27.505  34.610  1.00  0.00     0.057 A 
ATOM     81  C   UNL A   1      45.595  28.225  34.818  1.00  0.00     0.134 A 
ATOM     82  C   UNL A   1      44.244  26.315  35.330  1.00  0.00     0.134 A 
ATOM     83  F   UNL A   1      45.824  29.366  34.150  1.00  0.00    -0.206 F 
ATOM     84  C   UNL A   1      46.584  27.766  35.691  1.00  0.00     0.040 A 
ATOM     85  C   UNL A   1      45.212  25.861  36.227  1.00  0.00     0.040 A 
ATOM     86  F   UNL A   1      43.130  25.582  35.185  1.00  0.00    -0.206 F 
ATOM     87  C   UNL A   1      46.389  26.585  36.405  1.00  0.00     0.006 A 
ENDBRANCH  63  80
ENDBRANCH  37  38
ENDBRANCH  30  32
ENDBRANCH  29  30
ENDBRANCH  28  29
ENDBRANCH  27  28
ENDBRANCH  26  27
ENDBRANCH   1  26
TORSDOF 17
ENDMDL
MODEL 2
REMARK VINA RESULT:     -11.0      2.572      7.481
REMARK SMILES CC1(C)[C@H](C(=O)Nc2ccccc2C(N)=O)[C@@H]1C(=O)OCCOCCOC(=O)c1ccc(-c2c3nc(c(-c4c(F)cccc4F)c4ccc([nH]4)c(-c4c(F)cccc4F)c4nc(c(-c5c(F)cccc5F)c5ccc2[nH]5)C=C4)C=C3)cc1
REMARK SMILES IDX 22 1 21 2 20 3 18 4 19 5 17 6 1 7 2 8 3 9 4 10 5 11 6 12
REMARK SMILES IDX 7 13 8 15 9 16 13 17 10 18 12 19 11 20 14 21 15 22 16 23
REMARK SMILES IDX 23 26 24 27 25 28 26 29 27 30 28 31 29 32 30 33 82 34 31 35
REMARK SMILES IDX 81 36 32 37 33 38 34 39 75 40 35 41 80 42 74 43 76 44 36 45
REMARK SMILES IDX 79 46 73 47 72 48 37 50 63 51 46 52 62 53 47 54 50 55 61 56
REMARK SMILES IDX 77 57 48 58 49 59 60 61 78 62 51 63 38 64 39 65 44 66 40 67
REMARK SMILES IDX 41 68 43 69 45 70 42 71 64 72 65 73 70 74 66 75 67 76 69 77
REMARK SMILES IDX 71 78 68 79 52 80 53 81 58 82 54 83 55 84 57 85 59 86 56 87
REMARK H PARENT 7 14 15 24 15 25 76 49 50 60
REMARK Flexibility Score: inf
ROOT
ATOM      1  C   UNL A   1      38.662  21.559  25.750  1.00  0.00     0.202 C 
ENDROOT
BRANCH   1   2
ATOM      2  C   UNL A   1      37.318  21.301  25.050  1.00  0.00     0.261 C 
BRANCH   2   3
ATOM      3  O   UNL A   1      37.027  22.145  23.929  1.00  0.00    -0.463 OA
BRANCH   3   4
ATOM      4  C   UNL A   1      35.712  22.481  23.857  1.00  0.00     0.310 C 
ATOM      5  O   UNL A   1      35.285  23.443  23.223  1.00  0.00    -0.252 OA
BRANCH   4   6
ATOM      6  C   UNL A   1      34.808  21.473  24.495  1.00  0.00     0.118 C 
ATOM      7  C   UNL A   1      32.651  20.060  24.080  1.00  0.00     0.013 C 
ATOM      8  C   UNL A   1      33.344  21.422  24.102  1.00  0.00    -0.009 C 
ATOM      9  C   UNL A   1      32.901  22.212  22.903  1.00  0.00     0.013 C 
ATOM     10  C   UNL A   1      33.724  21.861  25.511  1.00  0.00     0.100 C 
BRANCH  10  11
ATOM     11  C   UNL A   1      34.150  22.931  26.453  1.00  0.00     0.228 C 
ATOM     12  O   UNL A   1      34.865  22.556  27.391  1.00  0.00    -0.274 OA
ATOM     13  N   UNL A   1      34.019  24.283  26.341  1.00  0.00    -0.325 N 
ATOM     14  H   UNL A   1      34.561  24.782  26.993  1.00  0.00     0.169 HD
BRANCH  13  15
ATOM     15  C   UNL A   1      33.281  25.104  25.498  1.00  0.00     0.053 A 
ATOM     16  C   UNL A   1      34.029  26.135  24.906  1.00  0.00     0.027 A 
ATOM     17  C   UNL A   1      31.921  24.966  25.198  1.00  0.00     0.063 A 
ATOM     18  C   UNL A   1      33.495  26.885  23.865  1.00  0.00     0.002 A 
ATOM     19  C   UNL A   1      31.389  25.737  24.149  1.00  0.00     0.016 A 
ATOM     20  C   UNL A   1      32.189  26.653  23.455  1.00  0.00     0.001 A 
BRANCH  17  21
ATOM     21  C   UNL A   1      31.031  24.101  26.035  1.00  0.00     0.250 C 
ATOM     22  N   UNL A   1      30.278  23.148  25.406  1.00  0.00    -0.366 N 
ATOM     23  O   UNL A   1      30.951  24.217  27.251  1.00  0.00    -0.269 OA
ATOM     24  H   UNL A   1      30.332  23.043  24.428  1.00  0.00     0.159 HD
ATOM     25  H   UNL A   1      29.680  22.567  25.930  1.00  0.00     0.159 HD
ENDBRANCH  17  21
ENDBRANCH  13  15
ENDBRANCH  10  11
ENDBRANCH   4   6
ENDBRANCH   3   4
ENDBRANCH   2   3
ENDBRANCH   1   2
BRANCH   1  26
ATOM     26  O   UNL A   1      39.639  20.534  25.822  1.00  0.00    -0.374 OA
BRANCH  26  27
ATOM     27  C   UNL A   1      40.774  20.690  26.667  1.00  0.00     0.202 C 
BRANCH  27  28
ATOM     28  C   UNL A   1      42.111  21.177  26.096  1.00  0.00     0.261 C 
BRANCH  28  29
ATOM     29  O   UNL A   1      42.034  22.425  25.388  1.00  0.00    -0.460 OA
BRANCH  29  30
ATOM     30  C   UNL A   1      43.020  23.305  25.691  1.00  0.00     0.338 C 
ATOM     31  O   UNL A   1      44.174  23.294  25.296  1.00  0.00    -0.246 OA
BRANCH  30  32
ATOM     32  C   UNL A   1      42.473  24.433  26.458  1.00  0.00     0.060 A 
ATOM     33  C   UNL A   1      43.208  25.625  26.503  1.00  0.00     0.016 A 
ATOM     34  C   UNL A   1      41.326  24.269  27.232  1.00  0.00     0.016 A 
ATOM     35  C   UNL A   1      42.809  26.657  27.348  1.00  0.00     0.010 A 
ATOM     36  C   UNL A   1      40.938  25.298  28.095  1.00  0.00     0.010 A 
ATOM     37  C   UNL A   1      41.694  26.481  28.176  1.00  0.00    -0.014 A 
BRANCH  37  38
ATOM     38  C   UNL A   1      41.400  27.476  29.230  1.00  0.00     0.031 A 
ATOM     39  C   UNL A   1      42.207  27.454  30.497  1.00  0.00     0.074 A 
ATOM     40  C   UNL A   1      40.433  28.390  29.052  1.00  0.00     0.049 A 
ATOM     41  N   UNL A   1      42.063  28.167  31.584  1.00  0.00    -0.248 NA
ATOM     42  C   UNL A   1      43.324  26.499  30.544  1.00  0.00     0.031 C 
ATOM     43  C   UNL A   1      39.624  28.537  27.843  1.00  0.00     0.029 A 
ATOM     44  N   UNL A   1      39.957  29.357  29.899  1.00  0.00    -0.354 N 
ATOM     45  C   UNL A   1      43.063  27.739  32.448  1.00  0.00     0.074 A 
ATOM     46  C   UNL A   1      43.790  26.689  31.770  1.00  0.00     0.031 C 
ATOM     47  C   UNL A   1      38.734  29.526  28.034  1.00  0.00     0.029 A 
ATOM     48  C   UNL A   1      38.885  30.048  29.390  1.00  0.00     0.049 A 
ATOM     49  H   UNL A   1      40.346  29.539  30.785  1.00  0.00     0.167 HD
ATOM     50  C   UNL A   1      43.346  28.186  33.695  1.00  0.00     0.037 A 
ATOM     51  C   UNL A   1      38.094  30.969  29.972  1.00  0.00     0.037 A 
ATOM     52  C   UNL A   1      42.610  29.228  34.364  1.00  0.00     0.049 A 
ATOM     53  C   UNL A   1      38.368  31.379  31.395  1.00  0.00     0.074 A 
ATOM     54  C   UNL A   1      42.827  29.768  35.618  1.00  0.00     0.029 A 
ATOM     55  N   UNL A   1      41.502  29.874  33.834  1.00  0.00    -0.354 N 
ATOM     56  N   UNL A   1      39.327  30.988  32.199  1.00  0.00    -0.248 NA
ATOM     57  C   UNL A   1      37.445  32.356  31.991  1.00  0.00     0.031 C 
ATOM     58  C   UNL A   1      41.816  30.701  35.871  1.00  0.00     0.029 A 
ATOM     59  C   UNL A   1      41.002  30.783  34.753  1.00  0.00     0.049 A 
ATOM     60  H   UNL A   1      41.127  29.711  32.940  1.00  0.00     0.167 HD
ATOM     61  C   UNL A   1      39.135  31.684  33.388  1.00  0.00     0.074 A 
ATOM     62  C   UNL A   1      37.981  32.535  33.190  1.00  0.00     0.031 C 
ATOM     63  C   UNL A   1      39.849  31.621  34.539  1.00  0.00     0.037 A 
BRANCH  50  64
ATOM     64  C   UNL A   1      44.477  27.523  34.428  1.00  0.00     0.057 A 
ATOM     65  C   UNL A   1      44.285  26.375  35.207  1.00  0.00     0.134 A 
ATOM     66  C   UNL A   1      45.779  28.027  34.332  1.00  0.00     0.134 A 
ATOM     67  F   UNL A   1      43.059  25.848  35.354  1.00  0.00    -0.206 F 
ATOM     68  C   UNL A   1      45.344  25.768  35.885  1.00  0.00     0.040 A 
ATOM     69  C   UNL A   1      46.851  27.413  34.983  1.00  0.00     0.040 A 
ATOM     70  F   UNL A   1      46.035  29.122  33.599  1.00  0.00    -0.206 F 
ATOM     71  C   UNL A   1      46.633  26.283  35.768  1.00  0.00     0.006 A 
ENDBRANCH  50  64
BRANCH  51  72
ATOM     72  C   UNL A   1      36.948  31.542  29.222  1.00  0.00     0.057 A 
ATOM     73  C   UNL A   1      35.787  30.797  28.991  1.00  0.00     0.134 A 
ATOM     74  C   UNL A   1      36.992  32.845  28.706  1.00  0.00     0.134 A 
ATOM     75  F   UNL A   1      35.694  29.537  29.439  1.00  0.00    -0.206 F 
ATOM     76  C   UNL A   1      34.716  31.318  28.263  1.00  0.00     0.040 A 
ATOM     77  C   UNL A   1      35.918  33.388  28.001  1.00  0.00     0.040 A 
ATOM     78  F   UNL A   1      38.077  33.610  28.894  1.00  0.00    -0.206 F 
ATOM     79  C   UNL A   1      34.778  32.621  27.771  1.00  0.00     0.006 A 
ENDBRANCH  51  72
BRANCH  63  80
ATOM     80  C   UNL A   1      39.415  32.515  35.665  1.00  0.00     0.057 A 
ATOM     81  C   UNL A   1      39.916  33.815  35.811  1.00  0.00     0.134 A 
ATOM     82  C   UNL A   1      38.455  32.086  36.590  1.00  0.00     0.134 A 
ATOM     83  F   UNL A   1      40.848  34.283  34.967  1.00  0.00    -0.206 F 
ATOM     84  C   UNL A   1      39.495  34.647  36.850  1.00  0.00     0.040 A 
ATOM     85  C   UNL A   1      38.003  32.919  37.615  1.00  0.00     0.040 A 
ATOM     86  F   UNL A   1      37.927  30.856  36.503  1.00  0.00    -0.206 F 
ATOM     87  C   UNL A   1      38.529  34.202  37.749  1.00  0.00     0.006 A 
ENDBRANCH  63  80
ENDBRANCH  37  38
ENDBRANCH  30  32
ENDBRANCH  29  30
ENDBRANCH  28  29
ENDBRANCH  27  28
ENDBRANCH  26  27
ENDBRANCH   1  26
TORSDOF 17
ENDMDL
MODEL 3
REMARK VINA RESULT:     -10.9      3.336      6.841
REMARK SMILES CC1(C)[C@H](C(=O)Nc2ccccc2C(N)=O)[C@@H]1C(=O)OCCOCCOC(=O)c1ccc(-c2c3nc(c(-c4c(F)cccc4F)c4ccc([nH]4)c(-c4c(F)cccc4F)c4nc(c(-c5c(F)cccc5F)c5ccc2[nH]5)C=C4)C=C3)cc1
REMARK SMILES IDX 22 1 21 2 20 3 18 4 19 5 17 6 1 7 2 8 3 9 4 10 5 11 6 12
REMARK SMILES IDX 7 13 8 15 9 16 13 17 10 18 12 19 11 20 14 21 15 22 16 23
REMARK SMILES IDX 23 26 24 27 25 28 26 29 27 30 28 31 29 32 30 33 82 34 31 35
REMARK SMILES IDX 81 36 32 37 33 38 34 39 75 40 35 41 80 42 74 43 76 44 36 45
REMARK SMILES IDX 79 46 73 47 72 48 37 50 63 51 46 52 62 53 47 54 50 55 61 56
REMARK SMILES IDX 77 57 48 58 49 59 60 61 78 62 51 63 38 64 39 65 44 66 40 67
REMARK SMILES IDX 41 68 43 69 45 70 42 71 64 72 65 73 70 74 66 75 67 76 69 77
REMARK SMILES IDX 71 78 68 79 52 80 53 81 58 82 54 83 55 84 57 85 59 86 56 87
REMARK H PARENT 7 14 15 24 15 25 76 49 50 60
REMARK Flexibility Score: inf
ROOT
ATOM      1  C   UNL A   1      32.801  29.309  24.817  1.00  0.00     0.202 C 
ENDROOT
BRANCH   1   2
ATOM      2  C   UNL A   1      33.001  27.833  24.437  1.00  0.00     0.261 C 
BRANCH   2   3
ATOM      3  O   UNL A   1      33.374  26.959  25.509  1.00  0.00    -0.463 OA
BRANCH   3   4
ATOM      4  C   UNL A   1      32.346  26.169  25.918  1.00  0.00     0.310 C 
ATOM      5  O   UNL A   1      31.677  26.383  26.926  1.00  0.00    -0.252 OA
BRANCH   4   6
ATOM      6  C   UNL A   1      31.998  25.095  24.936  1.00  0.00     0.118 C 
ATOM      7  C   UNL A   1      30.300  24.475  23.051  1.00  0.00     0.013 C 
ATOM      8  C   UNL A   1      30.559  24.924  24.488  1.00  0.00    -0.009 C 
ATOM      9  C   UNL A   1      29.570  25.997  24.847  1.00  0.00     0.013 C 
ATOM     10  C   UNL A   1      31.212  23.836  25.332  1.00  0.00     0.100 C 
BRANCH  10  11
ATOM     11  C   UNL A   1      31.589  23.296  26.666  1.00  0.00     0.228 C 
ATOM     12  O   UNL A   1      30.750  23.461  27.560  1.00  0.00    -0.274 OA
ATOM     13  N   UNL A   1      32.637  22.495  27.007  1.00  0.00    -0.325 N 
ATOM     14  H   UNL A   1      32.554  22.108  27.909  1.00  0.00     0.169 HD
BRANCH  13  15
ATOM     15  C   UNL A   1      33.799  22.109  26.350  1.00  0.00     0.053 A 
ATOM     16  C   UNL A   1      34.782  23.110  26.293  1.00  0.00     0.027 A 
ATOM     17  C   UNL A   1      34.047  20.850  25.791  1.00  0.00     0.063 A 
ATOM     18  C   UNL A   1      36.076  22.805  25.885  1.00  0.00     0.002 A 
ATOM     19  C   UNL A   1      35.357  20.557  25.372  1.00  0.00     0.016 A 
ATOM     20  C   UNL A   1      36.374  21.515  25.469  1.00  0.00     0.001 A 
BRANCH  17  21
ATOM     21  C   UNL A   1      32.934  19.881  25.547  1.00  0.00     0.250 C 
ATOM     22  N   UNL A   1      32.891  18.742  26.304  1.00  0.00    -0.366 N 
ATOM     23  O   UNL A   1      32.069  20.067  24.701  1.00  0.00    -0.269 OA
ATOM     24  H   UNL A   1      33.581  18.579  26.989  1.00  0.00     0.159 HD
ATOM     25  H   UNL A   1      32.173  18.083  26.163  1.00  0.00     0.159 HD
ENDBRANCH  17  21
ENDBRANCH  13  15
ENDBRANCH  10  11
ENDBRANCH   4   6
ENDBRANCH   3   4
ENDBRANCH   2   3
ENDBRANCH   1   2
BRANCH   1  26
ATOM     26  O   UNL A   1      31.641  29.715  25.525  1.00  0.00    -0.374 OA
BRANCH  26  27
ATOM     27  C   UNL A   1      31.764  30.304  26.815  1.00  0.00     0.202 C 
BRANCH  27  28
ATOM     28  C   UNL A   1      33.047  31.041  27.217  1.00  0.00     0.261 C 
BRANCH  28  29
ATOM     29  O   UNL A   1      34.013  30.222  27.897  1.00  0.00    -0.460 OA
BRANCH  29  30
ATOM     30  C   UNL A   1      34.953  30.915  28.584  1.00  0.00     0.338 C 
ATOM     31  O   UNL A   1      34.801  31.941  29.226  1.00  0.00    -0.246 OA
BRANCH  30  32
ATOM     32  C   UNL A   1      36.215  30.162  28.614  1.00  0.00     0.060 A 
ATOM     33  C   UNL A   1      36.591  29.539  29.811  1.00  0.00     0.016 A 
ATOM     34  C   UNL A   1      37.078  30.189  27.520  1.00  0.00     0.016 A 
ATOM     35  C   UNL A   1      37.850  28.958  29.929  1.00  0.00     0.010 A 
ATOM     36  C   UNL A   1      38.349  29.623  27.646  1.00  0.00     0.010 A 
ATOM     37  C   UNL A   1      38.748  29.032  28.859  1.00  0.00    -0.014 A 
BRANCH  37  38
ATOM     38  C   UNL A   1      40.155  28.620  29.053  1.00  0.00     0.031 A 
ATOM     39  C   UNL A   1      41.128  29.603  29.638  1.00  0.00     0.074 A 
ATOM     40  C   UNL A   1      40.553  27.381  28.720  1.00  0.00     0.049 A 
ATOM     41  N   UNL A   1      42.419  29.489  29.811  1.00  0.00    -0.248 NA
ATOM     42  C   UNL A   1      40.569  30.888  30.086  1.00  0.00     0.031 C 
ATOM     43  C   UNL A   1      39.684  26.329  28.195  1.00  0.00     0.029 A 
ATOM     44  N   UNL A   1      41.797  26.806  28.760  1.00  0.00    -0.354 N 
ATOM     45  C   UNL A   1      42.829  30.690  30.376  1.00  0.00     0.074 A 
ATOM     46  C   UNL A   1      41.655  31.527  30.495  1.00  0.00     0.031 C 
ATOM     47  C   UNL A   1      40.428  25.239  27.941  1.00  0.00     0.029 A 
ATOM     48  C   UNL A   1      41.826  25.534  28.245  1.00  0.00     0.049 A 
ATOM     49  H   UNL A   1      42.591  27.261  29.123  1.00  0.00     0.167 HD
ATOM     50  C   UNL A   1      44.075  31.058  30.762  1.00  0.00     0.037 A 
ATOM     51  C   UNL A   1      42.872  24.719  28.012  1.00  0.00     0.037 A 
ATOM     52  C   UNL A   1      45.238  30.219  30.632  1.00  0.00     0.049 A 
ATOM     53  C   UNL A   1      44.260  25.187  28.358  1.00  0.00     0.074 A 
ATOM     54  C   UNL A   1      46.542  30.486  31.010  1.00  0.00     0.029 A 
ATOM     55  N   UNL A   1      45.237  28.952  30.065  1.00  0.00    -0.354 N 
ATOM     56  N   UNL A   1      44.640  26.313  28.913  1.00  0.00    -0.248 NA
ATOM     57  C   UNL A   1      45.365  24.272  28.042  1.00  0.00     0.031 C 
ATOM     58  C   UNL A   1      47.339  29.406  30.620  1.00  0.00     0.029 A 
ATOM     59  C   UNL A   1      46.525  28.440  30.050  1.00  0.00     0.049 A 
ATOM     60  H   UNL A   1      44.440  28.486  29.725  1.00  0.00     0.167 HD
ATOM     61  C   UNL A   1      46.023  26.235  29.029  1.00  0.00     0.074 A 
ATOM     62  C   UNL A   1      46.411  24.941  28.506  1.00  0.00     0.031 C 
ATOM     63  C   UNL A   1      46.893  27.150  29.521  1.00  0.00     0.037 A 
BRANCH  50  64
ATOM     64  C   UNL A   1      44.246  32.439  31.325  1.00  0.00     0.057 A 
ATOM     65  C   UNL A   1      44.420  33.560  30.503  1.00  0.00     0.134 A 
ATOM     66  C   UNL A   1      44.212  32.652  32.709  1.00  0.00     0.134 A 
ATOM     67  F   UNL A   1      44.477  33.424  29.169  1.00  0.00    -0.206 F 
ATOM     68  C   UNL A   1      44.580  34.840  31.040  1.00  0.00     0.040 A 
ATOM     69  C   UNL A   1      44.342  33.930  33.255  1.00  0.00     0.040 A 
ATOM     70  F   UNL A   1      44.045  31.623  33.553  1.00  0.00    -0.206 F 
ATOM     71  C   UNL A   1      44.534  35.028  32.419  1.00  0.00     0.006 A 
ENDBRANCH  50  64
BRANCH  51  72
ATOM     72  C   UNL A   1      42.651  23.389  27.390  1.00  0.00     0.057 A 
ATOM     73  C   UNL A   1      42.331  22.269  28.167  1.00  0.00     0.134 A 
ATOM     74  C   UNL A   1      42.768  23.201  26.007  1.00  0.00     0.134 A 
ATOM     75  F   UNL A   1      42.228  22.380  29.498  1.00  0.00    -0.206 F 
ATOM     76  C   UNL A   1      42.151  21.010  27.594  1.00  0.00     0.040 A 
ATOM     77  C   UNL A   1      42.563  21.954  25.417  1.00  0.00     0.040 A 
ATOM     78  F   UNL A   1      43.073  24.234  25.207  1.00  0.00    -0.206 F 
ATOM     79  C   UNL A   1      42.259  20.851  26.213  1.00  0.00     0.006 A 
ENDBRANCH  51  72
BRANCH  63  80
ATOM     80  C   UNL A   1      48.347  26.777  29.539  1.00  0.00     0.057 A 
ATOM     81  C   UNL A   1      49.218  27.150  28.508  1.00  0.00     0.134 A 
ATOM     82  C   UNL A   1      48.891  26.071  30.620  1.00  0.00     0.134 A 
ATOM     83  F   UNL A   1      48.759  27.816  27.438  1.00  0.00    -0.206 F 
ATOM     84  C   UNL A   1      50.573  26.815  28.540  1.00  0.00     0.040 A 
ATOM     85  C   UNL A   1      50.250  25.756  30.678  1.00  0.00     0.040 A 
ATOM     86  F   UNL A   1      48.115  25.690  31.646  1.00  0.00    -0.206 F 
ATOM     87  C   UNL A   1      51.093  26.124  29.633  1.00  0.00     0.006 A 
ENDBRANCH  63  80
ENDBRANCH  37  38
ENDBRANCH  30  32
ENDBRANCH  29  30
ENDBRANCH  28  29
ENDBRANCH  27  28
ENDBRANCH  26  27
ENDBRANCH   1  26
TORSDOF 17
ENDMDL
