MODEL 1
REMARK VINA RESULT:      -9.4      0.000      0.000
REMARK SMILES O=C(Cn1cnnn1)Nc1cccc(F)c1C(=O)OCCOCCOC(=O)c1ccc(-c2c3nc(c(-c4c(F)cccc4F)c4ccc([nH]4)c(-c4c(F)cccc4F)c4nc(c(-c5c(F)cccc5F)c5ccc2[nH]5)C=C4)C=C3)cc1
REMARK SMILES IDX 21 1 20 2 19 3 17 4 18 5 16 6 10 7 11 8 12 9 14 10 13 11
REMARK SMILES IDX 15 12 9 13 1 14 2 15 3 17 4 18 5 19 8 20 6 21 7 22 22 23
REMARK SMILES IDX 23 24 24 25 25 26 26 27 27 28 28 29 29 30 81 31 30 32 80 33
REMARK SMILES IDX 31 34 32 35 33 36 74 37 34 38 79 39 73 40 75 41 35 42 78 43
REMARK SMILES IDX 72 44 71 45 36 47 62 48 45 49 61 50 46 51 49 52 60 53 76 54
REMARK SMILES IDX 47 55 48 56 59 58 77 59 50 60 37 61 38 62 43 63 39 64 40 65
REMARK SMILES IDX 42 66 44 67 41 68 63 69 64 70 69 71 65 72 66 73 68 74 70 75
REMARK SMILES IDX 67 76 51 77 52 78 57 79 53 80 54 81 56 82 58 83 55 84
REMARK H PARENT 9 16 75 46 49 57
REMARK Flexibility Score: inf
ROOT
ATOM      1  C   UNL A   1      44.059  22.589  24.431  1.00  0.00     0.202 C 
ENDROOT
BRANCH   1   2
ATOM      2  C   UNL A   1      44.759  23.888  24.834  1.00  0.00     0.261 C 
BRANCH   2   3
ATOM      3  O   UNL A   1      44.423  24.271  26.180  1.00  0.00    -0.460 OA
BRANCH   3   4
ATOM      4  C   UNL A   1      45.359  23.961  27.111  1.00  0.00     0.343 C 
ATOM      5  O   UNL A   1      46.402  23.357  26.931  1.00  0.00    -0.246 OA
BRANCH   4   6
ATOM      6  C   UNL A   1      45.068  24.635  28.384  1.00  0.00     0.119 A 
ATOM      7  C   UNL A   1      45.265  26.027  28.518  1.00  0.00     0.058 A 
ATOM      8  C   UNL A   1      45.048  26.603  29.779  1.00  0.00     0.027 A 
ATOM      9  C   UNL A   1      44.666  25.822  30.875  1.00  0.00     0.005 A 
ATOM     10  C   UNL A   1      44.675  23.865  29.481  1.00  0.00     0.139 A 
ATOM     11  C   UNL A   1      44.477  24.451  30.726  1.00  0.00     0.040 A 
ATOM     12  F   UNL A   1      44.510  22.539  29.370  1.00  0.00    -0.206 F 
BRANCH   7  13
ATOM     13  N   UNL A   1      45.614  26.819  27.386  1.00  0.00    -0.324 N 
ATOM     14  O   UNL A   1      47.905  26.537  27.319  1.00  0.00    -0.273 OA
ATOM     15  C   UNL A   1      46.884  27.101  26.921  1.00  0.00     0.246 C 
ATOM     16  H   UNL A   1      44.866  27.211  26.879  1.00  0.00     0.170 HD
BRANCH  15  17
ATOM     17  C   UNL A   1      47.037  28.276  25.973  1.00  0.00     0.248 C 
BRANCH  17  18
ATOM     18  N   UNL A   1      47.425  28.022  24.606  1.00  0.00    -0.223 N 
ATOM     19  C   UNL A   1      48.650  27.613  24.174  1.00  0.00     0.246 A 
ATOM     20  N   UNL A   1      46.665  28.346  23.552  1.00  0.00    -0.045 NA
ATOM     21  N   UNL A   1      48.650  27.617  22.862  1.00  0.00    -0.117 NA
ATOM     22  N   UNL A   1      47.406  28.065  22.488  1.00  0.00    -0.024 NA
ENDBRANCH  17  18
ENDBRANCH  15  17
ENDBRANCH   7  13
ENDBRANCH   4   6
ENDBRANCH   3   4
ENDBRANCH   2   3
ENDBRANCH   1   2
BRANCH   1  23
ATOM     23  O   UNL A   1      42.823  22.295  25.083  1.00  0.00    -0.374 OA
BRANCH  23  24
ATOM     24  C   UNL A   1      42.749  21.168  25.947  1.00  0.00     0.202 C 
BRANCH  24  25
ATOM     25  C   UNL A   1      41.429  20.934  26.667  1.00  0.00     0.261 C 
BRANCH  25  26
ATOM     26  O   UNL A   1      41.086  21.998  27.548  1.00  0.00    -0.460 OA
BRANCH  26  27
ATOM     27  C   UNL A   1      40.146  22.839  27.057  1.00  0.00     0.338 C 
ATOM     28  O   UNL A   1      39.121  22.537  26.473  1.00  0.00    -0.246 OA
BRANCH  27  29
ATOM     29  C   UNL A   1      40.620  24.222  27.197  1.00  0.00     0.060 A 
ATOM     30  C   UNL A   1      41.444  24.487  28.291  1.00  0.00     0.016 A 
ATOM     31  C   UNL A   1      40.062  25.255  26.426  1.00  0.00     0.016 A 
ATOM     32  C   UNL A   1      41.561  25.788  28.730  1.00  0.00     0.010 A 
ATOM     33  C   UNL A   1      40.175  26.556  26.869  1.00  0.00     0.010 A 
ATOM     34  C   UNL A   1      40.857  26.794  28.060  1.00  0.00    -0.014 A 
BRANCH  34  35
ATOM     35  C   UNL A   1      40.859  28.109  28.664  1.00  0.00     0.031 A 
ATOM     36  C   UNL A   1      42.022  28.958  28.324  1.00  0.00     0.074 A 
ATOM     37  C   UNL A   1      39.843  28.556  29.422  1.00  0.00     0.049 A 
ATOM     38  N   UNL A   1      42.923  29.440  29.115  1.00  0.00    -0.248 NA
ATOM     39  C   UNL A   1      42.248  29.233  26.898  1.00  0.00     0.031 C 
ATOM     40  C   UNL A   1      38.505  27.986  29.594  1.00  0.00     0.029 A 
ATOM     41  N   UNL A   1      39.788  29.706  30.140  1.00  0.00    -0.354 N 
ATOM     42  C   UNL A   1      43.756  30.207  28.310  1.00  0.00     0.074 A 
ATOM     43  C   UNL A   1      43.366  29.955  26.945  1.00  0.00     0.031 C 
ATOM     44  C   UNL A   1      37.712  28.903  30.194  1.00  0.00     0.029 A 
ATOM     45  C   UNL A   1      38.518  30.056  30.559  1.00  0.00     0.049 A 
ATOM     46  H   UNL A   1      40.586  30.245  30.345  1.00  0.00     0.167 HD
ATOM     47  C   UNL A   1      44.607  31.138  28.816  1.00  0.00     0.037 A 
ATOM     48  C   UNL A   1      38.165  31.255  31.083  1.00  0.00     0.037 A 
ATOM     49  C   UNL A   1      44.873  30.938  30.211  1.00  0.00     0.049 A 
ATOM     50  C   UNL A   1      39.404  31.919  31.566  1.00  0.00     0.074 A 
ATOM     51  C   UNL A   1      45.443  29.913  30.943  1.00  0.00     0.029 A 
ATOM     52  N   UNL A   1      44.220  31.725  31.127  1.00  0.00    -0.354 N 
ATOM     53  N   UNL A   1      40.108  31.519  32.588  1.00  0.00    -0.248 NA
ATOM     54  C   UNL A   1      40.097  32.809  30.645  1.00  0.00     0.031 C 
ATOM     55  C   UNL A   1      44.696  29.864  32.155  1.00  0.00     0.029 A 
ATOM     56  C   UNL A   1      43.740  30.880  32.099  1.00  0.00     0.049 A 
ATOM     57  H   UNL A   1      44.114  32.703  31.095  1.00  0.00     0.167 HD
ATOM     58  C   UNL A   1      41.428  31.770  32.238  1.00  0.00     0.074 A 
ATOM     59  C   UNL A   1      41.350  32.650  31.076  1.00  0.00     0.031 C 
ATOM     60  C   UNL A   1      42.456  31.029  32.745  1.00  0.00     0.037 A 
BRANCH  47  61
ATOM     61  C   UNL A   1      44.985  32.380  28.068  1.00  0.00     0.057 A 
ATOM     62  C   UNL A   1      46.128  32.459  27.247  1.00  0.00     0.134 A 
ATOM     63  C   UNL A   1      44.091  33.455  27.969  1.00  0.00     0.134 A 
ATOM     64  F   UNL A   1      46.992  31.441  27.138  1.00  0.00    -0.206 F 
ATOM     65  C   UNL A   1      46.396  33.556  26.426  1.00  0.00     0.040 A 
ATOM     66  C   UNL A   1      44.322  34.536  27.109  1.00  0.00     0.040 A 
ATOM     67  F   UNL A   1      42.942  33.460  28.661  1.00  0.00    -0.206 F 
ATOM     68  C   UNL A   1      45.480  34.593  26.341  1.00  0.00     0.006 A 
ENDBRANCH  47  61
BRANCH  48  69
ATOM     69  C   UNL A   1      36.897  31.991  30.882  1.00  0.00     0.057 A 
ATOM     70  C   UNL A   1      36.632  32.707  29.701  1.00  0.00     0.134 A 
ATOM     71  C   UNL A   1      36.032  32.237  31.957  1.00  0.00     0.134 A 
ATOM     72  F   UNL A   1      37.437  32.613  28.633  1.00  0.00    -0.206 F 
ATOM     73  C   UNL A   1      35.581  33.622  29.598  1.00  0.00     0.040 A 
ATOM     74  C   UNL A   1      34.983  33.161  31.872  1.00  0.00     0.040 A 
ATOM     75  F   UNL A   1      36.227  31.634  33.139  1.00  0.00    -0.206 F 
ATOM     76  C   UNL A   1      34.760  33.865  30.692  1.00  0.00     0.006 A 
ENDBRANCH  48  69
BRANCH  60  77
ATOM     77  C   UNL A   1      42.157  30.080  33.874  1.00  0.00     0.057 A 
ATOM     78  C   UNL A   1      42.456  30.466  35.187  1.00  0.00     0.134 A 
ATOM     79  C   UNL A   1      41.752  28.751  33.684  1.00  0.00     0.134 A 
ATOM     80  F   UNL A   1      42.908  31.704  35.442  1.00  0.00    -0.206 F 
ATOM     81  C   UNL A   1      42.355  29.575  36.259  1.00  0.00     0.040 A 
ATOM     82  C   UNL A   1      41.614  27.858  34.751  1.00  0.00     0.040 A 
ATOM     83  F   UNL A   1      41.546  28.260  32.456  1.00  0.00    -0.206 F 
ATOM     84  C   UNL A   1      41.925  28.268  36.045  1.00  0.00     0.006 A 
ENDBRANCH  60  77
ENDBRANCH  34  35
ENDBRANCH  27  29
ENDBRANCH  26  27
ENDBRANCH  25  26
ENDBRANCH  24  25
ENDBRANCH  23  24
ENDBRANCH   1  23
TORSDOF 17
ENDMDL
MODEL 2
REMARK VINA RESULT:      -9.3      5.093      7.652
REMARK SMILES O=C(Cn1cnnn1)Nc1cccc(F)c1C(=O)OCCOCCOC(=O)c1ccc(-c2c3nc(c(-c4c(F)cccc4F)c4ccc([nH]4)c(-c4c(F)cccc4F)c4nc(c(-c5c(F)cccc5F)c5ccc2[nH]5)C=C4)C=C3)cc1
REMARK SMILES IDX 21 1 20 2 19 3 17 4 18 5 16 6 10 7 11 8 12 9 14 10 13 11
REMARK SMILES IDX 15 12 9 13 1 14 2 15 3 17 4 18 5 19 8 20 6 21 7 22 22 23
REMARK SMILES IDX 23 24 24 25 25 26 26 27 27 28 28 29 29 30 81 31 30 32 80 33
REMARK SMILES IDX 31 34 32 35 33 36 74 37 34 38 79 39 73 40 75 41 35 42 78 43
REMARK SMILES IDX 72 44 71 45 36 47 62 48 45 49 61 50 46 51 49 52 60 53 76 54
REMARK SMILES IDX 47 55 48 56 59 58 77 59 50 60 37 61 38 62 43 63 39 64 40 65
REMARK SMILES IDX 42 66 44 67 41 68 63 69 64 70 69 71 65 72 66 73 68 74 70 75
REMARK SMILES IDX 67 76 51 77 52 78 57 79 53 80 54 81 56 82 58 83 55 84
REMARK H PARENT 9 16 75 46 49 57
REMARK Flexibility Score: inf
ROOT
ATOM      1  C   UNL A   1      36.165  23.243  25.186  1.00  0.00     0.202 C 
ENDROOT
BRANCH   1   2
ATOM      2  C   UNL A   1      35.369  22.460  26.231  1.00  0.00     0.261 C 
BRANCH   2   3
ATOM      3  O   UNL A   1      34.558  23.333  27.037  1.00  0.00    -0.460 OA
BRANCH   3   4
ATOM      4  C   UNL A   1      33.273  22.931  27.197  1.00  0.00     0.343 C 
ATOM      5  O   UNL A   1      32.770  22.459  28.201  1.00  0.00    -0.246 OA
BRANCH   4   6
ATOM      6  C   UNL A   1      32.457  23.329  26.041  1.00  0.00     0.119 A 
ATOM      7  C   UNL A   1      31.885  22.350  25.198  1.00  0.00     0.058 A 
ATOM      8  C   UNL A   1      31.184  22.787  24.065  1.00  0.00     0.027 A 
ATOM      9  C   UNL A   1      31.070  24.149  23.765  1.00  0.00     0.005 A 
ATOM     10  C   UNL A   1      32.329  24.687  25.740  1.00  0.00     0.139 A 
ATOM     11  C   UNL A   1      31.642  25.101  24.604  1.00  0.00     0.040 A 
ATOM     12  F   UNL A   1      32.890  25.623  26.519  1.00  0.00    -0.206 F 
BRANCH   7  13
ATOM     13  N   UNL A   1      31.972  20.968  25.535  1.00  0.00    -0.324 N 
ATOM     14  O   UNL A   1      33.818  20.314  24.312  1.00  0.00    -0.273 OA
ATOM     15  C   UNL A   1      32.845  20.033  25.015  1.00  0.00     0.246 C 
ATOM     16  H   UNL A   1      31.336  20.643  26.214  1.00  0.00     0.170 HD
BRANCH  15  17
ATOM     17  C   UNL A   1      32.496  18.569  25.204  1.00  0.00     0.248 C 
BRANCH  17  18
ATOM     18  N   UNL A   1      33.299  17.570  24.540  1.00  0.00    -0.223 N 
ATOM     19  C   UNL A   1      33.324  17.305  23.204  1.00  0.00     0.246 A 
ATOM     20  N   UNL A   1      33.996  16.631  25.194  1.00  0.00    -0.045 NA
ATOM     21  N   UNL A   1      34.077  16.250  23.004  1.00  0.00    -0.117 NA
ATOM     22  N   UNL A   1      34.497  15.847  24.248  1.00  0.00    -0.024 NA
ENDBRANCH  17  18
ENDBRANCH  15  17
ENDBRANCH   7  13
ENDBRANCH   4   6
ENDBRANCH   3   4
ENDBRANCH   2   3
ENDBRANCH   1   2
BRANCH   1  23
ATOM     23  O   UNL A   1      37.286  22.580  24.600  1.00  0.00    -0.374 OA
BRANCH  23  24
ATOM     24  C   UNL A   1      37.756  21.372  25.184  1.00  0.00     0.202 C 
BRANCH  24  25
ATOM     25  C   UNL A   1      39.104  21.424  25.890  1.00  0.00     0.261 C 
BRANCH  25  26
ATOM     26  O   UNL A   1      39.209  22.516  26.796  1.00  0.00    -0.460 OA
BRANCH  26  27
ATOM     27  C   UNL A   1      40.442  22.669  27.333  1.00  0.00     0.338 C 
ATOM     28  O   UNL A   1      41.137  21.807  27.838  1.00  0.00    -0.246 OA
BRANCH  27  29
ATOM     29  C   UNL A   1      40.780  24.099  27.358  1.00  0.00     0.060 A 
ATOM     30  C   UNL A   1      41.752  24.490  28.279  1.00  0.00     0.016 A 
ATOM     31  C   UNL A   1      39.984  25.037  26.681  1.00  0.00     0.016 A 
ATOM     32  C   UNL A   1      41.802  25.813  28.664  1.00  0.00     0.010 A 
ATOM     33  C   UNL A   1      40.031  26.359  27.071  1.00  0.00     0.010 A 
ATOM     34  C   UNL A   1      40.884  26.713  28.113  1.00  0.00    -0.014 A 
BRANCH  34  35
ATOM     35  C   UNL A   1      40.850  28.043  28.680  1.00  0.00     0.031 A 
ATOM     36  C   UNL A   1      41.981  28.919  28.304  1.00  0.00     0.074 A 
ATOM     37  C   UNL A   1      39.828  28.478  29.437  1.00  0.00     0.049 A 
ATOM     38  N   UNL A   1      42.875  29.451  29.072  1.00  0.00    -0.248 NA
ATOM     39  C   UNL A   1      42.184  29.162  26.869  1.00  0.00     0.031 C 
ATOM     40  C   UNL A   1      38.511  27.871  29.640  1.00  0.00     0.029 A 
ATOM     41  N   UNL A   1      39.744  29.646  30.124  1.00  0.00    -0.354 N 
ATOM     42  C   UNL A   1      43.674  30.222  28.236  1.00  0.00     0.074 A 
ATOM     43  C   UNL A   1      43.278  29.921  26.883  1.00  0.00     0.031 C 
ATOM     44  C   UNL A   1      37.695  28.779  30.224  1.00  0.00     0.029 A 
ATOM     45  C   UNL A   1      38.468  29.967  30.548  1.00  0.00     0.049 A 
ATOM     46  H   UNL A   1      40.526  30.216  30.306  1.00  0.00     0.167 HD
ATOM     47  C   UNL A   1      44.500  31.193  28.706  1.00  0.00     0.037 A 
ATOM     48  C   UNL A   1      38.082  31.168  31.043  1.00  0.00     0.037 A 
ATOM     49  C   UNL A   1      44.787  31.042  30.104  1.00  0.00     0.049 A 
ATOM     50  C   UNL A   1      39.303  31.885  31.494  1.00  0.00     0.074 A 
ATOM     51  C   UNL A   1      45.397  30.056  30.857  1.00  0.00     0.029 A 
ATOM     52  N   UNL A   1      44.118  31.832  31.005  1.00  0.00    -0.354 N 
ATOM     53  N   UNL A   1      40.030  31.536  32.518  1.00  0.00    -0.248 NA
ATOM     54  C   UNL A   1      39.958  32.770  30.541  1.00  0.00     0.031 C 
ATOM     55  C   UNL A   1      44.665  30.016  32.079  1.00  0.00     0.029 A 
ATOM     56  C   UNL A   1      43.676  30.999  32.005  1.00  0.00     0.049 A 
ATOM     57  H   UNL A   1      43.981  32.805  30.947  1.00  0.00     0.167 HD
ATOM     58  C   UNL A   1      41.338  31.819  32.146  1.00  0.00     0.074 A 
ATOM     59  C   UNL A   1      41.220  32.663  30.961  1.00  0.00     0.031 C 
ATOM     60  C   UNL A   1      42.395  31.126  32.662  1.00  0.00     0.037 A 
BRANCH  47  61
ATOM     61  C   UNL A   1      44.829  32.426  27.921  1.00  0.00     0.057 A 
ATOM     62  C   UNL A   1      44.012  33.574  27.923  1.00  0.00     0.134 A 
ATOM     63  C   UNL A   1      46.089  32.580  27.326  1.00  0.00     0.134 A 
ATOM     64  F   UNL A   1      42.843  33.609  28.579  1.00  0.00    -0.206 F 
ATOM     65  C   UNL A   1      44.393  34.777  27.326  1.00  0.00     0.040 A 
ATOM     66  C   UNL A   1      46.505  33.796  26.771  1.00  0.00     0.040 A 
ATOM     67  F   UNL A   1      46.973  31.571  27.317  1.00  0.00    -0.206 F 
ATOM     68  C   UNL A   1      45.653  34.896  26.762  1.00  0.00     0.006 A 
ENDBRANCH  47  61
BRANCH  48  69
ATOM     69  C   UNL A   1      36.789  31.857  30.836  1.00  0.00     0.057 A 
ATOM     70  C   UNL A   1      36.481  32.517  29.633  1.00  0.00     0.134 A 
ATOM     71  C   UNL A   1      35.936  32.121  31.917  1.00  0.00     0.134 A 
ATOM     72  F   UNL A   1      37.270  32.403  28.555  1.00  0.00    -0.206 F 
ATOM     73  C   UNL A   1      35.401  33.395  29.513  1.00  0.00     0.040 A 
ATOM     74  C   UNL A   1      34.857  33.009  31.815  1.00  0.00     0.040 A 
ATOM     75  F   UNL A   1      36.169  31.572  33.118  1.00  0.00    -0.206 F 
ATOM     76  C   UNL A   1      34.593  33.657  30.611  1.00  0.00     0.006 A 
ENDBRANCH  48  69
BRANCH  60  77
ATOM     77  C   UNL A   1      42.138  30.199  33.820  1.00  0.00     0.057 A 
ATOM     78  C   UNL A   1      42.481  30.613  35.113  1.00  0.00     0.134 A 
ATOM     79  C   UNL A   1      41.732  28.865  33.671  1.00  0.00     0.134 A 
ATOM     80  F   UNL A   1      42.938  31.857  35.327  1.00  0.00    -0.206 F 
ATOM     81  C   UNL A   1      42.421  29.744  36.206  1.00  0.00     0.040 A 
ATOM     82  C   UNL A   1      41.635  27.994  34.761  1.00  0.00     0.040 A 
ATOM     83  F   UNL A   1      41.485  28.348  32.461  1.00  0.00    -0.206 F 
ATOM     84  C   UNL A   1      41.988  28.431  36.034  1.00  0.00     0.006 A 
ENDBRANCH  60  77
ENDBRANCH  34  35
ENDBRANCH  27  29
ENDBRANCH  26  27
ENDBRANCH  25  26
ENDBRANCH  24  25
ENDBRANCH  23  24
ENDBRANCH   1  23
TORSDOF 17
ENDMDL
MODEL 3
REMARK VINA RESULT:      -9.2      5.734     10.974
REMARK SMILES O=C(Cn1cnnn1)Nc1cccc(F)c1C(=O)OCCOCCOC(=O)c1ccc(-c2c3nc(c(-c4c(F)cccc4F)c4ccc([nH]4)c(-c4c(F)cccc4F)c4nc(c(-c5c(F)cccc5F)c5ccc2[nH]5)C=C4)C=C3)cc1
REMARK SMILES IDX 21 1 20 2 19 3 17 4 18 5 16 6 10 7 11 8 12 9 14 10 13 11
REMARK SMILES IDX 15 12 9 13 1 14 2 15 3 17 4 18 5 19 8 20 6 21 7 22 22 23
REMARK SMILES IDX 23 24 24 25 25 26 26 27 27 28 28 29 29 30 81 31 30 32 80 33
REMARK SMILES IDX 31 34 32 35 33 36 74 37 34 38 79 39 73 40 75 41 35 42 78 43
REMARK SMILES IDX 72 44 71 45 36 47 62 48 45 49 61 50 46 51 49 52 60 53 76 54
REMARK SMILES IDX 47 55 48 56 59 58 77 59 50 60 37 61 38 62 43 63 39 64 40 65
REMARK SMILES IDX 42 66 44 67 41 68 63 69 64 70 69 71 65 72 66 73 68 74 70 75
REMARK SMILES IDX 67 76 51 77 52 78 57 79 53 80 54 81 56 82 58 83 55 84
REMARK H PARENT 9 16 75 46 49 57
REMARK Flexibility Score: inf
ROOT
ATOM      1  C   UNL A   1      33.420  28.341  25.612  1.00  0.00     0.202 C 
ENDROOT
BRANCH   1   2
ATOM      2  C   UNL A   1      33.559  28.003  24.127  1.00  0.00     0.261 C 
BRANCH   2   3
ATOM      3  O   UNL A   1      34.009  26.650  23.935  1.00  0.00    -0.460 OA
BRANCH   3   4
ATOM      4  C   UNL A   1      33.545  26.048  22.813  1.00  0.00     0.343 C 
ATOM      5  O   UNL A   1      33.669  26.439  21.665  1.00  0.00    -0.246 OA
BRANCH   4   6
ATOM      6  C   UNL A   1      33.026  24.708  23.119  1.00  0.00     0.119 A 
ATOM      7  C   UNL A   1      31.644  24.508  23.335  1.00  0.00     0.058 A 
ATOM      8  C   UNL A   1      31.215  23.225  23.703  1.00  0.00     0.027 A 
ATOM      9  C   UNL A   1      32.128  22.177  23.870  1.00  0.00     0.005 A 
ATOM     10  C   UNL A   1      33.928  23.654  23.276  1.00  0.00     0.139 A 
ATOM     11  C   UNL A   1      33.486  22.391  23.655  1.00  0.00     0.040 A 
ATOM     12  F   UNL A   1      35.244  23.838  23.099  1.00  0.00    -0.206 F 
BRANCH   7  13
ATOM     13  N   UNL A   1      30.719  25.572  23.122  1.00  0.00    -0.324 N 
ATOM     14  O   UNL A   1      30.353  26.299  25.283  1.00  0.00    -0.273 OA
ATOM     15  C   UNL A   1      30.070  26.321  24.083  1.00  0.00     0.246 C 
ATOM     16  H   UNL A   1      30.520  25.796  22.183  1.00  0.00     0.170 HD
BRANCH  15  17
ATOM     17  C   UNL A   1      28.844  27.103  23.650  1.00  0.00     0.248 C 
BRANCH  17  18
ATOM     18  N   UNL A   1      29.022  28.298  22.861  1.00  0.00    -0.223 N 
ATOM     19  C   UNL A   1      28.045  29.160  22.463  1.00  0.00     0.246 A 
ATOM     20  N   UNL A   1      30.172  28.613  22.250  1.00  0.00    -0.045 NA
ATOM     21  N   UNL A   1      28.578  30.049  21.659  1.00  0.00    -0.117 NA
ATOM     22  N   UNL A   1      29.903  29.703  21.543  1.00  0.00    -0.024 NA
ENDBRANCH  17  18
ENDBRANCH  15  17
ENDBRANCH   7  13
ENDBRANCH   4   6
ENDBRANCH   3   4
ENDBRANCH   2   3
ENDBRANCH   1   2
BRANCH   1  23
ATOM     23  O   UNL A   1      32.215  28.994  26.014  1.00  0.00    -0.374 OA
BRANCH  23  24
ATOM     24  C   UNL A   1      32.259  29.926  27.085  1.00  0.00     0.202 C 
BRANCH  24  25
ATOM     25  C   UNL A   1      33.485  30.824  27.171  1.00  0.00     0.261 C 
BRANCH  25  26
ATOM     26  O   UNL A   1      34.448  30.352  28.107  1.00  0.00    -0.460 OA
BRANCH  26  27
ATOM     27  C   UNL A   1      35.247  31.321  28.611  1.00  0.00     0.338 C 
ATOM     28  O   UNL A   1      34.911  32.424  29.001  1.00  0.00    -0.246 OA
BRANCH  27  29
ATOM     29  C   UNL A   1      36.649  30.902  28.481  1.00  0.00     0.060 A 
ATOM     30  C   UNL A   1      36.886  29.757  27.719  1.00  0.00     0.016 A 
ATOM     31  C   UNL A   1      37.648  31.469  29.290  1.00  0.00     0.016 A 
ATOM     32  C   UNL A   1      38.065  29.070  27.909  1.00  0.00     0.010 A 
ATOM     33  C   UNL A   1      38.824  30.778  29.483  1.00  0.00     0.010 A 
ATOM     34  C   UNL A   1      38.983  29.548  28.851  1.00  0.00    -0.014 A 
BRANCH  34  35
ATOM     35  C   UNL A   1      40.115  28.699  29.152  1.00  0.00     0.031 A 
ATOM     36  C   UNL A   1      40.443  28.569  30.589  1.00  0.00     0.074 A 
ATOM     37  C   UNL A   1      40.779  28.018  28.202  1.00  0.00     0.049 A 
ATOM     38  N   UNL A   1      41.526  28.919  31.201  1.00  0.00    -0.248 NA
ATOM     39  C   UNL A   1      39.382  28.054  31.467  1.00  0.00     0.031 C 
ATOM     40  C   UNL A   1      40.402  27.784  26.807  1.00  0.00     0.029 A 
ATOM     41  N   UNL A   1      41.922  27.300  28.342  1.00  0.00    -0.354 N 
ATOM     42  C   UNL A   1      41.348  28.535  32.525  1.00  0.00     0.074 A 
ATOM     43  C   UNL A   1      39.976  28.113  32.658  1.00  0.00     0.031 C 
ATOM     44  C   UNL A   1      41.190  26.810  26.297  1.00  0.00     0.029 A 
ATOM     45  C   UNL A   1      42.199  26.456  27.283  1.00  0.00     0.049 A 
ATOM     46  H   UNL A   1      42.506  27.376  29.132  1.00  0.00     0.167 HD
ATOM     47  C   UNL A   1      42.383  28.421  33.397  1.00  0.00     0.037 A 
ATOM     48  C   UNL A   1      43.138  25.480  27.279  1.00  0.00     0.037 A 
ATOM     49  C   UNL A   1      43.549  29.136  32.964  1.00  0.00     0.049 A 
ATOM     50  C   UNL A   1      44.106  25.780  28.367  1.00  0.00     0.074 A 
ATOM     51  C   UNL A   1      43.817  30.468  32.706  1.00  0.00     0.029 A 
ATOM     52  N   UNL A   1      44.578  28.435  32.386  1.00  0.00    -0.354 N 
ATOM     53  N   UNL A   1      44.941  26.782  28.358  1.00  0.00    -0.248 NA
ATOM     54  C   UNL A   1      43.858  25.189  29.674  1.00  0.00     0.031 C 
ATOM     55  C   UNL A   1      44.696  30.457  31.584  1.00  0.00     0.029 A 
ATOM     56  C   UNL A   1      44.931  29.123  31.250  1.00  0.00     0.049 A 
ATOM     57  H   UNL A   1      44.982  27.602  32.719  1.00  0.00     0.167 HD
ATOM     58  C   UNL A   1      45.013  27.202  29.680  1.00  0.00     0.074 A 
ATOM     59  C   UNL A   1      44.402  26.127  30.454  1.00  0.00     0.031 C 
ATOM     60  C   UNL A   1      45.309  28.496  30.004  1.00  0.00     0.037 A 
BRANCH  47  61
ATOM     61  C   UNL A   1      42.388  27.432  34.524  1.00  0.00     0.057 A 
ATOM     62  C   UNL A   1      41.750  27.678  35.757  1.00  0.00     0.134 A 
ATOM     63  C   UNL A   1      42.832  26.119  34.322  1.00  0.00     0.134 A 
ATOM     64  F   UNL A   1      41.154  28.848  36.025  1.00  0.00    -0.206 F 
ATOM     65  C   UNL A   1      41.614  26.702  36.746  1.00  0.00     0.040 A 
ATOM     66  C   UNL A   1      42.654  25.118  35.284  1.00  0.00     0.040 A 
ATOM     67  F   UNL A   1      43.402  25.756  33.163  1.00  0.00    -0.206 F 
ATOM     68  C   UNL A   1      42.051  25.410  36.504  1.00  0.00     0.006 A 
ENDBRANCH  47  61
BRANCH  48  69
ATOM     69  C   UNL A   1      43.058  24.151  26.634  1.00  0.00     0.057 A 
ATOM     70  C   UNL A   1      42.306  23.099  27.187  1.00  0.00     0.134 A 
ATOM     71  C   UNL A   1      43.942  23.799  25.604  1.00  0.00     0.134 A 
ATOM     72  F   UNL A   1      41.486  23.301  28.228  1.00  0.00    -0.206 F 
ATOM     73  C   UNL A   1      42.433  21.777  26.754  1.00  0.00     0.040 A 
ATOM     74  C   UNL A   1      44.090  22.476  25.169  1.00  0.00     0.040 A 
ATOM     75  F   UNL A   1      44.733  24.724  25.040  1.00  0.00    -0.206 F 
ATOM     76  C   UNL A   1      43.341  21.457  25.752  1.00  0.00     0.006 A 
ENDBRANCH  48  69
BRANCH  60  77
ATOM     77  C   UNL A   1      45.786  29.410  28.908  1.00  0.00     0.057 A 
ATOM     78  C   UNL A   1      44.842  30.063  28.105  1.00  0.00     0.134 A 
ATOM     79  C   UNL A   1      47.129  29.520  28.520  1.00  0.00     0.134 A 
ATOM     80  F   UNL A   1      43.532  29.954  28.376  1.00  0.00    -0.206 F 
ATOM     81  C   UNL A   1      45.215  30.792  26.973  1.00  0.00     0.040 A 
ATOM     82  C   UNL A   1      47.519  30.275  27.409  1.00  0.00     0.040 A 
ATOM     83  F   UNL A   1      48.092  28.847  29.161  1.00  0.00    -0.206 F 
ATOM     84  C   UNL A   1      46.559  30.908  26.626  1.00  0.00     0.006 A 
ENDBRANCH  60  77
ENDBRANCH  34  35
ENDBRANCH  27  29
ENDBRANCH  26  27
ENDBRANCH  25  26
ENDBRANCH  24  25
ENDBRANCH  23  24
ENDBRANCH   1  23
TORSDOF 17
ENDMDL
