MODEL 1
REMARK VINA RESULT:     -10.4      0.000      0.000
REMARK SMILES CCCCCCCCNC(=O)Oc1cccc(-c2ccc([C@@H](C)C(=O)OCCOCCOC(=O)c3ccc(-c4c5nc(c(-c6c(F)cccc6F)c6ccc([nH]6)c(-c6c(F)cccc6F)c6nc(c(-c7c(F)cccc7F)c7ccc4[nH]7)C=C6)C=C5)cc3)cc2F)c1
REMARK SMILES IDX 22 1 23 2 21 3 18 4 19 5 90 6 20 7 89 8 91 9 17 10 13 11
REMARK SMILES IDX 14 12 92 13 15 14 16 15 12 16 10 17 9 18 11 20 8 21 7 22
REMARK SMILES IDX 6 23 5 24 4 25 3 26 2 27 1 28 24 29 25 30 26 31 27 32 28 33
REMARK SMILES IDX 29 34 30 35 31 36 32 37 33 38 34 39 35 40 36 41 88 42 37 43
REMARK SMILES IDX 87 44 38 45 39 46 40 47 81 48 41 49 86 50 80 51 82 52 42 53
REMARK SMILES IDX 85 54 79 55 78 56 43 58 69 59 52 60 68 61 53 62 56 63 67 64
REMARK SMILES IDX 83 65 54 66 55 67 66 69 84 70 57 71 44 72 45 73 50 74 46 75
REMARK SMILES IDX 47 76 49 77 51 78 48 79 70 80 71 81 76 82 72 83 73 84 75 85
REMARK SMILES IDX 77 86 74 87 58 88 59 89 64 90 60 91 61 92 63 93 65 94 62 95
REMARK H PARENT 9 19 82 57 56 68
REMARK Flexibility Score: inf
ROOT
ATOM      1  C   UNL A   1      32.461  26.981  25.405  1.00  0.00     0.126 C 
ATOM      2  C   UNL A   1      33.666  26.401  24.668  1.00  0.00     0.025 C 
ENDROOT
BRANCH   1   3
ATOM      3  C   UNL A   1      32.820  28.259  26.157  1.00  0.00    -0.031 A 
ATOM      4  C   UNL A   1      33.546  30.773  27.304  1.00  0.00     0.018 A 
ATOM      5  C   UNL A   1      34.376  29.645  27.426  1.00  0.00     0.012 A 
ATOM      6  C   UNL A   1      32.323  30.595  26.648  1.00  0.00     0.131 A 
ATOM      7  C   UNL A   1      34.023  28.410  26.861  1.00  0.00     0.005 A 
ATOM      8  C   UNL A   1      31.962  29.368  26.084  1.00  0.00     0.044 A 
ATOM      9  F   UNL A   1      31.478  31.626  26.494  1.00  0.00    -0.206 F 
BRANCH   4  10
ATOM     10  C   UNL A   1      33.987  32.097  27.783  1.00  0.00    -0.012 A 
ATOM     11  C   UNL A   1      33.534  34.331  28.621  1.00  0.00     0.133 A 
ATOM     12  C   UNL A   1      34.889  34.649  28.604  1.00  0.00     0.047 A 
ATOM     13  C   UNL A   1      33.074  33.078  28.204  1.00  0.00     0.056 A 
ATOM     14  C   UNL A   1      35.806  33.689  28.190  1.00  0.00     0.004 A 
ATOM     15  C   UNL A   1      35.358  32.428  27.786  1.00  0.00     0.009 A 
BRANCH  11  16
ATOM     16  O   UNL A   1      32.651  35.366  28.964  1.00  0.00    -0.410 OA
BRANCH  16  17
ATOM     17  C   UNL A   1      33.203  36.537  29.455  1.00  0.00     0.412 C 
ATOM     18  N   UNL A   1      33.279  36.563  30.820  1.00  0.00    -0.321 N 
ATOM     19  H   UNL A   1      33.692  37.361  31.222  1.00  0.00     0.167 HD
ATOM     20  O   UNL A   1      33.585  37.492  28.785  1.00  0.00    -0.224 OA
BRANCH  18  21
ATOM     21  C   UNL A   1      32.816  35.539  31.738  1.00  0.00     0.119 C 
BRANCH  21  22
ATOM     22  C   UNL A   1      33.955  34.641  32.221  1.00  0.00     0.021 C 
BRANCH  22  23
ATOM     23  C   UNL A   1      35.154  35.385  32.823  1.00  0.00     0.002 C 
BRANCH  23  24
ATOM     24  C   UNL A   1      36.520  34.735  32.579  1.00  0.00     0.000 C 
BRANCH  24  25
ATOM     25  C   UNL A   1      37.367  34.507  33.836  1.00  0.00    -0.000 C 
BRANCH  25  26
ATOM     26  C   UNL A   1      36.902  33.356  34.736  1.00  0.00    -0.000 C 
BRANCH  26  27
ATOM     27  C   UNL A   1      38.018  32.476  35.304  1.00  0.00    -0.003 C 
ATOM     28  C   UNL A   1      39.325  32.579  34.532  1.00  0.00     0.004 C 
ENDBRANCH  26  27
ENDBRANCH  25  26
ENDBRANCH  24  25
ENDBRANCH  23  24
ENDBRANCH  22  23
ENDBRANCH  21  22
ENDBRANCH  18  21
ENDBRANCH  16  17
ENDBRANCH  11  16
ENDBRANCH   4  10
ENDBRANCH   1   3
BRANCH   1  29
ATOM     29  C   UNL A   1      31.766  25.867  26.172  1.00  0.00     0.313 C 
ATOM     30  O   UNL A   1      30.702  26.051  26.753  1.00  0.00    -0.252 OA
BRANCH  29  31
ATOM     31  O   UNL A   1      32.411  24.672  26.112  1.00  0.00    -0.463 OA
BRANCH  31  32
ATOM     32  C   UNL A   1      31.681  23.594  25.501  1.00  0.00     0.261 C 
BRANCH  32  33
ATOM     33  C   UNL A   1      32.559  22.351  25.343  1.00  0.00     0.202 C 
BRANCH  33  34
ATOM     34  O   UNL A   1      33.969  22.566  25.384  1.00  0.00    -0.374 OA
BRANCH  34  35
ATOM     35  C   UNL A   1      34.800  21.627  24.700  1.00  0.00     0.202 C 
BRANCH  35  36
ATOM     36  C   UNL A   1      36.019  21.100  25.466  1.00  0.00     0.261 C 
BRANCH  36  37
ATOM     37  O   UNL A   1      37.261  21.539  24.888  1.00  0.00    -0.460 OA
BRANCH  37  38
ATOM     38  C   UNL A   1      38.373  21.095  25.524  1.00  0.00     0.338 C 
ATOM     39  O   UNL A   1      38.892  19.998  25.430  1.00  0.00    -0.246 OA
BRANCH  38  40
ATOM     40  C   UNL A   1      39.023  22.215  26.232  1.00  0.00     0.060 A 
ATOM     41  C   UNL A   1      38.500  23.498  26.025  1.00  0.00     0.016 A 
ATOM     42  C   UNL A   1      40.163  22.031  27.015  1.00  0.00     0.016 A 
ATOM     43  C   UNL A   1      39.143  24.611  26.564  1.00  0.00     0.010 A 
ATOM     44  C   UNL A   1      40.813  23.150  27.549  1.00  0.00     0.010 A 
ATOM     45  C   UNL A   1      40.325  24.446  27.297  1.00  0.00    -0.014 A 
BRANCH  45  46
ATOM     46  C   UNL A   1      41.127  25.635  27.674  1.00  0.00     0.031 A 
ATOM     47  C   UNL A   1      40.487  26.712  28.507  1.00  0.00     0.074 A 
ATOM     48  C   UNL A   1      42.413  25.748  27.301  1.00  0.00     0.049 A 
ATOM     49  N   UNL A   1      40.975  27.862  28.896  1.00  0.00    -0.248 NA
ATOM     50  C   UNL A   1      39.110  26.457  28.961  1.00  0.00     0.031 C 
ATOM     51  C   UNL A   1      43.163  24.752  26.538  1.00  0.00     0.029 A 
ATOM     52  N   UNL A   1      43.314  26.763  27.509  1.00  0.00    -0.354 N 
ATOM     53  C   UNL A   1      39.965  28.471  29.628  1.00  0.00     0.074 A 
ATOM     54  C   UNL A   1      38.828  27.576  29.611  1.00  0.00     0.031 C 
ATOM     55  C   UNL A   1      44.407  25.214  26.325  1.00  0.00     0.029 A 
ATOM     56  C   UNL A   1      44.529  26.549  26.906  1.00  0.00     0.049 A 
ATOM     57  H   UNL A   1      43.109  27.566  28.039  1.00  0.00     0.167 HD
ATOM     58  C   UNL A   1      39.984  29.668  30.263  1.00  0.00     0.037 A 
ATOM     59  C   UNL A   1      45.607  27.353  26.810  1.00  0.00     0.037 A 
ATOM     60  C   UNL A   1      41.116  30.556  30.283  1.00  0.00     0.049 A 
ATOM     61  C   UNL A   1      45.577  28.712  27.458  1.00  0.00     0.074 A 
ATOM     62  C   UNL A   1      41.240  31.781  30.917  1.00  0.00     0.029 A 
ATOM     63  N   UNL A   1      42.318  30.318  29.634  1.00  0.00    -0.354 N 
ATOM     64  N   UNL A   1      44.625  29.273  28.163  1.00  0.00    -0.248 NA
ATOM     65  C   UNL A   1      46.773  29.553  27.293  1.00  0.00     0.031 C 
ATOM     66  C   UNL A   1      42.499  32.306  30.610  1.00  0.00     0.029 A 
ATOM     67  C   UNL A   1      43.178  31.385  29.828  1.00  0.00     0.049 A 
ATOM     68  H   UNL A   1      42.528  29.510  29.114  1.00  0.00     0.167 HD
ATOM     69  C   UNL A   1      45.115  30.514  28.550  1.00  0.00     0.074 A 
ATOM     70  C   UNL A   1      46.453  30.623  28.009  1.00  0.00     0.031 C 
ATOM     71  C   UNL A   1      44.512  31.475  29.291  1.00  0.00     0.037 A 
BRANCH  58  72
ATOM     72  C   UNL A   1      38.731  30.099  30.966  1.00  0.00     0.057 A 
ATOM     73  C   UNL A   1      37.808  30.968  30.370  1.00  0.00     0.134 A 
ATOM     74  C   UNL A   1      38.428  29.611  32.243  1.00  0.00     0.134 A 
ATOM     75  F   UNL A   1      38.045  31.481  29.153  1.00  0.00    -0.206 F 
ATOM     76  C   UNL A   1      36.638  31.351  31.027  1.00  0.00     0.040 A 
ATOM     77  C   UNL A   1      37.250  29.968  32.901  1.00  0.00     0.040 A 
ATOM     78  F   UNL A   1      39.267  28.772  32.868  1.00  0.00    -0.206 F 
ATOM     79  C   UNL A   1      36.353  30.845  32.294  1.00  0.00     0.006 A 
ENDBRANCH  58  72
BRANCH  59  80
ATOM     80  C   UNL A   1      46.800  26.906  26.050  1.00  0.00     0.057 A 
ATOM     81  C   UNL A   1      47.782  26.104  26.643  1.00  0.00     0.134 A 
ATOM     82  C   UNL A   1      46.999  27.288  24.717  1.00  0.00     0.134 A 
ATOM     83  F   UNL A   1      47.661  25.726  27.924  1.00  0.00    -0.206 F 
ATOM     84  C   UNL A   1      48.924  25.710  25.944  1.00  0.00     0.040 A 
ATOM     85  C   UNL A   1      48.124  26.881  23.999  1.00  0.00     0.040 A 
ATOM     86  F   UNL A   1      46.095  28.057  24.091  1.00  0.00    -0.206 F 
ATOM     87  C   UNL A   1      49.094  26.095  24.615  1.00  0.00     0.006 A 
ENDBRANCH  59  80
BRANCH  71  88
ATOM     88  C   UNL A   1      45.304  32.715  29.596  1.00  0.00     0.057 A 
ATOM     89  C   UNL A   1      46.159  32.792  30.701  1.00  0.00     0.134 A 
ATOM     90  C   UNL A   1      45.252  33.821  28.738  1.00  0.00     0.134 A 
ATOM     91  F   UNL A   1      46.245  31.772  31.568  1.00  0.00    -0.206 F 
ATOM     92  C   UNL A   1      46.923  33.934  30.952  1.00  0.00     0.040 A 
ATOM     93  C   UNL A   1      46.030  34.956  28.963  1.00  0.00     0.040 A 
ATOM     94  F   UNL A   1      44.460  33.807  27.656  1.00  0.00    -0.206 F 
ATOM     95  C   UNL A   1      46.867  35.016  30.076  1.00  0.00     0.006 A 
ENDBRANCH  71  88
ENDBRANCH  45  46
ENDBRANCH  38  40
ENDBRANCH  37  38
ENDBRANCH  36  37
ENDBRANCH  35  36
ENDBRANCH  34  35
ENDBRANCH  33  34
ENDBRANCH  32  33
ENDBRANCH  31  32
ENDBRANCH  29  31
ENDBRANCH   1  29
TORSDOF 25
ENDMDL
MODEL 2
REMARK VINA RESULT:     -10.1      1.176      5.963
REMARK SMILES CCCCCCCCNC(=O)Oc1cccc(-c2ccc([C@@H](C)C(=O)OCCOCCOC(=O)c3ccc(-c4c5nc(c(-c6c(F)cccc6F)c6ccc([nH]6)c(-c6c(F)cccc6F)c6nc(c(-c7c(F)cccc7F)c7ccc4[nH]7)C=C6)C=C5)cc3)cc2F)c1
REMARK SMILES IDX 22 1 23 2 21 3 18 4 19 5 90 6 20 7 89 8 91 9 17 10 13 11
REMARK SMILES IDX 14 12 92 13 15 14 16 15 12 16 10 17 9 18 11 20 8 21 7 22
REMARK SMILES IDX 6 23 5 24 4 25 3 26 2 27 1 28 24 29 25 30 26 31 27 32 28 33
REMARK SMILES IDX 29 34 30 35 31 36 32 37 33 38 34 39 35 40 36 41 88 42 37 43
REMARK SMILES IDX 87 44 38 45 39 46 40 47 81 48 41 49 86 50 80 51 82 52 42 53
REMARK SMILES IDX 85 54 79 55 78 56 43 58 69 59 52 60 68 61 53 62 56 63 67 64
REMARK SMILES IDX 83 65 54 66 55 67 66 69 84 70 57 71 44 72 45 73 50 74 46 75
REMARK SMILES IDX 47 76 49 77 51 78 48 79 70 80 71 81 76 82 72 83 73 84 75 85
REMARK SMILES IDX 77 86 74 87 58 88 59 89 64 90 60 91 61 92 63 93 65 94 62 95
REMARK H PARENT 9 19 82 57 56 68
REMARK Flexibility Score: inf
ROOT
ATOM      1  C   UNL A   1      31.234  24.870  24.648  1.00  0.00     0.126 C 
ATOM      2  C   UNL A   1      30.239  25.162  23.528  1.00  0.00     0.025 C 
ENDROOT
BRANCH   1   3
ATOM      3  C   UNL A   1      31.808  26.152  25.242  1.00  0.00    -0.031 A 
ATOM      4  C   UNL A   1      33.134  28.406  26.393  1.00  0.00     0.018 A 
ATOM      5  C   UNL A   1      32.125  27.717  27.087  1.00  0.00     0.012 A 
ATOM      6  C   UNL A   1      33.419  27.976  25.092  1.00  0.00     0.131 A 
ATOM      7  C   UNL A   1      31.474  26.608  26.525  1.00  0.00     0.005 A 
ATOM      8  C   UNL A   1      32.774  26.874  24.523  1.00  0.00     0.044 A 
ATOM      9  F   UNL A   1      34.370  28.587  24.368  1.00  0.00    -0.206 F 
BRANCH   4  10
ATOM     10  C   UNL A   1      33.905  29.484  27.043  1.00  0.00    -0.012 A 
ATOM     11  C   UNL A   1      34.088  31.706  28.003  1.00  0.00     0.133 A 
ATOM     12  C   UNL A   1      35.457  31.545  28.202  1.00  0.00     0.047 A 
ATOM     13  C   UNL A   1      33.313  30.701  27.418  1.00  0.00     0.056 A 
ATOM     14  C   UNL A   1      36.058  30.346  27.836  1.00  0.00     0.004 A 
ATOM     15  C   UNL A   1      35.289  29.328  27.265  1.00  0.00     0.009 A 
BRANCH  11  16
ATOM     16  O   UNL A   1      33.555  32.967  28.310  1.00  0.00    -0.410 OA
BRANCH  16  17
ATOM     17  C   UNL A   1      34.415  34.051  28.264  1.00  0.00     0.412 C 
ATOM     18  N   UNL A   1      34.766  34.511  29.502  1.00  0.00    -0.321 N 
ATOM     19  H   UNL A   1      35.401  35.262  29.529  1.00  0.00     0.167 HD
ATOM     20  O   UNL A   1      34.838  34.595  27.247  1.00  0.00    -0.224 OA
BRANCH  18  21
ATOM     21  C   UNL A   1      34.302  34.009  30.782  1.00  0.00     0.119 C 
BRANCH  21  22
ATOM     22  C   UNL A   1      33.958  35.138  31.754  1.00  0.00     0.021 C 
BRANCH  22  23
ATOM     23  C   UNL A   1      35.072  35.499  32.745  1.00  0.00     0.002 C 
BRANCH  23  24
ATOM     24  C   UNL A   1      35.151  34.615  33.995  1.00  0.00     0.000 C 
BRANCH  24  25
ATOM     25  C   UNL A   1      36.568  34.313  34.490  1.00  0.00    -0.000 C 
BRANCH  25  26
ATOM     26  C   UNL A   1      36.647  33.455  35.758  1.00  0.00    -0.000 C 
BRANCH  26  27
ATOM     27  C   UNL A   1      38.060  33.063  36.200  1.00  0.00    -0.003 C 
ATOM     28  C   UNL A   1      38.200  31.590  36.548  1.00  0.00     0.004 C 
ENDBRANCH  26  27
ENDBRANCH  25  26
ENDBRANCH  24  25
ENDBRANCH  23  24
ENDBRANCH  22  23
ENDBRANCH  21  22
ENDBRANCH  18  21
ENDBRANCH  16  17
ENDBRANCH  11  16
ENDBRANCH   4  10
ENDBRANCH   1   3
BRANCH   1  29
ATOM     29  C   UNL A   1      32.204  23.797  24.180  1.00  0.00     0.313 C 
ATOM     30  O   UNL A   1      32.471  23.642  22.993  1.00  0.00    -0.252 OA
BRANCH  29  31
ATOM     31  O   UNL A   1      32.760  23.078  25.191  1.00  0.00    -0.463 OA
BRANCH  31  32
ATOM     32  C   UNL A   1      32.336  21.708  25.293  1.00  0.00     0.261 C 
BRANCH  32  33
ATOM     33  C   UNL A   1      33.465  20.749  24.909  1.00  0.00     0.202 C 
BRANCH  33  34
ATOM     34  O   UNL A   1      34.717  21.350  24.579  1.00  0.00    -0.374 OA
BRANCH  34  35
ATOM     35  C   UNL A   1      35.771  21.247  25.537  1.00  0.00     0.202 C 
BRANCH  35  36
ATOM     36  C   UNL A   1      37.010  20.449  25.114  1.00  0.00     0.261 C 
BRANCH  36  37
ATOM     37  O   UNL A   1      38.183  21.274  25.005  1.00  0.00    -0.460 OA
BRANCH  37  38
ATOM     38  C   UNL A   1      39.161  20.997  25.904  1.00  0.00     0.338 C 
ATOM     39  O   UNL A   1      39.718  19.931  26.087  1.00  0.00    -0.246 OA
BRANCH  38  40
ATOM     40  C   UNL A   1      39.626  22.247  26.534  1.00  0.00     0.060 A 
ATOM     41  C   UNL A   1      39.018  23.441  26.124  1.00  0.00     0.016 A 
ATOM     42  C   UNL A   1      40.685  22.265  27.443  1.00  0.00     0.016 A 
ATOM     43  C   UNL A   1      39.497  24.665  26.588  1.00  0.00     0.010 A 
ATOM     44  C   UNL A   1      41.170  23.496  27.901  1.00  0.00     0.010 A 
ATOM     45  C   UNL A   1      40.600  24.701  27.449  1.00  0.00    -0.014 A 
BRANCH  45  46
ATOM     46  C   UNL A   1      41.248  25.999  27.760  1.00  0.00     0.031 A 
ATOM     47  C   UNL A   1      42.639  26.259  27.253  1.00  0.00     0.074 A 
ATOM     48  C   UNL A   1      40.601  26.943  28.465  1.00  0.00     0.049 A 
ATOM     49  N   UNL A   1      43.420  27.289  27.458  1.00  0.00    -0.248 NA
ATOM     50  C   UNL A   1      43.232  25.215  26.400  1.00  0.00     0.031 C 
ATOM     51  C   UNL A   1      39.233  26.834  28.968  1.00  0.00     0.029 A 
ATOM     52  N   UNL A   1      41.018  28.180  28.887  1.00  0.00    -0.354 N 
ATOM     53  C   UNL A   1      44.595  27.014  26.771  1.00  0.00     0.074 A 
ATOM     54  C   UNL A   1      44.436  25.711  26.163  1.00  0.00     0.031 C 
ATOM     55  C   UNL A   1      38.929  27.952  29.648  1.00  0.00     0.029 A 
ATOM     56  C   UNL A   1      40.092  28.838  29.657  1.00  0.00     0.049 A 
ATOM     57  H   UNL A   1      41.897  28.560  28.661  1.00  0.00     0.167 HD
ATOM     58  C   UNL A   1      45.705  27.781  26.655  1.00  0.00     0.037 A 
ATOM     59  C   UNL A   1      40.182  30.009  30.318  1.00  0.00     0.037 A 
ATOM     60  C   UNL A   1      45.861  29.078  27.257  1.00  0.00     0.049 A 
ATOM     61  C   UNL A   1      41.456  30.809  30.238  1.00  0.00     0.074 A 
ATOM     62  C   UNL A   1      46.940  29.942  27.178  1.00  0.00     0.029 A 
ATOM     63  N   UNL A   1      44.912  29.697  28.056  1.00  0.00    -0.354 N 
ATOM     64  N   UNL A   1      42.556  30.550  29.572  1.00  0.00    -0.248 NA
ATOM     65  C   UNL A   1      41.502  32.064  31.003  1.00  0.00     0.031 C 
ATOM     66  C   UNL A   1      46.664  31.061  27.969  1.00  0.00     0.029 A 
ATOM     67  C   UNL A   1      45.391  30.918  28.500  1.00  0.00     0.049 A 
ATOM     68  H   UNL A   1      44.027  29.324  28.274  1.00  0.00     0.167 HD
ATOM     69  C   UNL A   1      43.410  31.619  29.813  1.00  0.00     0.074 A 
ATOM     70  C   UNL A   1      42.699  32.535  30.680  1.00  0.00     0.031 C 
ATOM     71  C   UNL A   1      44.668  31.824  29.355  1.00  0.00     0.037 A 
BRANCH  58  72
ATOM     72  C   UNL A   1      46.853  27.223  25.866  1.00  0.00     0.057 A 
ATOM     73  C   UNL A   1      47.005  27.477  24.497  1.00  0.00     0.134 A 
ATOM     74  C   UNL A   1      47.837  26.449  26.494  1.00  0.00     0.134 A 
ATOM     75  F   UNL A   1      46.091  28.200  23.833  1.00  0.00    -0.206 F 
ATOM     76  C   UNL A   1      48.085  26.964  23.776  1.00  0.00     0.040 A 
ATOM     77  C   UNL A   1      48.934  25.951  25.789  1.00  0.00     0.040 A 
ATOM     78  F   UNL A   1      47.754  26.173  27.804  1.00  0.00    -0.206 F 
ATOM     79  C   UNL A   1      49.058  26.204  24.425  1.00  0.00     0.006 A 
ENDBRANCH  58  72
BRANCH  59  80
ATOM     80  C   UNL A   1      39.042  30.490  31.137  1.00  0.00     0.057 A 
ATOM     81  C   UNL A   1      38.751  29.921  32.382  1.00  0.00     0.134 A 
ATOM     82  C   UNL A   1      38.201  31.515  30.685  1.00  0.00     0.134 A 
ATOM     83  F   UNL A   1      39.504  28.919  32.859  1.00  0.00    -0.206 F 
ATOM     84  C   UNL A   1      37.659  30.344  33.143  1.00  0.00     0.040 A 
ATOM     85  C   UNL A   1      37.121  31.964  31.445  1.00  0.00     0.040 A 
ATOM     86  F   UNL A   1      38.426  32.100  29.499  1.00  0.00    -0.206 F 
ATOM     87  C   UNL A   1      36.843  31.373  32.675  1.00  0.00     0.006 A 
ENDBRANCH  59  80
BRANCH  71  88
ATOM     88  C   UNL A   1      45.349  33.105  29.746  1.00  0.00     0.057 A 
ATOM     89  C   UNL A   1      46.279  33.158  30.790  1.00  0.00     0.134 A 
ATOM     90  C   UNL A   1      45.113  34.284  29.027  1.00  0.00     0.134 A 
ATOM     91  F   UNL A   1      46.541  32.067  31.525  1.00  0.00    -0.206 F 
ATOM     92  C   UNL A   1      46.938  34.345  31.119  1.00  0.00     0.040 A 
ATOM     93  C   UNL A   1      45.784  35.469  29.329  1.00  0.00     0.040 A 
ATOM     94  F   UNL A   1      44.241  34.298  28.008  1.00  0.00    -0.206 F 
ATOM     95  C   UNL A   1      46.698  35.502  30.380  1.00  0.00     0.006 A 
ENDBRANCH  71  88
ENDBRANCH  45  46
ENDBRANCH  38  40
ENDBRANCH  37  38
ENDBRANCH  36  37
ENDBRANCH  35  36
ENDBRANCH  34  35
ENDBRANCH  33  34
ENDBRANCH  32  33
ENDBRANCH  31  32
ENDBRANCH  29  31
ENDBRANCH   1  29
TORSDOF 25
ENDMDL
MODEL 3
REMARK VINA RESULT:     -10.0      1.111      2.034
REMARK SMILES CCCCCCCCNC(=O)Oc1cccc(-c2ccc([C@@H](C)C(=O)OCCOCCOC(=O)c3ccc(-c4c5nc(c(-c6c(F)cccc6F)c6ccc([nH]6)c(-c6c(F)cccc6F)c6nc(c(-c7c(F)cccc7F)c7ccc4[nH]7)C=C6)C=C5)cc3)cc2F)c1
REMARK SMILES IDX 22 1 23 2 21 3 18 4 19 5 90 6 20 7 89 8 91 9 17 10 13 11
REMARK SMILES IDX 14 12 92 13 15 14 16 15 12 16 10 17 9 18 11 20 8 21 7 22
REMARK SMILES IDX 6 23 5 24 4 25 3 26 2 27 1 28 24 29 25 30 26 31 27 32 28 33
REMARK SMILES IDX 29 34 30 35 31 36 32 37 33 38 34 39 35 40 36 41 88 42 37 43
REMARK SMILES IDX 87 44 38 45 39 46 40 47 81 48 41 49 86 50 80 51 82 52 42 53
REMARK SMILES IDX 85 54 79 55 78 56 43 58 69 59 52 60 68 61 53 62 56 63 67 64
REMARK SMILES IDX 83 65 54 66 55 67 66 69 84 70 57 71 44 72 45 73 50 74 46 75
REMARK SMILES IDX 47 76 49 77 51 78 48 79 70 80 71 81 76 82 72 83 73 84 75 85
REMARK SMILES IDX 77 86 74 87 58 88 59 89 64 90 60 91 61 92 63 93 65 94 62 95
REMARK H PARENT 9 19 82 57 56 68
REMARK Flexibility Score: inf
ROOT
ATOM      1  C   UNL A   1      31.029  25.045  24.681  1.00  0.00     0.126 C 
ATOM      2  C   UNL A   1      30.012  25.342  23.582  1.00  0.00     0.025 C 
ENDROOT
BRANCH   1   3
ATOM      3  C   UNL A   1      31.634  26.324  25.251  1.00  0.00    -0.031 A 
ATOM      4  C   UNL A   1      33.012  28.564  26.369  1.00  0.00     0.018 A 
ATOM      5  C   UNL A   1      31.960  27.934  27.056  1.00  0.00     0.012 A 
ATOM      6  C   UNL A   1      33.314  28.083  25.089  1.00  0.00     0.131 A 
ATOM      7  C   UNL A   1      31.284  26.832  26.510  1.00  0.00     0.005 A 
ATOM      8  C   UNL A   1      32.645  26.988  24.537  1.00  0.00     0.044 A 
ATOM      9  F   UNL A   1      34.305  28.637  24.373  1.00  0.00    -0.206 F 
BRANCH   4  10
ATOM     10  C   UNL A   1      33.804  29.633  27.006  1.00  0.00    -0.012 A 
ATOM     11  C   UNL A   1      34.016  31.835  28.008  1.00  0.00     0.133 A 
ATOM     12  C   UNL A   1      35.394  31.681  28.138  1.00  0.00     0.047 A 
ATOM     13  C   UNL A   1      33.221  30.836  27.437  1.00  0.00     0.056 A 
ATOM     14  C   UNL A   1      35.986  30.496  27.716  1.00  0.00     0.004 A 
ATOM     15  C   UNL A   1      35.198  29.485  27.159  1.00  0.00     0.009 A 
BRANCH  11  16
ATOM     16  O   UNL A   1      33.488  33.083  28.368  1.00  0.00    -0.410 OA
BRANCH  16  17
ATOM     17  C   UNL A   1      34.327  34.181  28.274  1.00  0.00     0.412 C 
ATOM     18  N   UNL A   1      34.516  34.817  29.469  1.00  0.00    -0.321 N 
ATOM     19  H   UNL A   1      35.128  35.588  29.465  1.00  0.00     0.167 HD
ATOM     20  O   UNL A   1      34.860  34.597  27.248  1.00  0.00    -0.224 OA
BRANCH  18  21
ATOM     21  C   UNL A   1      33.909  34.477  30.742  1.00  0.00     0.119 C 
BRANCH  21  22
ATOM     22  C   UNL A   1      33.671  35.710  31.614  1.00  0.00     0.021 C 
BRANCH  22  23
ATOM     23  C   UNL A   1      34.667  35.889  32.767  1.00  0.00     0.002 C 
BRANCH  23  24
ATOM     24  C   UNL A   1      35.829  34.889  32.792  1.00  0.00     0.000 C 
BRANCH  24  25
ATOM     25  C   UNL A   1      36.288  34.459  34.188  1.00  0.00    -0.000 C 
BRANCH  25  26
ATOM     26  C   UNL A   1      37.742  33.982  34.279  1.00  0.00    -0.000 C 
BRANCH  26  27
ATOM     27  C   UNL A   1      38.408  34.162  35.646  1.00  0.00    -0.003 C 
ATOM     28  C   UNL A   1      37.716  33.396  36.763  1.00  0.00     0.004 C 
ENDBRANCH  26  27
ENDBRANCH  25  26
ENDBRANCH  24  25
ENDBRANCH  23  24
ENDBRANCH  22  23
ENDBRANCH  21  22
ENDBRANCH  18  21
ENDBRANCH  16  17
ENDBRANCH  11  16
ENDBRANCH   4  10
ENDBRANCH   1   3
BRANCH   1  29
ATOM     29  C   UNL A   1      31.974  23.956  24.199  1.00  0.00     0.313 C 
ATOM     30  O   UNL A   1      32.136  23.724  23.005  1.00  0.00    -0.252 OA
BRANCH  29  31
ATOM     31  O   UNL A   1      32.633  23.315  25.200  1.00  0.00    -0.463 OA
BRANCH  31  32
ATOM     32  C   UNL A   1      32.043  22.083  25.651  1.00  0.00     0.261 C 
BRANCH  32  33
ATOM     33  C   UNL A   1      32.874  20.877  25.207  1.00  0.00     0.202 C 
BRANCH  33  34
ATOM     34  O   UNL A   1      34.165  21.163  24.674  1.00  0.00    -0.374 OA
BRANCH  34  35
ATOM     35  C   UNL A   1      35.266  21.178  25.583  1.00  0.00     0.202 C 
BRANCH  35  36
ATOM     36  C   UNL A   1      36.586  20.584  25.077  1.00  0.00     0.261 C 
BRANCH  36  37
ATOM     37  O   UNL A   1      37.660  21.541  25.090  1.00  0.00    -0.460 OA
BRANCH  37  38
ATOM     38  C   UNL A   1      38.763  21.150  25.774  1.00  0.00     0.338 C 
ATOM     39  O   UNL A   1      39.300  20.058  25.753  1.00  0.00    -0.246 OA
BRANCH  38  40
ATOM     40  C   UNL A   1      39.380  22.318  26.433  1.00  0.00     0.060 A 
ATOM     41  C   UNL A   1      38.899  23.585  26.082  1.00  0.00     0.016 A 
ATOM     42  C   UNL A   1      40.456  22.185  27.312  1.00  0.00     0.016 A 
ATOM     43  C   UNL A   1      39.521  24.731  26.573  1.00  0.00     0.010 A 
ATOM     44  C   UNL A   1      41.086  23.337  27.798  1.00  0.00     0.010 A 
ATOM     45  C   UNL A   1      40.642  24.614  27.403  1.00  0.00    -0.014 A 
BRANCH  45  46
ATOM     46  C   UNL A   1      41.437  25.820  27.739  1.00  0.00     0.031 A 
ATOM     47  C   UNL A   1      40.815  26.887  28.598  1.00  0.00     0.074 A 
ATOM     48  C   UNL A   1      42.702  25.958  27.306  1.00  0.00     0.049 A 
ATOM     49  N   UNL A   1      41.297  28.048  28.961  1.00  0.00    -0.248 NA
ATOM     50  C   UNL A   1      39.466  26.606  29.117  1.00  0.00     0.031 C 
ATOM     51  C   UNL A   1      43.435  24.974  26.511  1.00  0.00     0.029 A 
ATOM     52  N   UNL A   1      43.591  26.991  27.469  1.00  0.00    -0.354 N 
ATOM     53  C   UNL A   1      40.310  28.640  29.738  1.00  0.00     0.074 A 
ATOM     54  C   UNL A   1      39.193  27.721  29.776  1.00  0.00     0.031 C 
ATOM     55  C   UNL A   1      44.658  25.460  26.239  1.00  0.00     0.029 A 
ATOM     56  C   UNL A   1      44.780  26.800  26.810  1.00  0.00     0.049 A 
ATOM     57  H   UNL A   1      43.395  27.792  28.005  1.00  0.00     0.167 HD
ATOM     58  C   UNL A   1      40.335  29.839  30.368  1.00  0.00     0.037 A 
ATOM     59  C   UNL A   1      45.836  27.624  26.662  1.00  0.00     0.037 A 
ATOM     60  C   UNL A   1      41.448  30.749  30.332  1.00  0.00     0.049 A 
ATOM     61  C   UNL A   1      45.809  28.985  27.306  1.00  0.00     0.074 A 
ATOM     62  C   UNL A   1      41.577  31.979  30.955  1.00  0.00     0.029 A 
ATOM     63  N   UNL A   1      42.623  30.534  29.628  1.00  0.00    -0.354 N 
ATOM     64  N   UNL A   1      44.879  29.530  28.054  1.00  0.00    -0.248 NA
ATOM     65  C   UNL A   1      46.979  29.849  27.083  1.00  0.00     0.031 C 
ATOM     66  C   UNL A   1      42.809  32.528  30.589  1.00  0.00     0.029 A 
ATOM     67  C   UNL A   1      43.470  31.618  29.779  1.00  0.00     0.049 A 
ATOM     68  H   UNL A   1      42.825  29.727  29.101  1.00  0.00     0.167 HD
ATOM     69  C   UNL A   1      45.362  30.782  28.414  1.00  0.00     0.074 A 
ATOM     70  C   UNL A   1      46.671  30.916  27.810  1.00  0.00     0.031 C 
ATOM     71  C   UNL A   1      44.775  31.733  29.179  1.00  0.00     0.037 A 
BRANCH  58  72
ATOM     72  C   UNL A   1      39.108  30.247  31.127  1.00  0.00     0.057 A 
ATOM     73  C   UNL A   1      38.171  31.142  30.596  1.00  0.00     0.134 A 
ATOM     74  C   UNL A   1      38.844  29.711  32.393  1.00  0.00     0.134 A 
ATOM     75  F   UNL A   1      38.371  31.703  29.393  1.00  0.00    -0.206 F 
ATOM     76  C   UNL A   1      37.025  31.505  31.305  1.00  0.00     0.040 A 
ATOM     77  C   UNL A   1      37.689  30.046  33.102  1.00  0.00     0.040 A 
ATOM     78  F   UNL A   1      39.698  28.844  32.957  1.00  0.00    -0.206 F 
ATOM     79  C   UNL A   1      36.778  30.950  32.561  1.00  0.00     0.006 A 
ENDBRANCH  58  72
BRANCH  59  80
ATOM     80  C   UNL A   1      47.001  27.199  25.847  1.00  0.00     0.057 A 
ATOM     81  C   UNL A   1      47.070  27.478  24.477  1.00  0.00     0.134 A 
ATOM     82  C   UNL A   1      48.064  26.485  26.414  1.00  0.00     0.134 A 
ATOM     83  F   UNL A   1      46.072  28.136  23.871  1.00  0.00    -0.206 F 
ATOM     84  C   UNL A   1      48.147  27.050  23.698  1.00  0.00     0.040 A 
ATOM     85  C   UNL A   1      49.158  26.073  25.652  1.00  0.00     0.040 A 
ATOM     86  F   UNL A   1      48.057  26.186  27.722  1.00  0.00    -0.206 F 
ATOM     87  C   UNL A   1      49.198  26.350  24.288  1.00  0.00     0.006 A 
ENDBRANCH  59  80
BRANCH  71  88
ATOM     88  C   UNL A   1      45.554  32.990  29.443  1.00  0.00     0.057 A 
ATOM     89  C   UNL A   1      45.539  34.070  28.554  1.00  0.00     0.134 A 
ATOM     90  C   UNL A   1      46.280  33.139  30.632  1.00  0.00     0.134 A 
ATOM     91  F   UNL A   1      44.872  33.986  27.393  1.00  0.00    -0.206 F 
ATOM     92  C   UNL A   1      46.233  35.250  28.829  1.00  0.00     0.040 A 
ATOM     93  C   UNL A   1      46.956  34.323  30.930  1.00  0.00     0.040 A 
ATOM     94  F   UNL A   1      46.328  32.145  31.531  1.00  0.00    -0.206 F 
ATOM     95  C   UNL A   1      46.936  35.381  30.025  1.00  0.00     0.006 A 
ENDBRANCH  71  88
ENDBRANCH  45  46
ENDBRANCH  38  40
ENDBRANCH  37  38
ENDBRANCH  36  37
ENDBRANCH  35  36
ENDBRANCH  34  35
ENDBRANCH  33  34
ENDBRANCH  32  33
ENDBRANCH  31  32
ENDBRANCH  29  31
ENDBRANCH   1  29
TORSDOF 25
ENDMDL
