MODEL 1
REMARK VINA RESULT:     -11.6      0.000      0.000
REMARK SMILES O=C(N[C@@H](Cc1ccc(O)cc1)C(=O)N[C@@H](CO)C(=O)OCCOCCOC(=O)c1ccc(-c2c3nc(c(-c4c(F)cccc4F)c4ccc([nH]4)c(-c4c(F)cccc4F)c4nc(c(-c5c(F)cccc5F)c5ccc2[nH]5)C=C4)C=C3)cc1)c1ccc(F)cc1
REMARK SMILES IDX 22 1 21 2 19 3 20 4 16 5 15 6 13 7 14 8 4 10 3 11 1 12 2 13
REMARK SMILES IDX 84 15 85 16 90 17 86 18 89 19 87 20 88 21 5 22 6 23 7 24
REMARK SMILES IDX 12 25 8 26 11 27 9 28 10 29 17 31 18 32 23 34 24 35 25 36
REMARK SMILES IDX 26 37 27 38 28 39 29 40 30 41 31 42 83 43 32 44 82 45 33 46
REMARK SMILES IDX 34 47 35 48 76 49 36 50 81 51 75 52 77 53 37 54 80 55 74 56
REMARK SMILES IDX 73 57 38 59 64 60 47 61 63 62 48 63 51 64 62 65 78 66 49 67
REMARK SMILES IDX 50 68 61 70 79 71 52 72 39 73 40 74 45 75 41 76 42 77 44 78
REMARK SMILES IDX 46 79 43 80 65 81 66 82 71 83 67 84 68 85 70 86 72 87 69 88
REMARK SMILES IDX 53 89 54 90 59 91 55 92 56 93 58 94 60 95 57 96
REMARK H PARENT 15 9 3 14 10 30 18 33 77 58 51 69
REMARK Flexibility Score: inf
ROOT
ATOM      1  C   UNL A   1      32.646  26.011  25.783  1.00  0.00     0.261 C 
ENDROOT
BRANCH   1   2
ATOM      2  O   UNL A   1      31.957  24.878  26.341  1.00  0.00    -0.462 OA
BRANCH   2   3
ATOM      3  C   UNL A   1      31.208  24.145  25.465  1.00  0.00     0.331 C 
ATOM      4  O   UNL A   1      30.858  24.542  24.360  1.00  0.00    -0.250 OA
BRANCH   3   5
ATOM      5  C   UNL A   1      30.883  22.743  26.039  1.00  0.00     0.218 C 
BRANCH   5   6
ATOM      6  N   UNL A   1      32.047  22.157  26.731  1.00  0.00    -0.339 N 
ATOM      7  C   UNL A   1      33.205  21.612  26.277  1.00  0.00     0.243 C 
ATOM      8  O   UNL A   1      34.167  21.670  27.053  1.00  0.00    -0.273 OA
ATOM      9  H   UNL A   1      31.969  22.162  27.713  1.00  0.00     0.164 HD
BRANCH   7  10
ATOM     10  C   UNL A   1      33.412  21.022  24.862  1.00  0.00     0.176 C 
BRANCH  10  11
ATOM     11  N   UNL A   1      33.503  21.998  23.778  1.00  0.00    -0.340 N 
ATOM     12  O   UNL A   1      34.346  23.796  22.713  1.00  0.00    -0.269 OA
ATOM     13  C   UNL A   1      34.505  22.915  23.551  1.00  0.00     0.251 C 
ATOM     14  H   UNL A   1      32.760  22.001  23.133  1.00  0.00     0.164 HD
BRANCH  13  15
ATOM     15  C   UNL A   1      35.753  22.885  24.352  1.00  0.00     0.040 A 
ATOM     16  C   UNL A   1      36.722  21.891  24.159  1.00  0.00     0.017 A 
ATOM     17  C   UNL A   1      35.960  23.893  25.303  1.00  0.00     0.017 A 
ATOM     18  C   UNL A   1      37.861  21.866  24.967  1.00  0.00     0.040 A 
ATOM     19  C   UNL A   1      37.108  23.871  26.099  1.00  0.00     0.040 A 
ATOM     20  C   UNL A   1      38.042  22.852  25.931  1.00  0.00     0.123 A 
ATOM     21  F   UNL A   1      39.132  22.823  26.709  1.00  0.00    -0.207 F 
ENDBRANCH  13  15
ENDBRANCH  10  11
BRANCH  10  22
ATOM     22  C   UNL A   1      34.446  19.884  24.733  1.00  0.00     0.070 C 
BRANCH  22  23
ATOM     23  C   UNL A   1      33.934  18.468  24.773  1.00  0.00    -0.045 A 
ATOM     24  C   UNL A   1      32.935  18.148  25.691  1.00  0.00     0.007 A 
ATOM     25  C   UNL A   1      34.361  17.471  23.896  1.00  0.00     0.007 A 
ATOM     26  C   UNL A   1      32.387  16.875  25.782  1.00  0.00     0.046 A 
ATOM     27  C   UNL A   1      33.825  16.179  23.986  1.00  0.00     0.046 A 
ATOM     28  C   UNL A   1      32.864  15.885  24.946  1.00  0.00     0.115 A 
BRANCH  28  29
ATOM     29  O   UNL A   1      32.414  14.604  25.056  1.00  0.00    -0.508 OA
ATOM     30  H   UNL A   1      33.025  13.895  25.086  1.00  0.00     0.293 HD
ENDBRANCH  28  29
ENDBRANCH  22  23
ENDBRANCH  10  22
ENDBRANCH   7  10
ENDBRANCH   5   6
BRANCH   5  31
ATOM     31  C   UNL A   1      29.690  22.877  26.986  1.00  0.00     0.193 C 
BRANCH  31  32
ATOM     32  O   UNL A   1      29.201  24.219  27.015  1.00  0.00    -0.394 OA
ATOM     33  H   UNL A   1      29.624  24.733  26.309  1.00  0.00     0.210 HD
ENDBRANCH  31  32
ENDBRANCH   5  31
ENDBRANCH   3   5
ENDBRANCH   2   3
ENDBRANCH   1   2
BRANCH   1  34
ATOM     34  C   UNL A   1      31.985  27.305  26.273  1.00  0.00     0.202 C 
BRANCH  34  35
ATOM     35  O   UNL A   1      32.561  28.516  25.764  1.00  0.00    -0.374 OA
BRANCH  35  36
ATOM     36  C   UNL A   1      31.630  29.529  25.371  1.00  0.00     0.202 C 
BRANCH  36  37
ATOM     37  C   UNL A   1      31.718  30.865  26.101  1.00  0.00     0.261 C 
BRANCH  37  38
ATOM     38  O   UNL A   1      32.562  30.714  27.238  1.00  0.00    -0.460 OA
BRANCH  38  39
ATOM     39  C   UNL A   1      33.285  31.824  27.501  1.00  0.00     0.338 C 
ATOM     40  O   UNL A   1      32.884  32.963  27.628  1.00  0.00    -0.246 OA
BRANCH  39  41
ATOM     41  C   UNL A   1      34.653  31.401  27.840  1.00  0.00     0.060 A 
ATOM     42  C   UNL A   1      34.852  30.025  27.992  1.00  0.00     0.016 A 
ATOM     43  C   UNL A   1      35.711  32.308  27.985  1.00  0.00     0.016 A 
ATOM     44  C   UNL A   1      36.083  29.558  28.416  1.00  0.00     0.010 A 
ATOM     45  C   UNL A   1      36.949  31.840  28.414  1.00  0.00     0.010 A 
ATOM     46  C   UNL A   1      37.099  30.476  28.710  1.00  0.00    -0.014 A 
BRANCH  46  47
ATOM     47  C   UNL A   1      38.136  30.034  29.660  1.00  0.00     0.031 A 
ATOM     48  C   UNL A   1      39.168  29.070  29.139  1.00  0.00     0.074 A 
ATOM     49  C   UNL A   1      38.227  30.572  30.884  1.00  0.00     0.049 A 
ATOM     50  N   UNL A   1      40.242  28.607  29.718  1.00  0.00    -0.248 NA
ATOM     51  C   UNL A   1      38.965  28.568  27.766  1.00  0.00     0.031 C 
ATOM     52  C   UNL A   1      37.305  31.554  31.450  1.00  0.00     0.029 A 
ATOM     53  N   UNL A   1      39.163  30.377  31.863  1.00  0.00    -0.354 N 
ATOM     54  C   UNL A   1      40.842  27.774  28.781  1.00  0.00     0.074 A 
ATOM     55  C   UNL A   1      39.997  27.757  27.612  1.00  0.00     0.031 C 
ATOM     56  C   UNL A   1      37.727  31.883  32.683  1.00  0.00     0.029 A 
ATOM     57  C   UNL A   1      38.938  31.123  32.991  1.00  0.00     0.049 A 
ATOM     58  H   UNL A   1      39.925  29.761  31.766  1.00  0.00     0.167 HD
ATOM     59  C   UNL A   1      42.007  27.097  28.880  1.00  0.00     0.037 A 
ATOM     60  C   UNL A   1      39.640  31.175  34.137  1.00  0.00     0.037 A 
ATOM     61  C   UNL A   1      42.835  27.118  30.052  1.00  0.00     0.049 A 
ATOM     62  C   UNL A   1      40.901  30.360  34.249  1.00  0.00     0.074 A 
ATOM     63  C   UNL A   1      44.024  26.454  30.283  1.00  0.00     0.029 A 
ATOM     64  N   UNL A   1      42.547  27.849  31.195  1.00  0.00    -0.354 N 
ATOM     65  N   UNL A   1      41.466  29.580  33.357  1.00  0.00    -0.248 NA
ATOM     66  C   UNL A   1      41.628  30.439  35.523  1.00  0.00     0.031 C 
ATOM     67  C   UNL A   1      44.438  26.755  31.585  1.00  0.00     0.029 A 
ATOM     68  C   UNL A   1      43.529  27.642  32.144  1.00  0.00     0.049 A 
ATOM     69  H   UNL A   1      41.761  28.429  31.312  1.00  0.00     0.167 HD
ATOM     70  C   UNL A   1      42.627  29.099  33.949  1.00  0.00     0.074 A 
ATOM     71  C   UNL A   1      42.690  29.685  35.273  1.00  0.00     0.031 C 
ATOM     72  C   UNL A   1      43.561  28.254  33.448  1.00  0.00     0.037 A 
BRANCH  59  73
ATOM     73  C   UNL A   1      42.415  26.264  27.704  1.00  0.00     0.057 A 
ATOM     74  C   UNL A   1      43.238  26.769  26.689  1.00  0.00     0.134 A 
ATOM     75  C   UNL A   1      41.963  24.946  27.573  1.00  0.00     0.134 A 
ATOM     76  F   UNL A   1      43.680  28.036  26.739  1.00  0.00    -0.206 F 
ATOM     77  C   UNL A   1      43.580  26.000  25.574  1.00  0.00     0.040 A 
ATOM     78  C   UNL A   1      42.316  24.159  26.476  1.00  0.00     0.040 A 
ATOM     79  F   UNL A   1      41.163  24.405  28.504  1.00  0.00    -0.206 F 
ATOM     80  C   UNL A   1      43.122  24.688  25.469  1.00  0.00     0.006 A 
ENDBRANCH  59  73
BRANCH  60  81
ATOM     81  C   UNL A   1      39.174  32.030  35.256  1.00  0.00     0.057 A 
ATOM     82  C   UNL A   1      38.374  31.517  36.283  1.00  0.00     0.134 A 
ATOM     83  C   UNL A   1      39.511  33.388  35.319  1.00  0.00     0.134 A 
ATOM     84  F   UNL A   1      38.003  30.229  36.270  1.00  0.00    -0.206 F 
ATOM     85  C   UNL A   1      37.913  32.326  37.323  1.00  0.00     0.040 A 
ATOM     86  C   UNL A   1      39.077  34.203  36.365  1.00  0.00     0.040 A 
ATOM     87  F   UNL A   1      40.279  33.939  34.366  1.00  0.00    -0.206 F 
ATOM     88  C   UNL A   1      38.269  33.673  37.368  1.00  0.00     0.006 A 
ENDBRANCH  60  81
BRANCH  72  89
ATOM     89  C   UNL A   1      44.740  27.948  34.319  1.00  0.00     0.057 A 
ATOM     90  C   UNL A   1      45.888  28.749  34.316  1.00  0.00     0.134 A 
ATOM     91  C   UNL A   1      44.703  26.866  35.208  1.00  0.00     0.134 A 
ATOM     92  F   UNL A   1      45.985  29.794  33.479  1.00  0.00    -0.206 F 
ATOM     93  C   UNL A   1      46.969  28.472  35.152  1.00  0.00     0.040 A 
ATOM     94  C   UNL A   1      45.768  26.594  36.067  1.00  0.00     0.040 A 
ATOM     95  F   UNL A   1      43.626  26.069  35.267  1.00  0.00    -0.206 F 
ATOM     96  C   UNL A   1      46.907  27.396  36.035  1.00  0.00     0.006 A 
ENDBRANCH  72  89
ENDBRANCH  46  47
ENDBRANCH  39  41
ENDBRANCH  38  39
ENDBRANCH  37  38
ENDBRANCH  36  37
ENDBRANCH  35  36
ENDBRANCH  34  35
ENDBRANCH   1  34
TORSDOF 23
ENDMDL
MODEL 2
REMARK VINA RESULT:     -11.3      3.820      7.918
REMARK SMILES O=C(N[C@@H](Cc1ccc(O)cc1)C(=O)N[C@@H](CO)C(=O)OCCOCCOC(=O)c1ccc(-c2c3nc(c(-c4c(F)cccc4F)c4ccc([nH]4)c(-c4c(F)cccc4F)c4nc(c(-c5c(F)cccc5F)c5ccc2[nH]5)C=C4)C=C3)cc1)c1ccc(F)cc1
REMARK SMILES IDX 22 1 21 2 19 3 20 4 16 5 15 6 13 7 14 8 4 10 3 11 1 12 2 13
REMARK SMILES IDX 84 15 85 16 90 17 86 18 89 19 87 20 88 21 5 22 6 23 7 24
REMARK SMILES IDX 12 25 8 26 11 27 9 28 10 29 17 31 18 32 23 34 24 35 25 36
REMARK SMILES IDX 26 37 27 38 28 39 29 40 30 41 31 42 83 43 32 44 82 45 33 46
REMARK SMILES IDX 34 47 35 48 76 49 36 50 81 51 75 52 77 53 37 54 80 55 74 56
REMARK SMILES IDX 73 57 38 59 64 60 47 61 63 62 48 63 51 64 62 65 78 66 49 67
REMARK SMILES IDX 50 68 61 70 79 71 52 72 39 73 40 74 45 75 41 76 42 77 44 78
REMARK SMILES IDX 46 79 43 80 65 81 66 82 71 83 67 84 68 85 70 86 72 87 69 88
REMARK SMILES IDX 53 89 54 90 59 91 55 92 56 93 58 94 60 95 57 96
REMARK H PARENT 15 9 3 14 10 30 18 33 77 58 51 69
REMARK Flexibility Score: inf
ROOT
ATOM      1  C   UNL A   1      35.638  23.713  23.916  1.00  0.00     0.261 C 
ENDROOT
BRANCH   1   2
ATOM      2  O   UNL A   1      34.728  22.643  23.609  1.00  0.00    -0.462 OA
BRANCH   2   3
ATOM      3  C   UNL A   1      34.259  21.932  24.676  1.00  0.00     0.331 C 
ATOM      4  O   UNL A   1      34.322  20.712  24.772  1.00  0.00    -0.250 OA
BRANCH   3   5
ATOM      5  C   UNL A   1      33.666  22.868  25.759  1.00  0.00     0.218 C 
BRANCH   5   6
ATOM      6  N   UNL A   1      32.274  22.505  26.089  1.00  0.00    -0.339 N 
ATOM      7  C   UNL A   1      31.092  23.150  25.914  1.00  0.00     0.243 C 
ATOM      8  O   UNL A   1      30.093  22.426  25.820  1.00  0.00    -0.273 OA
ATOM      9  H   UNL A   1      32.185  21.623  26.518  1.00  0.00     0.164 HD
BRANCH   7  10
ATOM     10  C   UNL A   1      30.934  24.679  25.741  1.00  0.00     0.176 C 
BRANCH  10  11
ATOM     11  N   UNL A   1      29.739  25.113  25.019  1.00  0.00    -0.340 N 
ATOM     12  O   UNL A   1      28.553  26.450  23.647  1.00  0.00    -0.269 OA
ATOM     13  C   UNL A   1      29.653  26.057  24.021  1.00  0.00     0.251 C 
ATOM     14  H   UNL A   1      28.895  24.678  25.278  1.00  0.00     0.164 HD
BRANCH  13  15
ATOM     15  C   UNL A   1      30.879  26.647  23.431  1.00  0.00     0.040 A 
ATOM     16  C   UNL A   1      31.861  25.847  22.830  1.00  0.00     0.017 A 
ATOM     17  C   UNL A   1      31.032  28.040  23.465  1.00  0.00     0.017 A 
ATOM     18  C   UNL A   1      33.025  26.435  22.331  1.00  0.00     0.040 A 
ATOM     19  C   UNL A   1      32.193  28.623  22.951  1.00  0.00     0.040 A 
ATOM     20  C   UNL A   1      33.182  27.815  22.400  1.00  0.00     0.123 A 
ATOM     21  F   UNL A   1      34.303  28.375  21.926  1.00  0.00    -0.207 F 
ENDBRANCH  13  15
ENDBRANCH  10  11
BRANCH  10  22
ATOM     22  C   UNL A   1      31.236  25.549  26.979  1.00  0.00     0.070 C 
BRANCH  22  23
ATOM     23  C   UNL A   1      32.037  26.807  26.770  1.00  0.00    -0.045 A 
ATOM     24  C   UNL A   1      31.515  28.013  27.233  1.00  0.00     0.007 A 
ATOM     25  C   UNL A   1      33.308  26.822  26.194  1.00  0.00     0.007 A 
ATOM     26  C   UNL A   1      32.195  29.218  27.106  1.00  0.00     0.046 A 
ATOM     27  C   UNL A   1      33.999  28.033  26.048  1.00  0.00     0.046 A 
ATOM     28  C   UNL A   1      33.426  29.223  26.479  1.00  0.00     0.115 A 
BRANCH  28  29
ATOM     29  O   UNL A   1      34.090  30.391  26.259  1.00  0.00    -0.508 OA
ATOM     30  H   UNL A   1      34.393  30.602  25.398  1.00  0.00     0.293 HD
ENDBRANCH  28  29
ENDBRANCH  22  23
ENDBRANCH  10  22
ENDBRANCH   7  10
ENDBRANCH   5   6
BRANCH   5  31
ATOM     31  C   UNL A   1      34.561  22.796  26.998  1.00  0.00     0.193 C 
BRANCH  31  32
ATOM     32  O   UNL A   1      35.362  21.614  26.988  1.00  0.00    -0.394 OA
ATOM     33  H   UNL A   1      36.269  21.840  26.727  1.00  0.00     0.210 HD
ENDBRANCH  31  32
ENDBRANCH   5  31
ENDBRANCH   3   5
ENDBRANCH   2   3
ENDBRANCH   1   2
BRANCH   1  34
ATOM     34  C   UNL A   1      37.006  23.132  24.294  1.00  0.00     0.202 C 
BRANCH  34  35
ATOM     35  O   UNL A   1      37.462  23.453  25.615  1.00  0.00    -0.374 OA
BRANCH  35  36
ATOM     36  C   UNL A   1      38.580  22.692  26.087  1.00  0.00     0.202 C 
BRANCH  36  37
ATOM     37  C   UNL A   1      38.744  21.287  25.519  1.00  0.00     0.261 C 
BRANCH  37  38
ATOM     38  O   UNL A   1      39.348  20.459  26.507  1.00  0.00    -0.460 OA
BRANCH  38  39
ATOM     39  C   UNL A   1      40.632  20.154  26.216  1.00  0.00     0.338 C 
ATOM     40  O   UNL A   1      41.046  19.246  25.524  1.00  0.00    -0.246 OA
BRANCH  39  41
ATOM     41  C   UNL A   1      41.478  21.256  26.702  1.00  0.00     0.060 A 
ATOM     42  C   UNL A   1      41.541  21.418  28.090  1.00  0.00     0.016 A 
ATOM     43  C   UNL A   1      42.204  22.089  25.841  1.00  0.00     0.016 A 
ATOM     44  C   UNL A   1      42.227  22.495  28.620  1.00  0.00     0.010 A 
ATOM     45  C   UNL A   1      42.892  23.175  26.372  1.00  0.00     0.010 A 
ATOM     46  C   UNL A   1      42.825  23.418  27.753  1.00  0.00    -0.014 A 
BRANCH  46  47
ATOM     47  C   UNL A   1      43.029  24.781  28.276  1.00  0.00     0.031 A 
ATOM     48  C   UNL A   1      44.453  25.226  28.478  1.00  0.00     0.074 A 
ATOM     49  C   UNL A   1      41.998  25.623  28.435  1.00  0.00     0.049 A 
ATOM     50  N   UNL A   1      44.919  26.396  28.819  1.00  0.00    -0.248 NA
ATOM     51  C   UNL A   1      45.498  24.209  28.248  1.00  0.00     0.031 C 
ATOM     52  C   UNL A   1      40.593  25.294  28.209  1.00  0.00     0.029 A 
ATOM     53  N   UNL A   1      41.986  26.940  28.804  1.00  0.00    -0.354 N 
ATOM     54  C   UNL A   1      46.302  26.257  28.835  1.00  0.00     0.074 A 
ATOM     55  C   UNL A   1      46.604  24.883  28.512  1.00  0.00     0.031 C 
ATOM     56  C   UNL A   1      39.849  26.391  28.440  1.00  0.00     0.029 A 
ATOM     57  C   UNL A   1      40.729  27.486  28.842  1.00  0.00     0.049 A 
ATOM     58  H   UNL A   1      42.803  27.447  29.021  1.00  0.00     0.167 HD
ATOM     59  C   UNL A   1      47.240  27.198  29.078  1.00  0.00     0.037 A 
ATOM     60  C   UNL A   1      40.348  28.735  29.167  1.00  0.00     0.037 A 
ATOM     61  C   UNL A   1      46.926  28.560  29.403  1.00  0.00     0.049 A 
ATOM     62  C   UNL A   1      41.409  29.750  29.500  1.00  0.00     0.074 A 
ATOM     63  C   UNL A   1      47.787  29.600  29.696  1.00  0.00     0.029 A 
ATOM     64  N   UNL A   1      45.636  29.064  29.480  1.00  0.00    -0.354 N 
ATOM     65  N   UNL A   1      42.714  29.614  29.506  1.00  0.00    -0.248 NA
ATOM     66  C   UNL A   1      40.945  31.096  29.860  1.00  0.00     0.031 C 
ATOM     67  C   UNL A   1      47.013  30.729  29.987  1.00  0.00     0.029 A 
ATOM     68  C   UNL A   1      45.675  30.400  29.830  1.00  0.00     0.049 A 
ATOM     69  H   UNL A   1      44.816  28.547  29.310  1.00  0.00     0.167 HD
ATOM     70  C   UNL A   1      43.228  30.860  29.841  1.00  0.00     0.074 A 
ATOM     71  C   UNL A   1      42.092  31.742  30.021  1.00  0.00     0.031 C 
ATOM     72  C   UNL A   1      44.520  31.247  29.987  1.00  0.00     0.037 A 
BRANCH  59  73
ATOM     73  C   UNL A   1      48.673  26.763  29.031  1.00  0.00     0.057 A 
ATOM     74  C   UNL A   1      49.347  26.311  30.173  1.00  0.00     0.134 A 
ATOM     75  C   UNL A   1      49.395  26.815  27.833  1.00  0.00     0.134 A 
ATOM     76  F   UNL A   1      48.720  26.266  31.360  1.00  0.00    -0.206 F 
ATOM     77  C   UNL A   1      50.695  25.947  30.130  1.00  0.00     0.040 A 
ATOM     78  C   UNL A   1      50.735  26.433  27.772  1.00  0.00     0.040 A 
ATOM     79  F   UNL A   1      48.812  27.249  26.706  1.00  0.00    -0.206 F 
ATOM     80  C   UNL A   1      51.391  26.003  28.924  1.00  0.00     0.006 A 
ENDBRANCH  59  73
BRANCH  60  81
ATOM     81  C   UNL A   1      38.908  29.091  29.186  1.00  0.00     0.057 A 
ATOM     82  C   UNL A   1      38.147  28.994  30.355  1.00  0.00     0.134 A 
ATOM     83  C   UNL A   1      38.256  29.529  28.026  1.00  0.00     0.134 A 
ATOM     84  F   UNL A   1      38.710  28.564  31.494  1.00  0.00    -0.206 F 
ATOM     85  C   UNL A   1      36.785  29.304  30.368  1.00  0.00     0.040 A 
ATOM     86  C   UNL A   1      36.902  29.864  28.030  1.00  0.00     0.040 A 
ATOM     87  F   UNL A   1      38.932  29.646  26.873  1.00  0.00    -0.206 F 
ATOM     88  C   UNL A   1      36.161  29.746  29.203  1.00  0.00     0.006 A 
ENDBRANCH  60  81
BRANCH  72  89
ATOM     89  C   UNL A   1      44.767  32.686  30.317  1.00  0.00     0.057 A 
ATOM     90  C   UNL A   1      44.882  33.663  29.321  1.00  0.00     0.134 A 
ATOM     91  C   UNL A   1      44.838  33.105  31.652  1.00  0.00     0.134 A 
ATOM     92  F   UNL A   1      44.831  33.321  28.025  1.00  0.00    -0.206 F 
ATOM     93  C   UNL A   1      45.083  35.005  29.641  1.00  0.00     0.040 A 
ATOM     94  C   UNL A   1      45.013  34.448  31.984  1.00  0.00     0.040 A 
ATOM     95  F   UNL A   1      44.721  32.218  32.652  1.00  0.00    -0.206 F 
ATOM     96  C   UNL A   1      45.142  35.401  30.976  1.00  0.00     0.006 A 
ENDBRANCH  72  89
ENDBRANCH  46  47
ENDBRANCH  39  41
ENDBRANCH  38  39
ENDBRANCH  37  38
ENDBRANCH  36  37
ENDBRANCH  35  36
ENDBRANCH  34  35
ENDBRANCH   1  34
TORSDOF 23
ENDMDL
MODEL 3
REMARK VINA RESULT:     -11.2      2.341      7.060
REMARK SMILES O=C(N[C@@H](Cc1ccc(O)cc1)C(=O)N[C@@H](CO)C(=O)OCCOCCOC(=O)c1ccc(-c2c3nc(c(-c4c(F)cccc4F)c4ccc([nH]4)c(-c4c(F)cccc4F)c4nc(c(-c5c(F)cccc5F)c5ccc2[nH]5)C=C4)C=C3)cc1)c1ccc(F)cc1
REMARK SMILES IDX 22 1 21 2 19 3 20 4 16 5 15 6 13 7 14 8 4 10 3 11 1 12 2 13
REMARK SMILES IDX 84 15 85 16 90 17 86 18 89 19 87 20 88 21 5 22 6 23 7 24
REMARK SMILES IDX 12 25 8 26 11 27 9 28 10 29 17 31 18 32 23 34 24 35 25 36
REMARK SMILES IDX 26 37 27 38 28 39 29 40 30 41 31 42 83 43 32 44 82 45 33 46
REMARK SMILES IDX 34 47 35 48 76 49 36 50 81 51 75 52 77 53 37 54 80 55 74 56
REMARK SMILES IDX 73 57 38 59 64 60 47 61 63 62 48 63 51 64 62 65 78 66 49 67
REMARK SMILES IDX 50 68 61 70 79 71 52 72 39 73 40 74 45 75 41 76 42 77 44 78
REMARK SMILES IDX 46 79 43 80 65 81 66 82 71 83 67 84 68 85 70 86 72 87 69 88
REMARK SMILES IDX 53 89 54 90 59 91 55 92 56 93 58 94 60 95 57 96
REMARK H PARENT 15 9 3 14 10 30 18 33 77 58 51 69
REMARK Flexibility Score: inf
ROOT
ATOM      1  C   UNL A   1      31.646  28.060  27.197  1.00  0.00     0.261 C 
ENDROOT
BRANCH   1   2
ATOM      2  O   UNL A   1      32.423  27.325  26.236  1.00  0.00    -0.462 OA
BRANCH   2   3
ATOM      3  C   UNL A   1      31.979  27.374  24.946  1.00  0.00     0.331 C 
ATOM      4  O   UNL A   1      30.815  27.586  24.627  1.00  0.00    -0.250 OA
BRANCH   3   5
ATOM      5  C   UNL A   1      33.139  27.157  23.942  1.00  0.00     0.218 C 
BRANCH   5   6
ATOM      6  N   UNL A   1      32.637  26.784  22.605  1.00  0.00    -0.339 N 
ATOM      7  C   UNL A   1      32.407  25.583  22.015  1.00  0.00     0.243 C 
ATOM      8  O   UNL A   1      31.547  25.577  21.125  1.00  0.00    -0.273 OA
ATOM      9  H   UNL A   1      32.430  27.555  22.029  1.00  0.00     0.164 HD
BRANCH   7  10
ATOM     10  C   UNL A   1      33.067  24.247  22.434  1.00  0.00     0.176 C 
BRANCH  10  11
ATOM     11  N   UNL A   1      32.350  23.037  22.035  1.00  0.00    -0.340 N 
ATOM     12  O   UNL A   1      31.722  20.881  22.219  1.00  0.00    -0.269 OA
ATOM     13  C   UNL A   1      32.181  21.880  22.762  1.00  0.00     0.251 C 
ATOM     14  H   UNL A   1      31.940  23.050  21.141  1.00  0.00     0.164 HD
BRANCH  13  15
ATOM     15  C   UNL A   1      32.601  21.811  24.183  1.00  0.00     0.040 A 
ATOM     16  C   UNL A   1      32.019  22.632  25.159  1.00  0.00     0.017 A 
ATOM     17  C   UNL A   1      33.588  20.883  24.542  1.00  0.00     0.017 A 
ATOM     18  C   UNL A   1      32.477  22.573  26.477  1.00  0.00     0.040 A 
ATOM     19  C   UNL A   1      34.031  20.819  25.865  1.00  0.00     0.040 A 
ATOM     20  C   UNL A   1      33.480  21.672  26.817  1.00  0.00     0.123 A 
ATOM     21  F   UNL A   1      33.922  21.623  28.081  1.00  0.00    -0.207 F 
ENDBRANCH  13  15
ENDBRANCH  10  11
BRANCH  10  22
ATOM     22  C   UNL A   1      34.592  24.137  22.230  1.00  0.00     0.070 C 
BRANCH  22  23
ATOM     23  C   UNL A   1      35.427  23.729  23.416  1.00  0.00    -0.045 A 
ATOM     24  C   UNL A   1      36.396  22.743  23.239  1.00  0.00     0.007 A 
ATOM     25  C   UNL A   1      35.328  24.332  24.669  1.00  0.00     0.007 A 
ATOM     26  C   UNL A   1      37.228  22.323  24.269  1.00  0.00     0.046 A 
ATOM     27  C   UNL A   1      36.152  23.908  25.720  1.00  0.00     0.046 A 
ATOM     28  C   UNL A   1      37.075  22.888  25.520  1.00  0.00     0.115 A 
BRANCH  28  29
ATOM     29  O   UNL A   1      37.811  22.449  26.577  1.00  0.00    -0.508 OA
ATOM     30  H   UNL A   1      37.986  23.023  27.296  1.00  0.00     0.293 HD
ENDBRANCH  28  29
ENDBRANCH  22  23
ENDBRANCH  10  22
ENDBRANCH   7  10
ENDBRANCH   5   6
BRANCH   5  31
ATOM     31  C   UNL A   1      33.966  28.442  23.879  1.00  0.00     0.193 C 
BRANCH  31  32
ATOM     32  O   UNL A   1      33.162  29.588  24.160  1.00  0.00    -0.394 OA
ATOM     33  H   UNL A   1      33.719  30.382  24.163  1.00  0.00     0.210 HD
ENDBRANCH  31  32
ENDBRANCH   5  31
ENDBRANCH   3   5
ENDBRANCH   2   3
ENDBRANCH   1   2
BRANCH   1  34
ATOM     34  C   UNL A   1      32.172  29.497  27.294  1.00  0.00     0.202 C 
BRANCH  34  35
ATOM     35  O   UNL A   1      33.600  29.629  27.246  1.00  0.00    -0.374 OA
BRANCH  35  36
ATOM     36  C   UNL A   1      34.106  30.957  27.416  1.00  0.00     0.202 C 
BRANCH  36  37
ATOM     37  C   UNL A   1      33.079  32.058  27.654  1.00  0.00     0.261 C 
BRANCH  37  38
ATOM     38  O   UNL A   1      33.688  33.319  27.396  1.00  0.00    -0.460 OA
BRANCH  38  39
ATOM     39  C   UNL A   1      33.505  34.202  28.402  1.00  0.00     0.338 C 
ATOM     40  O   UNL A   1      32.529  34.889  28.624  1.00  0.00    -0.246 OA
BRANCH  39  41
ATOM     41  C   UNL A   1      34.619  34.042  29.350  1.00  0.00     0.060 A 
ATOM     42  C   UNL A   1      35.895  34.333  28.856  1.00  0.00     0.016 A 
ATOM     43  C   UNL A   1      34.429  33.645  30.680  1.00  0.00     0.016 A 
ATOM     44  C   UNL A   1      37.003  34.105  29.652  1.00  0.00     0.010 A 
ATOM     45  C   UNL A   1      35.542  33.411  31.482  1.00  0.00     0.010 A 
ATOM     46  C   UNL A   1      36.825  33.561  30.930  1.00  0.00    -0.014 A 
BRANCH  46  47
ATOM     47  C   UNL A   1      37.966  32.821  31.499  1.00  0.00     0.031 A 
ATOM     48  C   UNL A   1      38.481  33.287  32.835  1.00  0.00     0.074 A 
ATOM     49  C   UNL A   1      38.430  31.708  30.913  1.00  0.00     0.049 A 
ATOM     50  N   UNL A   1      39.392  32.758  33.606  1.00  0.00    -0.248 NA
ATOM     51  C   UNL A   1      37.871  34.513  33.383  1.00  0.00     0.031 C 
ATOM     52  C   UNL A   1      37.953  31.154  29.648  1.00  0.00     0.029 A 
ATOM     53  N   UNL A   1      39.398  30.834  31.327  1.00  0.00    -0.354 N 
ATOM     54  C   UNL A   1      39.454  33.580  34.725  1.00  0.00     0.074 A 
ATOM     55  C   UNL A   1      38.525  34.664  34.522  1.00  0.00     0.031 C 
ATOM     56  C   UNL A   1      38.630  30.020  29.390  1.00  0.00     0.029 A 
ATOM     57  C   UNL A   1      39.592  29.785  30.465  1.00  0.00     0.049 A 
ATOM     58  H   UNL A   1      39.904  30.946  32.164  1.00  0.00     0.167 HD
ATOM     59  C   UNL A   1      40.208  33.431  35.837  1.00  0.00     0.037 A 
ATOM     60  C   UNL A   1      40.455  28.757  30.549  1.00  0.00     0.037 A 
ATOM     61  C   UNL A   1      41.133  32.351  36.025  1.00  0.00     0.049 A 
ATOM     62  C   UNL A   1      41.334  28.649  31.767  1.00  0.00     0.074 A 
ATOM     63  C   UNL A   1      41.972  32.106  37.095  1.00  0.00     0.029 A 
ATOM     64  N   UNL A   1      41.338  31.332  35.105  1.00  0.00    -0.354 N 
ATOM     65  N   UNL A   1      41.383  29.425  32.825  1.00  0.00    -0.248 NA
ATOM     66  C   UNL A   1      42.269  27.517  31.809  1.00  0.00     0.031 C 
ATOM     67  C   UNL A   1      42.713  30.956  36.805  1.00  0.00     0.029 A 
ATOM     68  C   UNL A   1      42.302  30.462  35.576  1.00  0.00     0.049 A 
ATOM     69  H   UNL A   1      40.867  31.244  34.246  1.00  0.00     0.167 HD
ATOM     70  C   UNL A   1      42.330  28.861  33.670  1.00  0.00     0.074 A 
ATOM     71  C   UNL A   1      42.823  27.671  33.004  1.00  0.00     0.031 C 
ATOM     72  C   UNL A   1      42.757  29.281  34.887  1.00  0.00     0.037 A 
BRANCH  59  73
ATOM     73  C   UNL A   1      40.075  34.481  36.898  1.00  0.00     0.057 A 
ATOM     74  C   UNL A   1      40.842  35.653  36.879  1.00  0.00     0.134 A 
ATOM     75  C   UNL A   1      39.183  34.308  37.963  1.00  0.00     0.134 A 
ATOM     76  F   UNL A   1      41.738  35.864  35.902  1.00  0.00    -0.206 F 
ATOM     77  C   UNL A   1      40.743  36.607  37.895  1.00  0.00     0.040 A 
ATOM     78  C   UNL A   1      39.058  35.265  38.971  1.00  0.00     0.040 A 
ATOM     79  F   UNL A   1      38.428  33.203  38.045  1.00  0.00    -0.206 F 
ATOM     80  C   UNL A   1      39.844  36.415  38.942  1.00  0.00     0.006 A 
ENDBRANCH  59  73
BRANCH  60  81
ATOM     81  C   UNL A   1      40.524  27.754  29.459  1.00  0.00     0.057 A 
ATOM     82  C   UNL A   1      41.481  27.845  28.442  1.00  0.00     0.134 A 
ATOM     83  C   UNL A   1      39.625  26.682  29.404  1.00  0.00     0.134 A 
ATOM     84  F   UNL A   1      42.360  28.857  28.430  1.00  0.00    -0.206 F 
ATOM     85  C   UNL A   1      41.531  26.915  27.401  1.00  0.00     0.040 A 
ATOM     86  C   UNL A   1      39.677  25.733  28.383  1.00  0.00     0.040 A 
ATOM     87  F   UNL A   1      38.686  26.537  30.351  1.00  0.00    -0.206 F 
ATOM     88  C   UNL A   1      40.629  25.852  27.373  1.00  0.00     0.006 A 
ENDBRANCH  60  81
BRANCH  72  89
ATOM     89  C   UNL A   1      43.772  28.430  35.585  1.00  0.00     0.057 A 
ATOM     90  C   UNL A   1      43.399  27.414  36.472  1.00  0.00     0.134 A 
ATOM     91  C   UNL A   1      45.138  28.599  35.324  1.00  0.00     0.134 A 
ATOM     92  F   UNL A   1      42.106  27.210  36.767  1.00  0.00    -0.206 F 
ATOM     93  C   UNL A   1      44.352  26.608  37.094  1.00  0.00     0.040 A 
ATOM     94  C   UNL A   1      46.098  27.783  35.920  1.00  0.00     0.040 A 
ATOM     95  F   UNL A   1      45.557  29.548  34.473  1.00  0.00    -0.206 F 
ATOM     96  C   UNL A   1      45.705  26.788  36.813  1.00  0.00     0.006 A 
ENDBRANCH  72  89
ENDBRANCH  46  47
ENDBRANCH  39  41
ENDBRANCH  38  39
ENDBRANCH  37  38
ENDBRANCH  36  37
ENDBRANCH  35  36
ENDBRANCH  34  35
ENDBRANCH   1  34
TORSDOF 23
ENDMDL
