MODEL 1
REMARK VINA RESULT:     -11.1      0.000      0.000
REMARK SMILES C[C@@H](Cn1nnnc1C1C(C)(C)C1(C)C)C(=O)OCCOCCOC(=O)c1ccc(-c2c3nc(c(-c4c(F)cccc4F)c4ccc([nH]4)c(-c4c(F)cccc4F)c4nc(c(-c5c(F)cccc5F)c5ccc2[nH]5)C=C4)C=C3)cc1
REMARK SMILES IDX 20 1 19 2 18 3 16 4 17 5 2 6 1 7 3 8 4 9 5 10 8 11 6 12 7 13
REMARK SMILES IDX 9 14 10 15 13 16 11 17 12 18 14 19 15 20 21 21 22 22 23 23
REMARK SMILES IDX 24 24 25 25 26 26 27 27 28 28 80 29 29 30 79 31 30 32 31 33
REMARK SMILES IDX 32 34 73 35 33 36 78 37 72 38 74 39 34 40 77 41 71 42 70 43
REMARK SMILES IDX 35 45 61 46 44 47 60 48 45 49 48 50 59 51 75 52 46 53 47 54
REMARK SMILES IDX 58 56 76 57 49 58 36 59 37 60 42 61 38 62 39 63 41 64 43 65
REMARK SMILES IDX 40 66 62 67 63 68 68 69 64 70 65 71 67 72 69 73 66 74 50 75
REMARK SMILES IDX 51 76 56 77 52 78 53 79 55 80 57 81 54 82
REMARK H PARENT 74 44 48 55
REMARK Flexibility Score: inf
ROOT
ATOM      1  C   UNL A   1      34.048  33.034  28.729  1.00  0.00     0.202 C 
ENDROOT
BRANCH   1   2
ATOM      2  C   UNL A   1      34.107  32.057  27.558  1.00  0.00     0.261 C 
BRANCH   2   3
ATOM      3  O   UNL A   1      33.478  30.800  27.856  1.00  0.00    -0.463 OA
BRANCH   3   4
ATOM      4  C   UNL A   1      32.532  30.397  26.977  1.00  0.00     0.310 C 
ATOM      5  O   UNL A   1      31.700  31.125  26.449  1.00  0.00    -0.252 OA
BRANCH   4   6
ATOM      6  C   UNL A   1      32.572  28.913  26.708  1.00  0.00     0.118 C 
ATOM      7  C   UNL A   1      31.539  28.101  27.480  1.00  0.00     0.022 C 
BRANCH   6   8
ATOM      8  C   UNL A   1      32.586  28.679  25.198  1.00  0.00     0.163 C 
BRANCH   8   9
ATOM      9  N   UNL A   1      31.381  28.144  24.626  1.00  0.00    -0.228 N 
ATOM     10  N   UNL A   1      30.543  29.014  24.026  1.00  0.00    -0.045 NA
ATOM     11  C   UNL A   1      30.856  26.876  24.556  1.00  0.00     0.155 A 
ATOM     12  N   UNL A   1      29.597  28.276  23.482  1.00  0.00    -0.024 NA
ATOM     13  N   UNL A   1      29.779  26.961  23.788  1.00  0.00    -0.114 NA
BRANCH  11  14
ATOM     14  C   UNL A   1      31.163  25.507  25.173  1.00  0.00     0.072 C 
ATOM     15  C   UNL A   1      31.255  24.097  24.610  1.00  0.00    -0.019 C 
ATOM     16  C   UNL A   1      32.542  24.865  24.960  1.00  0.00    -0.019 C 
ATOM     17  C   UNL A   1      30.854  22.948  25.522  1.00  0.00     0.012 C 
ATOM     18  C   UNL A   1      30.779  23.829  23.209  1.00  0.00     0.012 C 
ATOM     19  C   UNL A   1      33.512  25.242  23.863  1.00  0.00     0.012 C 
ATOM     20  C   UNL A   1      33.291  24.604  26.254  1.00  0.00     0.012 C 
ENDBRANCH  11  14
ENDBRANCH   8   9
ENDBRANCH   6   8
ENDBRANCH   4   6
ENDBRANCH   3   4
ENDBRANCH   2   3
ENDBRANCH   1   2
BRANCH   1  21
ATOM     21  O   UNL A   1      33.232  34.197  28.602  1.00  0.00    -0.374 OA
BRANCH  21  22
ATOM     22  C   UNL A   1      33.694  35.467  29.044  1.00  0.00     0.202 C 
BRANCH  22  23
ATOM     23  C   UNL A   1      32.952  36.173  30.166  1.00  0.00     0.261 C 
BRANCH  23  24
ATOM     24  O   UNL A   1      32.527  35.282  31.187  1.00  0.00    -0.460 OA
BRANCH  24  25
ATOM     25  C   UNL A   1      32.936  35.660  32.422  1.00  0.00     0.338 C 
ATOM     26  O   UNL A   1      32.587  36.648  33.039  1.00  0.00    -0.246 OA
BRANCH  25  27
ATOM     27  C   UNL A   1      34.063  34.815  32.826  1.00  0.00     0.060 A 
ATOM     28  C   UNL A   1      35.294  35.464  32.898  1.00  0.00     0.016 A 
ATOM     29  C   UNL A   1      33.958  33.416  32.776  1.00  0.00     0.016 A 
ATOM     30  C   UNL A   1      36.427  34.723  32.669  1.00  0.00     0.010 A 
ATOM     31  C   UNL A   1      35.092  32.678  32.536  1.00  0.00     0.010 A 
ATOM     32  C   UNL A   1      36.300  33.354  32.400  1.00  0.00    -0.014 A 
BRANCH  32  33
ATOM     33  C   UNL A   1      37.520  32.618  32.165  1.00  0.00     0.031 A 
ATOM     34  C   UNL A   1      38.322  32.527  33.401  1.00  0.00     0.074 A 
ATOM     35  C   UNL A   1      37.864  32.070  30.986  1.00  0.00     0.049 A 
ATOM     36  N   UNL A   1      39.367  33.227  33.689  1.00  0.00    -0.248 NA
ATOM     37  C   UNL A   1      37.768  31.768  34.532  1.00  0.00     0.031 C 
ATOM     38  C   UNL A   1      37.045  31.886  29.788  1.00  0.00     0.029 A 
ATOM     39  N   UNL A   1      39.044  31.487  30.642  1.00  0.00    -0.354 N 
ATOM     40  C   UNL A   1      39.740  32.816  34.961  1.00  0.00     0.074 A 
ATOM     41  C   UNL A   1      38.612  32.110  35.506  1.00  0.00     0.031 C 
ATOM     42  C   UNL A   1      37.682  31.040  28.940  1.00  0.00     0.029 A 
ATOM     43  C   UNL A   1      39.002  30.740  29.470  1.00  0.00     0.049 A 
ATOM     44  H   UNL A   1      39.863  31.587  31.180  1.00  0.00     0.167 HD
ATOM     45  C   UNL A   1      41.050  32.831  35.321  1.00  0.00     0.037 A 
ATOM     46  C   UNL A   1      39.974  29.900  29.030  1.00  0.00     0.037 A 
ATOM     47  C   UNL A   1      41.814  33.682  34.438  1.00  0.00     0.049 A 
ATOM     48  C   UNL A   1      41.235  30.278  29.720  1.00  0.00     0.074 A 
ATOM     49  C   UNL A   1      41.778  35.020  34.099  1.00  0.00     0.029 A 
ATOM     50  N   UNL A   1      42.541  33.060  33.453  1.00  0.00    -0.354 N 
ATOM     51  N   UNL A   1      41.888  31.380  29.481  1.00  0.00    -0.248 NA
ATOM     52  C   UNL A   1      41.517  29.652  31.003  1.00  0.00     0.031 C 
ATOM     53  C   UNL A   1      42.096  35.062  32.709  1.00  0.00     0.029 A 
ATOM     54  C   UNL A   1      42.381  33.763  32.290  1.00  0.00     0.049 A 
ATOM     55  H   UNL A   1      43.085  32.247  33.565  1.00  0.00     0.167 HD
ATOM     56  C   UNL A   1      42.291  31.825  30.730  1.00  0.00     0.074 A 
ATOM     57  C   UNL A   1      42.116  30.676  31.618  1.00  0.00     0.031 C 
ATOM     58  C   UNL A   1      42.441  33.158  30.979  1.00  0.00     0.037 A 
BRANCH  45  59
ATOM     59  C   UNL A   1      41.696  31.742  36.142  1.00  0.00     0.057 A 
ATOM     60  C   UNL A   1      42.528  32.115  37.212  1.00  0.00     0.134 A 
ATOM     61  C   UNL A   1      41.796  30.388  35.754  1.00  0.00     0.134 A 
ATOM     62  F   UNL A   1      42.536  33.374  37.672  1.00  0.00    -0.206 F 
ATOM     63  C   UNL A   1      43.456  31.235  37.782  1.00  0.00     0.040 A 
ATOM     64  C   UNL A   1      42.680  29.490  36.352  1.00  0.00     0.040 A 
ATOM     65  F   UNL A   1      41.131  29.877  34.712  1.00  0.00    -0.206 F 
ATOM     66  C   UNL A   1      43.542  29.920  37.345  1.00  0.00     0.006 A 
ENDBRANCH  45  59
BRANCH  46  67
ATOM     67  C   UNL A   1      39.857  28.611  28.305  1.00  0.00     0.057 A 
ATOM     68  C   UNL A   1      40.515  28.408  27.081  1.00  0.00     0.134 A 
ATOM     69  C   UNL A   1      39.360  27.457  28.935  1.00  0.00     0.134 A 
ATOM     70  F   UNL A   1      41.060  29.439  26.420  1.00  0.00    -0.206 F 
ATOM     71  C   UNL A   1      40.702  27.130  26.535  1.00  0.00     0.040 A 
ATOM     72  C   UNL A   1      39.535  26.177  28.397  1.00  0.00     0.040 A 
ATOM     73  F   UNL A   1      38.771  27.523  30.137  1.00  0.00    -0.206 F 
ATOM     74  C   UNL A   1      40.224  26.007  27.202  1.00  0.00     0.006 A 
ENDBRANCH  46  67
BRANCH  58  75
ATOM     75  C   UNL A   1      42.466  34.095  29.802  1.00  0.00     0.057 A 
ATOM     76  C   UNL A   1      43.582  34.317  28.981  1.00  0.00     0.134 A 
ATOM     77  C   UNL A   1      41.263  34.691  29.410  1.00  0.00     0.134 A 
ATOM     78  F   UNL A   1      44.755  33.715  29.220  1.00  0.00    -0.206 F 
ATOM     79  C   UNL A   1      43.507  35.131  27.845  1.00  0.00     0.040 A 
ATOM     80  C   UNL A   1      41.165  35.473  28.259  1.00  0.00     0.040 A 
ATOM     81  F   UNL A   1      40.142  34.482  30.121  1.00  0.00    -0.206 F 
ATOM     82  C   UNL A   1      42.293  35.706  27.477  1.00  0.00     0.006 A 
ENDBRANCH  58  75
ENDBRANCH  32  33
ENDBRANCH  25  27
ENDBRANCH  24  25
ENDBRANCH  23  24
ENDBRANCH  22  23
ENDBRANCH  21  22
ENDBRANCH   1  21
TORSDOF 17
ENDMDL
MODEL 2
REMARK VINA RESULT:     -11.0      5.713     10.590
REMARK SMILES C[C@@H](Cn1nnnc1C1C(C)(C)C1(C)C)C(=O)OCCOCCOC(=O)c1ccc(-c2c3nc(c(-c4c(F)cccc4F)c4ccc([nH]4)c(-c4c(F)cccc4F)c4nc(c(-c5c(F)cccc5F)c5ccc2[nH]5)C=C4)C=C3)cc1
REMARK SMILES IDX 20 1 19 2 18 3 16 4 17 5 2 6 1 7 3 8 4 9 5 10 8 11 6 12 7 13
REMARK SMILES IDX 9 14 10 15 13 16 11 17 12 18 14 19 15 20 21 21 22 22 23 23
REMARK SMILES IDX 24 24 25 25 26 26 27 27 28 28 80 29 29 30 79 31 30 32 31 33
REMARK SMILES IDX 32 34 73 35 33 36 78 37 72 38 74 39 34 40 77 41 71 42 70 43
REMARK SMILES IDX 35 45 61 46 44 47 60 48 45 49 48 50 59 51 75 52 46 53 47 54
REMARK SMILES IDX 58 56 76 57 49 58 36 59 37 60 42 61 38 62 39 63 41 64 43 65
REMARK SMILES IDX 40 66 62 67 63 68 68 69 64 70 65 71 67 72 69 73 66 74 50 75
REMARK SMILES IDX 51 76 56 77 52 78 53 79 55 80 57 81 54 82
REMARK H PARENT 74 44 48 55
REMARK Flexibility Score: inf
ROOT
ATOM      1  C   UNL A   1      39.786  21.567  26.110  1.00  0.00     0.202 C 
ENDROOT
BRANCH   1   2
ATOM      2  C   UNL A   1      38.531  21.137  25.354  1.00  0.00     0.261 C 
BRANCH   2   3
ATOM      3  O   UNL A   1      37.342  21.770  25.853  1.00  0.00    -0.463 OA
BRANCH   3   4
ATOM      4  C   UNL A   1      36.182  21.367  25.284  1.00  0.00     0.310 C 
ATOM      5  O   UNL A   1      35.838  20.201  25.130  1.00  0.00    -0.252 OA
BRANCH   4   6
ATOM      6  C   UNL A   1      35.326  22.516  24.814  1.00  0.00     0.118 C 
ATOM      7  C   UNL A   1      35.793  23.163  23.515  1.00  0.00     0.022 C 
BRANCH   6   8
ATOM      8  C   UNL A   1      33.860  22.088  24.836  1.00  0.00     0.163 C 
BRANCH   8   9
ATOM      9  N   UNL A   1      33.057  22.623  25.901  1.00  0.00    -0.228 N 
ATOM     10  N   UNL A   1      33.119  21.998  27.095  1.00  0.00    -0.045 NA
ATOM     11  C   UNL A   1      32.183  23.681  25.980  1.00  0.00     0.155 A 
ATOM     12  N   UNL A   1      32.407  22.738  27.920  1.00  0.00    -0.024 NA
ATOM     13  N   UNL A   1      31.834  23.781  27.255  1.00  0.00    -0.114 NA
BRANCH  11  14
ATOM     14  C   UNL A   1      31.514  24.649  24.999  1.00  0.00     0.072 C 
ATOM     15  C   UNL A   1      31.183  26.133  25.047  1.00  0.00    -0.019 C 
ATOM     16  C   UNL A   1      32.372  25.643  24.202  1.00  0.00    -0.019 C 
ATOM     17  C   UNL A   1      29.941  26.601  24.306  1.00  0.00     0.012 C 
ATOM     18  C   UNL A   1      31.314  26.877  26.348  1.00  0.00     0.012 C 
ATOM     19  C   UNL A   1      33.778  26.062  24.570  1.00  0.00     0.012 C 
ATOM     20  C   UNL A   1      32.255  25.470  22.699  1.00  0.00     0.012 C 
ENDBRANCH  11  14
ENDBRANCH   8   9
ENDBRANCH   6   8
ENDBRANCH   4   6
ENDBRANCH   3   4
ENDBRANCH   2   3
ENDBRANCH   1   2
BRANCH   1  21
ATOM     21  O   UNL A   1      40.530  20.573  26.812  1.00  0.00    -0.374 OA
BRANCH  21  22
ATOM     22  C   UNL A   1      41.258  19.574  26.111  1.00  0.00     0.202 C 
BRANCH  22  23
ATOM     23  C   UNL A   1      42.772  19.677  26.040  1.00  0.00     0.261 C 
BRANCH  23  24
ATOM     24  O   UNL A   1      43.266  19.579  24.712  1.00  0.00    -0.460 OA
BRANCH  24  25
ATOM     25  C   UNL A   1      44.570  19.930  24.605  1.00  0.00     0.338 C 
ATOM     26  O   UNL A   1      45.526  19.182  24.535  1.00  0.00    -0.246 OA
BRANCH  25  27
ATOM     27  C   UNL A   1      44.690  21.374  24.825  1.00  0.00     0.060 A 
ATOM     28  C   UNL A   1      45.515  21.744  25.886  1.00  0.00     0.016 A 
ATOM     29  C   UNL A   1      43.765  22.262  24.254  1.00  0.00     0.016 A 
ATOM     30  C   UNL A   1      45.241  22.921  26.536  1.00  0.00     0.010 A 
ATOM     31  C   UNL A   1      43.485  23.435  24.912  1.00  0.00     0.010 A 
ATOM     32  C   UNL A   1      44.167  23.706  26.093  1.00  0.00    -0.014 A 
BRANCH  32  33
ATOM     33  C   UNL A   1      43.917  24.935  26.809  1.00  0.00     0.031 A 
ATOM     34  C   UNL A   1      45.013  25.900  26.590  1.00  0.00     0.074 A 
ATOM     35  C   UNL A   1      42.823  25.174  27.553  1.00  0.00     0.049 A 
ATOM     36  N   UNL A   1      45.966  26.177  27.413  1.00  0.00    -0.248 NA
ATOM     37  C   UNL A   1      45.215  26.422  25.229  1.00  0.00     0.031 C 
ATOM     38  C   UNL A   1      41.583  24.401  27.634  1.00  0.00     0.029 A 
ATOM     39  N   UNL A   1      42.574  26.237  28.365  1.00  0.00    -0.354 N 
ATOM     40  C   UNL A   1      46.763  27.099  26.750  1.00  0.00     0.074 A 
ATOM     41  C   UNL A   1      46.393  27.031  25.362  1.00  0.00     0.031 C 
ATOM     42  C   UNL A   1      40.640  25.139  28.269  1.00  0.00     0.029 A 
ATOM     43  C   UNL A   1      41.247  26.367  28.759  1.00  0.00     0.049 A 
ATOM     44  H   UNL A   1      43.278  26.863  28.652  1.00  0.00     0.167 HD
ATOM     45  C   UNL A   1      47.433  28.047  27.455  1.00  0.00     0.037 A 
ATOM     46  C   UNL A   1      40.708  27.445  29.386  1.00  0.00     0.037 A 
ATOM     47  C   UNL A   1      47.534  27.674  28.847  1.00  0.00     0.049 A 
ATOM     48  C   UNL A   1      41.827  28.210  29.995  1.00  0.00     0.074 A 
ATOM     49  C   UNL A   1      48.087  26.613  29.537  1.00  0.00     0.029 A 
ATOM     50  N   UNL A   1      46.653  28.273  29.715  1.00  0.00    -0.354 N 
ATOM     51  N   UNL A   1      42.518  27.790  31.016  1.00  0.00    -0.248 NA
ATOM     52  C   UNL A   1      42.473  29.226  29.179  1.00  0.00     0.031 C 
ATOM     53  C   UNL A   1      47.188  26.358  30.615  1.00  0.00     0.029 A 
ATOM     54  C   UNL A   1      46.177  27.318  30.572  1.00  0.00     0.049 A 
ATOM     55  H   UNL A   1      46.406  29.226  29.718  1.00  0.00     0.167 HD
ATOM     56  C   UNL A   1      43.827  28.128  30.714  1.00  0.00     0.074 A 
ATOM     57  C   UNL A   1      43.728  29.091  29.618  1.00  0.00     0.031 C 
ATOM     58  C   UNL A   1      44.866  27.372  31.177  1.00  0.00     0.037 A 
BRANCH  45  59
ATOM     59  C   UNL A   1      47.571  29.479  26.997  1.00  0.00     0.057 A 
ATOM     60  C   UNL A   1      48.825  30.102  27.116  1.00  0.00     0.134 A 
ATOM     61  C   UNL A   1      46.492  30.354  26.747  1.00  0.00     0.134 A 
ATOM     62  F   UNL A   1      49.930  29.385  27.363  1.00  0.00    -0.206 F 
ATOM     63  C   UNL A   1      48.976  31.494  27.087  1.00  0.00     0.040 A 
ATOM     64  C   UNL A   1      46.641  31.739  26.663  1.00  0.00     0.040 A 
ATOM     65  F   UNL A   1      45.221  29.943  26.674  1.00  0.00    -0.206 F 
ATOM     66  C   UNL A   1      47.880  32.317  26.870  1.00  0.00     0.006 A 
ENDBRANCH  45  59
BRANCH  46  67
ATOM     67  C   UNL A   1      39.357  28.043  29.250  1.00  0.00     0.057 A 
ATOM     68  C   UNL A   1      38.511  28.175  30.363  1.00  0.00     0.134 A 
ATOM     69  C   UNL A   1      38.988  28.772  28.108  1.00  0.00     0.134 A 
ATOM     70  F   UNL A   1      38.796  27.551  31.515  1.00  0.00    -0.206 F 
ATOM     71  C   UNL A   1      37.387  29.013  30.354  1.00  0.00     0.040 A 
ATOM     72  C   UNL A   1      37.866  29.608  28.083  1.00  0.00     0.040 A 
ATOM     73  F   UNL A   1      39.756  28.773  27.008  1.00  0.00    -0.206 F 
ATOM     74  C   UNL A   1      37.069  29.745  29.214  1.00  0.00     0.006 A 
ENDBRANCH  46  67
BRANCH  58  75
ATOM     75  C   UNL A   1      44.579  26.371  32.262  1.00  0.00     0.057 A 
ATOM     76  C   UNL A   1      44.290  25.016  32.042  1.00  0.00     0.134 A 
ATOM     77  C   UNL A   1      44.737  26.778  33.591  1.00  0.00     0.134 A 
ATOM     78  F   UNL A   1      44.211  24.510  30.803  1.00  0.00    -0.206 F 
ATOM     79  C   UNL A   1      44.126  24.119  33.104  1.00  0.00     0.040 A 
ATOM     80  C   UNL A   1      44.615  25.886  34.657  1.00  0.00     0.040 A 
ATOM     81  F   UNL A   1      45.063  28.050  33.874  1.00  0.00    -0.206 F 
ATOM     82  C   UNL A   1      44.297  24.552  34.416  1.00  0.00     0.006 A 
ENDBRANCH  58  75
ENDBRANCH  32  33
ENDBRANCH  25  27
ENDBRANCH  24  25
ENDBRANCH  23  24
ENDBRANCH  22  23
ENDBRANCH  21  22
ENDBRANCH   1  21
TORSDOF 17
ENDMDL
MODEL 3
REMARK VINA RESULT:     -10.4      3.172      4.604
REMARK SMILES C[C@@H](Cn1nnnc1C1C(C)(C)C1(C)C)C(=O)OCCOCCOC(=O)c1ccc(-c2c3nc(c(-c4c(F)cccc4F)c4ccc([nH]4)c(-c4c(F)cccc4F)c4nc(c(-c5c(F)cccc5F)c5ccc2[nH]5)C=C4)C=C3)cc1
REMARK SMILES IDX 20 1 19 2 18 3 16 4 17 5 2 6 1 7 3 8 4 9 5 10 8 11 6 12 7 13
REMARK SMILES IDX 9 14 10 15 13 16 11 17 12 18 14 19 15 20 21 21 22 22 23 23
REMARK SMILES IDX 24 24 25 25 26 26 27 27 28 28 80 29 29 30 79 31 30 32 31 33
REMARK SMILES IDX 32 34 73 35 33 36 78 37 72 38 74 39 34 40 77 41 71 42 70 43
REMARK SMILES IDX 35 45 61 46 44 47 60 48 45 49 48 50 59 51 75 52 46 53 47 54
REMARK SMILES IDX 58 56 76 57 49 58 36 59 37 60 42 61 38 62 39 63 41 64 43 65
REMARK SMILES IDX 40 66 62 67 63 68 68 69 64 70 65 71 67 72 69 73 66 74 50 75
REMARK SMILES IDX 51 76 56 77 52 78 53 79 55 80 57 81 54 82
REMARK H PARENT 74 44 48 55
REMARK Flexibility Score: inf
ROOT
ATOM      1  C   UNL A   1      33.636  29.430  26.729  1.00  0.00     0.202 C 
ENDROOT
BRANCH   1   2
ATOM      2  C   UNL A   1      32.752  28.342  27.335  1.00  0.00     0.261 C 
BRANCH   2   3
ATOM      3  O   UNL A   1      32.771  27.127  26.570  1.00  0.00    -0.463 OA
BRANCH   3   4
ATOM      4  C   UNL A   1      31.578  26.737  26.065  1.00  0.00     0.310 C 
ATOM      5  O   UNL A   1      30.659  26.252  26.714  1.00  0.00    -0.252 OA
BRANCH   4   6
ATOM      6  C   UNL A   1      31.478  26.932  24.572  1.00  0.00     0.118 C 
ATOM      7  C   UNL A   1      30.657  28.143  24.146  1.00  0.00     0.022 C 
BRANCH   6   8
ATOM      8  C   UNL A   1      32.876  26.849  23.963  1.00  0.00     0.163 C 
BRANCH   8   9
ATOM      9  N   UNL A   1      33.046  25.915  22.884  1.00  0.00    -0.228 N 
ATOM     10  N   UNL A   1      32.846  26.376  21.632  1.00  0.00    -0.045 NA
ATOM     11  C   UNL A   1      33.374  24.581  22.837  1.00  0.00     0.155 A 
ATOM     12  N   UNL A   1      33.179  25.383  20.832  1.00  0.00    -0.024 NA
ATOM     13  N   UNL A   1      33.516  24.277  21.555  1.00  0.00    -0.114 NA
BRANCH  11  14
ATOM     14  C   UNL A   1      33.529  23.436  23.843  1.00  0.00     0.072 C 
ATOM     15  C   UNL A   1      34.698  22.557  24.263  1.00  0.00    -0.019 C 
ATOM     16  C   UNL A   1      34.224  23.691  25.189  1.00  0.00    -0.019 C 
ATOM     17  C   UNL A   1      34.388  21.130  24.686  1.00  0.00     0.012 C 
ATOM     18  C   UNL A   1      35.971  22.589  23.464  1.00  0.00     0.012 C 
ATOM     19  C   UNL A   1      35.143  24.855  25.483  1.00  0.00     0.012 C 
ATOM     20  C   UNL A   1      33.334  23.413  26.388  1.00  0.00     0.012 C 
ENDBRANCH  11  14
ENDBRANCH   8   9
ENDBRANCH   6   8
ENDBRANCH   4   6
ENDBRANCH   3   4
ENDBRANCH   2   3
ENDBRANCH   1   2
BRANCH   1  21
ATOM     21  O   UNL A   1      33.697  30.697  27.381  1.00  0.00    -0.374 OA
BRANCH  21  22
ATOM     22  C   UNL A   1      34.945  31.315  27.663  1.00  0.00     0.202 C 
BRANCH  22  23
ATOM     23  C   UNL A   1      34.960  32.713  28.257  1.00  0.00     0.261 C 
BRANCH  23  24
ATOM     24  O   UNL A   1      35.886  32.845  29.325  1.00  0.00    -0.460 OA
BRANCH  24  25
ATOM     25  C   UNL A   1      35.494  32.199  30.449  1.00  0.00     0.338 C 
ATOM     26  O   UNL A   1      34.494  32.413  31.106  1.00  0.00    -0.246 OA
BRANCH  25  27
ATOM     27  C   UNL A   1      36.589  31.338  30.906  1.00  0.00     0.060 A 
ATOM     28  C   UNL A   1      37.838  31.953  30.970  1.00  0.00     0.016 A 
ATOM     29  C   UNL A   1      36.442  29.942  30.912  1.00  0.00     0.016 A 
ATOM     30  C   UNL A   1      38.951  31.170  30.790  1.00  0.00     0.010 A 
ATOM     31  C   UNL A   1      37.557  29.161  30.721  1.00  0.00     0.010 A 
ATOM     32  C   UNL A   1      38.786  29.795  30.576  1.00  0.00    -0.014 A 
BRANCH  32  33
ATOM     33  C   UNL A   1      39.987  29.013  30.392  1.00  0.00     0.031 A 
ATOM     34  C   UNL A   1      40.724  28.879  31.663  1.00  0.00     0.074 A 
ATOM     35  C   UNL A   1      40.366  28.464  29.224  1.00  0.00     0.049 A 
ATOM     36  N   UNL A   1      41.780  29.535  32.009  1.00  0.00    -0.248 NA
ATOM     37  C   UNL A   1      40.087  28.132  32.759  1.00  0.00     0.031 C 
ATOM     38  C   UNL A   1      39.600  28.324  27.986  1.00  0.00     0.029 A 
ATOM     39  N   UNL A   1      41.538  27.838  28.931  1.00  0.00    -0.354 N 
ATOM     40  C   UNL A   1      42.075  29.097  33.293  1.00  0.00     0.074 A 
ATOM     41  C   UNL A   1      40.896  28.431  33.776  1.00  0.00     0.031 C 
ATOM     42  C   UNL A   1      40.243  27.462  27.160  1.00  0.00     0.029 A 
ATOM     43  C   UNL A   1      41.524  27.105  27.750  1.00  0.00     0.049 A 
ATOM     44  H   UNL A   1      42.333  27.901  29.508  1.00  0.00     0.167 HD
ATOM     45  C   UNL A   1      43.366  29.057  33.715  1.00  0.00     0.037 A 
ATOM     46  C   UNL A   1      42.483  26.231  27.347  1.00  0.00     0.037 A 
ATOM     47  C   UNL A   1      44.204  29.886  32.881  1.00  0.00     0.049 A 
ATOM     48  C   UNL A   1      43.722  26.553  28.101  1.00  0.00     0.074 A 
ATOM     49  C   UNL A   1      44.236  31.228  32.555  1.00  0.00     0.029 A 
ATOM     50  N   UNL A   1      44.953  29.245  31.924  1.00  0.00    -0.354 N 
ATOM     51  N   UNL A   1      44.428  27.630  27.906  1.00  0.00    -0.248 NA
ATOM     52  C   UNL A   1      43.917  25.904  29.389  1.00  0.00     0.031 C 
ATOM     53  C   UNL A   1      44.622  31.270  31.183  1.00  0.00     0.029 A 
ATOM     54  C   UNL A   1      44.877  29.965  30.763  1.00  0.00     0.049 A 
ATOM     55  H   UNL A   1      45.459  28.410  32.053  1.00  0.00     0.167 HD
ATOM     56  C   UNL A   1      44.787  28.047  29.178  1.00  0.00     0.074 A 
ATOM     57  C   UNL A   1      44.525  26.897  30.043  1.00  0.00     0.031 C 
ATOM     58  C   UNL A   1      44.977  29.371  29.449  1.00  0.00     0.037 A 
BRANCH  45  59
ATOM     59  C   UNL A   1      43.929  27.935  34.555  1.00  0.00     0.057 A 
ATOM     60  C   UNL A   1      44.666  28.265  35.705  1.00  0.00     0.134 A 
ATOM     61  C   UNL A   1      44.052  26.594  34.132  1.00  0.00     0.134 A 
ATOM     62  F   UNL A   1      44.643  29.509  36.205  1.00  0.00    -0.206 F 
ATOM     63  C   UNL A   1      45.533  27.358  36.325  1.00  0.00     0.040 A 
ATOM     64  C   UNL A   1      44.873  25.668  34.775  1.00  0.00     0.040 A 
ATOM     65  F   UNL A   1      43.477  26.123  33.020  1.00  0.00    -0.206 F 
ATOM     66  C   UNL A   1      45.647  26.057  35.854  1.00  0.00     0.006 A 
ENDBRANCH  45  59
BRANCH  46  67
ATOM     67  C   UNL A   1      42.351  24.955  26.603  1.00  0.00     0.057 A 
ATOM     68  C   UNL A   1      43.117  24.707  25.452  1.00  0.00     0.134 A 
ATOM     69  C   UNL A   1      41.710  23.839  27.167  1.00  0.00     0.134 A 
ATOM     70  F   UNL A   1      43.800  25.698  24.861  1.00  0.00    -0.206 F 
ATOM     71  C   UNL A   1      43.269  23.420  24.917  1.00  0.00     0.040 A 
ATOM     72  C   UNL A   1      41.849  22.550  26.639  1.00  0.00     0.040 A 
ATOM     73  F   UNL A   1      41.005  23.945  28.302  1.00  0.00    -0.206 F 
ATOM     74  C   UNL A   1      42.645  22.333  25.521  1.00  0.00     0.006 A 
ENDBRANCH  46  67
BRANCH  58  75
ATOM     75  C   UNL A   1      45.095  30.318  28.286  1.00  0.00     0.057 A 
ATOM     76  C   UNL A   1      44.010  30.919  27.631  1.00  0.00     0.134 A 
ATOM     77  C   UNL A   1      46.375  30.738  27.907  1.00  0.00     0.134 A 
ATOM     78  F   UNL A   1      42.746  30.653  27.987  1.00  0.00    -0.206 F 
ATOM     79  C   UNL A   1      44.197  31.864  26.616  1.00  0.00     0.040 A 
ATOM     80  C   UNL A   1      46.575  31.707  26.924  1.00  0.00     0.040 A 
ATOM     81  F   UNL A   1      47.459  30.241  28.526  1.00  0.00    -0.206 F 
ATOM     82  C   UNL A   1      45.483  32.267  26.266  1.00  0.00     0.006 A 
ENDBRANCH  58  75
ENDBRANCH  32  33
ENDBRANCH  25  27
ENDBRANCH  24  25
ENDBRANCH  23  24
ENDBRANCH  22  23
ENDBRANCH  21  22
ENDBRANCH   1  21
TORSDOF 17
ENDMDL
