MODEL 1
REMARK VINA RESULT:     -10.0      0.000      0.000
REMARK SMILES CC[NH2+][C@]1(C(=O)OCCOCCOC(=O)c2ccc(-c3c4nc(c(-c5c(F)cccc5F)c5ccc([nH]5)c(-c5c(F)cccc5F)c5nc(c(-c6c(F)cccc6F)c6ccc3[nH]6)C=C5)C=C4)cc2)CC[C@@H]([N@@H+](C)CC(C)(C)C)C1
REMARK SMILES IDX 9 1 8 2 7 3 5 4 6 5 4 6 70 7 80 8 71 9 72 10 3 11 2 14 1 15
REMARK SMILES IDX 73 16 74 17 75 19 76 20 77 21 78 22 79 23 10 24 11 25 12 26
REMARK SMILES IDX 13 27 14 28 15 29 16 30 17 31 69 32 18 33 68 34 19 35 20 36
REMARK SMILES IDX 21 37 62 38 22 39 67 40 61 41 63 42 23 43 66 44 60 45 59 46
REMARK SMILES IDX 24 48 50 49 33 50 49 51 34 52 37 53 48 54 64 55 35 56 36 57
REMARK SMILES IDX 47 59 65 60 38 61 25 62 26 63 31 64 27 65 28 66 30 67 32 68
REMARK SMILES IDX 29 69 51 70 52 71 57 72 53 73 54 74 56 75 58 76 55 77 39 78
REMARK SMILES IDX 40 79 45 80 41 81 42 82 44 83 46 84 43 85
REMARK H PARENT 3 12 3 13 73 18 63 47 37 58
REMARK Flexibility Score: inf
ROOT
ATOM      1  C   UNL A   1      39.692  21.182  26.098  1.00  0.00     0.202 C 
ENDROOT
BRANCH   1   2
ATOM      2  C   UNL A   1      38.509  22.094  25.766  1.00  0.00     0.261 C 
BRANCH   2   3
ATOM      3  O   UNL A   1      37.325  21.337  25.458  1.00  0.00    -0.459 OA
BRANCH   3   4
ATOM      4  C   UNL A   1      36.432  21.929  24.610  1.00  0.00     0.368 C 
ATOM      5  O   UNL A   1      36.729  22.432  23.533  1.00  0.00    -0.245 OA
BRANCH   4   6
ATOM      6  C   UNL A   1      34.995  21.905  25.191  1.00  0.00     0.200 C 
ATOM      7  C   UNL A   1      34.931  22.865  26.398  1.00  0.00     0.087 C 
ATOM      8  C   UNL A   1      33.927  22.554  24.283  1.00  0.00     0.146 C 
ATOM      9  C   UNL A   1      33.441  23.123  26.618  1.00  0.00     0.072 C 
ATOM     10  C   UNL A   1      32.800  23.011  25.230  1.00  0.00     0.191 C 
BRANCH   6  11
ATOM     11  N   UNL A   1      34.689  20.555  25.704  1.00  0.00    -0.332 N 
ATOM     12  H   UNL A   1      35.528  20.200  26.164  1.00  0.00     0.347 HD
ATOM     13  H   UNL A   1      33.886  20.678  26.321  1.00  0.00     0.347 HD
BRANCH  11  14
ATOM     14  C   UNL A   1      34.271  19.565  24.726  1.00  0.00     0.257 C 
ATOM     15  C   UNL A   1      32.918  19.029  25.175  1.00  0.00     0.071 C 
ENDBRANCH  11  14
ENDBRANCH   6  11
BRANCH  10  16
ATOM     16  N   UNL A   1      31.963  24.126  24.793  1.00  0.00    -0.334 N 
ATOM     17  C   UNL A   1      31.020  23.780  23.742  1.00  0.00     0.332 C 
ATOM     18  H   UNL A   1      32.735  24.673  24.412  1.00  0.00     0.348 HD
BRANCH  16  19
ATOM     19  C   UNL A   1      31.565  25.230  25.668  1.00  0.00     0.268 C 
BRANCH  19  20
ATOM     20  C   UNL A   1      32.119  26.699  25.594  1.00  0.00     0.011 C 
ATOM     21  C   UNL A   1      31.443  27.544  24.507  1.00  0.00     0.017 C 
ATOM     22  C   UNL A   1      31.783  27.376  26.949  1.00  0.00     0.017 C 
ATOM     23  C   UNL A   1      33.640  26.772  25.408  1.00  0.00     0.017 C 
ENDBRANCH  19  20
ENDBRANCH  16  19
ENDBRANCH  10  16
ENDBRANCH   4   6
ENDBRANCH   3   4
ENDBRANCH   2   3
ENDBRANCH   1   2
BRANCH   1  24
ATOM     24  O   UNL A   1      40.933  21.870  26.250  1.00  0.00    -0.374 OA
BRANCH  24  25
ATOM     25  C   UNL A   1      42.109  21.070  26.106  1.00  0.00     0.202 C 
BRANCH  25  26
ATOM     26  C   UNL A   1      43.322  21.861  25.610  1.00  0.00     0.261 C 
BRANCH  26  27
ATOM     27  O   UNL A   1      42.895  23.140  25.101  1.00  0.00    -0.460 OA
BRANCH  27  28
ATOM     28  C   UNL A   1      43.658  24.180  25.502  1.00  0.00     0.338 C 
ATOM     29  O   UNL A   1      44.800  24.434  25.156  1.00  0.00    -0.246 OA
BRANCH  28  30
ATOM     30  C   UNL A   1      42.873  25.109  26.338  1.00  0.00     0.060 A 
ATOM     31  C   UNL A   1      43.250  26.455  26.293  1.00  0.00     0.016 A 
ATOM     32  C   UNL A   1      41.879  24.678  27.220  1.00  0.00     0.016 A 
ATOM     33  C   UNL A   1      42.713  27.358  27.204  1.00  0.00     0.010 A 
ATOM     34  C   UNL A   1      41.334  25.591  28.134  1.00  0.00     0.010 A 
ATOM     35  C   UNL A   1      41.798  26.919  28.170  1.00  0.00    -0.014 A 
BRANCH  35  36
ATOM     36  C   UNL A   1      41.513  27.814  29.318  1.00  0.00     0.031 A 
ATOM     37  C   UNL A   1      40.315  28.726  29.248  1.00  0.00     0.074 A 
ATOM     38  C   UNL A   1      42.232  27.733  30.451  1.00  0.00     0.049 A 
ATOM     39  N   UNL A   1      39.812  29.508  30.169  1.00  0.00    -0.248 NA
ATOM     40  C   UNL A   1      39.584  28.755  27.971  1.00  0.00     0.031 C 
ATOM     41  C   UNL A   1      43.390  26.864  30.656  1.00  0.00     0.029 A 
ATOM     42  N   UNL A   1      42.077  28.380  31.651  1.00  0.00    -0.354 N 
ATOM     43  C   UNL A   1      38.706  30.116  29.585  1.00  0.00     0.074 A 
ATOM     44  C   UNL A   1      38.637  29.646  28.219  1.00  0.00     0.031 C 
ATOM     45  C   UNL A   1      43.835  27.024  31.915  1.00  0.00     0.029 A 
ATOM     46  C   UNL A   1      43.004  28.016  32.596  1.00  0.00     0.049 A 
ATOM     47  H   UNL A   1      41.369  29.042  31.819  1.00  0.00     0.167 HD
ATOM     48  C   UNL A   1      37.818  30.973  30.140  1.00  0.00     0.037 A 
ATOM     49  C   UNL A   1      43.162  28.434  33.866  1.00  0.00     0.037 A 
ATOM     50  C   UNL A   1      37.877  31.437  31.500  1.00  0.00     0.049 A 
ATOM     51  C   UNL A   1      42.189  29.428  34.445  1.00  0.00     0.074 A 
ATOM     52  C   UNL A   1      37.014  32.294  32.159  1.00  0.00     0.029 A 
ATOM     53  N   UNL A   1      38.862  31.083  32.409  1.00  0.00    -0.354 N 
ATOM     54  N   UNL A   1      41.133  29.972  33.891  1.00  0.00    -0.248 NA
ATOM     55  C   UNL A   1      42.429  29.858  35.830  1.00  0.00     0.031 C 
ATOM     56  C   UNL A   1      37.501  32.493  33.457  1.00  0.00     0.029 A 
ATOM     57  C   UNL A   1      38.641  31.723  33.618  1.00  0.00     0.049 A 
ATOM     58  H   UNL A   1      39.608  30.466  32.224  1.00  0.00     0.167 HD
ATOM     59  C   UNL A   1      40.570  30.787  34.864  1.00  0.00     0.074 A 
ATOM     60  C   UNL A   1      41.392  30.653  36.049  1.00  0.00     0.031 C 
ATOM     61  C   UNL A   1      39.471  31.579  34.786  1.00  0.00     0.037 A 
BRANCH  48  62
ATOM     62  C   UNL A   1      36.711  31.481  29.262  1.00  0.00     0.057 A 
ATOM     63  C   UNL A   1      35.611  30.683  28.923  1.00  0.00     0.134 A 
ATOM     64  C   UNL A   1      36.736  32.791  28.768  1.00  0.00     0.134 A 
ATOM     65  F   UNL A   1      35.534  29.413  29.350  1.00  0.00    -0.206 F 
ATOM     66  C   UNL A   1      34.585  31.162  28.106  1.00  0.00     0.040 A 
ATOM     67  C   UNL A   1      35.705  33.289  27.970  1.00  0.00     0.040 A 
ATOM     68  F   UNL A   1      37.759  33.608  29.057  1.00  0.00    -0.206 F 
ATOM     69  C   UNL A   1      34.628  32.472  27.632  1.00  0.00     0.006 A 
ENDBRANCH  48  62
BRANCH  49  70
ATOM     70  C   UNL A   1      44.285  27.915  34.685  1.00  0.00     0.057 A 
ATOM     71  C   UNL A   1      45.537  28.541  34.687  1.00  0.00     0.134 A 
ATOM     72  C   UNL A   1      44.138  26.764  35.468  1.00  0.00     0.134 A 
ATOM     73  F   UNL A   1      45.746  29.633  33.938  1.00  0.00    -0.206 F 
ATOM     74  C   UNL A   1      46.607  28.033  35.424  1.00  0.00     0.040 A 
ATOM     75  C   UNL A   1      45.193  26.259  36.230  1.00  0.00     0.040 A 
ATOM     76  F   UNL A   1      42.963  26.118  35.509  1.00  0.00    -0.206 F 
ATOM     77  C   UNL A   1      46.434  26.889  36.203  1.00  0.00     0.006 A 
ENDBRANCH  49  70
BRANCH  61  78
ATOM     78  C   UNL A   1      39.086  32.340  36.021  1.00  0.00     0.057 A 
ATOM     79  C   UNL A   1      38.270  31.777  37.010  1.00  0.00     0.134 A 
ATOM     80  C   UNL A   1      39.556  33.643  36.234  1.00  0.00     0.134 A 
ATOM     81  F   UNL A   1      37.779  30.538  36.861  1.00  0.00    -0.206 F 
ATOM     82  C   UNL A   1      37.912  32.493  38.154  1.00  0.00     0.040 A 
ATOM     83  C   UNL A   1      39.226  34.359  37.386  1.00  0.00     0.040 A 
ATOM     84  F   UNL A   1      40.350  34.237  35.330  1.00  0.00    -0.206 F 
ATOM     85  C   UNL A   1      38.394  33.786  38.346  1.00  0.00     0.006 A 
ENDBRANCH  61  78
ENDBRANCH  35  36
ENDBRANCH  28  30
ENDBRANCH  27  28
ENDBRANCH  26  27
ENDBRANCH  25  26
ENDBRANCH  24  25
ENDBRANCH   1  24
TORSDOF 19
ENDMDL
MODEL 2
REMARK VINA RESULT:      -9.8      3.937      7.752
REMARK SMILES CC[NH2+][C@]1(C(=O)OCCOCCOC(=O)c2ccc(-c3c4nc(c(-c5c(F)cccc5F)c5ccc([nH]5)c(-c5c(F)cccc5F)c5nc(c(-c6c(F)cccc6F)c6ccc3[nH]6)C=C5)C=C4)cc2)CC[C@@H]([N@@H+](C)CC(C)(C)C)C1
REMARK SMILES IDX 9 1 8 2 7 3 5 4 6 5 4 6 70 7 80 8 71 9 72 10 3 11 2 14 1 15
REMARK SMILES IDX 73 16 74 17 75 19 76 20 77 21 78 22 79 23 10 24 11 25 12 26
REMARK SMILES IDX 13 27 14 28 15 29 16 30 17 31 69 32 18 33 68 34 19 35 20 36
REMARK SMILES IDX 21 37 62 38 22 39 67 40 61 41 63 42 23 43 66 44 60 45 59 46
REMARK SMILES IDX 24 48 50 49 33 50 49 51 34 52 37 53 48 54 64 55 35 56 36 57
REMARK SMILES IDX 47 59 65 60 38 61 25 62 26 63 31 64 27 65 28 66 30 67 32 68
REMARK SMILES IDX 29 69 51 70 52 71 57 72 53 73 54 74 56 75 58 76 55 77 39 78
REMARK SMILES IDX 40 79 45 80 41 81 42 82 44 83 46 84 43 85
REMARK H PARENT 3 12 3 13 73 18 63 47 37 58
REMARK Flexibility Score: inf
ROOT
ATOM      1  C   UNL A   1      37.323  22.401  25.769  1.00  0.00     0.202 C 
ENDROOT
BRANCH   1   2
ATOM      2  C   UNL A   1      36.107  23.256  25.409  1.00  0.00     0.261 C 
BRANCH   2   3
ATOM      3  O   UNL A   1      34.975  22.444  25.047  1.00  0.00    -0.459 OA
BRANCH   3   4
ATOM      4  C   UNL A   1      34.182  22.018  26.075  1.00  0.00     0.368 C 
ATOM      5  O   UNL A   1      34.596  21.458  27.083  1.00  0.00    -0.245 OA
BRANCH   4   6
ATOM      6  C   UNL A   1      32.685  22.312  25.796  1.00  0.00     0.200 C 
ATOM      7  C   UNL A   1      32.038  22.864  27.083  1.00  0.00     0.087 C 
ATOM      8  C   UNL A   1      32.434  23.502  24.844  1.00  0.00     0.146 C 
ATOM      9  C   UNL A   1      30.743  23.528  26.620  1.00  0.00     0.072 C 
ATOM     10  C   UNL A   1      31.027  24.025  25.197  1.00  0.00     0.191 C 
BRANCH   6  11
ATOM     11  N   UNL A   1      31.984  21.053  25.472  1.00  0.00    -0.332 N 
ATOM     12  H   UNL A   1      31.918  20.506  26.331  1.00  0.00     0.347 HD
ATOM     13  H   UNL A   1      31.087  21.338  25.079  1.00  0.00     0.347 HD
BRANCH  11  14
ATOM     14  C   UNL A   1      32.594  20.209  24.459  1.00  0.00     0.257 C 
ATOM     15  C   UNL A   1      32.604  18.786  25.003  1.00  0.00     0.071 C 
ENDBRANCH  11  14
ENDBRANCH   6  11
BRANCH  10  16
ATOM     16  N   UNL A   1      30.738  25.428  24.914  1.00  0.00    -0.334 N 
ATOM     17  C   UNL A   1      29.881  25.633  23.758  1.00  0.00     0.332 C 
ATOM     18  H   UNL A   1      31.702  25.675  24.689  1.00  0.00     0.348 HD
BRANCH  16  19
ATOM     19  C   UNL A   1      30.675  26.466  25.944  1.00  0.00     0.268 C 
BRANCH  19  20
ATOM     20  C   UNL A   1      31.798  27.525  26.243  1.00  0.00     0.011 C 
ATOM     21  C   UNL A   1      33.214  26.941  26.166  1.00  0.00     0.017 C 
ATOM     22  C   UNL A   1      31.706  28.604  25.133  1.00  0.00     0.017 C 
ATOM     23  C   UNL A   1      31.624  28.237  27.592  1.00  0.00     0.017 C 
ENDBRANCH  19  20
ENDBRANCH  16  19
ENDBRANCH  10  16
ENDBRANCH   4   6
ENDBRANCH   3   4
ENDBRANCH   2   3
ENDBRANCH   1   2
BRANCH   1  24
ATOM     24  O   UNL A   1      37.787  21.571  24.704  1.00  0.00    -0.374 OA
BRANCH  24  25
ATOM     25  C   UNL A   1      37.593  20.166  24.882  1.00  0.00     0.202 C 
BRANCH  25  26
ATOM     26  C   UNL A   1      38.885  19.414  25.211  1.00  0.00     0.261 C 
BRANCH  26  27
ATOM     27  O   UNL A   1      39.679  20.188  26.131  1.00  0.00    -0.460 OA
BRANCH  27  28
ATOM     28  C   UNL A   1      41.005  19.929  26.075  1.00  0.00     0.338 C 
ATOM     29  O   UNL A   1      41.545  18.940  25.608  1.00  0.00    -0.246 OA
BRANCH  28  30
ATOM     30  C   UNL A   1      41.782  21.097  26.533  1.00  0.00     0.060 A 
ATOM     31  C   UNL A   1      41.908  21.255  27.918  1.00  0.00     0.016 A 
ATOM     32  C   UNL A   1      42.277  22.069  25.659  1.00  0.00     0.016 A 
ATOM     33  C   UNL A   1      42.432  22.433  28.438  1.00  0.00     0.010 A 
ATOM     34  C   UNL A   1      42.811  23.253  26.185  1.00  0.00     0.010 A 
ATOM     35  C   UNL A   1      42.830  23.464  27.576  1.00  0.00    -0.014 A 
BRANCH  35  36
ATOM     36  C   UNL A   1      43.057  24.810  28.158  1.00  0.00     0.031 A 
ATOM     37  C   UNL A   1      44.472  25.260  28.414  1.00  0.00     0.074 A 
ATOM     38  C   UNL A   1      42.035  25.663  28.342  1.00  0.00     0.049 A 
ATOM     39  N   UNL A   1      44.914  26.428  28.811  1.00  0.00    -0.248 NA
ATOM     40  C   UNL A   1      45.531  24.264  28.188  1.00  0.00     0.031 C 
ATOM     41  C   UNL A   1      40.626  25.361  28.096  1.00  0.00     0.029 A 
ATOM     42  N   UNL A   1      42.032  26.971  28.761  1.00  0.00    -0.354 N 
ATOM     43  C   UNL A   1      46.297  26.305  28.876  1.00  0.00     0.074 A 
ATOM     44  C   UNL A   1      46.619  24.941  28.521  1.00  0.00     0.031 C 
ATOM     45  C   UNL A   1      39.894  26.457  28.358  1.00  0.00     0.029 A 
ATOM     46  C   UNL A   1      40.779  27.531  28.804  1.00  0.00     0.049 A 
ATOM     47  H   UNL A   1      42.850  27.459  29.008  1.00  0.00     0.167 HD
ATOM     48  C   UNL A   1      47.218  27.247  29.186  1.00  0.00     0.037 A 
ATOM     49  C   UNL A   1      40.394  28.771  29.161  1.00  0.00     0.037 A 
ATOM     50  C   UNL A   1      46.904  28.608  29.531  1.00  0.00     0.049 A 
ATOM     51  C   UNL A   1      41.435  29.787  29.551  1.00  0.00     0.074 A 
ATOM     52  C   UNL A   1      47.768  29.642  29.845  1.00  0.00     0.029 A 
ATOM     53  N   UNL A   1      45.618  29.122  29.612  1.00  0.00    -0.354 N 
ATOM     54  N   UNL A   1      42.740  29.667  29.580  1.00  0.00    -0.248 NA
ATOM     55  C   UNL A   1      40.945  31.115  29.948  1.00  0.00     0.031 C 
ATOM     56  C   UNL A   1      47.003  30.772  30.157  1.00  0.00     0.029 A 
ATOM     57  C   UNL A   1      45.665  30.453  29.993  1.00  0.00     0.049 A 
ATOM     58  H   UNL A   1      44.794  28.617  29.424  1.00  0.00     0.167 HD
ATOM     59  C   UNL A   1      43.228  30.906  29.974  1.00  0.00     0.074 A 
ATOM     60  C   UNL A   1      42.079  31.769  30.156  1.00  0.00     0.031 C 
ATOM     61  C   UNL A   1      44.512  31.297  30.172  1.00  0.00     0.037 A 
BRANCH  48  62
ATOM     62  C   UNL A   1      48.660  26.829  29.181  1.00  0.00     0.057 A 
ATOM     63  C   UNL A   1      49.468  26.972  28.046  1.00  0.00     0.134 A 
ATOM     64  C   UNL A   1      49.251  26.295  30.333  1.00  0.00     0.134 A 
ATOM     65  F   UNL A   1      48.959  27.462  26.906  1.00  0.00    -0.206 F 
ATOM     66  C   UNL A   1      50.809  26.580  28.051  1.00  0.00     0.040 A 
ATOM     67  C   UNL A   1      50.595  25.922  30.357  1.00  0.00     0.040 A 
ATOM     68  F   UNL A   1      48.533  26.133  31.454  1.00  0.00    -0.206 F 
ATOM     69  C   UNL A   1      51.376  26.058  29.211  1.00  0.00     0.006 A 
ENDBRANCH  48  62
BRANCH  49  70
ATOM     70  C   UNL A   1      38.954  29.127  29.166  1.00  0.00     0.057 A 
ATOM     71  C   UNL A   1      38.178  29.015  30.326  1.00  0.00     0.134 A 
ATOM     72  C   UNL A   1      38.313  29.568  28.002  1.00  0.00     0.134 A 
ATOM     73  F   UNL A   1      38.730  28.575  31.467  1.00  0.00    -0.206 F 
ATOM     74  C   UNL A   1      36.814  29.311  30.325  1.00  0.00     0.040 A 
ATOM     75  C   UNL A   1      36.955  29.891  27.993  1.00  0.00     0.040 A 
ATOM     76  F   UNL A   1      39.001  29.696  26.858  1.00  0.00    -0.206 F 
ATOM     77  C   UNL A   1      36.200  29.755  29.155  1.00  0.00     0.006 A 
ENDBRANCH  49  70
BRANCH  61  78
ATOM     78  C   UNL A   1      44.739  32.722  30.583  1.00  0.00     0.057 A 
ATOM     79  C   UNL A   1      44.823  33.097  31.930  1.00  0.00     0.134 A 
ATOM     80  C   UNL A   1      44.898  33.727  29.620  1.00  0.00     0.134 A 
ATOM     81  F   UNL A   1      44.668  32.183  32.900  1.00  0.00    -0.206 F 
ATOM     82  C   UNL A   1      45.029  34.425  32.305  1.00  0.00     0.040 A 
ATOM     83  C   UNL A   1      45.130  35.055  29.983  1.00  0.00     0.040 A 
ATOM     84  F   UNL A   1      44.838  33.434  28.312  1.00  0.00    -0.206 F 
ATOM     85  C   UNL A   1      45.188  35.408  31.330  1.00  0.00     0.006 A 
ENDBRANCH  61  78
ENDBRANCH  35  36
ENDBRANCH  28  30
ENDBRANCH  27  28
ENDBRANCH  26  27
ENDBRANCH  25  26
ENDBRANCH  24  25
ENDBRANCH   1  24
TORSDOF 19
ENDMDL
MODEL 3
REMARK VINA RESULT:      -9.7      0.667      6.232
REMARK SMILES CC[NH2+][C@]1(C(=O)OCCOCCOC(=O)c2ccc(-c3c4nc(c(-c5c(F)cccc5F)c5ccc([nH]5)c(-c5c(F)cccc5F)c5nc(c(-c6c(F)cccc6F)c6ccc3[nH]6)C=C5)C=C4)cc2)CC[C@@H]([N@@H+](C)CC(C)(C)C)C1
REMARK SMILES IDX 9 1 8 2 7 3 5 4 6 5 4 6 70 7 80 8 71 9 72 10 3 11 2 14 1 15
REMARK SMILES IDX 73 16 74 17 75 19 76 20 77 21 78 22 79 23 10 24 11 25 12 26
REMARK SMILES IDX 13 27 14 28 15 29 16 30 17 31 69 32 18 33 68 34 19 35 20 36
REMARK SMILES IDX 21 37 62 38 22 39 67 40 61 41 63 42 23 43 66 44 60 45 59 46
REMARK SMILES IDX 24 48 50 49 33 50 49 51 34 52 37 53 48 54 64 55 35 56 36 57
REMARK SMILES IDX 47 59 65 60 38 61 25 62 26 63 31 64 27 65 28 66 30 67 32 68
REMARK SMILES IDX 29 69 51 70 52 71 57 72 53 73 54 74 56 75 58 76 55 77 39 78
REMARK SMILES IDX 40 79 45 80 41 81 42 82 44 83 46 84 43 85
REMARK H PARENT 3 12 3 13 73 18 63 47 37 58
REMARK Flexibility Score: inf
ROOT
ATOM      1  C   UNL A   1      39.843  20.893  26.139  1.00  0.00     0.202 C 
ENDROOT
BRANCH   1   2
ATOM      2  C   UNL A   1      38.861  22.013  25.788  1.00  0.00     0.261 C 
BRANCH   2   3
ATOM      3  O   UNL A   1      37.497  21.559  25.842  1.00  0.00    -0.459 OA
BRANCH   3   4
ATOM      4  C   UNL A   1      36.663  22.030  24.867  1.00  0.00     0.368 C 
ATOM      5  O   UNL A   1      37.035  22.416  23.765  1.00  0.00    -0.245 OA
BRANCH   4   6
ATOM      6  C   UNL A   1      35.186  22.039  25.338  1.00  0.00     0.200 C 
ATOM      7  C   UNL A   1      35.039  23.050  26.495  1.00  0.00     0.087 C 
ATOM      8  C   UNL A   1      34.196  22.654  24.324  1.00  0.00     0.146 C 
ATOM      9  C   UNL A   1      33.539  23.324  26.590  1.00  0.00     0.072 C 
ATOM     10  C   UNL A   1      33.004  23.157  25.162  1.00  0.00     0.191 C 
BRANCH   6  11
ATOM     11  N   UNL A   1      34.830  20.713  25.882  1.00  0.00    -0.332 N 
ATOM     12  H   UNL A   1      35.697  20.243  26.145  1.00  0.00     0.347 HD
ATOM     13  H   UNL A   1      34.197  20.903  26.659  1.00  0.00     0.347 HD
BRANCH  11  14
ATOM     14  C   UNL A   1      34.097  19.822  25.000  1.00  0.00     0.257 C 
ATOM     15  C   UNL A   1      35.035  18.682  24.626  1.00  0.00     0.071 C 
ENDBRANCH  11  14
ENDBRANCH   6  11
BRANCH  10  16
ATOM     16  N   UNL A   1      32.212  24.257  24.617  1.00  0.00    -0.334 N 
ATOM     17  C   UNL A   1      31.093  23.827  23.794  1.00  0.00     0.332 C 
ATOM     18  H   UNL A   1      32.962  24.626  24.032  1.00  0.00     0.348 HD
BRANCH  16  19
ATOM     19  C   UNL A   1      32.050  25.548  25.287  1.00  0.00     0.268 C 
BRANCH  19  20
ATOM     20  C   UNL A   1      32.642  26.916  24.789  1.00  0.00     0.011 C 
ATOM     21  C   UNL A   1      31.570  27.988  24.557  1.00  0.00     0.017 C 
ATOM     22  C   UNL A   1      33.559  27.449  25.921  1.00  0.00     0.017 C 
ATOM     23  C   UNL A   1      33.501  26.787  23.524  1.00  0.00     0.017 C 
ENDBRANCH  19  20
ENDBRANCH  16  19
ENDBRANCH  10  16
ENDBRANCH   4   6
ENDBRANCH   3   4
ENDBRANCH   2   3
ENDBRANCH   1   2
BRANCH   1  24
ATOM     24  O   UNL A   1      41.109  21.004  25.491  1.00  0.00    -0.374 OA
BRANCH  24  25
ATOM     25  C   UNL A   1      42.162  21.568  26.275  1.00  0.00     0.202 C 
BRANCH  25  26
ATOM     26  C   UNL A   1      43.366  22.015  25.441  1.00  0.00     0.261 C 
BRANCH  26  27
ATOM     27  O   UNL A   1      43.026  23.195  24.687  1.00  0.00    -0.460 OA
BRANCH  27  28
ATOM     28  C   UNL A   1      43.763  24.284  24.998  1.00  0.00     0.338 C 
ATOM     29  O   UNL A   1      44.896  24.539  24.627  1.00  0.00    -0.246 OA
BRANCH  28  30
ATOM     30  C   UNL A   1      42.956  25.257  25.760  1.00  0.00     0.060 A 
ATOM     31  C   UNL A   1      43.626  26.396  26.220  1.00  0.00     0.016 A 
ATOM     32  C   UNL A   1      41.624  25.025  26.115  1.00  0.00     0.016 A 
ATOM     33  C   UNL A   1      43.004  27.251  27.122  1.00  0.00     0.010 A 
ATOM     34  C   UNL A   1      40.997  25.891  27.020  1.00  0.00     0.010 A 
ATOM     35  C   UNL A   1      41.708  26.971  27.575  1.00  0.00    -0.014 A 
BRANCH  35  36
ATOM     36  C   UNL A   1      41.216  27.697  28.772  1.00  0.00     0.031 A 
ATOM     37  C   UNL A   1      41.984  27.572  30.063  1.00  0.00     0.074 A 
ATOM     38  C   UNL A   1      40.179  28.547  28.685  1.00  0.00     0.049 A 
ATOM     39  N   UNL A   1      41.806  28.199  31.199  1.00  0.00    -0.248 NA
ATOM     40  C   UNL A   1      43.105  26.620  30.073  1.00  0.00     0.031 C 
ATOM     41  C   UNL A   1      39.379  28.784  27.485  1.00  0.00     0.029 A 
ATOM     42  N   UNL A   1      39.634  29.385  29.626  1.00  0.00    -0.354 N 
ATOM     43  C   UNL A   1      42.793  27.719  32.053  1.00  0.00     0.074 A 
ATOM     44  C   UNL A   1      43.539  26.721  31.319  1.00  0.00     0.031 C 
ATOM     45  C   UNL A   1      38.451  29.717  27.758  1.00  0.00     0.029 A 
ATOM     46  C   UNL A   1      38.581  30.130  29.154  1.00  0.00     0.049 A 
ATOM     47  H   UNL A   1      39.966  29.446  30.550  1.00  0.00     0.167 HD
ATOM     48  C   UNL A   1      43.066  28.089  33.326  1.00  0.00     0.037 A 
ATOM     49  C   UNL A   1      37.814  31.042  29.779  1.00  0.00     0.037 A 
ATOM     50  C   UNL A   1      42.333  29.088  34.057  1.00  0.00     0.049 A 
ATOM     51  C   UNL A   1      38.106  31.400  31.213  1.00  0.00     0.074 A 
ATOM     52  C   UNL A   1      42.543  29.543  35.346  1.00  0.00     0.029 A 
ATOM     53  N   UNL A   1      41.241  29.782  33.559  1.00  0.00    -0.354 N 
ATOM     54  N   UNL A   1      39.060  30.961  31.998  1.00  0.00    -0.248 NA
ATOM     55  C   UNL A   1      37.218  32.389  31.842  1.00  0.00     0.031 C 
ATOM     56  C   UNL A   1      41.551  30.485  35.644  1.00  0.00     0.029 A 
ATOM     57  C   UNL A   1      40.752  30.648  34.525  1.00  0.00     0.049 A 
ATOM     58  H   UNL A   1      40.869  29.678  32.654  1.00  0.00     0.167 HD
ATOM     59  C   UNL A   1      38.902  31.635  33.203  1.00  0.00     0.074 A 
ATOM     60  C   UNL A   1      37.771  32.525  33.038  1.00  0.00     0.031 C 
ATOM     61  C   UNL A   1      39.625  31.526  34.345  1.00  0.00     0.037 A 
BRANCH  48  62
ATOM     62  C   UNL A   1      44.202  27.392  34.017  1.00  0.00     0.057 A 
ATOM     63  C   UNL A   1      44.020  26.184  34.704  1.00  0.00     0.134 A 
ATOM     64  C   UNL A   1      45.496  27.925  33.977  1.00  0.00     0.134 A 
ATOM     65  F   UNL A   1      42.802  25.629  34.794  1.00  0.00    -0.206 F 
ATOM     66  C   UNL A   1      45.082  25.542  35.345  1.00  0.00     0.040 A 
ATOM     67  C   UNL A   1      46.569  27.280  34.594  1.00  0.00     0.040 A 
ATOM     68  F   UNL A   1      45.738  29.076  33.335  1.00  0.00    -0.206 F 
ATOM     69  C   UNL A   1      46.362  26.088  35.285  1.00  0.00     0.006 A 
ENDBRANCH  48  62
BRANCH  49  70
ATOM     70  C   UNL A   1      36.691  31.689  29.055  1.00  0.00     0.057 A 
ATOM     71  C   UNL A   1      36.761  33.025  28.645  1.00  0.00     0.134 A 
ATOM     72  C   UNL A   1      35.511  30.989  28.777  1.00  0.00     0.134 A 
ATOM     73  F   UNL A   1      37.856  33.754  28.905  1.00  0.00    -0.206 F 
ATOM     74  C   UNL A   1      35.692  33.648  27.999  1.00  0.00     0.040 A 
ATOM     75  C   UNL A   1      34.444  31.592  28.110  1.00  0.00     0.040 A 
ATOM     76  F   UNL A   1      35.382  29.705  29.144  1.00  0.00    -0.206 F 
ATOM     77  C   UNL A   1      34.530  32.928  27.726  1.00  0.00     0.006 A 
ENDBRANCH  49  70
BRANCH  61  78
ATOM     78  C   UNL A   1      39.228  32.407  35.493  1.00  0.00     0.057 A 
ATOM     79  C   UNL A   1      39.737  33.704  35.637  1.00  0.00     0.134 A 
ATOM     80  C   UNL A   1      38.310  31.961  36.453  1.00  0.00     0.134 A 
ATOM     81  F   UNL A   1      40.628  34.186  34.758  1.00  0.00    -0.206 F 
ATOM     82  C   UNL A   1      39.368  34.517  36.711  1.00  0.00     0.040 A 
ATOM     83  C   UNL A   1      37.914  32.774  37.516  1.00  0.00     0.040 A 
ATOM     84  F   UNL A   1      37.778  30.732  36.368  1.00  0.00    -0.206 F 
ATOM     85  C   UNL A   1      38.449  34.053  37.652  1.00  0.00     0.006 A 
ENDBRANCH  61  78
ENDBRANCH  35  36
ENDBRANCH  28  30
ENDBRANCH  27  28
ENDBRANCH  26  27
ENDBRANCH  25  26
ENDBRANCH  24  25
ENDBRANCH   1  24
TORSDOF 19
ENDMDL
