MODEL 1
REMARK VINA RESULT:     -12.2      0.000      0.000
REMARK SMILES O=C(OCCOCCOC(=O)c1nn(Cc2ccc(F)cc2)c2c1CN(C(=O)[C@H]1CC1(F)F)CC2)c1ccc(-c2c3nc(c(-c4c(F)cccc4F)c4ccc([nH]4)c(-c4c(F)cccc4F)c4nc(c(-c5c(F)cccc5F)c5ccc2[nH]5)C=C4)C=C3)cc1
REMARK SMILES IDX 6 1 5 2 4 3 3 4 2 5 1 6 36 7 37 8 89 9 38 10 88 11 39 12
REMARK SMILES IDX 40 13 41 14 82 15 42 16 87 17 81 18 83 19 43 20 86 21 80 22
REMARK SMILES IDX 79 23 44 25 70 26 53 27 69 28 54 29 57 30 68 31 84 32 55 33
REMARK SMILES IDX 56 34 67 36 85 37 58 38 45 39 46 40 51 41 47 42 48 43 50 44
REMARK SMILES IDX 52 45 49 46 71 47 72 48 77 49 73 50 74 51 76 52 78 53 75 54
REMARK SMILES IDX 59 55 60 56 65 57 61 58 62 59 64 60 66 61 63 62 7 63 8 64
REMARK SMILES IDX 9 65 10 66 11 67 12 68 13 69 24 70 14 71 23 72 25 73 35 74
REMARK SMILES IDX 26 75 34 76 15 77 16 78 17 79 22 80 18 81 21 82 19 83 20 84
REMARK SMILES IDX 27 85 28 86 29 87 30 88 31 89 32 90 33 91
REMARK H PARENT 83 24 57 35
REMARK Flexibility Score: inf
ROOT
ATOM      1  O   UNL A   1      40.357  20.679  27.190  1.00  0.00    -0.374 OA
ENDROOT
BRANCH   1   2
ATOM      2  C   UNL A   1      41.610  20.089  27.506  1.00  0.00     0.202 C 
BRANCH   2   3
ATOM      3  C   UNL A   1      42.420  19.433  26.391  1.00  0.00     0.261 C 
BRANCH   3   4
ATOM      4  O   UNL A   1      42.710  20.328  25.307  1.00  0.00    -0.460 OA
BRANCH   4   5
ATOM      5  C   UNL A   1      43.905  20.915  25.081  1.00  0.00     0.338 C 
ATOM      6  O   UNL A   1      44.721  20.384  24.331  1.00  0.00    -0.246 OA
BRANCH   5   7
ATOM      7  C   UNL A   1      44.118  22.323  25.498  1.00  0.00     0.060 A 
ATOM      8  C   UNL A   1      45.009  22.753  26.480  1.00  0.00     0.016 A 
ATOM      9  C   UNL A   1      43.223  23.242  24.931  1.00  0.00     0.016 A 
ATOM     10  C   UNL A   1      44.784  23.953  27.123  1.00  0.00     0.010 A 
ATOM     11  C   UNL A   1      43.050  24.480  25.511  1.00  0.00     0.010 A 
ATOM     12  C   UNL A   1      43.748  24.768  26.677  1.00  0.00    -0.014 A 
BRANCH  12  13
ATOM     13  C   UNL A   1      43.496  26.000  27.394  1.00  0.00     0.031 A 
ATOM     14  C   UNL A   1      44.501  27.056  27.112  1.00  0.00     0.074 A 
ATOM     15  C   UNL A   1      42.383  26.162  28.135  1.00  0.00     0.049 A 
ATOM     16  N   UNL A   1      45.313  27.624  27.940  1.00  0.00    -0.248 NA
ATOM     17  C   UNL A   1      44.752  27.393  25.699  1.00  0.00     0.031 C 
ATOM     18  C   UNL A   1      41.235  25.259  28.261  1.00  0.00     0.029 A 
ATOM     19  N   UNL A   1      41.994  27.243  28.860  1.00  0.00    -0.354 N 
ATOM     20  C   UNL A   1      46.036  28.543  27.184  1.00  0.00     0.074 A 
ATOM     21  C   UNL A   1      45.781  28.235  25.802  1.00  0.00     0.031 C 
ATOM     22  C   UNL A   1      40.192  25.930  28.802  1.00  0.00     0.029 A 
ATOM     23  C   UNL A   1      40.642  27.255  29.188  1.00  0.00     0.049 A 
ATOM     24  H   UNL A   1      42.615  27.957  29.130  1.00  0.00     0.167 HD
ATOM     25  C   UNL A   1      46.595  29.644  27.753  1.00  0.00     0.037 A 
ATOM     26  C   UNL A   1      39.956  28.329  29.654  1.00  0.00     0.037 A 
ATOM     27  C   UNL A   1      46.727  29.491  29.176  1.00  0.00     0.049 A 
ATOM     28  C   UNL A   1      40.960  29.287  30.188  1.00  0.00     0.074 A 
ATOM     29  C   UNL A   1      47.434  28.629  29.991  1.00  0.00     0.029 A 
ATOM     30  N   UNL A   1      45.758  30.053  29.969  1.00  0.00    -0.354 N 
ATOM     31  N   UNL A   1      41.692  29.052  31.242  1.00  0.00    -0.248 NA
ATOM     32  C   UNL A   1      41.491  30.280  29.265  1.00  0.00     0.031 C 
ATOM     33  C   UNL A   1      46.560  28.355  31.081  1.00  0.00     0.029 A 
ATOM     34  C   UNL A   1      45.406  29.122  30.912  1.00  0.00     0.049 A 
ATOM     35  H   UNL A   1      45.383  30.958  29.878  1.00  0.00     0.167 HD
ATOM     36  C   UNL A   1      42.951  29.534  30.913  1.00  0.00     0.074 A 
ATOM     37  C   UNL A   1      42.751  30.332  29.705  1.00  0.00     0.031 C 
ATOM     38  C   UNL A   1      44.078  29.003  31.470  1.00  0.00     0.037 A 
BRANCH  25  39
ATOM     39  C   UNL A   1      46.669  30.981  27.069  1.00  0.00     0.057 A 
ATOM     40  C   UNL A   1      45.537  31.755  26.741  1.00  0.00     0.134 A 
ATOM     41  C   UNL A   1      47.899  31.652  26.986  1.00  0.00     0.134 A 
ATOM     42  F   UNL A   1      44.288  31.294  26.885  1.00  0.00    -0.206 F 
ATOM     43  C   UNL A   1      45.619  33.092  26.347  1.00  0.00     0.040 A 
ATOM     44  C   UNL A   1      47.989  33.008  26.644  1.00  0.00     0.040 A 
ATOM     45  F   UNL A   1      49.045  31.033  27.310  1.00  0.00    -0.206 F 
ATOM     46  C   UNL A   1      46.847  33.731  26.324  1.00  0.00     0.006 A 
ENDBRANCH  25  39
BRANCH  26  47
ATOM     47  C   UNL A   1      38.580  28.757  29.297  1.00  0.00     0.057 A 
ATOM     48  C   UNL A   1      38.280  29.327  28.046  1.00  0.00     0.134 A 
ATOM     49  C   UNL A   1      37.591  28.893  30.284  1.00  0.00     0.134 A 
ATOM     50  F   UNL A   1      39.173  29.319  27.046  1.00  0.00    -0.206 F 
ATOM     51  C   UNL A   1      37.088  30.016  27.801  1.00  0.00     0.040 A 
ATOM     52  C   UNL A   1      36.395  29.586  30.053  1.00  0.00     0.040 A 
ATOM     53  F   UNL A   1      37.796  28.416  31.520  1.00  0.00    -0.206 F 
ATOM     54  C   UNL A   1      36.147  30.164  28.811  1.00  0.00     0.006 A 
ENDBRANCH  26  47
BRANCH  38  55
ATOM     55  C   UNL A   1      43.920  28.032  32.610  1.00  0.00     0.057 A 
ATOM     56  C   UNL A   1      44.056  28.510  33.916  1.00  0.00     0.134 A 
ATOM     57  C   UNL A   1      43.833  26.639  32.452  1.00  0.00     0.134 A 
ATOM     58  F   UNL A   1      44.196  29.827  34.141  1.00  0.00    -0.206 F 
ATOM     59  C   UNL A   1      44.118  27.651  35.015  1.00  0.00     0.040 A 
ATOM     60  C   UNL A   1      43.859  25.768  33.547  1.00  0.00     0.040 A 
ATOM     61  F   UNL A   1      43.793  26.079  31.236  1.00  0.00    -0.206 F 
ATOM     62  C   UNL A   1      44.014  26.275  34.834  1.00  0.00     0.006 A 
ENDBRANCH  38  55
ENDBRANCH  12  13
ENDBRANCH   5   7
ENDBRANCH   4   5
ENDBRANCH   3   4
ENDBRANCH   2   3
ENDBRANCH   1   2
BRANCH   1  63
ATOM     63  C   UNL A   1      40.253  22.106  27.264  1.00  0.00     0.202 C 
BRANCH  63  64
ATOM     64  C   UNL A   1      39.420  22.892  26.234  1.00  0.00     0.261 C 
BRANCH  64  65
ATOM     65  O   UNL A   1      38.001  22.702  26.344  1.00  0.00    -0.458 OA
BRANCH  65  66
ATOM     66  C   UNL A   1      37.390  22.187  25.227  1.00  0.00     0.359 C 
ATOM     67  O   UNL A   1      37.848  21.286  24.550  1.00  0.00    -0.244 OA
BRANCH  66  68
ATOM     68  C   UNL A   1      36.019  22.697  25.050  1.00  0.00     0.175 A 
ATOM     69  N   UNL A   1      35.754  23.978  24.733  1.00  0.00    -0.165 NA
ATOM     70  C   UNL A   1      34.813  21.946  25.163  1.00  0.00     0.028 A 
ATOM     71  N   UNL A   1      34.411  24.029  24.574  1.00  0.00    -0.264 N 
ATOM     72  C   UNL A   1      33.810  22.833  24.839  1.00  0.00     0.046 A 
ATOM     73  C   UNL A   1      34.570  20.523  25.541  1.00  0.00     0.159 C 
ATOM     74  C   UNL A   1      32.373  22.473  24.722  1.00  0.00     0.078 C 
ATOM     75  N   UNL A   1      33.188  20.150  25.194  1.00  0.00    -0.337 N 
ATOM     76  C   UNL A   1      32.133  21.149  25.477  1.00  0.00     0.126 C 
BRANCH  71  77
ATOM     77  C   UNL A   1      33.805  25.211  23.975  1.00  0.00     0.180 C 
BRANCH  77  78
ATOM     78  C   UNL A   1      33.096  26.091  24.975  1.00  0.00    -0.026 A 
ATOM     79  C   UNL A   1      31.702  26.008  25.133  1.00  0.00     0.008 A 
ATOM     80  C   UNL A   1      33.822  26.961  25.806  1.00  0.00     0.008 A 
ATOM     81  C   UNL A   1      31.051  26.759  26.111  1.00  0.00     0.039 A 
ATOM     82  C   UNL A   1      33.168  27.711  26.785  1.00  0.00     0.039 A 
ATOM     83  C   UNL A   1      31.791  27.598  26.933  1.00  0.00     0.123 A 
ATOM     84  F   UNL A   1      31.170  28.304  27.887  1.00  0.00    -0.207 F 
ENDBRANCH  77  78
ENDBRANCH  71  77
BRANCH  75  85
ATOM     85  C   UNL A   1      32.959  18.845  24.780  1.00  0.00     0.232 C 
ATOM     86  O   UNL A   1      31.913  18.247  24.994  1.00  0.00    -0.274 OA
BRANCH  85  87
ATOM     87  C   UNL A   1      34.020  18.184  23.996  1.00  0.00     0.154 C 
ATOM     88  C   UNL A   1      34.984  17.212  24.656  1.00  0.00     0.097 C 
ATOM     89  C   UNL A   1      33.934  16.727  23.730  1.00  0.00     0.260 C 
ATOM     90  F   UNL A   1      32.939  15.921  24.226  1.00  0.00    -0.206 F 
ATOM     91  F   UNL A   1      34.311  16.212  22.511  1.00  0.00    -0.206 F 
ENDBRANCH  85  87
ENDBRANCH  75  85
ENDBRANCH  66  68
ENDBRANCH  65  66
ENDBRANCH  64  65
ENDBRANCH  63  64
ENDBRANCH   1  63
TORSDOF 18
ENDMDL
MODEL 2
REMARK VINA RESULT:     -11.9      1.646      2.240
REMARK SMILES O=C(OCCOCCOC(=O)c1nn(Cc2ccc(F)cc2)c2c1CN(C(=O)[C@H]1CC1(F)F)CC2)c1ccc(-c2c3nc(c(-c4c(F)cccc4F)c4ccc([nH]4)c(-c4c(F)cccc4F)c4nc(c(-c5c(F)cccc5F)c5ccc2[nH]5)C=C4)C=C3)cc1
REMARK SMILES IDX 6 1 5 2 4 3 3 4 2 5 1 6 36 7 37 8 89 9 38 10 88 11 39 12
REMARK SMILES IDX 40 13 41 14 82 15 42 16 87 17 81 18 83 19 43 20 86 21 80 22
REMARK SMILES IDX 79 23 44 25 70 26 53 27 69 28 54 29 57 30 68 31 84 32 55 33
REMARK SMILES IDX 56 34 67 36 85 37 58 38 45 39 46 40 51 41 47 42 48 43 50 44
REMARK SMILES IDX 52 45 49 46 71 47 72 48 77 49 73 50 74 51 76 52 78 53 75 54
REMARK SMILES IDX 59 55 60 56 65 57 61 58 62 59 64 60 66 61 63 62 7 63 8 64
REMARK SMILES IDX 9 65 10 66 11 67 12 68 13 69 24 70 14 71 23 72 25 73 35 74
REMARK SMILES IDX 26 75 34 76 15 77 16 78 17 79 22 80 18 81 21 82 19 83 20 84
REMARK SMILES IDX 27 85 28 86 29 87 30 88 31 89 32 90 33 91
REMARK H PARENT 83 24 57 35
REMARK Flexibility Score: inf
ROOT
ATOM      1  O   UNL A   1      41.507  20.530  26.075  1.00  0.00    -0.374 OA
ENDROOT
BRANCH   1   2
ATOM      2  C   UNL A   1      42.039  19.214  26.011  1.00  0.00     0.202 C 
BRANCH   2   3
ATOM      3  C   UNL A   1      43.554  19.028  26.006  1.00  0.00     0.261 C 
BRANCH   3   4
ATOM      4  O   UNL A   1      44.090  18.812  24.693  1.00  0.00    -0.460 OA
BRANCH   4   5
ATOM      5  C   UNL A   1      44.566  19.779  23.878  1.00  0.00     0.338 C 
ATOM      6  O   UNL A   1      44.511  19.640  22.658  1.00  0.00    -0.246 OA
BRANCH   5   7
ATOM      7  C   UNL A   1      44.883  21.116  24.438  1.00  0.00     0.060 A 
ATOM      8  C   UNL A   1      45.872  21.386  25.383  1.00  0.00     0.016 A 
ATOM      9  C   UNL A   1      43.994  22.133  24.064  1.00  0.00     0.016 A 
ATOM     10  C   UNL A   1      45.761  22.506  26.181  1.00  0.00     0.010 A 
ATOM     11  C   UNL A   1      43.931  23.297  24.798  1.00  0.00     0.010 A 
ATOM     12  C   UNL A   1      44.735  23.412  25.926  1.00  0.00    -0.014 A 
BRANCH  12  13
ATOM     13  C   UNL A   1      44.605  24.557  26.801  1.00  0.00     0.031 A 
ATOM     14  C   UNL A   1      45.768  25.478  26.735  1.00  0.00     0.074 A 
ATOM     15  C   UNL A   1      43.473  24.780  27.497  1.00  0.00     0.049 A 
ATOM     16  N   UNL A   1      46.586  25.797  27.682  1.00  0.00    -0.248 NA
ATOM     17  C   UNL A   1      46.171  25.966  25.404  1.00  0.00     0.031 C 
ATOM     18  C   UNL A   1      42.203  24.051  27.423  1.00  0.00     0.029 A 
ATOM     19  N   UNL A   1      43.186  25.796  28.350  1.00  0.00    -0.354 N 
ATOM     20  C   UNL A   1      47.487  26.692  27.112  1.00  0.00     0.074 A 
ATOM     21  C   UNL A   1      47.297  26.621  25.688  1.00  0.00     0.031 C 
ATOM     22  C   UNL A   1      41.227  24.790  27.999  1.00  0.00     0.029 A 
ATOM     23  C   UNL A   1      41.827  25.966  28.602  1.00  0.00     0.049 A 
ATOM     24  H   UNL A   1      43.879  26.365  28.757  1.00  0.00     0.167 HD
ATOM     25  C   UNL A   1      48.150  27.607  27.868  1.00  0.00     0.037 A 
ATOM     26  C   UNL A   1      41.266  27.056  29.182  1.00  0.00     0.037 A 
ATOM     27  C   UNL A   1      48.150  27.241  29.258  1.00  0.00     0.049 A 
ATOM     28  C   UNL A   1      42.352  27.768  29.908  1.00  0.00     0.074 A 
ATOM     29  C   UNL A   1      48.664  26.178  29.974  1.00  0.00     0.029 A 
ATOM     30  N   UNL A   1      47.212  27.827  30.070  1.00  0.00    -0.354 N 
ATOM     31  N   UNL A   1      42.961  27.282  30.954  1.00  0.00    -0.248 NA
ATOM     32  C   UNL A   1      43.086  28.789  29.173  1.00  0.00     0.031 C 
ATOM     33  C   UNL A   1      47.680  25.890  30.961  1.00  0.00     0.029 A 
ATOM     34  C   UNL A   1      46.661  26.838  30.844  1.00  0.00     0.049 A 
ATOM     35  H   UNL A   1      46.977  28.782  30.094  1.00  0.00     0.167 HD
ATOM     36  C   UNL A   1      44.296  27.610  30.770  1.00  0.00     0.074 A 
ATOM     37  C   UNL A   1      44.304  28.589  29.685  1.00  0.00     0.031 C 
ATOM     38  C   UNL A   1      45.291  26.844  31.304  1.00  0.00     0.037 A 
BRANCH  25  39
ATOM     39  C   UNL A   1      48.464  29.000  27.395  1.00  0.00     0.057 A 
ATOM     40  C   UNL A   1      47.484  29.988  27.166  1.00  0.00     0.134 A 
ATOM     41  C   UNL A   1      49.787  29.467  27.437  1.00  0.00     0.134 A 
ATOM     42  F   UNL A   1      46.172  29.720  27.216  1.00  0.00    -0.206 F 
ATOM     43  C   UNL A   1      47.793  31.336  26.979  1.00  0.00     0.040 A 
ATOM     44  C   UNL A   1      50.105  30.825  27.305  1.00  0.00     0.040 A 
ATOM     45  F   UNL A   1      50.805  28.629  27.685  1.00  0.00    -0.206 F 
ATOM     46  C   UNL A   1      49.106  31.763  27.076  1.00  0.00     0.006 A 
ENDBRANCH  25  39
BRANCH  26  47
ATOM     47  C   UNL A   1      39.996  27.732  28.817  1.00  0.00     0.057 A 
ATOM     48  C   UNL A   1      39.877  28.509  27.651  1.00  0.00     0.134 A 
ATOM     49  C   UNL A   1      38.963  27.875  29.757  1.00  0.00     0.134 A 
ATOM     50  F   UNL A   1      40.833  28.506  26.713  1.00  0.00    -0.206 F 
ATOM     51  C   UNL A   1      38.815  29.396  27.446  1.00  0.00     0.040 A 
ATOM     52  C   UNL A   1      37.898  28.766  29.565  1.00  0.00     0.040 A 
ATOM     53  F   UNL A   1      39.003  27.206  30.917  1.00  0.00    -0.206 F 
ATOM     54  C   UNL A   1      37.829  29.541  28.412  1.00  0.00     0.006 A 
ENDBRANCH  26  47
BRANCH  38  55
ATOM     55  C   UNL A   1      44.911  25.759  32.277  1.00  0.00     0.057 A 
ATOM     56  C   UNL A   1      44.626  24.486  31.776  1.00  0.00     0.134 A 
ATOM     57  C   UNL A   1      44.636  25.981  33.636  1.00  0.00     0.134 A 
ATOM     58  F   UNL A   1      44.814  24.216  30.474  1.00  0.00    -0.206 F 
ATOM     59  C   UNL A   1      44.081  23.482  32.578  1.00  0.00     0.040 A 
ATOM     60  C   UNL A   1      44.121  24.974  34.459  1.00  0.00     0.040 A 
ATOM     61  F   UNL A   1      44.788  27.192  34.187  1.00  0.00    -0.206 F 
ATOM     62  C   UNL A   1      43.831  23.721  33.926  1.00  0.00     0.006 A 
ENDBRANCH  38  55
ENDBRANCH  12  13
ENDBRANCH   5   7
ENDBRANCH   4   5
ENDBRANCH   3   4
ENDBRANCH   2   3
ENDBRANCH   1   2
BRANCH   1  63
ATOM     63  C   UNL A   1      40.082  20.673  26.124  1.00  0.00     0.202 C 
BRANCH  63  64
ATOM     64  C   UNL A   1      39.432  22.063  26.254  1.00  0.00     0.261 C 
BRANCH  64  65
ATOM     65  O   UNL A   1      38.127  22.170  25.665  1.00  0.00    -0.458 OA
BRANCH  65  66
ATOM     66  C   UNL A   1      37.435  23.315  25.974  1.00  0.00     0.359 C 
ATOM     67  O   UNL A   1      37.919  24.273  26.549  1.00  0.00    -0.244 OA
BRANCH  66  68
ATOM     68  C   UNL A   1      36.100  23.351  25.354  1.00  0.00     0.175 A 
ATOM     69  N   UNL A   1      35.562  24.477  24.849  1.00  0.00    -0.165 NA
ATOM     70  C   UNL A   1      35.214  22.248  25.183  1.00  0.00     0.028 A 
ATOM     71  N   UNL A   1      34.387  24.087  24.299  1.00  0.00    -0.264 N 
ATOM     72  C   UNL A   1      34.136  22.761  24.494  1.00  0.00     0.046 A 
ATOM     73  C   UNL A   1      35.320  20.823  25.613  1.00  0.00     0.159 C 
ATOM     74  C   UNL A   1      32.992  21.953  23.998  1.00  0.00     0.078 C 
ATOM     75  N   UNL A   1      34.300  20.020  24.916  1.00  0.00    -0.337 N 
ATOM     76  C   UNL A   1      32.955  20.621  24.777  1.00  0.00     0.126 C 
BRANCH  71  77
ATOM     77  C   UNL A   1      33.661  25.009  23.435  1.00  0.00     0.180 C 
BRANCH  77  78
ATOM     78  C   UNL A   1      33.014  26.147  24.186  1.00  0.00    -0.026 A 
ATOM     79  C   UNL A   1      32.068  25.887  25.193  1.00  0.00     0.008 A 
ATOM     80  C   UNL A   1      33.389  27.477  23.934  1.00  0.00     0.008 A 
ATOM     81  C   UNL A   1      31.527  26.929  25.946  1.00  0.00     0.039 A 
ATOM     82  C   UNL A   1      32.846  28.518  24.689  1.00  0.00     0.039 A 
ATOM     83  C   UNL A   1      31.926  28.234  25.692  1.00  0.00     0.123 A 
ATOM     84  F   UNL A   1      31.423  29.234  26.427  1.00  0.00    -0.207 F 
ENDBRANCH  77  78
ENDBRANCH  71  77
BRANCH  75  85
ATOM     85  C   UNL A   1      34.627  18.713  24.584  1.00  0.00     0.232 C 
ATOM     86  O   UNL A   1      35.765  18.269  24.648  1.00  0.00    -0.274 OA
BRANCH  85  87
ATOM     87  C   UNL A   1      33.523  17.815  24.190  1.00  0.00     0.154 C 
ATOM     88  C   UNL A   1      33.602  17.000  22.910  1.00  0.00     0.097 C 
ATOM     89  C   UNL A   1      33.724  16.347  24.234  1.00  0.00     0.260 C 
ATOM     90  F   UNL A   1      34.915  15.751  24.569  1.00  0.00    -0.206 F 
ATOM     91  F   UNL A   1      32.714  15.512  24.657  1.00  0.00    -0.206 F 
ENDBRANCH  85  87
ENDBRANCH  75  85
ENDBRANCH  66  68
ENDBRANCH  65  66
ENDBRANCH  64  65
ENDBRANCH  63  64
ENDBRANCH   1  63
TORSDOF 18
ENDMDL
MODEL 3
REMARK VINA RESULT:     -11.7      3.519      7.980
REMARK SMILES O=C(OCCOCCOC(=O)c1nn(Cc2ccc(F)cc2)c2c1CN(C(=O)[C@H]1CC1(F)F)CC2)c1ccc(-c2c3nc(c(-c4c(F)cccc4F)c4ccc([nH]4)c(-c4c(F)cccc4F)c4nc(c(-c5c(F)cccc5F)c5ccc2[nH]5)C=C4)C=C3)cc1
REMARK SMILES IDX 6 1 5 2 4 3 3 4 2 5 1 6 36 7 37 8 89 9 38 10 88 11 39 12
REMARK SMILES IDX 40 13 41 14 82 15 42 16 87 17 81 18 83 19 43 20 86 21 80 22
REMARK SMILES IDX 79 23 44 25 70 26 53 27 69 28 54 29 57 30 68 31 84 32 55 33
REMARK SMILES IDX 56 34 67 36 85 37 58 38 45 39 46 40 51 41 47 42 48 43 50 44
REMARK SMILES IDX 52 45 49 46 71 47 72 48 77 49 73 50 74 51 76 52 78 53 75 54
REMARK SMILES IDX 59 55 60 56 65 57 61 58 62 59 64 60 66 61 63 62 7 63 8 64
REMARK SMILES IDX 9 65 10 66 11 67 12 68 13 69 24 70 14 71 23 72 25 73 35 74
REMARK SMILES IDX 26 75 34 76 15 77 16 78 17 79 22 80 18 81 21 82 19 83 20 84
REMARK SMILES IDX 27 85 28 86 29 87 30 88 31 89 32 90 33 91
REMARK H PARENT 83 24 57 35
REMARK Flexibility Score: inf
ROOT
ATOM      1  O   UNL A   1      33.632  31.338  28.068  1.00  0.00    -0.374 OA
ENDROOT
BRANCH   1   2
ATOM      2  C   UNL A   1      34.023  32.703  28.103  1.00  0.00     0.202 C 
BRANCH   2   3
ATOM      3  C   UNL A   1      34.513  33.297  29.421  1.00  0.00     0.261 C 
BRANCH   3   4
ATOM      4  O   UNL A   1      34.429  32.376  30.518  1.00  0.00    -0.460 OA
BRANCH   4   5
ATOM      5  C   UNL A   1      35.476  31.951  31.259  1.00  0.00     0.338 C 
ATOM      6  O   UNL A   1      35.439  32.036  32.485  1.00  0.00    -0.246 OA
BRANCH   5   7
ATOM      7  C   UNL A   1      36.532  31.125  30.625  1.00  0.00     0.060 A 
ATOM      8  C   UNL A   1      36.464  29.750  30.404  1.00  0.00     0.016 A 
ATOM      9  C   UNL A   1      37.734  31.802  30.377  1.00  0.00     0.016 A 
ATOM     10  C   UNL A   1      37.630  29.022  30.283  1.00  0.00     0.010 A 
ATOM     11  C   UNL A   1      38.895  31.090  30.167  1.00  0.00     0.010 A 
ATOM     12  C   UNL A   1      38.844  29.703  30.248  1.00  0.00    -0.014 A 
BRANCH  12  13
ATOM     13  C   UNL A   1      40.060  28.923  30.170  1.00  0.00     0.031 A 
ATOM     14  C   UNL A   1      40.740  28.768  31.481  1.00  0.00     0.074 A 
ATOM     15  C   UNL A   1      40.432  28.321  29.023  1.00  0.00     0.049 A 
ATOM     16  N   UNL A   1      41.917  29.174  31.821  1.00  0.00    -0.248 NA
ATOM     17  C   UNL A   1      39.937  28.249  32.603  1.00  0.00     0.031 C 
ATOM     18  C   UNL A   1      39.689  28.228  27.763  1.00  0.00     0.029 A 
ATOM     19  N   UNL A   1      41.528  27.557  28.781  1.00  0.00    -0.354 N 
ATOM     20  C   UNL A   1      42.083  28.776  33.144  1.00  0.00     0.074 A 
ATOM     21  C   UNL A   1      40.786  28.378  33.623  1.00  0.00     0.031 C 
ATOM     22  C   UNL A   1      40.232  27.259  26.991  1.00  0.00     0.029 A 
ATOM     23  C   UNL A   1      41.435  26.769  27.637  1.00  0.00     0.049 A 
ATOM     24  H   UNL A   1      42.322  27.560  29.363  1.00  0.00     0.167 HD
ATOM     25  C   UNL A   1      43.319  28.569  33.672  1.00  0.00     0.037 A 
ATOM     26  C   UNL A   1      42.255  25.733  27.329  1.00  0.00     0.037 A 
ATOM     27  C   UNL A   1      44.339  29.216  32.892  1.00  0.00     0.049 A 
ATOM     28  C   UNL A   1      43.494  25.905  28.134  1.00  0.00     0.074 A 
ATOM     29  C   UNL A   1      44.621  30.530  32.575  1.00  0.00     0.029 A 
ATOM     30  N   UNL A   1      45.026  28.450  31.984  1.00  0.00    -0.354 N 
ATOM     31  N   UNL A   1      44.340  26.882  27.957  1.00  0.00    -0.248 NA
ATOM     32  C   UNL A   1      43.528  25.277  29.447  1.00  0.00     0.031 C 
ATOM     33  C   UNL A   1      45.056  30.494  31.220  1.00  0.00     0.029 A 
ATOM     34  C   UNL A   1      45.091  29.159  30.813  1.00  0.00     0.049 A 
ATOM     35  H   UNL A   1      45.404  27.555  32.144  1.00  0.00     0.167 HD
ATOM     36  C   UNL A   1      44.705  27.270  29.237  1.00  0.00     0.074 A 
ATOM     37  C   UNL A   1      44.218  26.206  30.113  1.00  0.00     0.031 C 
ATOM     38  C   UNL A   1      45.099  28.550  29.502  1.00  0.00     0.037 A 
BRANCH  25  39
ATOM     39  C   UNL A   1      43.622  27.483  34.667  1.00  0.00     0.057 A 
ATOM     40  C   UNL A   1      43.630  27.682  36.063  1.00  0.00     0.134 A 
ATOM     41  C   UNL A   1      43.628  26.142  34.252  1.00  0.00     0.134 A 
ATOM     42  F   UNL A   1      43.506  28.896  36.615  1.00  0.00    -0.206 F 
ATOM     43  C   UNL A   1      43.655  26.629  36.980  1.00  0.00     0.040 A 
ATOM     44  C   UNL A   1      43.600  25.078  35.163  1.00  0.00     0.040 A 
ATOM     45  F   UNL A   1      43.585  25.824  32.949  1.00  0.00    -0.206 F 
ATOM     46  C   UNL A   1      43.613  25.321  36.531  1.00  0.00     0.006 A 
ENDBRANCH  25  39
BRANCH  26  47
ATOM     47  C   UNL A   1      41.887  24.425  26.731  1.00  0.00     0.057 A 
ATOM     48  C   UNL A   1      40.839  23.641  27.248  1.00  0.00     0.134 A 
ATOM     49  C   UNL A   1      42.747  23.779  25.830  1.00  0.00     0.134 A 
ATOM     50  F   UNL A   1      39.994  24.128  28.166  1.00  0.00    -0.206 F 
ATOM     51  C   UNL A   1      40.677  22.292  26.915  1.00  0.00     0.040 A 
ATOM     52  C   UNL A   1      42.598  22.427  25.493  1.00  0.00     0.040 A 
ATOM     53  F   UNL A   1      43.798  24.430  25.310  1.00  0.00    -0.206 F 
ATOM     54  C   UNL A   1      41.568  21.674  26.048  1.00  0.00     0.006 A 
ENDBRANCH  26  47
BRANCH  38  55
ATOM     55  C   UNL A   1      45.339  29.476  28.339  1.00  0.00     0.057 A 
ATOM     56  C   UNL A   1      46.652  29.671  27.903  1.00  0.00     0.134 A 
ATOM     57  C   UNL A   1      44.356  30.308  27.780  1.00  0.00     0.134 A 
ATOM     58  F   UNL A   1      47.653  28.948  28.432  1.00  0.00    -0.206 F 
ATOM     59  C   UNL A   1      46.982  30.654  26.968  1.00  0.00     0.040 A 
ATOM     60  C   UNL A   1      44.666  31.274  26.816  1.00  0.00     0.040 A 
ATOM     61  F   UNL A   1      43.085  30.261  28.199  1.00  0.00    -0.206 F 
ATOM     62  C   UNL A   1      45.987  31.456  26.415  1.00  0.00     0.006 A 
ENDBRANCH  38  55
ENDBRANCH  12  13
ENDBRANCH   5   7
ENDBRANCH   4   5
ENDBRANCH   3   4
ENDBRANCH   2   3
ENDBRANCH   1   2
BRANCH   1  63
ATOM     63  C   UNL A   1      34.450  30.428  27.321  1.00  0.00     0.202 C 
BRANCH  63  64
ATOM     64  C   UNL A   1      33.815  29.320  26.460  1.00  0.00     0.261 C 
BRANCH  64  65
ATOM     65  O   UNL A   1      33.515  28.109  27.170  1.00  0.00    -0.458 OA
BRANCH  65  66
ATOM     66  C   UNL A   1      32.188  27.754  27.190  1.00  0.00     0.359 C 
ATOM     67  O   UNL A   1      31.409  28.069  28.069  1.00  0.00    -0.244 OA
BRANCH  66  68
ATOM     68  C   UNL A   1      31.755  27.124  25.931  1.00  0.00     0.175 A 
ATOM     69  N   UNL A   1      30.975  27.755  25.033  1.00  0.00    -0.165 NA
ATOM     70  C   UNL A   1      32.091  25.816  25.476  1.00  0.00     0.028 A 
ATOM     71  N   UNL A   1      30.875  26.895  23.991  1.00  0.00    -0.264 N 
ATOM     72  C   UNL A   1      31.517  25.715  24.228  1.00  0.00     0.046 A 
ATOM     73  C   UNL A   1      32.872  24.720  26.120  1.00  0.00     0.159 C 
ATOM     74  C   UNL A   1      31.684  24.553  23.316  1.00  0.00     0.078 C 
ATOM     75  N   UNL A   1      33.206  23.696  25.114  1.00  0.00    -0.337 N 
ATOM     76  C   UNL A   1      32.146  23.337  24.147  1.00  0.00     0.126 C 
BRANCH  71  77
ATOM     77  C   UNL A   1      30.312  27.360  22.730  1.00  0.00     0.180 C 
BRANCH  77  78
ATOM     78  C   UNL A   1      29.418  28.566  22.885  1.00  0.00    -0.026 A 
ATOM     79  C   UNL A   1      28.030  28.406  23.045  1.00  0.00     0.008 A 
ATOM     80  C   UNL A   1      29.962  29.860  22.932  1.00  0.00     0.008 A 
ATOM     81  C   UNL A   1      27.209  29.511  23.270  1.00  0.00     0.039 A 
ATOM     82  C   UNL A   1      29.137  30.964  23.158  1.00  0.00     0.039 A 
ATOM     83  C   UNL A   1      27.771  30.779  23.331  1.00  0.00     0.123 A 
ATOM     84  F   UNL A   1      26.987  31.838  23.567  1.00  0.00    -0.207 F 
ENDBRANCH  77  78
ENDBRANCH  71  77
BRANCH  75  85
ATOM     85  C   UNL A   1      34.421  23.038  25.246  1.00  0.00     0.232 C 
ATOM     86  O   UNL A   1      34.570  22.035  25.931  1.00  0.00    -0.274 OA
BRANCH  85  87
ATOM     87  C   UNL A   1      35.563  23.558  24.469  1.00  0.00     0.154 C 
ATOM     88  C   UNL A   1      36.970  23.535  25.044  1.00  0.00     0.097 C 
ATOM     89  C   UNL A   1      36.583  22.616  23.948  1.00  0.00     0.260 C 
ATOM     90  F   UNL A   1      36.569  21.265  24.196  1.00  0.00    -0.206 F 
ATOM     91  F   UNL A   1      37.138  22.799  22.702  1.00  0.00    -0.206 F 
ENDBRANCH  85  87
ENDBRANCH  75  85
ENDBRANCH  66  68
ENDBRANCH  65  66
ENDBRANCH  64  65
ENDBRANCH  63  64
ENDBRANCH   1  63
TORSDOF 18
ENDMDL
