MODEL 1
REMARK VINA RESULT:     -11.6      0.000      0.000
REMARK SMILES Cc1cccc(-c2ccccc2C(=O)N2CC[C@H](O)C[C@@H]2C(=O)OCCOCCOC(=O)c2ccc(-c3c4nc(c(-c5c(F)cccc5F)c5ccc([nH]5)c(-c5c(F)cccc5F)c5nc(c(-c6c(F)cccc6F)c6ccc3[nH]6)C=C5)C=C4)cc2)c1
REMARK SMILES IDX 26 1 25 2 24 3 22 4 23 5 21 6 15 7 16 8 17 9 20 10 18 11
REMARK SMILES IDX 13 12 14 13 12 14 7 15 8 16 9 17 11 18 10 19 6 20 1 21 2 22
REMARK SMILES IDX 3 23 87 24 4 25 5 26 19 27 27 29 28 30 29 31 30 32 31 33
REMARK SMILES IDX 32 34 33 35 34 36 86 37 35 38 85 39 36 40 37 41 38 42 79 43
REMARK SMILES IDX 39 44 84 45 78 46 80 47 40 48 83 49 77 50 76 51 41 53 67 54
REMARK SMILES IDX 50 55 66 56 51 57 54 58 65 59 81 60 52 61 53 62 64 64 82 65
REMARK SMILES IDX 55 66 42 67 43 68 48 69 44 70 45 71 47 72 49 73 46 74 68 75
REMARK SMILES IDX 69 76 74 77 70 78 71 79 73 80 75 81 72 82 56 83 57 84 62 85
REMARK SMILES IDX 58 86 59 87 61 88 63 89 60 90
REMARK H PARENT 19 28 80 52 54 63
REMARK Flexibility Score: inf
ROOT
ATOM      1  C   UNL A   1      31.775  29.537  26.232  1.00  0.00     0.202 C 
ENDROOT
BRANCH   1   2
ATOM      2  C   UNL A   1      32.026  28.543  27.316  1.00  0.00     0.261 C 
BRANCH   2   3
ATOM      3  O   UNL A   1      31.477  27.252  27.019  1.00  0.00    -0.462 OA
BRANCH   3   4
ATOM      4  C   UNL A   1      32.245  26.286  26.433  1.00  0.00     0.329 C 
ATOM      5  O   UNL A   1      33.376  26.452  26.005  1.00  0.00    -0.250 OA
BRANCH   4   6
ATOM      6  C   UNL A   1      31.462  24.975  26.265  1.00  0.00     0.198 C 
ATOM      7  N   UNL A   1      32.265  24.080  25.414  1.00  0.00    -0.325 N 
ATOM      8  C   UNL A   1      32.237  24.358  23.978  1.00  0.00     0.123 C 
ATOM      9  C   UNL A   1      30.841  24.666  23.424  1.00  0.00     0.053 C 
ATOM     10  C   UNL A   1      30.053  25.227  25.727  1.00  0.00     0.069 C 
ATOM     11  C   UNL A   1      30.070  25.676  24.271  1.00  0.00     0.118 C 
BRANCH   7  12
ATOM     12  C   UNL A   1      33.265  23.372  26.104  1.00  0.00     0.255 C 
ATOM     13  O   UNL A   1      33.105  23.066  27.289  1.00  0.00    -0.269 OA
BRANCH  12  14
ATOM     14  C   UNL A   1      34.633  23.143  25.529  1.00  0.00     0.047 A 
ATOM     15  C   UNL A   1      34.986  21.871  25.034  1.00  0.00    -0.006 A 
ATOM     16  C   UNL A   1      36.350  21.548  24.886  1.00  0.00     0.009 A 
ATOM     17  C   UNL A   1      37.349  22.466  25.207  1.00  0.00     0.001 A 
ATOM     18  C   UNL A   1      35.646  24.074  25.765  1.00  0.00     0.014 A 
ATOM     19  C   UNL A   1      36.997  23.741  25.625  1.00  0.00     0.001 A 
BRANCH  15  20
ATOM     20  C   UNL A   1      33.953  20.918  24.623  1.00  0.00    -0.017 A 
ATOM     21  C   UNL A   1      32.895  17.409  25.647  1.00  0.00     0.044 C 
ATOM     22  C   UNL A   1      32.945  18.716  24.918  1.00  0.00    -0.051 A 
ATOM     23  C   UNL A   1      32.149  18.947  23.792  1.00  0.00     0.003 A 
ATOM     24  C   UNL A   1      33.821  19.715  25.337  1.00  0.00     0.012 A 
ATOM     25  C   UNL A   1      32.247  20.151  23.089  1.00  0.00     0.001 A 
ATOM     26  C   UNL A   1      33.150  21.132  23.499  1.00  0.00     0.009 A 
ENDBRANCH  15  20
ENDBRANCH  12  14
ENDBRANCH   7  12
BRANCH  11  27
ATOM     27  O   UNL A   1      30.653  26.964  24.089  1.00  0.00    -0.393 OA
ATOM     28  H   UNL A   1      30.180  27.436  23.385  1.00  0.00     0.210 HD
ENDBRANCH  11  27
ENDBRANCH   4   6
ENDBRANCH   3   4
ENDBRANCH   2   3
ENDBRANCH   1   2
BRANCH   1  29
ATOM     29  O   UNL A   1      32.295  30.755  26.737  1.00  0.00    -0.374 OA
BRANCH  29  30
ATOM     30  C   UNL A   1      33.577  30.730  27.325  1.00  0.00     0.202 C 
BRANCH  30  31
ATOM     31  C   UNL A   1      34.157  32.113  27.644  1.00  0.00     0.261 C 
BRANCH  31  32
ATOM     32  O   UNL A   1      35.521  32.008  28.109  1.00  0.00    -0.460 OA
BRANCH  32  33
ATOM     33  C   UNL A   1      35.702  31.422  29.323  1.00  0.00     0.338 C 
ATOM     34  O   UNL A   1      35.416  31.941  30.403  1.00  0.00    -0.246 OA
BRANCH  33  35
ATOM     35  C   UNL A   1      36.599  30.235  29.188  1.00  0.00     0.060 A 
ATOM     36  C   UNL A   1      36.753  29.334  30.262  1.00  0.00     0.016 A 
ATOM     37  C   UNL A   1      37.572  30.299  28.198  1.00  0.00     0.016 A 
ATOM     38  C   UNL A   1      37.955  28.623  30.419  1.00  0.00     0.010 A 
ATOM     39  C   UNL A   1      38.807  29.760  28.474  1.00  0.00     0.010 A 
ATOM     40  C   UNL A   1      39.015  28.897  29.556  1.00  0.00    -0.014 A 
BRANCH  40  41
ATOM     41  C   UNL A   1      40.383  28.377  29.661  1.00  0.00     0.031 A 
ATOM     42  C   UNL A   1      40.684  27.117  28.935  1.00  0.00     0.074 A 
ATOM     43  C   UNL A   1      41.402  29.073  30.229  1.00  0.00     0.049 A 
ATOM     44  N   UNL A   1      41.580  26.280  29.325  1.00  0.00    -0.248 NA
ATOM     45  C   UNL A   1      39.982  26.657  27.732  1.00  0.00     0.031 C 
ATOM     46  C   UNL A   1      42.844  28.882  30.053  1.00  0.00     0.029 A 
ATOM     47  N   UNL A   1      41.357  30.205  31.053  1.00  0.00    -0.354 N 
ATOM     48  C   UNL A   1      41.803  25.410  28.283  1.00  0.00     0.074 A 
ATOM     49  C   UNL A   1      40.703  25.594  27.376  1.00  0.00     0.031 C 
ATOM     50  C   UNL A   1      43.512  29.635  30.951  1.00  0.00     0.029 A 
ATOM     51  C   UNL A   1      42.526  30.267  31.817  1.00  0.00     0.049 A 
ATOM     52  H   UNL A   1      40.619  30.856  31.089  1.00  0.00     0.167 HD
ATOM     53  C   UNL A   1      42.999  24.768  28.193  1.00  0.00     0.037 A 
ATOM     54  C   UNL A   1      42.459  30.273  33.172  1.00  0.00     0.037 A 
ATOM     55  C   UNL A   1      43.906  25.249  29.238  1.00  0.00     0.049 A 
ATOM     56  C   UNL A   1      43.050  28.983  33.650  1.00  0.00     0.074 A 
ATOM     57  C   UNL A   1      44.951  26.160  29.210  1.00  0.00     0.029 A 
ATOM     58  N   UNL A   1      43.556  25.108  30.580  1.00  0.00    -0.354 N 
ATOM     59  N   UNL A   1      43.143  27.936  32.876  1.00  0.00    -0.248 NA
ATOM     60  C   UNL A   1      43.668  28.776  34.952  1.00  0.00     0.031 C 
ATOM     61  C   UNL A   1      45.221  26.568  30.543  1.00  0.00     0.029 A 
ATOM     62  C   UNL A   1      44.345  25.905  31.388  1.00  0.00     0.049 A 
ATOM     63  H   UNL A   1      42.841  24.517  30.908  1.00  0.00     0.167 HD
ATOM     64  C   UNL A   1      43.892  26.983  33.486  1.00  0.00     0.074 A 
ATOM     65  C   UNL A   1      44.162  27.532  34.803  1.00  0.00     0.031 C 
ATOM     66  C   UNL A   1      44.240  25.833  32.843  1.00  0.00     0.037 A 
BRANCH  53  67
ATOM     67  C   UNL A   1      43.421  23.979  26.975  1.00  0.00     0.057 A 
ATOM     68  C   UNL A   1      43.070  22.626  26.823  1.00  0.00     0.134 A 
ATOM     69  C   UNL A   1      44.174  24.505  25.906  1.00  0.00     0.134 A 
ATOM     70  F   UNL A   1      42.278  21.999  27.701  1.00  0.00    -0.206 F 
ATOM     71  C   UNL A   1      43.507  21.838  25.749  1.00  0.00     0.040 A 
ATOM     72  C   UNL A   1      44.665  23.715  24.853  1.00  0.00     0.040 A 
ATOM     73  F   UNL A   1      44.427  25.817  25.804  1.00  0.00    -0.206 F 
ATOM     74  C   UNL A   1      44.334  22.373  24.774  1.00  0.00     0.006 A 
ENDBRANCH  53  67
BRANCH  54  75
ATOM     75  C   UNL A   1      41.269  31.016  33.691  1.00  0.00     0.057 A 
ATOM     76  C   UNL A   1      40.132  30.267  34.063  1.00  0.00     0.134 A 
ATOM     77  C   UNL A   1      41.366  32.302  34.233  1.00  0.00     0.134 A 
ATOM     78  F   UNL A   1      39.979  29.011  33.614  1.00  0.00    -0.206 F 
ATOM     79  C   UNL A   1      39.195  30.733  34.998  1.00  0.00     0.040 A 
ATOM     80  C   UNL A   1      40.447  32.770  35.190  1.00  0.00     0.040 A 
ATOM     81  F   UNL A   1      42.419  33.082  33.950  1.00  0.00    -0.206 F 
ATOM     82  C   UNL A   1      39.376  31.975  35.597  1.00  0.00     0.006 A 
ENDBRANCH  54  75
BRANCH  66  83
ATOM     83  C   UNL A   1      44.600  24.552  33.535  1.00  0.00     0.057 A 
ATOM     84  C   UNL A   1      45.912  24.069  33.629  1.00  0.00     0.134 A 
ATOM     85  C   UNL A   1      43.644  23.858  34.309  1.00  0.00     0.134 A 
ATOM     86  F   UNL A   1      46.945  24.699  33.056  1.00  0.00    -0.206 F 
ATOM     87  C   UNL A   1      46.238  22.938  34.380  1.00  0.00     0.040 A 
ATOM     88  C   UNL A   1      43.975  22.778  35.125  1.00  0.00     0.040 A 
ATOM     89  F   UNL A   1      42.352  24.216  34.345  1.00  0.00    -0.206 F 
ATOM     90  C   UNL A   1      45.273  22.300  35.146  1.00  0.00     0.006 A 
ENDBRANCH  66  83
ENDBRANCH  40  41
ENDBRANCH  33  35
ENDBRANCH  32  33
ENDBRANCH  31  32
ENDBRANCH  30  31
ENDBRANCH  29  30
ENDBRANCH   1  29
TORSDOF 18
ENDMDL
MODEL 2
REMARK VINA RESULT:     -11.5      3.176      8.660
REMARK SMILES Cc1cccc(-c2ccccc2C(=O)N2CC[C@H](O)C[C@@H]2C(=O)OCCOCCOC(=O)c2ccc(-c3c4nc(c(-c5c(F)cccc5F)c5ccc([nH]5)c(-c5c(F)cccc5F)c5nc(c(-c6c(F)cccc6F)c6ccc3[nH]6)C=C5)C=C4)cc2)c1
REMARK SMILES IDX 26 1 25 2 24 3 22 4 23 5 21 6 15 7 16 8 17 9 20 10 18 11
REMARK SMILES IDX 13 12 14 13 12 14 7 15 8 16 9 17 11 18 10 19 6 20 1 21 2 22
REMARK SMILES IDX 3 23 87 24 4 25 5 26 19 27 27 29 28 30 29 31 30 32 31 33
REMARK SMILES IDX 32 34 33 35 34 36 86 37 35 38 85 39 36 40 37 41 38 42 79 43
REMARK SMILES IDX 39 44 84 45 78 46 80 47 40 48 83 49 77 50 76 51 41 53 67 54
REMARK SMILES IDX 50 55 66 56 51 57 54 58 65 59 81 60 52 61 53 62 64 64 82 65
REMARK SMILES IDX 55 66 42 67 43 68 48 69 44 70 45 71 47 72 49 73 46 74 68 75
REMARK SMILES IDX 69 76 74 77 70 78 71 79 73 80 75 81 72 82 56 83 57 84 62 85
REMARK SMILES IDX 58 86 59 87 61 88 63 89 60 90
REMARK H PARENT 19 28 80 52 54 63
REMARK Flexibility Score: inf
ROOT
ATOM      1  C   UNL A   1      36.450  21.087  24.573  1.00  0.00     0.202 C 
ENDROOT
BRANCH   1   2
ATOM      2  C   UNL A   1      36.703  22.420  23.950  1.00  0.00     0.261 C 
BRANCH   2   3
ATOM      3  O   UNL A   1      35.528  22.982  23.352  1.00  0.00    -0.462 OA
BRANCH   3   4
ATOM      4  C   UNL A   1      34.812  23.949  23.998  1.00  0.00     0.329 C 
ATOM      5  O   UNL A   1      35.096  24.425  25.085  1.00  0.00    -0.250 OA
BRANCH   4   6
ATOM      6  C   UNL A   1      33.519  24.289  23.239  1.00  0.00     0.198 C 
ATOM      7  N   UNL A   1      32.711  25.167  24.102  1.00  0.00    -0.325 N 
ATOM      8  C   UNL A   1      31.980  24.512  25.186  1.00  0.00     0.123 C 
ATOM      9  C   UNL A   1      31.275  23.213  24.775  1.00  0.00     0.053 C 
ATOM     10  C   UNL A   1      32.782  23.026  22.792  1.00  0.00     0.069 C 
ATOM     11  C   UNL A   1      32.170  22.276  23.969  1.00  0.00     0.118 C 
BRANCH   7  12
ATOM     12  C   UNL A   1      33.078  26.524  24.048  1.00  0.00     0.255 C 
ATOM     13  O   UNL A   1      33.706  26.960  23.080  1.00  0.00    -0.269 OA
BRANCH  12  14
ATOM     14  C   UNL A   1      32.925  27.448  25.222  1.00  0.00     0.047 A 
ATOM     15  C   UNL A   1      31.937  28.452  25.206  1.00  0.00    -0.006 A 
ATOM     16  C   UNL A   1      32.059  29.547  26.085  1.00  0.00     0.009 A 
ATOM     17  C   UNL A   1      33.127  29.644  26.975  1.00  0.00     0.001 A 
ATOM     18  C   UNL A   1      33.940  27.523  26.178  1.00  0.00     0.014 A 
ATOM     19  C   UNL A   1      34.058  28.618  27.039  1.00  0.00     0.001 A 
BRANCH  15  20
ATOM     20  C   UNL A   1      30.769  28.335  24.330  1.00  0.00    -0.017 A 
ATOM     21  C   UNL A   1      28.956  30.591  21.860  1.00  0.00     0.044 C 
ATOM     22  C   UNL A   1      29.298  29.401  22.701  1.00  0.00    -0.051 A 
ATOM     23  C   UNL A   1      28.448  28.293  22.768  1.00  0.00     0.003 A 
ATOM     24  C   UNL A   1      30.463  29.400  23.464  1.00  0.00     0.012 A 
ATOM     25  C   UNL A   1      28.753  27.214  23.601  1.00  0.00     0.001 A 
ATOM     26  C   UNL A   1      29.907  27.236  24.384  1.00  0.00     0.009 A 
ENDBRANCH  15  20
ENDBRANCH  12  14
ENDBRANCH   7  12
BRANCH  11  27
ATOM     27  O   UNL A   1      33.145  21.712  24.842  1.00  0.00    -0.393 OA
ATOM     28  H   UNL A   1      33.485  20.888  24.459  1.00  0.00     0.210 HD
ENDBRANCH  11  27
ENDBRANCH   4   6
ENDBRANCH   3   4
ENDBRANCH   2   3
ENDBRANCH   1   2
BRANCH   1  29
ATOM     29  O   UNL A   1      37.653  20.777  25.255  1.00  0.00    -0.374 OA
BRANCH  29  30
ATOM     30  C   UNL A   1      38.473  21.849  25.664  1.00  0.00     0.202 C 
BRANCH  30  31
ATOM     31  C   UNL A   1      39.683  21.438  26.509  1.00  0.00     0.261 C 
BRANCH  31  32
ATOM     32  O   UNL A   1      40.193  22.559  27.265  1.00  0.00    -0.460 OA
BRANCH  32  33
ATOM     33  C   UNL A   1      40.841  23.522  26.555  1.00  0.00     0.338 C 
ATOM     34  O   UNL A   1      41.915  23.363  25.974  1.00  0.00    -0.246 OA
BRANCH  33  35
ATOM     35  C   UNL A   1      40.258  24.862  26.865  1.00  0.00     0.060 A 
ATOM     36  C   UNL A   1      40.808  26.027  26.290  1.00  0.00     0.016 A 
ATOM     37  C   UNL A   1      39.501  24.959  28.026  1.00  0.00     0.016 A 
ATOM     38  C   UNL A   1      40.729  27.254  26.970  1.00  0.00     0.010 A 
ATOM     39  C   UNL A   1      39.611  26.111  28.771  1.00  0.00     0.010 A 
ATOM     40  C   UNL A   1      40.189  27.276  28.256  1.00  0.00    -0.014 A 
BRANCH  40  41
ATOM     41  C   UNL A   1      40.169  28.420  29.173  1.00  0.00     0.031 A 
ATOM     42  C   UNL A   1      39.155  29.474  28.916  1.00  0.00     0.074 A 
ATOM     43  C   UNL A   1      40.895  28.467  30.321  1.00  0.00     0.049 A 
ATOM     44  N   UNL A   1      39.329  30.708  29.236  1.00  0.00    -0.248 NA
ATOM     45  C   UNL A   1      37.872  29.252  28.239  1.00  0.00     0.031 C 
ATOM     46  C   UNL A   1      40.683  29.312  31.499  1.00  0.00     0.029 A 
ATOM     47  N   UNL A   1      41.973  27.669  30.726  1.00  0.00    -0.354 N 
ATOM     48  C   UNL A   1      38.105  31.328  29.141  1.00  0.00     0.074 A 
ATOM     49  C   UNL A   1      37.267  30.430  28.394  1.00  0.00     0.031 C 
ATOM     50  C   UNL A   1      41.742  29.205  32.327  1.00  0.00     0.029 A 
ATOM     51  C   UNL A   1      42.733  28.365  31.669  1.00  0.00     0.049 A 
ATOM     52  H   UNL A   1      42.166  26.761  30.397  1.00  0.00     0.167 HD
ATOM     53  C   UNL A   1      37.864  32.447  29.876  1.00  0.00     0.037 A 
ATOM     54  C   UNL A   1      44.048  28.614  31.441  1.00  0.00     0.037 A 
ATOM     55  C   UNL A   1      38.999  32.720  30.761  1.00  0.00     0.049 A 
ATOM     56  C   UNL A   1      44.195  30.093  31.267  1.00  0.00     0.074 A 
ATOM     57  C   UNL A   1      39.202  32.472  32.110  1.00  0.00     0.029 A 
ATOM     58  N   UNL A   1      40.263  32.947  30.219  1.00  0.00    -0.354 N 
ATOM     59  N   UNL A   1      43.186  30.855  30.939  1.00  0.00    -0.248 NA
ATOM     60  C   UNL A   1      45.407  30.853  31.536  1.00  0.00     0.031 C 
ATOM     61  C   UNL A   1      40.595  32.548  32.371  1.00  0.00     0.029 A 
ATOM     62  C   UNL A   1      41.246  32.845  31.185  1.00  0.00     0.049 A 
ATOM     63  H   UNL A   1      40.432  33.154  29.272  1.00  0.00     0.167 HD
ATOM     64  C   UNL A   1      43.544  32.159  31.048  1.00  0.00     0.074 A 
ATOM     65  C   UNL A   1      44.957  32.113  31.380  1.00  0.00     0.031 C 
ATOM     66  C   UNL A   1      42.638  33.161  30.874  1.00  0.00     0.037 A 
BRANCH  53  67
ATOM     67  C   UNL A   1      36.490  33.062  30.014  1.00  0.00     0.057 A 
ATOM     68  C   UNL A   1      35.880  33.736  28.941  1.00  0.00     0.134 A 
ATOM     69  C   UNL A   1      35.710  33.016  31.187  1.00  0.00     0.134 A 
ATOM     70  F   UNL A   1      36.444  33.790  27.729  1.00  0.00    -0.206 F 
ATOM     71  C   UNL A   1      34.643  34.387  29.051  1.00  0.00     0.040 A 
ATOM     72  C   UNL A   1      34.497  33.709  31.328  1.00  0.00     0.040 A 
ATOM     73  F   UNL A   1      36.061  32.256  32.234  1.00  0.00    -0.206 F 
ATOM     74  C   UNL A   1      33.960  34.403  30.256  1.00  0.00     0.006 A 
ENDBRANCH  53  67
BRANCH  54  75
ATOM     75  C   UNL A   1      44.730  27.504  30.706  1.00  0.00     0.057 A 
ATOM     76  C   UNL A   1      45.090  26.351  31.436  1.00  0.00     0.134 A 
ATOM     77  C   UNL A   1      44.629  27.352  29.319  1.00  0.00     0.134 A 
ATOM     78  F   UNL A   1      45.176  26.404  32.774  1.00  0.00    -0.206 F 
ATOM     79  C   UNL A   1      45.247  25.094  30.831  1.00  0.00     0.040 A 
ATOM     80  C   UNL A   1      44.760  26.093  28.705  1.00  0.00     0.040 A 
ATOM     81  F   UNL A   1      44.276  28.387  28.544  1.00  0.00    -0.206 F 
ATOM     82  C   UNL A   1      45.039  24.956  29.463  1.00  0.00     0.006 A 
ENDBRANCH  54  75
BRANCH  66  83
ATOM     83  C   UNL A   1      42.992  34.564  30.476  1.00  0.00     0.057 A 
ATOM     84  C   UNL A   1      43.276  35.579  31.400  1.00  0.00     0.134 A 
ATOM     85  C   UNL A   1      43.257  34.885  29.126  1.00  0.00     0.134 A 
ATOM     86  F   UNL A   1      43.199  35.380  32.722  1.00  0.00    -0.206 F 
ATOM     87  C   UNL A   1      43.721  36.842  31.006  1.00  0.00     0.040 A 
ATOM     88  C   UNL A   1      43.777  36.115  28.732  1.00  0.00     0.040 A 
ATOM     89  F   UNL A   1      43.062  34.010  28.129  1.00  0.00    -0.206 F 
ATOM     90  C   UNL A   1      43.990  37.109  29.672  1.00  0.00     0.006 A 
ENDBRANCH  66  83
ENDBRANCH  40  41
ENDBRANCH  33  35
ENDBRANCH  32  33
ENDBRANCH  31  32
ENDBRANCH  30  31
ENDBRANCH  29  30
ENDBRANCH   1  29
TORSDOF 18
ENDMDL
MODEL 3
REMARK VINA RESULT:     -11.4      1.287      2.584
REMARK SMILES Cc1cccc(-c2ccccc2C(=O)N2CC[C@H](O)C[C@@H]2C(=O)OCCOCCOC(=O)c2ccc(-c3c4nc(c(-c5c(F)cccc5F)c5ccc([nH]5)c(-c5c(F)cccc5F)c5nc(c(-c6c(F)cccc6F)c6ccc3[nH]6)C=C5)C=C4)cc2)c1
REMARK SMILES IDX 26 1 25 2 24 3 22 4 23 5 21 6 15 7 16 8 17 9 20 10 18 11
REMARK SMILES IDX 13 12 14 13 12 14 7 15 8 16 9 17 11 18 10 19 6 20 1 21 2 22
REMARK SMILES IDX 3 23 87 24 4 25 5 26 19 27 27 29 28 30 29 31 30 32 31 33
REMARK SMILES IDX 32 34 33 35 34 36 86 37 35 38 85 39 36 40 37 41 38 42 79 43
REMARK SMILES IDX 39 44 84 45 78 46 80 47 40 48 83 49 77 50 76 51 41 53 67 54
REMARK SMILES IDX 50 55 66 56 51 57 54 58 65 59 81 60 52 61 53 62 64 64 82 65
REMARK SMILES IDX 55 66 42 67 43 68 48 69 44 70 45 71 47 72 49 73 46 74 68 75
REMARK SMILES IDX 69 76 74 77 70 78 71 79 73 80 75 81 72 82 56 83 57 84 62 85
REMARK SMILES IDX 58 86 59 87 61 88 63 89 60 90
REMARK H PARENT 19 28 80 52 54 63
REMARK Flexibility Score: inf
ROOT
ATOM      1  C   UNL A   1      32.144  27.884  27.292  1.00  0.00     0.202 C 
ENDROOT
BRANCH   1   2
ATOM      2  C   UNL A   1      31.653  27.009  26.188  1.00  0.00     0.261 C 
BRANCH   2   3
ATOM      3  O   UNL A   1      32.570  25.953  25.871  1.00  0.00    -0.462 OA
BRANCH   3   4
ATOM      4  C   UNL A   1      33.061  25.813  24.604  1.00  0.00     0.329 C 
ATOM      5  O   UNL A   1      33.979  26.464  24.132  1.00  0.00    -0.250 OA
BRANCH   4   6
ATOM      6  C   UNL A   1      32.233  24.806  23.791  1.00  0.00     0.198 C 
ATOM      7  N   UNL A   1      33.057  24.364  22.654  1.00  0.00    -0.325 N 
ATOM      8  C   UNL A   1      33.155  25.293  21.528  1.00  0.00     0.123 C 
ATOM      9  C   UNL A   1      31.822  25.937  21.126  1.00  0.00     0.053 C 
ATOM     10  C   UNL A   1      30.884  25.394  23.376  1.00  0.00     0.069 C 
ATOM     11  C   UNL A   1      31.036  26.479  22.317  1.00  0.00     0.118 C 
BRANCH   7  12
ATOM     12  C   UNL A   1      33.965  23.337  22.965  1.00  0.00     0.255 C 
ATOM     13  O   UNL A   1      35.088  23.324  22.454  1.00  0.00    -0.269 OA
BRANCH  12  14
ATOM     14  C   UNL A   1      33.566  22.114  23.740  1.00  0.00     0.047 A 
ATOM     15  C   UNL A   1      34.497  21.482  24.589  1.00  0.00    -0.006 A 
ATOM     16  C   UNL A   1      34.271  20.147  24.980  1.00  0.00     0.009 A 
ATOM     17  C   UNL A   1      33.141  19.450  24.553  1.00  0.00     0.001 A 
ATOM     18  C   UNL A   1      32.401  21.426  23.394  1.00  0.00     0.014 A 
ATOM     19  C   UNL A   1      32.191  20.098  23.778  1.00  0.00     0.001 A 
BRANCH  15  20
ATOM     20  C   UNL A   1      35.653  22.217  25.107  1.00  0.00    -0.017 A 
ATOM     21  C   UNL A   1      39.322  21.449  25.763  1.00  0.00     0.044 C 
ATOM     22  C   UNL A   1      38.020  22.186  25.700  1.00  0.00    -0.051 A 
ATOM     23  C   UNL A   1      37.880  23.459  26.259  1.00  0.00     0.003 A 
ATOM     24  C   UNL A   1      36.910  21.588  25.106  1.00  0.00     0.012 A 
ATOM     25  C   UNL A   1      36.644  24.110  26.241  1.00  0.00     0.001 A 
ATOM     26  C   UNL A   1      35.532  23.490  25.672  1.00  0.00     0.009 A 
ENDBRANCH  15  20
ENDBRANCH  12  14
ENDBRANCH   7  12
BRANCH  11  27
ATOM     27  O   UNL A   1      31.691  27.648  22.802  1.00  0.00    -0.393 OA
ATOM     28  H   UNL A   1      32.649  27.497  22.821  1.00  0.00     0.210 HD
ENDBRANCH  11  27
ENDBRANCH   4   6
ENDBRANCH   3   4
ENDBRANCH   2   3
ENDBRANCH   1   2
BRANCH   1  29
ATOM     29  O   UNL A   1      33.475  28.207  26.928  1.00  0.00    -0.374 OA
BRANCH  29  30
ATOM     30  C   UNL A   1      33.681  29.364  26.148  1.00  0.00     0.202 C 
BRANCH  30  31
ATOM     31  C   UNL A   1      33.389  30.681  26.875  1.00  0.00     0.261 C 
BRANCH  31  32
ATOM     32  O   UNL A   1      34.098  30.748  28.132  1.00  0.00    -0.460 OA
BRANCH  32  33
ATOM     33  C   UNL A   1      35.392  31.163  28.074  1.00  0.00     0.338 C 
ATOM     34  O   UNL A   1      35.762  32.251  27.629  1.00  0.00    -0.246 OA
BRANCH  33  35
ATOM     35  C   UNL A   1      36.309  30.004  28.295  1.00  0.00     0.060 A 
ATOM     36  C   UNL A   1      36.537  29.516  29.598  1.00  0.00     0.016 A 
ATOM     37  C   UNL A   1      37.230  29.739  27.290  1.00  0.00     0.016 A 
ATOM     38  C   UNL A   1      37.761  28.905  29.918  1.00  0.00     0.010 A 
ATOM     39  C   UNL A   1      38.490  29.331  27.663  1.00  0.00     0.010 A 
ATOM     40  C   UNL A   1      38.771  28.881  28.958  1.00  0.00    -0.014 A 
BRANCH  40  41
ATOM     41  C   UNL A   1      40.154  28.434  29.157  1.00  0.00     0.031 A 
ATOM     42  C   UNL A   1      40.544  27.146  28.529  1.00  0.00     0.074 A 
ATOM     43  C   UNL A   1      41.113  29.213  29.721  1.00  0.00     0.049 A 
ATOM     44  N   UNL A   1      41.458  26.380  29.012  1.00  0.00    -0.248 NA
ATOM     45  C   UNL A   1      39.921  26.578  27.329  1.00  0.00     0.031 C 
ATOM     46  C   UNL A   1      42.569  29.080  29.622  1.00  0.00     0.029 A 
ATOM     47  N   UNL A   1      40.980  30.392  30.467  1.00  0.00    -0.354 N 
ATOM     48  C   UNL A   1      41.768  25.457  28.040  1.00  0.00     0.074 A 
ATOM     49  C   UNL A   1      40.705  25.530  27.076  1.00  0.00     0.031 C 
ATOM     50  C   UNL A   1      43.160  29.920  30.497  1.00  0.00     0.029 A 
ATOM     51  C   UNL A   1      42.107  30.558  31.275  1.00  0.00     0.049 A 
ATOM     52  H   UNL A   1      40.212  31.007  30.428  1.00  0.00     0.167 HD
ATOM     53  C   UNL A   1      42.994  24.868  28.045  1.00  0.00     0.037 A 
ATOM     54  C   UNL A   1      41.976  30.647  32.623  1.00  0.00     0.037 A 
ATOM     55  C   UNL A   1      43.830  25.458  29.095  1.00  0.00     0.049 A 
ATOM     56  C   UNL A   1      42.602  29.420  33.210  1.00  0.00     0.074 A 
ATOM     57  C   UNL A   1      44.832  26.414  29.053  1.00  0.00     0.029 A 
ATOM     58  N   UNL A   1      43.424  25.386  30.426  1.00  0.00    -0.354 N 
ATOM     59  N   UNL A   1      42.778  28.331  32.512  1.00  0.00    -0.248 NA
ATOM     60  C   UNL A   1      43.167  29.326  34.548  1.00  0.00     0.031 C 
ATOM     61  C   UNL A   1      45.021  26.918  30.367  1.00  0.00     0.029 A 
ATOM     62  C   UNL A   1      44.137  26.269  31.214  1.00  0.00     0.049 A 
ATOM     63  H   UNL A   1      42.722  24.783  30.761  1.00  0.00     0.167 HD
ATOM     64  C   UNL A   1      43.539  27.455  33.215  1.00  0.00     0.074 A 
ATOM     65  C   UNL A   1      43.722  28.100  34.504  1.00  0.00     0.031 C 
ATOM     66  C   UNL A   1      43.968  26.285  32.665  1.00  0.00     0.037 A 
BRANCH  53  67
ATOM     67  C   UNL A   1      43.508  24.024  26.901  1.00  0.00     0.057 A 
ATOM     68  C   UNL A   1      43.262  22.641  26.846  1.00  0.00     0.134 A 
ATOM     69  C   UNL A   1      44.250  24.524  25.812  1.00  0.00     0.134 A 
ATOM     70  F   UNL A   1      42.495  22.024  27.752  1.00  0.00    -0.206 F 
ATOM     71  C   UNL A   1      43.787  21.810  25.846  1.00  0.00     0.040 A 
ATOM     72  C   UNL A   1      44.827  23.697  24.835  1.00  0.00     0.040 A 
ATOM     73  F   UNL A   1      44.408  25.840  25.615  1.00  0.00    -0.206 F 
ATOM     74  C   UNL A   1      44.599  22.331  24.852  1.00  0.00     0.006 A 
ENDBRANCH  53  67
BRANCH  54  75
ATOM     75  C   UNL A   1      40.731  31.364  33.039  1.00  0.00     0.057 A 
ATOM     76  C   UNL A   1      40.731  32.774  32.984  1.00  0.00     0.134 A 
ATOM     77  C   UNL A   1      39.477  30.745  33.046  1.00  0.00     0.134 A 
ATOM     78  F   UNL A   1      41.893  33.444  32.939  1.00  0.00    -0.206 F 
ATOM     79  C   UNL A   1      39.553  33.523  32.844  1.00  0.00     0.040 A 
ATOM     80  C   UNL A   1      38.290  31.483  32.882  1.00  0.00     0.040 A 
ATOM     81  F   UNL A   1      39.377  29.409  33.081  1.00  0.00    -0.206 F 
ATOM     82  C   UNL A   1      38.328  32.871  32.750  1.00  0.00     0.006 A 
ENDBRANCH  54  75
BRANCH  66  83
ATOM     83  C   UNL A   1      44.352  25.069  33.454  1.00  0.00     0.057 A 
ATOM     84  C   UNL A   1      45.641  24.518  33.444  1.00  0.00     0.134 A 
ATOM     85  C   UNL A   1      43.472  24.527  34.417  1.00  0.00     0.134 A 
ATOM     86  F   UNL A   1      46.621  25.015  32.678  1.00  0.00    -0.206 F 
ATOM     87  C   UNL A   1      46.006  23.461  34.279  1.00  0.00     0.040 A 
ATOM     88  C   UNL A   1      43.852  23.526  35.308  1.00  0.00     0.040 A 
ATOM     89  F   UNL A   1      42.214  24.967  34.567  1.00  0.00    -0.206 F 
ATOM     90  C   UNL A   1      45.118  22.973  35.226  1.00  0.00     0.006 A 
ENDBRANCH  66  83
ENDBRANCH  40  41
ENDBRANCH  33  35
ENDBRANCH  32  33
ENDBRANCH  31  32
ENDBRANCH  30  31
ENDBRANCH  29  30
ENDBRANCH   1  29
TORSDOF 18
ENDMDL
