MODEL 1
REMARK VINA RESULT:     -11.3      0.000      0.000
REMARK SMILES O=C(OCCOCCOC(=O)c1ccc(-c2c3nc(c(-c4c(F)cccc4F)c4ccc([nH]4)c(-c4c(F)cccc4F)c4nc(c(-c5c(F)cccc5F)c5ccc2[nH]5)C=C4)C=C3)cc1)c1ccc(NC(=O)[C@H]2CCS(=O)(=O)C2)cc1
REMARK SMILES IDX 6 1 5 2 4 3 3 4 2 5 1 6 66 7 67 8 81 9 68 10 80 11 69 12
REMARK SMILES IDX 70 13 71 14 72 16 73 17 74 18 79 19 75 20 76 21 77 22 78 23
REMARK SMILES IDX 7 24 8 25 9 26 10 27 11 28 12 29 13 30 65 31 14 32 64 33
REMARK SMILES IDX 15 34 16 35 17 36 58 37 18 38 63 39 57 40 59 41 19 42 62 43
REMARK SMILES IDX 56 44 55 45 20 47 46 48 29 49 45 50 30 51 33 52 44 53 60 54
REMARK SMILES IDX 31 55 32 56 43 58 61 59 34 60 21 61 22 62 27 63 23 64 24 65
REMARK SMILES IDX 26 66 28 67 25 68 47 69 48 70 53 71 49 72 50 73 52 74 54 75
REMARK SMILES IDX 51 76 35 77 36 78 41 79 37 80 38 81 40 82 42 83 39 84
REMARK H PARENT 70 15 59 46 33 57
REMARK Flexibility Score: inf
ROOT
ATOM      1  O   UNL A   1      42.107  20.671  27.167  1.00  0.00    -0.374 OA
ENDROOT
BRANCH   1   2
ATOM      2  C   UNL A   1      40.680  20.732  27.123  1.00  0.00     0.202 C 
BRANCH   2   3
ATOM      3  C   UNL A   1      40.202  21.536  25.915  1.00  0.00     0.261 C 
BRANCH   3   4
ATOM      4  O   UNL A   1      38.772  21.768  25.980  1.00  0.00    -0.460 OA
BRANCH   4   5
ATOM      5  C   UNL A   1      38.202  22.995  26.125  1.00  0.00     0.338 C 
ATOM      6  O   UNL A   1      38.644  23.841  26.890  1.00  0.00    -0.246 OA
BRANCH   5   7
ATOM      7  C   UNL A   1      37.025  23.295  25.293  1.00  0.00     0.060 A 
ATOM      8  C   UNL A   1      35.931  23.964  25.844  1.00  0.00     0.018 A 
ATOM      9  C   UNL A   1      36.993  22.864  23.967  1.00  0.00     0.018 A 
ATOM     10  C   UNL A   1      34.737  24.034  25.132  1.00  0.00     0.027 A 
ATOM     11  C   UNL A   1      35.798  22.956  23.253  1.00  0.00     0.027 A 
ATOM     12  C   UNL A   1      34.642  23.429  23.885  1.00  0.00     0.041 A 
BRANCH  12  13
ATOM     13  N   UNL A   1      33.430  23.294  23.212  1.00  0.00    -0.326 N 
ATOM     14  C   UNL A   1      32.404  22.414  23.329  1.00  0.00     0.228 C 
ATOM     15  H   UNL A   1      33.290  23.972  22.511  1.00  0.00     0.169 HD
ATOM     16  O   UNL A   1      31.356  22.736  22.749  1.00  0.00    -0.274 OA
BRANCH  14  17
ATOM     17  C   UNL A   1      32.473  21.015  23.958  1.00  0.00     0.095 C 
ATOM     18  C   UNL A   1      32.194  19.998  22.821  1.00  0.00     0.030 C 
ATOM     19  C   UNL A   1      33.723  20.459  24.628  1.00  0.00     0.150 C 
ATOM     20  C   UNL A   1      32.265  18.600  23.415  1.00  0.00     0.138 C 
ATOM     21  S   UNL A   1      33.487  18.692  24.701  1.00  0.00     0.151 S 
ATOM     22  O   UNL A   1      32.831  18.361  25.949  1.00  0.00    -0.229 OA
ATOM     23  O   UNL A   1      34.700  18.041  24.251  1.00  0.00    -0.229 OA
ENDBRANCH  14  17
ENDBRANCH  12  13
ENDBRANCH   5   7
ENDBRANCH   4   5
ENDBRANCH   3   4
ENDBRANCH   2   3
ENDBRANCH   1   2
BRANCH   1  24
ATOM     24  C   UNL A   1      42.714  20.180  25.963  1.00  0.00     0.202 C 
BRANCH  24  25
ATOM     25  C   UNL A   1      43.822  21.134  25.520  1.00  0.00     0.261 C 
BRANCH  25  26
ATOM     26  O   UNL A   1      43.769  22.301  26.351  1.00  0.00    -0.460 OA
BRANCH  26  27
ATOM     27  C   UNL A   1      43.641  23.477  25.693  1.00  0.00     0.338 C 
ATOM     28  O   UNL A   1      43.736  23.665  24.494  1.00  0.00    -0.246 OA
BRANCH  27  29
ATOM     29  C   UNL A   1      43.162  24.486  26.663  1.00  0.00     0.060 A 
ATOM     30  C   UNL A   1      43.784  25.741  26.684  1.00  0.00     0.016 A 
ATOM     31  C   UNL A   1      42.069  24.225  27.499  1.00  0.00     0.016 A 
ATOM     32  C   UNL A   1      43.325  26.730  27.554  1.00  0.00     0.010 A 
ATOM     33  C   UNL A   1      41.604  25.215  28.358  1.00  0.00     0.010 A 
ATOM     34  C   UNL A   1      42.244  26.463  28.406  1.00  0.00    -0.014 A 
BRANCH  34  35
ATOM     35  C   UNL A   1      41.839  27.426  29.451  1.00  0.00     0.031 A 
ATOM     36  C   UNL A   1      42.529  27.367  30.782  1.00  0.00     0.074 A 
ATOM     37  C   UNL A   1      40.830  28.288  29.232  1.00  0.00     0.049 A 
ATOM     38  N   UNL A   1      42.265  28.018  31.884  1.00  0.00    -0.248 NA
ATOM     39  C   UNL A   1      43.661  26.429  30.890  1.00  0.00     0.031 C 
ATOM     40  C   UNL A   1      40.092  28.425  27.976  1.00  0.00     0.029 A 
ATOM     41  N   UNL A   1      40.236  29.192  30.073  1.00  0.00    -0.354 N 
ATOM     42  C   UNL A   1      43.190  27.565  32.816  1.00  0.00     0.074 A 
ATOM     43  C   UNL A   1      44.000  26.562  32.163  1.00  0.00     0.031 C 
ATOM     44  C   UNL A   1      39.128  29.349  28.138  1.00  0.00     0.029 A 
ATOM     45  C   UNL A   1      39.163  29.841  29.513  1.00  0.00     0.049 A 
ATOM     46  H   UNL A   1      40.549  29.361  30.992  1.00  0.00     0.167 HD
ATOM     47  C   UNL A   1      43.350  27.962  34.099  1.00  0.00     0.037 A 
ATOM     48  C   UNL A   1      38.295  30.710  30.064  1.00  0.00     0.037 A 
ATOM     49  C   UNL A   1      42.540  28.965  34.736  1.00  0.00     0.049 A 
ATOM     50  C   UNL A   1      38.470  31.100  31.509  1.00  0.00     0.074 A 
ATOM     51  C   UNL A   1      42.645  29.472  36.018  1.00  0.00     0.029 A 
ATOM     52  N   UNL A   1      41.469  29.607  34.134  1.00  0.00    -0.354 N 
ATOM     53  N   UNL A   1      39.380  30.709  32.368  1.00  0.00    -0.248 NA
ATOM     54  C   UNL A   1      37.496  32.054  32.060  1.00  0.00     0.031 C 
ATOM     55  C   UNL A   1      41.606  30.388  36.209  1.00  0.00     0.029 A 
ATOM     56  C   UNL A   1      40.885  30.486  35.030  1.00  0.00     0.049 A 
ATOM     57  H   UNL A   1      41.168  29.459  33.209  1.00  0.00     0.167 HD
ATOM     58  C   UNL A   1      39.105  31.384  33.550  1.00  0.00     0.074 A 
ATOM     59  C   UNL A   1      37.954  32.225  33.292  1.00  0.00     0.031 C 
ATOM     60  C   UNL A   1      39.743  31.318  34.744  1.00  0.00     0.037 A 
BRANCH  47  61
ATOM     61  C   UNL A   1      44.433  27.302  34.900  1.00  0.00     0.057 A 
ATOM     62  C   UNL A   1      45.692  27.892  35.066  1.00  0.00     0.134 A 
ATOM     63  C   UNL A   1      44.197  26.084  35.551  1.00  0.00     0.134 A 
ATOM     64  F   UNL A   1      45.987  29.050  34.457  1.00  0.00    -0.206 F 
ATOM     65  C   UNL A   1      46.685  27.286  35.840  1.00  0.00     0.040 A 
ATOM     66  C   UNL A   1      45.174  25.482  36.345  1.00  0.00     0.040 A 
ATOM     67  F   UNL A   1      43.012  25.467  35.433  1.00  0.00    -0.206 F 
ATOM     68  C   UNL A   1      46.423  26.082  36.489  1.00  0.00     0.006 A 
ENDBRANCH  47  61
BRANCH  48  69
ATOM     69  C   UNL A   1      37.172  31.263  29.262  1.00  0.00     0.057 A 
ATOM     70  C   UNL A   1      37.220  32.565  28.751  1.00  0.00     0.134 A 
ATOM     71  C   UNL A   1      36.012  30.519  29.020  1.00  0.00     0.134 A 
ATOM     72  F   UNL A   1      38.294  33.337  28.968  1.00  0.00    -0.206 F 
ATOM     73  C   UNL A   1      36.145  33.116  28.049  1.00  0.00     0.040 A 
ATOM     74  C   UNL A   1      34.941  31.046  28.297  1.00  0.00     0.040 A 
ATOM     75  F   UNL A   1      35.903  29.263  29.481  1.00  0.00    -0.206 F 
ATOM     76  C   UNL A   1      35.002  32.353  27.818  1.00  0.00     0.006 A 
ENDBRANCH  48  69
BRANCH  60  77
ATOM     77  C   UNL A   1      39.230  32.196  35.846  1.00  0.00     0.057 A 
ATOM     78  C   UNL A   1      39.672  33.516  36.003  1.00  0.00     0.134 A 
ATOM     79  C   UNL A   1      38.252  31.729  36.733  1.00  0.00     0.134 A 
ATOM     80  F   UNL A   1      40.617  34.018  35.193  1.00  0.00    -0.206 F 
ATOM     81  C   UNL A   1      39.174  34.334  37.018  1.00  0.00     0.040 A 
ATOM     82  C   UNL A   1      37.726  32.546  37.734  1.00  0.00     0.040 A 
ATOM     83  F   UNL A   1      37.779  30.478  36.629  1.00  0.00    -0.206 F 
ATOM     84  C   UNL A   1      38.192  33.850  37.883  1.00  0.00     0.006 A 
ENDBRANCH  60  77
ENDBRANCH  34  35
ENDBRANCH  27  29
ENDBRANCH  26  27
ENDBRANCH  25  26
ENDBRANCH  24  25
ENDBRANCH   1  24
TORSDOF 16
ENDMDL
MODEL 2
REMARK VINA RESULT:     -11.3      5.337      8.465
REMARK SMILES O=C(OCCOCCOC(=O)c1ccc(-c2c3nc(c(-c4c(F)cccc4F)c4ccc([nH]4)c(-c4c(F)cccc4F)c4nc(c(-c5c(F)cccc5F)c5ccc2[nH]5)C=C4)C=C3)cc1)c1ccc(NC(=O)[C@H]2CCS(=O)(=O)C2)cc1
REMARK SMILES IDX 6 1 5 2 4 3 3 4 2 5 1 6 66 7 67 8 81 9 68 10 80 11 69 12
REMARK SMILES IDX 70 13 71 14 72 16 73 17 74 18 79 19 75 20 76 21 77 22 78 23
REMARK SMILES IDX 7 24 8 25 9 26 10 27 11 28 12 29 13 30 65 31 14 32 64 33
REMARK SMILES IDX 15 34 16 35 17 36 58 37 18 38 63 39 57 40 59 41 19 42 62 43
REMARK SMILES IDX 56 44 55 45 20 47 46 48 29 49 45 50 30 51 33 52 44 53 60 54
REMARK SMILES IDX 31 55 32 56 43 58 61 59 34 60 21 61 22 62 27 63 23 64 24 65
REMARK SMILES IDX 26 66 28 67 25 68 47 69 48 70 53 71 49 72 50 73 52 74 54 75
REMARK SMILES IDX 51 76 35 77 36 78 41 79 37 80 38 81 40 82 42 83 39 84
REMARK H PARENT 70 15 59 46 33 57
REMARK Flexibility Score: inf
ROOT
ATOM      1  O   UNL A   1      45.031  20.425  24.526  1.00  0.00    -0.374 OA
ENDROOT
BRANCH   1   2
ATOM      2  C   UNL A   1      45.888  21.397  25.127  1.00  0.00     0.202 C 
BRANCH   2   3
ATOM      3  C   UNL A   1      46.035  22.626  24.232  1.00  0.00     0.261 C 
BRANCH   3   4
ATOM      4  O   UNL A   1      45.790  23.844  24.980  1.00  0.00    -0.460 OA
BRANCH   4   5
ATOM      5  C   UNL A   1      46.605  24.934  24.957  1.00  0.00     0.338 C 
ATOM      6  O   UNL A   1      47.772  24.877  24.594  1.00  0.00    -0.246 OA
BRANCH   5   7
ATOM      7  C   UNL A   1      46.020  26.222  25.362  1.00  0.00     0.060 A 
ATOM      8  C   UNL A   1      46.810  27.179  26.002  1.00  0.00     0.018 A 
ATOM      9  C   UNL A   1      44.663  26.460  25.145  1.00  0.00     0.018 A 
ATOM     10  C   UNL A   1      46.209  28.285  26.593  1.00  0.00     0.027 A 
ATOM     11  C   UNL A   1      44.071  27.583  25.724  1.00  0.00     0.027 A 
ATOM     12  C   UNL A   1      44.827  28.424  26.549  1.00  0.00     0.041 A 
BRANCH  12  13
ATOM     13  N   UNL A   1      44.151  29.396  27.283  1.00  0.00    -0.326 N 
ATOM     14  C   UNL A   1      44.239  30.749  27.321  1.00  0.00     0.228 C 
ATOM     15  H   UNL A   1      43.474  29.027  27.896  1.00  0.00     0.169 HD
ATOM     16  O   UNL A   1      43.306  31.329  27.896  1.00  0.00    -0.274 OA
BRANCH  14  17
ATOM     17  C   UNL A   1      45.439  31.595  26.874  1.00  0.00     0.095 C 
ATOM     18  C   UNL A   1      44.888  32.996  26.504  1.00  0.00     0.030 C 
ATOM     19  C   UNL A   1      46.624  31.911  27.778  1.00  0.00     0.150 C 
ATOM     20  C   UNL A   1      46.060  33.860  26.064  1.00  0.00     0.138 C 
ATOM     21  S   UNL A   1      47.445  33.306  27.027  1.00  0.00     0.151 S 
ATOM     22  O   UNL A   1      48.449  32.817  26.105  1.00  0.00    -0.229 OA
ATOM     23  O   UNL A   1      47.731  34.286  28.055  1.00  0.00    -0.229 OA
ENDBRANCH  14  17
ENDBRANCH  12  13
ENDBRANCH   5   7
ENDBRANCH   4   5
ENDBRANCH   3   4
ENDBRANCH   2   3
ENDBRANCH   1   2
BRANCH   1  24
ATOM     24  C   UNL A   1      45.165  19.104  25.070  1.00  0.00     0.202 C 
BRANCH  24  25
ATOM     25  C   UNL A   1      43.818  18.635  25.621  1.00  0.00     0.261 C 
BRANCH  25  26
ATOM     26  O   UNL A   1      42.785  19.402  24.991  1.00  0.00    -0.460 OA
BRANCH  26  27
ATOM     27  C   UNL A   1      41.754  19.758  25.795  1.00  0.00     0.338 C 
ATOM     28  O   UNL A   1      40.809  19.067  26.131  1.00  0.00    -0.246 OA
BRANCH  27  29
ATOM     29  C   UNL A   1      42.068  21.084  26.370  1.00  0.00     0.060 A 
ATOM     30  C   UNL A   1      42.094  21.218  27.764  1.00  0.00     0.016 A 
ATOM     31  C   UNL A   1      42.399  22.169  25.549  1.00  0.00     0.016 A 
ATOM     32  C   UNL A   1      42.434  22.443  28.339  1.00  0.00     0.010 A 
ATOM     33  C   UNL A   1      42.749  23.388  26.122  1.00  0.00     0.010 A 
ATOM     34  C   UNL A   1      42.745  23.535  27.518  1.00  0.00    -0.014 A 
BRANCH  34  35
ATOM     35  C   UNL A   1      42.948  24.885  28.087  1.00  0.00     0.031 A 
ATOM     36  C   UNL A   1      44.308  25.239  28.613  1.00  0.00     0.074 A 
ATOM     37  C   UNL A   1      41.920  25.745  28.189  1.00  0.00     0.049 A 
ATOM     38  N   UNL A   1      44.694  26.305  29.263  1.00  0.00    -0.248 NA
ATOM     39  C   UNL A   1      45.374  24.247  28.392  1.00  0.00     0.031 C 
ATOM     40  C   UNL A   1      40.559  25.499  27.711  1.00  0.00     0.029 A 
ATOM     41  N   UNL A   1      41.858  26.992  28.754  1.00  0.00    -0.354 N 
ATOM     42  C   UNL A   1      46.042  26.109  29.535  1.00  0.00     0.074 A 
ATOM     43  C   UNL A   1      46.400  24.810  29.010  1.00  0.00     0.031 C 
ATOM     44  C   UNL A   1      39.791  26.557  28.024  1.00  0.00     0.029 A 
ATOM     45  C   UNL A   1      40.597  27.536  28.747  1.00  0.00     0.049 A 
ATOM     46  H   UNL A   1      42.643  27.454  29.130  1.00  0.00     0.167 HD
ATOM     47  C   UNL A   1      46.902  26.945  30.160  1.00  0.00     0.037 A 
ATOM     48  C   UNL A   1      40.148  28.683  29.292  1.00  0.00     0.037 A 
ATOM     49  C   UNL A   1      46.534  28.237  30.674  1.00  0.00     0.049 A 
ATOM     50  C   UNL A   1      41.119  29.574  30.022  1.00  0.00     0.074 A 
ATOM     51  C   UNL A   1      47.337  29.181  31.287  1.00  0.00     0.029 A 
ATOM     52  N   UNL A   1      45.250  28.759  30.640  1.00  0.00    -0.354 N 
ATOM     53  N   UNL A   1      42.403  29.407  30.227  1.00  0.00    -0.248 NA
ATOM     54  C   UNL A   1      40.576  30.815  30.595  1.00  0.00     0.031 C 
ATOM     55  C   UNL A   1      46.529  30.257  31.667  1.00  0.00     0.029 A 
ATOM     56  C   UNL A   1      45.233  30.002  31.247  1.00  0.00     0.049 A 
ATOM     57  H   UNL A   1      44.468  28.312  30.244  1.00  0.00     0.167 HD
ATOM     58  C   UNL A   1      42.827  30.528  30.930  1.00  0.00     0.074 A 
ATOM     59  C   UNL A   1      41.666  31.378  31.099  1.00  0.00     0.031 C 
ATOM     60  C   UNL A   1      44.063  30.831  31.395  1.00  0.00     0.037 A 
BRANCH  47  61
ATOM     61  C   UNL A   1      48.318  26.484  30.332  1.00  0.00     0.057 A 
ATOM     62  C   UNL A   1      49.320  26.818  29.412  1.00  0.00     0.134 A 
ATOM     63  C   UNL A   1      48.693  25.734  31.454  1.00  0.00     0.134 A 
ATOM     64  F   UNL A   1      49.025  27.521  28.309  1.00  0.00    -0.206 F 
ATOM     65  C   UNL A   1      50.644  26.412  29.596  1.00  0.00     0.040 A 
ATOM     66  C   UNL A   1      50.017  25.342  31.659  1.00  0.00     0.040 A 
ATOM     67  F   UNL A   1      47.782  25.380  32.372  1.00  0.00    -0.206 F 
ATOM     68  C   UNL A   1      50.996  25.679  30.727  1.00  0.00     0.006 A 
ENDBRANCH  47  61
BRANCH  48  69
ATOM     69  C   UNL A   1      38.713  29.054  29.187  1.00  0.00     0.057 A 
ATOM     70  C   UNL A   1      38.177  29.547  27.991  1.00  0.00     0.134 A 
ATOM     71  C   UNL A   1      37.852  28.960  30.287  1.00  0.00     0.134 A 
ATOM     72  F   UNL A   1      38.956  29.682  26.908  1.00  0.00    -0.206 F 
ATOM     73  C   UNL A   1      36.845  29.956  27.900  1.00  0.00     0.040 A 
ATOM     74  C   UNL A   1      36.512  29.341  30.203  1.00  0.00     0.040 A 
ATOM     75  F   UNL A   1      38.302  28.494  31.462  1.00  0.00    -0.206 F 
ATOM     76  C   UNL A   1      36.008  29.851  29.008  1.00  0.00     0.006 A 
ENDBRANCH  48  69
BRANCH  60  77
ATOM     77  C   UNL A   1      44.227  32.144  32.102  1.00  0.00     0.057 A 
ATOM     78  C   UNL A   1      44.128  32.249  33.495  1.00  0.00     0.134 A 
ATOM     79  C   UNL A   1      44.530  33.307  31.384  1.00  0.00     0.134 A 
ATOM     80  F   UNL A   1      43.828  31.173  34.239  1.00  0.00    -0.206 F 
ATOM     81  C   UNL A   1      44.303  33.470  34.147  1.00  0.00     0.040 A 
ATOM     82  C   UNL A   1      44.735  34.528  32.026  1.00  0.00     0.040 A 
ATOM     83  F   UNL A   1      44.650  33.272  30.047  1.00  0.00    -0.206 F 
ATOM     84  C   UNL A   1      44.614  34.613  33.411  1.00  0.00     0.006 A 
ENDBRANCH  60  77
ENDBRANCH  34  35
ENDBRANCH  27  29
ENDBRANCH  26  27
ENDBRANCH  25  26
ENDBRANCH  24  25
ENDBRANCH   1  24
TORSDOF 16
ENDMDL
MODEL 3
REMARK VINA RESULT:     -11.1      2.114      3.136
REMARK SMILES O=C(OCCOCCOC(=O)c1ccc(-c2c3nc(c(-c4c(F)cccc4F)c4ccc([nH]4)c(-c4c(F)cccc4F)c4nc(c(-c5c(F)cccc5F)c5ccc2[nH]5)C=C4)C=C3)cc1)c1ccc(NC(=O)[C@H]2CCS(=O)(=O)C2)cc1
REMARK SMILES IDX 6 1 5 2 4 3 3 4 2 5 1 6 66 7 67 8 81 9 68 10 80 11 69 12
REMARK SMILES IDX 70 13 71 14 72 16 73 17 74 18 79 19 75 20 76 21 77 22 78 23
REMARK SMILES IDX 7 24 8 25 9 26 10 27 11 28 12 29 13 30 65 31 14 32 64 33
REMARK SMILES IDX 15 34 16 35 17 36 58 37 18 38 63 39 57 40 59 41 19 42 62 43
REMARK SMILES IDX 56 44 55 45 20 47 46 48 29 49 45 50 30 51 33 52 44 53 60 54
REMARK SMILES IDX 31 55 32 56 43 58 61 59 34 60 21 61 22 62 27 63 23 64 24 65
REMARK SMILES IDX 26 66 28 67 25 68 47 69 48 70 53 71 49 72 50 73 52 74 54 75
REMARK SMILES IDX 51 76 35 77 36 78 41 79 37 80 38 81 40 82 42 83 39 84
REMARK H PARENT 70 15 59 46 33 57
REMARK Flexibility Score: inf
ROOT
ATOM      1  O   UNL A   1      40.109  20.451  26.484  1.00  0.00    -0.374 OA
ENDROOT
BRANCH   1   2
ATOM      2  C   UNL A   1      39.465  21.676  26.127  1.00  0.00     0.202 C 
BRANCH   2   3
ATOM      3  C   UNL A   1      38.157  21.411  25.384  1.00  0.00     0.261 C 
BRANCH   3   4
ATOM      4  O   UNL A   1      37.392  22.633  25.232  1.00  0.00    -0.460 OA
BRANCH   4   5
ATOM      5  C   UNL A   1      36.558  22.889  24.187  1.00  0.00     0.338 C 
ATOM      6  O   UNL A   1      36.851  22.626  23.029  1.00  0.00    -0.246 OA
BRANCH   5   7
ATOM      7  C   UNL A   1      35.246  23.479  24.500  1.00  0.00     0.060 A 
ATOM      8  C   UNL A   1      35.170  24.702  25.167  1.00  0.00     0.018 A 
ATOM      9  C   UNL A   1      34.083  22.784  24.168  1.00  0.00     0.018 A 
ATOM     10  C   UNL A   1      33.948  25.138  25.670  1.00  0.00     0.027 A 
ATOM     11  C   UNL A   1      32.858  23.238  24.658  1.00  0.00     0.027 A 
ATOM     12  C   UNL A   1      32.816  24.347  25.512  1.00  0.00     0.041 A 
BRANCH  12  13
ATOM     13  N   UNL A   1      31.613  24.628  26.155  1.00  0.00    -0.326 N 
ATOM     14  C   UNL A   1      30.536  25.377  25.810  1.00  0.00     0.228 C 
ATOM     15  H   UNL A   1      31.528  24.198  27.037  1.00  0.00     0.169 HD
ATOM     16  O   UNL A   1      29.521  25.203  26.500  1.00  0.00    -0.274 OA
BRANCH  14  17
ATOM     17  C   UNL A   1      30.511  26.509  24.774  1.00  0.00     0.095 C 
ATOM     18  C   UNL A   1      31.159  27.747  25.446  1.00  0.00     0.030 C 
ATOM     19  C   UNL A   1      31.219  26.429  23.428  1.00  0.00     0.150 C 
ATOM     20  C   UNL A   1      31.155  28.885  24.437  1.00  0.00     0.138 C 
ATOM     21  S   UNL A   1      31.351  28.112  22.850  1.00  0.00     0.151 S 
ATOM     22  O   UNL A   1      30.177  28.429  22.064  1.00  0.00    -0.229 OA
ATOM     23  O   UNL A   1      32.701  28.338  22.375  1.00  0.00    -0.229 OA
ENDBRANCH  14  17
ENDBRANCH  12  13
ENDBRANCH   5   7
ENDBRANCH   4   5
ENDBRANCH   3   4
ENDBRANCH   2   3
ENDBRANCH   1   2
BRANCH   1  24
ATOM     24  C   UNL A   1      41.464  20.606  26.931  1.00  0.00     0.202 C 
BRANCH  24  25
ATOM     25  C   UNL A   1      42.306  21.227  25.817  1.00  0.00     0.261 C 
BRANCH  25  26
ATOM     26  O   UNL A   1      43.174  22.205  26.404  1.00  0.00    -0.460 OA
BRANCH  26  27
ATOM     27  C   UNL A   1      43.229  23.394  25.758  1.00  0.00     0.338 C 
ATOM     28  O   UNL A   1      43.433  23.580  24.572  1.00  0.00    -0.246 OA
BRANCH  27  29
ATOM     29  C   UNL A   1      42.797  24.442  26.707  1.00  0.00     0.060 A 
ATOM     30  C   UNL A   1      43.508  25.649  26.739  1.00  0.00     0.016 A 
ATOM     31  C   UNL A   1      41.664  24.268  27.513  1.00  0.00     0.016 A 
ATOM     32  C   UNL A   1      43.097  26.676  27.590  1.00  0.00     0.010 A 
ATOM     33  C   UNL A   1      41.248  25.296  28.352  1.00  0.00     0.010 A 
ATOM     34  C   UNL A   1      41.976  26.495  28.411  1.00  0.00    -0.014 A 
BRANCH  34  35
ATOM     35  C   UNL A   1      41.612  27.494  29.438  1.00  0.00     0.031 A 
ATOM     36  C   UNL A   1      42.329  27.454  30.756  1.00  0.00     0.074 A 
ATOM     37  C   UNL A   1      40.617  28.370  29.217  1.00  0.00     0.049 A 
ATOM     38  N   UNL A   1      42.101  28.140  31.845  1.00  0.00    -0.248 NA
ATOM     39  C   UNL A   1      43.443  26.497  30.866  1.00  0.00     0.031 C 
ATOM     40  C   UNL A   1      39.855  28.490  27.973  1.00  0.00     0.029 A 
ATOM     41  N   UNL A   1      40.059  29.308  30.046  1.00  0.00    -0.354 N 
ATOM     42  C   UNL A   1      43.036  27.693  32.770  1.00  0.00     0.074 A 
ATOM     43  C   UNL A   1      43.812  26.656  32.128  1.00  0.00     0.031 C 
ATOM     44  C   UNL A   1      38.913  29.437  28.130  1.00  0.00     0.029 A 
ATOM     45  C   UNL A   1      38.987  29.964  29.491  1.00  0.00     0.049 A 
ATOM     46  H   UNL A   1      40.394  29.495  30.953  1.00  0.00     0.167 HD
ATOM     47  C   UNL A   1      43.231  28.119  34.038  1.00  0.00     0.037 A 
ATOM     48  C   UNL A   1      38.149  30.865  30.035  1.00  0.00     0.037 A 
ATOM     49  C   UNL A   1      42.455  29.155  34.665  1.00  0.00     0.049 A 
ATOM     50  C   UNL A   1      38.362  31.289  31.466  1.00  0.00     0.074 A 
ATOM     51  C   UNL A   1      42.597  29.693  35.931  1.00  0.00     0.029 A 
ATOM     52  N   UNL A   1      41.384  29.804  34.068  1.00  0.00    -0.354 N 
ATOM     53  N   UNL A   1      39.281  30.902  32.316  1.00  0.00    -0.248 NA
ATOM     54  C   UNL A   1      37.419  32.277  32.011  1.00  0.00     0.031 C 
ATOM     55  C   UNL A   1      41.581  30.635  36.119  1.00  0.00     0.029 A 
ATOM     56  C   UNL A   1      40.837  30.718  34.952  1.00  0.00     0.049 A 
ATOM     57  H   UNL A   1      41.061  29.638  33.154  1.00  0.00     0.167 HD
ATOM     58  C   UNL A   1      39.045  31.613  33.485  1.00  0.00     0.074 A 
ATOM     59  C   UNL A   1      37.906  32.471  33.229  1.00  0.00     0.031 C 
ATOM     60  C   UNL A   1      39.707  31.565  34.667  1.00  0.00     0.037 A 
BRANCH  47  61
ATOM     61  C   UNL A   1      44.317  27.459  34.834  1.00  0.00     0.057 A 
ATOM     62  C   UNL A   1      45.623  27.962  34.862  1.00  0.00     0.134 A 
ATOM     63  C   UNL A   1      44.040  26.332  35.619  1.00  0.00     0.134 A 
ATOM     64  F   UNL A   1      45.956  29.029  34.121  1.00  0.00    -0.206 F 
ATOM     65  C   UNL A   1      46.621  27.360  35.631  1.00  0.00     0.040 A 
ATOM     66  C   UNL A   1      45.024  25.735  36.409  1.00  0.00     0.040 A 
ATOM     67  F   UNL A   1      42.809  25.799  35.638  1.00  0.00    -0.206 F 
ATOM     68  C   UNL A   1      46.320  26.248  36.415  1.00  0.00     0.006 A 
ENDBRANCH  47  61
BRANCH  48  69
ATOM     69  C   UNL A   1      37.021  31.420  29.242  1.00  0.00     0.057 A 
ATOM     70  C   UNL A   1      37.067  32.722  28.731  1.00  0.00     0.134 A 
ATOM     71  C   UNL A   1      35.858  30.678  29.009  1.00  0.00     0.134 A 
ATOM     72  F   UNL A   1      38.144  33.492  28.940  1.00  0.00    -0.206 F 
ATOM     73  C   UNL A   1      35.988  33.275  28.038  1.00  0.00     0.040 A 
ATOM     74  C   UNL A   1      34.782  31.207  28.294  1.00  0.00     0.040 A 
ATOM     75  F   UNL A   1      35.750  29.422  29.470  1.00  0.00    -0.206 F 
ATOM     76  C   UNL A   1      34.842  32.514  27.815  1.00  0.00     0.006 A 
ENDBRANCH  48  69
BRANCH  60  77
ATOM     77  C   UNL A   1      39.235  32.483  35.756  1.00  0.00     0.057 A 
ATOM     78  C   UNL A   1      38.312  32.066  36.722  1.00  0.00     0.134 A 
ATOM     79  C   UNL A   1      39.744  33.784  35.862  1.00  0.00     0.134 A 
ATOM     80  F   UNL A   1      37.778  30.836  36.668  1.00  0.00    -0.206 F 
ATOM     81  C   UNL A   1      37.894  32.920  37.745  1.00  0.00     0.040 A 
ATOM     82  C   UNL A   1      39.356  34.636  36.895  1.00  0.00     0.040 A 
ATOM     83  F   UNL A   1      40.641  34.239  34.974  1.00  0.00    -0.206 F 
ATOM     84  C   UNL A   1      38.422  34.207  37.836  1.00  0.00     0.006 A 
ENDBRANCH  60  77
ENDBRANCH  34  35
ENDBRANCH  27  29
ENDBRANCH  26  27
ENDBRANCH  25  26
ENDBRANCH  24  25
ENDBRANCH   1  24
TORSDOF 16
ENDMDL
