MODEL 1
REMARK VINA RESULT:     -11.0      0.000      0.000
REMARK SMILES C[C@@H](CCC(=O)OCCOCCOC(=O)c1ccc(-c2c3nc(c(-c4c(F)cccc4F)c4ccc([nH]4)c(-c4c(F)cccc4F)c4nc(c(-c5c(F)cccc5F)c5ccc2[nH]5)C=C4)C=C3)cc1)NC(=O)Nc1ccc(Cl)c(Br)c1
REMARK SMILES IDX 9 1 8 2 7 3 5 4 6 5 4 6 3 7 2 8 1 9 70 10 71 11 72 13 73 14
REMARK SMILES IDX 74 16 75 17 81 18 76 19 79 20 77 21 80 22 78 23 10 24 11 25
REMARK SMILES IDX 12 26 13 27 14 28 15 29 16 30 17 31 69 32 18 33 68 34 19 35
REMARK SMILES IDX 20 36 21 37 62 38 22 39 67 40 61 41 63 42 23 43 66 44 60 45
REMARK SMILES IDX 59 46 24 48 50 49 33 50 49 51 34 52 37 53 48 54 64 55 35 56
REMARK SMILES IDX 36 57 47 59 65 60 38 61 25 62 26 63 31 64 27 65 28 66 30 67
REMARK SMILES IDX 32 68 29 69 51 70 52 71 57 72 53 73 54 74 56 75 58 76 55 77
REMARK SMILES IDX 39 78 40 79 45 80 41 81 42 82 44 83 46 84 43 85
REMARK H PARENT 70 12 73 15 63 47 37 58
REMARK Flexibility Score: inf
ROOT
ATOM      1  C   UNL A   1      40.655  20.410  26.451  1.00  0.00     0.202 C 
ENDROOT
BRANCH   1   2
ATOM      2  C   UNL A   1      40.126  21.845  26.507  1.00  0.00     0.261 C 
BRANCH   2   3
ATOM      3  O   UNL A   1      38.737  21.902  26.115  1.00  0.00    -0.463 OA
BRANCH   3   4
ATOM      4  C   UNL A   1      38.148  23.125  26.123  1.00  0.00     0.305 C 
ATOM      5  O   UNL A   1      38.701  24.172  26.428  1.00  0.00    -0.252 OA
BRANCH   4   6
ATOM      6  C   UNL A   1      36.675  23.041  25.787  1.00  0.00     0.125 C 
BRANCH   6   7
ATOM      7  C   UNL A   1      36.032  21.652  25.814  1.00  0.00     0.036 C 
BRANCH   7   8
ATOM      8  C   UNL A   1      34.512  21.567  26.054  1.00  0.00     0.081 C 
ATOM      9  C   UNL A   1      34.102  21.621  27.524  1.00  0.00     0.031 C 
BRANCH   8  10
ATOM     10  N   UNL A   1      33.966  20.368  25.433  1.00  0.00    -0.335 N 
ATOM     11  C   UNL A   1      32.708  20.061  25.082  1.00  0.00     0.319 C 
ATOM     12  H   UNL A   1      34.630  19.667  25.239  1.00  0.00     0.165 HD
ATOM     13  O   UNL A   1      32.339  18.907  25.306  1.00  0.00    -0.248 OA
ATOM     14  N   UNL A   1      31.834  20.960  24.587  1.00  0.00    -0.308 N 
ATOM     15  H   UNL A   1      30.895  20.667  24.634  1.00  0.00     0.171 HD
BRANCH  14  16
ATOM     16  C   UNL A   1      31.999  22.229  24.018  1.00  0.00     0.044 A 
ATOM     17  C   UNL A   1      32.873  22.329  22.932  1.00  0.00     0.028 A 
ATOM     18  C   UNL A   1      31.312  23.365  24.449  1.00  0.00     0.043 A 
ATOM     19  C   UNL A   1      32.920  23.503  22.176  1.00  0.00     0.024 A 
ATOM     20  C   UNL A   1      31.343  24.538  23.685  1.00  0.00     0.038 A 
ATOM     21  C   UNL A   1      32.124  24.596  22.526  1.00  0.00     0.055 A 
ATOM     22  Br  UNL A   1      30.235  25.974  24.249  1.00  0.00    -0.049 Br
ATOM     23  Cl  UNL A   1      32.130  25.958  21.466  1.00  0.00    -0.083 Cl
ENDBRANCH  14  16
ENDBRANCH   8  10
ENDBRANCH   7   8
ENDBRANCH   6   7
ENDBRANCH   4   6
ENDBRANCH   3   4
ENDBRANCH   2   3
ENDBRANCH   1   2
BRANCH   1  24
ATOM     24  O   UNL A   1      41.891  20.306  25.744  1.00  0.00    -0.374 OA
BRANCH  24  25
ATOM     25  C   UNL A   1      42.951  21.115  26.254  1.00  0.00     0.202 C 
BRANCH  25  26
ATOM     26  C   UNL A   1      43.730  21.856  25.162  1.00  0.00     0.261 C 
BRANCH  26  27
ATOM     27  O   UNL A   1      43.161  23.154  24.919  1.00  0.00    -0.460 OA
BRANCH  27  28
ATOM     28  C   UNL A   1      43.977  24.209  25.170  1.00  0.00     0.338 C 
ATOM     29  O   UNL A   1      45.002  24.505  24.589  1.00  0.00    -0.246 OA
BRANCH  28  30
ATOM     30  C   UNL A   1      43.341  25.078  26.184  1.00  0.00     0.060 A 
ATOM     31  C   UNL A   1      43.776  26.406  26.276  1.00  0.00     0.016 A 
ATOM     32  C   UNL A   1      42.318  24.611  27.014  1.00  0.00     0.016 A 
ATOM     33  C   UNL A   1      43.187  27.273  27.199  1.00  0.00     0.010 A 
ATOM     34  C   UNL A   1      41.716  25.488  27.920  1.00  0.00     0.010 A 
ATOM     35  C   UNL A   1      42.159  26.820  28.035  1.00  0.00    -0.014 A 
BRANCH  35  36
ATOM     36  C   UNL A   1      41.648  27.678  29.138  1.00  0.00     0.031 A 
ATOM     37  C   UNL A   1      42.340  27.614  30.473  1.00  0.00     0.074 A 
ATOM     38  C   UNL A   1      40.588  28.492  28.977  1.00  0.00     0.049 A 
ATOM     39  N   UNL A   1      42.024  28.191  31.603  1.00  0.00    -0.248 NA
ATOM     40  C   UNL A   1      43.532  26.755  30.547  1.00  0.00     0.031 C 
ATOM     41  C   UNL A   1      39.817  28.653  27.744  1.00  0.00     0.029 A 
ATOM     42  N   UNL A   1      39.970  29.335  29.871  1.00  0.00    -0.354 N 
ATOM     43  C   UNL A   1      42.956  27.735  32.527  1.00  0.00     0.074 A 
ATOM     44  C   UNL A   1      43.819  26.802  31.837  1.00  0.00     0.031 C 
ATOM     45  C   UNL A   1      38.833  29.544  27.960  1.00  0.00     0.029 A 
ATOM     46  C   UNL A   1      38.883  29.995  29.351  1.00  0.00     0.049 A 
ATOM     47  H   UNL A   1      40.279  29.454  30.799  1.00  0.00     0.167 HD
ATOM     48  C   UNL A   1      43.100  28.077  33.829  1.00  0.00     0.037 A 
ATOM     49  C   UNL A   1      38.019  30.849  29.935  1.00  0.00     0.037 A 
ATOM     50  C   UNL A   1      42.283  29.044  34.508  1.00  0.00     0.049 A 
ATOM     51  C   UNL A   1      38.196  31.218  31.387  1.00  0.00     0.074 A 
ATOM     52  C   UNL A   1      42.396  29.503  35.809  1.00  0.00     0.029 A 
ATOM     53  N   UNL A   1      41.206  29.704  33.940  1.00  0.00    -0.354 N 
ATOM     54  N   UNL A   1      39.109  30.816  32.239  1.00  0.00    -0.248 NA
ATOM     55  C   UNL A   1      37.221  32.161  31.960  1.00  0.00     0.031 C 
ATOM     56  C   UNL A   1      41.361  30.415  36.040  1.00  0.00     0.029 A 
ATOM     57  C   UNL A   1      40.631  30.553  34.870  1.00  0.00     0.049 A 
ATOM     58  H   UNL A   1      40.895  29.587  33.013  1.00  0.00     0.167 HD
ATOM     59  C   UNL A   1      38.836  31.474  33.433  1.00  0.00     0.074 A 
ATOM     60  C   UNL A   1      37.677  32.309  33.197  1.00  0.00     0.031 C 
ATOM     61  C   UNL A   1      39.488  31.393  34.618  1.00  0.00     0.037 A 
BRANCH  48  62
ATOM     62  C   UNL A   1      44.181  27.381  34.601  1.00  0.00     0.057 A 
ATOM     63  C   UNL A   1      45.477  27.905  34.699  1.00  0.00     0.134 A 
ATOM     64  C   UNL A   1      43.921  26.166  35.245  1.00  0.00     0.134 A 
ATOM     65  F   UNL A   1      45.793  29.057  34.087  1.00  0.00    -0.206 F 
ATOM     66  C   UNL A   1      46.487  27.225  35.379  1.00  0.00     0.040 A 
ATOM     67  C   UNL A   1      44.916  25.492  35.954  1.00  0.00     0.040 A 
ATOM     68  F   UNL A   1      42.701  25.613  35.193  1.00  0.00    -0.206 F 
ATOM     69  C   UNL A   1      46.206  26.016  36.013  1.00  0.00     0.006 A 
ENDBRANCH  48  62
BRANCH  49  70
ATOM     70  C   UNL A   1      36.894  31.423  29.154  1.00  0.00     0.057 A 
ATOM     71  C   UNL A   1      36.920  32.752  28.713  1.00  0.00     0.134 A 
ATOM     72  C   UNL A   1      35.752  30.670  28.858  1.00  0.00     0.134 A 
ATOM     73  F   UNL A   1      37.974  33.534  28.991  1.00  0.00    -0.206 F 
ATOM     74  C   UNL A   1      35.846  33.316  28.022  1.00  0.00     0.040 A 
ATOM     75  C   UNL A   1      34.681  31.213  28.147  1.00  0.00     0.040 A 
ATOM     76  F   UNL A   1      35.663  29.392  29.255  1.00  0.00    -0.206 F 
ATOM     77  C   UNL A   1      34.723  32.543  27.734  1.00  0.00     0.006 A 
ENDBRANCH  49  70
BRANCH  61  78
ATOM     78  C   UNL A   1      39.000  32.251  35.748  1.00  0.00     0.057 A 
ATOM     79  C   UNL A   1      38.179  31.740  36.761  1.00  0.00     0.134 A 
ATOM     80  C   UNL A   1      39.426  33.580  35.869  1.00  0.00     0.134 A 
ATOM     81  F   UNL A   1      37.728  30.478  36.700  1.00  0.00    -0.206 F 
ATOM     82  C   UNL A   1      37.793  32.524  37.850  1.00  0.00     0.040 A 
ATOM     83  C   UNL A   1      39.067  34.366  36.965  1.00  0.00     0.040 A 
ATOM     84  F   UNL A   1      40.223  34.127  34.938  1.00  0.00    -0.206 F 
ATOM     85  C   UNL A   1      38.247  33.838  37.959  1.00  0.00     0.006 A 
ENDBRANCH  61  78
ENDBRANCH  35  36
ENDBRANCH  28  30
ENDBRANCH  27  28
ENDBRANCH  26  27
ENDBRANCH  25  26
ENDBRANCH  24  25
ENDBRANCH   1  24
TORSDOF 18
ENDMDL
MODEL 2
REMARK VINA RESULT:     -10.8      1.705      2.238
REMARK SMILES C[C@@H](CCC(=O)OCCOCCOC(=O)c1ccc(-c2c3nc(c(-c4c(F)cccc4F)c4ccc([nH]4)c(-c4c(F)cccc4F)c4nc(c(-c5c(F)cccc5F)c5ccc2[nH]5)C=C4)C=C3)cc1)NC(=O)Nc1ccc(Cl)c(Br)c1
REMARK SMILES IDX 9 1 8 2 7 3 5 4 6 5 4 6 3 7 2 8 1 9 70 10 71 11 72 13 73 14
REMARK SMILES IDX 74 16 75 17 81 18 76 19 79 20 77 21 80 22 78 23 10 24 11 25
REMARK SMILES IDX 12 26 13 27 14 28 15 29 16 30 17 31 69 32 18 33 68 34 19 35
REMARK SMILES IDX 20 36 21 37 62 38 22 39 67 40 61 41 63 42 23 43 66 44 60 45
REMARK SMILES IDX 59 46 24 48 50 49 33 50 49 51 34 52 37 53 48 54 64 55 35 56
REMARK SMILES IDX 36 57 47 59 65 60 38 61 25 62 26 63 31 64 27 65 28 66 30 67
REMARK SMILES IDX 32 68 29 69 51 70 52 71 57 72 53 73 54 74 56 75 58 76 55 77
REMARK SMILES IDX 39 78 40 79 45 80 41 81 42 82 44 83 46 84 43 85
REMARK H PARENT 70 12 73 15 63 47 37 58
REMARK Flexibility Score: inf
ROOT
ATOM      1  C   UNL A   1      40.641  20.365  26.403  1.00  0.00     0.202 C 
ENDROOT
BRANCH   1   2
ATOM      2  C   UNL A   1      39.825  21.658  26.457  1.00  0.00     0.261 C 
BRANCH   2   3
ATOM      3  O   UNL A   1      38.461  21.429  26.041  1.00  0.00    -0.463 OA
BRANCH   3   4
ATOM      4  C   UNL A   1      37.814  22.472  25.461  1.00  0.00     0.305 C 
ATOM      5  O   UNL A   1      37.740  23.601  25.924  1.00  0.00    -0.252 OA
BRANCH   4   6
ATOM      6  C   UNL A   1      37.105  22.057  24.190  1.00  0.00     0.125 C 
BRANCH   6   7
ATOM      7  C   UNL A   1      36.434  23.165  23.373  1.00  0.00     0.036 C 
BRANCH   7   8
ATOM      8  C   UNL A   1      34.920  23.383  23.563  1.00  0.00     0.081 C 
ATOM      9  C   UNL A   1      34.321  24.462  22.665  1.00  0.00     0.031 C 
BRANCH   8  10
ATOM     10  N   UNL A   1      34.620  23.678  24.957  1.00  0.00    -0.335 N 
ATOM     11  C   UNL A   1      33.445  23.804  25.591  1.00  0.00     0.319 C 
ATOM     12  H   UNL A   1      35.412  23.806  25.529  1.00  0.00     0.165 HD
ATOM     13  O   UNL A   1      33.357  24.714  26.416  1.00  0.00    -0.248 OA
ATOM     14  N   UNL A   1      32.363  23.050  25.307  1.00  0.00    -0.308 N 
ATOM     15  H   UNL A   1      31.518  23.427  25.644  1.00  0.00     0.171 HD
BRANCH  14  16
ATOM     16  C   UNL A   1      32.206  21.835  24.628  1.00  0.00     0.044 A 
ATOM     17  C   UNL A   1      31.934  21.904  23.260  1.00  0.00     0.028 A 
ATOM     18  C   UNL A   1      32.350  20.587  25.236  1.00  0.00     0.043 A 
ATOM     19  C   UNL A   1      31.986  20.747  22.477  1.00  0.00     0.024 A 
ATOM     20  C   UNL A   1      32.419  19.427  24.453  1.00  0.00     0.038 A 
ATOM     21  C   UNL A   1      32.270  19.512  23.065  1.00  0.00     0.055 A 
ATOM     22  Br  UNL A   1      32.798  17.795  25.347  1.00  0.00    -0.049 Br
ATOM     23  Cl  UNL A   1      32.457  18.154  22.017  1.00  0.00    -0.083 Cl
ENDBRANCH  14  16
ENDBRANCH   8  10
ENDBRANCH   7   8
ENDBRANCH   6   7
ENDBRANCH   4   6
ENDBRANCH   3   4
ENDBRANCH   2   3
ENDBRANCH   1   2
BRANCH   1  24
ATOM     24  O   UNL A   1      41.752  20.452  25.510  1.00  0.00    -0.374 OA
BRANCH  24  25
ATOM     25  C   UNL A   1      43.022  20.633  26.138  1.00  0.00     0.202 C 
BRANCH  25  26
ATOM     26  C   UNL A   1      43.909  21.662  25.429  1.00  0.00     0.261 C 
BRANCH  26  27
ATOM     27  O   UNL A   1      43.149  22.828  25.066  1.00  0.00    -0.460 OA
BRANCH  27  28
ATOM     28  C   UNL A   1      43.833  24.001  25.079  1.00  0.00     0.338 C 
ATOM     29  O   UNL A   1      44.702  24.358  24.309  1.00  0.00    -0.246 OA
BRANCH  28  30
ATOM     30  C   UNL A   1      43.242  24.890  26.103  1.00  0.00     0.060 A 
ATOM     31  C   UNL A   1      43.731  26.199  26.197  1.00  0.00     0.016 A 
ATOM     32  C   UNL A   1      42.208  24.462  26.939  1.00  0.00     0.016 A 
ATOM     33  C   UNL A   1      43.187  27.085  27.128  1.00  0.00     0.010 A 
ATOM     34  C   UNL A   1      41.650  25.358  27.855  1.00  0.00     0.010 A 
ATOM     35  C   UNL A   1      42.148  26.670  27.972  1.00  0.00    -0.014 A 
BRANCH  35  36
ATOM     36  C   UNL A   1      41.683  27.543  29.083  1.00  0.00     0.031 A 
ATOM     37  C   UNL A   1      42.410  27.475  30.398  1.00  0.00     0.074 A 
ATOM     38  C   UNL A   1      40.632  28.373  28.946  1.00  0.00     0.049 A 
ATOM     39  N   UNL A   1      42.136  28.063  31.533  1.00  0.00    -0.248 NA
ATOM     40  C   UNL A   1      43.590  26.597  30.444  1.00  0.00     0.031 C 
ATOM     41  C   UNL A   1      39.829  28.540  27.735  1.00  0.00     0.029 A 
ATOM     42  N   UNL A   1      40.053  29.231  29.852  1.00  0.00    -0.354 N 
ATOM     43  C   UNL A   1      43.086  27.598  32.434  1.00  0.00     0.074 A 
ATOM     44  C   UNL A   1      43.913  26.647  31.726  1.00  0.00     0.031 C 
ATOM     45  C   UNL A   1      38.867  29.449  27.972  1.00  0.00     0.029 A 
ATOM     46  C   UNL A   1      38.963  29.906  29.359  1.00  0.00     0.049 A 
ATOM     47  H   UNL A   1      40.390  29.351  30.770  1.00  0.00     0.167 HD
ATOM     48  C   UNL A   1      43.271  27.945  33.729  1.00  0.00     0.037 A 
ATOM     49  C   UNL A   1      38.130  30.778  29.961  1.00  0.00     0.037 A 
ATOM     50  C   UNL A   1      42.489  28.929  34.425  1.00  0.00     0.049 A 
ATOM     51  C   UNL A   1      38.353  31.152  31.405  1.00  0.00     0.074 A 
ATOM     52  C   UNL A   1      42.646  29.394  35.719  1.00  0.00     0.029 A 
ATOM     53  N   UNL A   1      41.408  29.604  33.882  1.00  0.00    -0.354 N 
ATOM     54  N   UNL A   1      39.283  30.740  32.233  1.00  0.00    -0.248 NA
ATOM     55  C   UNL A   1      37.410  32.115  32.000  1.00  0.00     0.031 C 
ATOM     56  C   UNL A   1      41.633  30.324  35.973  1.00  0.00     0.029 A 
ATOM     57  C   UNL A   1      40.874  30.468  34.823  1.00  0.00     0.049 A 
ATOM     58  H   UNL A   1      41.070  29.486  32.965  1.00  0.00     0.167 HD
ATOM     59  C   UNL A   1      39.054  31.410  33.430  1.00  0.00     0.074 A 
ATOM     60  C   UNL A   1      37.903  32.262  33.222  1.00  0.00     0.031 C 
ATOM     61  C   UNL A   1      39.738  31.325  34.598  1.00  0.00     0.037 A 
BRANCH  48  62
ATOM     62  C   UNL A   1      44.362  27.236  34.475  1.00  0.00     0.057 A 
ATOM     63  C   UNL A   1      45.666  27.744  34.543  1.00  0.00     0.134 A 
ATOM     64  C   UNL A   1      44.103  26.023  35.124  1.00  0.00     0.134 A 
ATOM     65  F   UNL A   1      45.981  28.893  33.925  1.00  0.00    -0.206 F 
ATOM     66  C   UNL A   1      46.684  27.052  35.199  1.00  0.00     0.040 A 
ATOM     67  C   UNL A   1      45.106  25.337  35.810  1.00  0.00     0.040 A 
ATOM     68  F   UNL A   1      42.876  25.484  35.100  1.00  0.00    -0.206 F 
ATOM     69  C   UNL A   1      46.404  25.845  35.838  1.00  0.00     0.006 A 
ENDBRANCH  48  62
BRANCH  49  70
ATOM     70  C   UNL A   1      36.993  31.366  29.208  1.00  0.00     0.057 A 
ATOM     71  C   UNL A   1      35.856  30.609  28.900  1.00  0.00     0.134 A 
ATOM     72  C   UNL A   1      37.029  32.688  28.750  1.00  0.00     0.134 A 
ATOM     73  F   UNL A   1      35.774  29.327  29.286  1.00  0.00    -0.206 F 
ATOM     74  C   UNL A   1      34.805  31.139  28.149  1.00  0.00     0.040 A 
ATOM     75  C   UNL A   1      35.975  33.239  28.018  1.00  0.00     0.040 A 
ATOM     76  F   UNL A   1      38.091  33.466  29.008  1.00  0.00    -0.206 F 
ATOM     77  C   UNL A   1      34.861  32.460  27.709  1.00  0.00     0.006 A 
ENDBRANCH  49  70
BRANCH  61  78
ATOM     78  C   UNL A   1      39.295  32.197  35.735  1.00  0.00     0.057 A 
ATOM     79  C   UNL A   1      38.423  31.732  36.726  1.00  0.00     0.134 A 
ATOM     80  C   UNL A   1      39.817  33.490  35.887  1.00  0.00     0.134 A 
ATOM     81  F   UNL A   1      37.881  30.508  36.636  1.00  0.00    -0.206 F 
ATOM     82  C   UNL A   1      38.077  32.524  37.824  1.00  0.00     0.040 A 
ATOM     83  C   UNL A   1      39.498  34.281  36.991  1.00  0.00     0.040 A 
ATOM     84  F   UNL A   1      40.667  33.991  34.977  1.00  0.00    -0.206 F 
ATOM     85  C   UNL A   1      38.625  33.798  37.963  1.00  0.00     0.006 A 
ENDBRANCH  61  78
ENDBRANCH  35  36
ENDBRANCH  28  30
ENDBRANCH  27  28
ENDBRANCH  26  27
ENDBRANCH  25  26
ENDBRANCH  24  25
ENDBRANCH   1  24
TORSDOF 18
ENDMDL
MODEL 3
REMARK VINA RESULT:     -10.6      4.995     10.046
REMARK SMILES C[C@@H](CCC(=O)OCCOCCOC(=O)c1ccc(-c2c3nc(c(-c4c(F)cccc4F)c4ccc([nH]4)c(-c4c(F)cccc4F)c4nc(c(-c5c(F)cccc5F)c5ccc2[nH]5)C=C4)C=C3)cc1)NC(=O)Nc1ccc(Cl)c(Br)c1
REMARK SMILES IDX 9 1 8 2 7 3 5 4 6 5 4 6 3 7 2 8 1 9 70 10 71 11 72 13 73 14
REMARK SMILES IDX 74 16 75 17 81 18 76 19 79 20 77 21 80 22 78 23 10 24 11 25
REMARK SMILES IDX 12 26 13 27 14 28 15 29 16 30 17 31 69 32 18 33 68 34 19 35
REMARK SMILES IDX 20 36 21 37 62 38 22 39 67 40 61 41 63 42 23 43 66 44 60 45
REMARK SMILES IDX 59 46 24 48 50 49 33 50 49 51 34 52 37 53 48 54 64 55 35 56
REMARK SMILES IDX 36 57 47 59 65 60 38 61 25 62 26 63 31 64 27 65 28 66 30 67
REMARK SMILES IDX 32 68 29 69 51 70 52 71 57 72 53 73 54 74 56 75 58 76 55 77
REMARK SMILES IDX 39 78 40 79 45 80 41 81 42 82 44 83 46 84 43 85
REMARK H PARENT 70 12 73 15 63 47 37 58
REMARK Flexibility Score: inf
ROOT
ATOM      1  C   UNL A   1      35.018  33.426  28.032  1.00  0.00     0.202 C 
ENDROOT
BRANCH   1   2
ATOM      2  C   UNL A   1      34.316  32.093  28.303  1.00  0.00     0.261 C 
BRANCH   2   3
ATOM      3  O   UNL A   1      34.158  31.333  27.084  1.00  0.00    -0.463 OA
BRANCH   3   4
ATOM      4  C   UNL A   1      34.132  29.982  27.203  1.00  0.00     0.305 C 
ATOM      5  O   UNL A   1      34.747  29.336  28.040  1.00  0.00    -0.252 OA
BRANCH   4   6
ATOM      6  C   UNL A   1      33.306  29.336  26.112  1.00  0.00     0.125 C 
BRANCH   6   7
ATOM      7  C   UNL A   1      34.068  28.604  25.003  1.00  0.00     0.036 C 
BRANCH   7   8
ATOM      8  C   UNL A   1      33.316  28.305  23.691  1.00  0.00     0.081 C 
ATOM      9  C   UNL A   1      34.134  28.549  22.426  1.00  0.00     0.031 C 
BRANCH   8  10
ATOM     10  N   UNL A   1      32.076  29.065  23.632  1.00  0.00    -0.335 N 
ATOM     11  C   UNL A   1      30.898  28.774  23.059  1.00  0.00     0.319 C 
ATOM     12  H   UNL A   1      32.107  29.939  24.087  1.00  0.00     0.165 HD
ATOM     13  O   UNL A   1      30.326  29.695  22.475  1.00  0.00    -0.248 OA
ATOM     14  N   UNL A   1      30.374  27.532  23.027  1.00  0.00    -0.308 N 
ATOM     15  H   UNL A   1      29.665  27.419  22.354  1.00  0.00     0.171 HD
BRANCH  14  16
ATOM     16  C   UNL A   1      30.641  26.371  23.764  1.00  0.00     0.044 A 
ATOM     17  C   UNL A   1      30.225  26.357  25.097  1.00  0.00     0.028 A 
ATOM     18  C   UNL A   1      31.252  25.238  23.226  1.00  0.00     0.043 A 
ATOM     19  C   UNL A   1      30.253  25.165  25.826  1.00  0.00     0.024 A 
ATOM     20  C   UNL A   1      31.267  24.037  23.947  1.00  0.00     0.038 A 
ATOM     21  C   UNL A   1      30.735  23.993  25.240  1.00  0.00     0.055 A 
ATOM     22  Br  UNL A   1      31.954  22.501  23.066  1.00  0.00    -0.049 Br
ATOM     23  Cl  UNL A   1      30.608  22.533  26.152  1.00  0.00    -0.083 Cl
ENDBRANCH  14  16
ENDBRANCH   8  10
ENDBRANCH   7   8
ENDBRANCH   6   7
ENDBRANCH   4   6
ENDBRANCH   3   4
ENDBRANCH   2   3
ENDBRANCH   1   2
BRANCH   1  24
ATOM     24  O   UNL A   1      35.130  34.236  29.203  1.00  0.00    -0.374 OA
BRANCH  24  25
ATOM     25  C   UNL A   1      34.080  34.073  30.156  1.00  0.00     0.202 C 
BRANCH  25  26
ATOM     26  C   UNL A   1      34.586  33.893  31.592  1.00  0.00     0.261 C 
BRANCH  26  27
ATOM     27  O   UNL A   1      34.884  32.512  31.859  1.00  0.00    -0.460 OA
BRANCH  27  28
ATOM     28  C   UNL A   1      35.918  32.289  32.709  1.00  0.00     0.338 C 
ATOM     29  O   UNL A   1      35.935  32.458  33.913  1.00  0.00    -0.246 OA
BRANCH  28  30
ATOM     30  C   UNL A   1      37.017  31.633  31.968  1.00  0.00     0.060 A 
ATOM     31  C   UNL A   1      38.048  31.042  32.710  1.00  0.00     0.016 A 
ATOM     32  C   UNL A   1      37.029  31.573  30.573  1.00  0.00     0.016 A 
ATOM     33  C   UNL A   1      39.094  30.387  32.057  1.00  0.00     0.010 A 
ATOM     34  C   UNL A   1      38.065  30.898  29.923  1.00  0.00     0.010 A 
ATOM     35  C   UNL A   1      39.117  30.317  30.658  1.00  0.00    -0.014 A 
BRANCH  35  36
ATOM     36  C   UNL A   1      40.309  29.780  29.948  1.00  0.00     0.031 A 
ATOM     37  C   UNL A   1      41.473  30.702  29.706  1.00  0.00     0.074 A 
ATOM     38  C   UNL A   1      40.367  28.508  29.510  1.00  0.00     0.049 A 
ATOM     39  N   UNL A   1      42.575  30.495  29.033  1.00  0.00    -0.248 NA
ATOM     40  C   UNL A   1      41.361  32.054  30.278  1.00  0.00     0.031 C 
ATOM     41  C   UNL A   1      39.314  27.505  29.667  1.00  0.00     0.029 A 
ATOM     42  N   UNL A   1      41.362  27.846  28.830  1.00  0.00    -0.354 N 
ATOM     43  C   UNL A   1      43.267  31.699  29.070  1.00  0.00     0.074 A 
ATOM     44  C   UNL A   1      42.441  32.642  29.792  1.00  0.00     0.031 C 
ATOM     45  C   UNL A   1      39.723  26.354  29.104  1.00  0.00     0.029 A 
ATOM     46  C   UNL A   1      41.051  26.545  28.519  1.00  0.00     0.049 A 
ATOM     47  H   UNL A   1      42.219  28.267  28.587  1.00  0.00     0.167 HD
ATOM     48  C   UNL A   1      44.489  31.993  28.570  1.00  0.00     0.037 A 
ATOM     49  C   UNL A   1      41.749  25.621  27.829  1.00  0.00     0.037 A 
ATOM     50  C   UNL A   1      45.340  31.048  27.900  1.00  0.00     0.049 A 
ATOM     51  C   UNL A   1      43.110  25.967  27.279  1.00  0.00     0.074 A 
ATOM     52  C   UNL A   1      46.623  31.237  27.417  1.00  0.00     0.029 A 
ATOM     53  N   UNL A   1      44.995  29.735  27.625  1.00  0.00    -0.354 N 
ATOM     54  N   UNL A   1      43.774  27.096  27.360  1.00  0.00    -0.248 NA
ATOM     55  C   UNL A   1      43.821  24.910  26.541  1.00  0.00     0.031 C 
ATOM     56  C   UNL A   1      47.040  30.047  26.813  1.00  0.00     0.029 A 
ATOM     57  C   UNL A   1      46.033  29.106  26.959  1.00  0.00     0.049 A 
ATOM     58  H   UNL A   1      44.139  29.312  27.866  1.00  0.00     0.167 HD
ATOM     59  C   UNL A   1      44.984  26.876  26.711  1.00  0.00     0.074 A 
ATOM     60  C   UNL A   1      44.970  25.505  26.248  1.00  0.00     0.031 C 
ATOM     61  C   UNL A   1      46.015  27.735  26.518  1.00  0.00     0.037 A 
BRANCH  48  62
ATOM     62  C   UNL A   1      44.967  33.406  28.723  1.00  0.00     0.057 A 
ATOM     63  C   UNL A   1      45.728  33.816  29.825  1.00  0.00     0.134 A 
ATOM     64  C   UNL A   1      44.651  34.369  27.758  1.00  0.00     0.134 A 
ATOM     65  F   UNL A   1      46.048  32.944  30.794  1.00  0.00    -0.206 F 
ATOM     66  C   UNL A   1      46.126  35.144  29.982  1.00  0.00     0.040 A 
ATOM     67  C   UNL A   1      45.069  35.694  27.888  1.00  0.00     0.040 A 
ATOM     68  F   UNL A   1      43.928  34.041  26.677  1.00  0.00    -0.206 F 
ATOM     69  C   UNL A   1      45.800  36.087  29.008  1.00  0.00     0.006 A 
ENDBRANCH  48  62
BRANCH  49  70
ATOM     70  C   UNL A   1      41.179  24.267  27.606  1.00  0.00     0.057 A 
ATOM     71  C   UNL A   1      41.659  23.154  28.307  1.00  0.00     0.134 A 
ATOM     72  C   UNL A   1      40.167  24.048  26.665  1.00  0.00     0.134 A 
ATOM     73  F   UNL A   1      42.648  23.295  29.202  1.00  0.00    -0.206 F 
ATOM     74  C   UNL A   1      41.165  21.870  28.069  1.00  0.00     0.040 A 
ATOM     75  C   UNL A   1      39.647  22.774  26.433  1.00  0.00     0.040 A 
ATOM     76  F   UNL A   1      39.667  25.072  25.957  1.00  0.00    -0.206 F 
ATOM     77  C   UNL A   1      40.152  21.678  27.131  1.00  0.00     0.006 A 
ENDBRANCH  49  70
BRANCH  61  78
ATOM     78  C   UNL A   1      47.233  27.221  25.809  1.00  0.00     0.057 A 
ATOM     79  C   UNL A   1      47.421  27.406  24.434  1.00  0.00     0.134 A 
ATOM     80  C   UNL A   1      48.270  26.610  26.528  1.00  0.00     0.134 A 
ATOM     81  F   UNL A   1      46.462  27.976  23.687  1.00  0.00    -0.206 F 
ATOM     82  C   UNL A   1      48.593  26.994  23.797  1.00  0.00     0.040 A 
ATOM     83  C   UNL A   1      49.456  26.216  25.906  1.00  0.00     0.040 A 
ATOM     84  F   UNL A   1      48.158  26.414  27.850  1.00  0.00    -0.206 F 
ATOM     85  C   UNL A   1      49.619  26.407  24.536  1.00  0.00     0.006 A 
ENDBRANCH  61  78
ENDBRANCH  35  36
ENDBRANCH  28  30
ENDBRANCH  27  28
ENDBRANCH  26  27
ENDBRANCH  25  26
ENDBRANCH  24  25
ENDBRANCH   1  24
TORSDOF 18
ENDMDL
