MODEL 1
REMARK VINA RESULT:     -13.1      0.000      0.000
REMARK SMILES O=C(CC[NH+]1CCN(C(=O)c2n[nH]c3ccccc23)CC1)OCCOCCOC(=O)c1ccc(-c2c3nc(c(-c4c(F)cccc4F)c4ccc([nH]4)c(-c4c(F)cccc4F)c4nc(c(-c5c(F)cccc5F)c5ccc2[nH]5)C=C4)C=C3)cc1
REMARK SMILES IDX 24 1 23 2 22 3 2 4 1 5 3 6 4 7 5 8 6 9 21 10 7 12 20 13 8 14
REMARK SMILES IDX 9 15 10 16 11 17 12 18 19 19 13 20 14 21 18 22 15 24 17 25
REMARK SMILES IDX 16 26 25 27 26 28 27 29 28 30 29 31 30 32 31 33 32 34 84 35
REMARK SMILES IDX 33 36 83 37 34 38 35 39 36 40 77 41 37 42 82 43 76 44 78 45
REMARK SMILES IDX 38 46 81 47 75 48 74 49 39 51 65 52 48 53 64 54 49 55 52 56
REMARK SMILES IDX 63 57 79 58 50 59 51 60 62 62 80 63 53 64 40 65 41 66 46 67
REMARK SMILES IDX 42 68 43 69 45 70 47 71 44 72 66 73 67 74 72 75 68 76 69 77
REMARK SMILES IDX 71 78 73 79 70 80 54 81 55 82 60 83 56 84 57 85 59 86 61 87
REMARK SMILES IDX 58 88
REMARK H PARENT 5 11 13 23 78 50 52 61
REMARK Flexibility Score: inf
ROOT
ATOM      1  C   UNL A   1      33.241  31.246  27.587  1.00  0.00     0.202 C 
ENDROOT
BRANCH   1   2
ATOM      2  C   UNL A   1      31.996  30.478  26.581  1.00  0.00     0.261 C 
BRANCH   2   3
ATOM      3  O   UNL A   1      32.348  29.619  24.860  1.00  0.00    -0.463 OA
BRANCH   3   4
ATOM      4  C   UNL A   1      32.128  29.156  23.513  1.00  0.00     0.311 C 
ATOM      5  O   UNL A   1      33.075  28.989  22.746  1.00  0.00    -0.252 OA
BRANCH   4   6
ATOM      6  C   UNL A   1      30.700  28.988  23.012  1.00  0.00     0.184 C 
BRANCH   6   7
ATOM      7  C   UNL A   1      30.197  27.626  23.359  1.00  0.00     0.274 C 
BRANCH   7   8
ATOM      8  N   UNL A   1      31.305  26.914  23.966  1.00  0.00    -0.332 N 
ATOM      9  C   UNL A   1      30.748  26.543  25.708  1.00  0.00     0.284 C 
ATOM     10  C   UNL A   1      31.658  25.393  22.894  1.00  0.00     0.284 C 
ATOM     11  H   UNL A   1      32.184  27.427  24.018  1.00  0.00     0.348 HD
ATOM     12  C   UNL A   1      30.466  24.767  26.380  1.00  0.00     0.181 C 
ATOM     13  C   UNL A   1      31.412  23.559  23.700  1.00  0.00     0.181 C 
ATOM     14  N   UNL A   1      31.272  23.451  25.526  1.00  0.00    -0.326 N 
ATOM     15  C   UNL A   1      32.089  22.656  26.425  1.00  0.00     0.275 C 
ATOM     16  O   UNL A   1      31.921  22.788  27.642  1.00  0.00    -0.267 OA
BRANCH  15  17
ATOM     17  C   UNL A   1      33.236  21.803  25.977  1.00  0.00     0.157 A 
ATOM     18  N   UNL A   1      33.172  20.473  25.818  1.00  0.00    -0.169 NA
ATOM     19  C   UNL A   1      34.564  22.254  25.624  1.00  0.00     0.033 A 
ATOM     20  N   UNL A   1      34.403  20.083  25.480  1.00  0.00    -0.277 N 
ATOM     21  C   UNL A   1      35.262  21.111  25.243  1.00  0.00     0.066 A 
ATOM     22  C   UNL A   1      35.198  23.502  25.462  1.00  0.00     0.013 A 
ATOM     23  H   UNL A   1      34.666  19.136  25.410  1.00  0.00     0.190 HD
ATOM     24  C   UNL A   1      36.557  21.122  24.716  1.00  0.00     0.028 A 
ATOM     25  C   UNL A   1      36.474  23.544  24.878  1.00  0.00     0.001 A 
ATOM     26  C   UNL A   1      37.140  22.373  24.514  1.00  0.00     0.002 A 
ENDBRANCH  15  17
ENDBRANCH   7   8
ENDBRANCH   6   7
ENDBRANCH   4   6
ENDBRANCH   3   4
ENDBRANCH   2   3
ENDBRANCH   1   2
BRANCH   1  27
ATOM     27  O   UNL A   1      33.716  32.626  27.703  1.00  0.00    -0.374 OA
BRANCH  27  28
ATOM     28  C   UNL A   1      33.322  33.765  28.533  1.00  0.00     0.202 C 
BRANCH  28  29
ATOM     29  C   UNL A   1      34.133  34.509  29.719  1.00  0.00     0.261 C 
BRANCH  29  30
ATOM     30  O   UNL A   1      35.310  33.857  30.327  1.00  0.00    -0.460 OA
BRANCH  30  31
ATOM     31  C   UNL A   1      35.158  32.626  30.922  1.00  0.00     0.338 C 
ATOM     32  O   UNL A   1      34.232  32.360  31.692  1.00  0.00    -0.246 OA
BRANCH  31  33
ATOM     33  C   UNL A   1      36.113  31.539  30.436  1.00  0.00     0.060 A 
ATOM     34  C   UNL A   1      36.797  30.733  31.331  1.00  0.00     0.016 A 
ATOM     35  C   UNL A   1      36.531  31.463  29.098  1.00  0.00     0.016 A 
ATOM     36  C   UNL A   1      38.054  30.191  31.003  1.00  0.00     0.010 A 
ATOM     37  C   UNL A   1      37.702  30.742  28.727  1.00  0.00     0.010 A 
ATOM     38  C   UNL A   1      38.548  30.175  29.697  1.00  0.00    -0.014 A 
BRANCH  38  39
ATOM     39  C   UNL A   1      39.929  29.639  29.385  1.00  0.00     0.031 A 
ATOM     40  C   UNL A   1      41.146  30.547  29.464  1.00  0.00     0.074 A 
ATOM     41  C   UNL A   1      40.160  28.327  29.134  1.00  0.00     0.049 A 
ATOM     42  N   UNL A   1      42.353  30.386  28.975  1.00  0.00    -0.248 NA
ATOM     43  C   UNL A   1      40.984  31.795  30.226  1.00  0.00     0.031 C 
ATOM     44  C   UNL A   1      39.165  27.255  29.210  1.00  0.00     0.029 A 
ATOM     45  N   UNL A   1      41.315  27.659  28.777  1.00  0.00    -0.354 N 
ATOM     46  C   UNL A   1      43.067  31.535  29.310  1.00  0.00     0.074 A 
ATOM     47  C   UNL A   1      42.170  32.372  30.078  1.00  0.00     0.031 C 
ATOM     48  C   UNL A   1      39.752  26.076  28.965  1.00  0.00     0.029 A 
ATOM     49  C   UNL A   1      41.121  26.314  28.539  1.00  0.00     0.049 A 
ATOM     50  H   UNL A   1      42.192  28.099  28.699  1.00  0.00     0.167 HD
ATOM     51  C   UNL A   1      44.343  31.868  28.982  1.00  0.00     0.037 A 
ATOM     52  C   UNL A   1      41.906  25.388  27.950  1.00  0.00     0.037 A 
ATOM     53  C   UNL A   1      45.235  31.000  28.249  1.00  0.00     0.049 A 
ATOM     54  C   UNL A   1      43.252  25.816  27.435  1.00  0.00     0.074 A 
ATOM     55  C   UNL A   1      46.505  31.261  27.760  1.00  0.00     0.029 A 
ATOM     56  N   UNL A   1      44.947  29.684  27.917  1.00  0.00    -0.354 N 
ATOM     57  N   UNL A   1      43.857  26.972  27.567  1.00  0.00    -0.248 NA
ATOM     58  C   UNL A   1      44.008  24.828  26.652  1.00  0.00     0.031 C 
ATOM     59  C   UNL A   1      46.957  30.121  27.083  1.00  0.00     0.029 A 
ATOM     60  C   UNL A   1      45.998  29.129  27.207  1.00  0.00     0.049 A 
ATOM     61  H   UNL A   1      44.114  29.212  28.153  1.00  0.00     0.167 HD
ATOM     62  C   UNL A   1      45.065  26.849  26.897  1.00  0.00     0.074 A 
ATOM     63  C   UNL A   1      45.121  25.496  26.382  1.00  0.00     0.031 C 
ATOM     64  C   UNL A   1      46.036  27.776  26.710  1.00  0.00     0.037 A 
BRANCH  51  65
ATOM     65  C   UNL A   1      44.816  33.262  29.308  1.00  0.00     0.057 A 
ATOM     66  C   UNL A   1      45.435  33.599  30.518  1.00  0.00     0.134 A 
ATOM     67  C   UNL A   1      44.653  34.292  28.367  1.00  0.00     0.134 A 
ATOM     68  F   UNL A   1      45.620  32.673  31.470  1.00  0.00    -0.206 F 
ATOM     69  C   UNL A   1      45.845  34.910  30.791  1.00  0.00     0.040 A 
ATOM     70  C   UNL A   1      45.080  35.598  28.618  1.00  0.00     0.040 A 
ATOM     71  F   UNL A   1      44.080  34.043  27.179  1.00  0.00    -0.206 F 
ATOM     72  C   UNL A   1      45.671  35.913  29.838  1.00  0.00     0.006 A 
ENDBRANCH  51  65
BRANCH  52  73
ATOM     73  C   UNL A   1      41.387  24.011  27.678  1.00  0.00     0.057 A 
ATOM     74  C   UNL A   1      40.412  23.764  26.705  1.00  0.00     0.134 A 
ATOM     75  C   UNL A   1      41.830  22.906  28.423  1.00  0.00     0.134 A 
ATOM     76  F   UNL A   1      39.908  24.774  25.981  1.00  0.00    -0.206 F 
ATOM     77  C   UNL A   1      39.896  22.482  26.488  1.00  0.00     0.040 A 
ATOM     78  C   UNL A   1      41.357  21.614  28.187  1.00  0.00     0.040 A 
ATOM     79  F   UNL A   1      42.748  23.061  29.389  1.00  0.00    -0.206 F 
ATOM     80  C   UNL A   1      40.377  21.401  27.223  1.00  0.00     0.006 A 
ENDBRANCH  52  73
BRANCH  64  81
ATOM     81  C   UNL A   1      47.256  27.335  25.957  1.00  0.00     0.057 A 
ATOM     82  C   UNL A   1      47.362  27.479  24.568  1.00  0.00     0.134 A 
ATOM     83  C   UNL A   1      48.342  26.769  26.634  1.00  0.00     0.134 A 
ATOM     84  F   UNL A   1      46.348  27.999  23.857  1.00  0.00    -0.206 F 
ATOM     85  C   UNL A   1      48.493  27.048  23.875  1.00  0.00     0.040 A 
ATOM     86  C   UNL A   1      49.491  26.361  25.957  1.00  0.00     0.040 A 
ATOM     87  F   UNL A   1      48.307  26.608  27.966  1.00  0.00    -0.206 F 
ATOM     88  C   UNL A   1      49.566  26.492  24.572  1.00  0.00     0.006 A 
ENDBRANCH  64  81
ENDBRANCH  38  39
ENDBRANCH  31  33
ENDBRANCH  30  31
ENDBRANCH  29  30
ENDBRANCH  28  29
ENDBRANCH  27  28
ENDBRANCH   1  27
TORSDOF 17
ENDMDL
MODEL 2
REMARK VINA RESULT:     -12.1      1.593      6.369
REMARK SMILES O=C(CC[NH+]1CCN(C(=O)c2n[nH]c3ccccc23)CC1)OCCOCCOC(=O)c1ccc(-c2c3nc(c(-c4c(F)cccc4F)c4ccc([nH]4)c(-c4c(F)cccc4F)c4nc(c(-c5c(F)cccc5F)c5ccc2[nH]5)C=C4)C=C3)cc1
REMARK SMILES IDX 24 1 23 2 22 3 2 4 1 5 3 6 4 7 5 8 6 9 21 10 7 12 20 13 8 14
REMARK SMILES IDX 9 15 10 16 11 17 12 18 19 19 13 20 14 21 18 22 15 24 17 25
REMARK SMILES IDX 16 26 25 27 26 28 27 29 28 30 29 31 30 32 31 33 32 34 84 35
REMARK SMILES IDX 33 36 83 37 34 38 35 39 36 40 77 41 37 42 82 43 76 44 78 45
REMARK SMILES IDX 38 46 81 47 75 48 74 49 39 51 65 52 48 53 64 54 49 55 52 56
REMARK SMILES IDX 63 57 79 58 50 59 51 60 62 62 80 63 53 64 40 65 41 66 46 67
REMARK SMILES IDX 42 68 43 69 45 70 47 71 44 72 66 73 67 74 72 75 68 76 69 77
REMARK SMILES IDX 71 78 73 79 70 80 54 81 55 82 60 83 56 84 57 85 59 86 61 87
REMARK SMILES IDX 58 88
REMARK H PARENT 5 11 13 23 78 50 52 61
REMARK Flexibility Score: inf
ROOT
ATOM      1  C   UNL A   1      34.809  30.566  27.796  1.00  0.00     0.202 C 
ENDROOT
BRANCH   1   2
ATOM      2  C   UNL A   1      33.782  29.296  27.098  1.00  0.00     0.261 C 
BRANCH   2   3
ATOM      3  O   UNL A   1      33.043  29.351  25.289  1.00  0.00    -0.463 OA
BRANCH   3   4
ATOM      4  C   UNL A   1      32.870  29.040  23.892  1.00  0.00     0.311 C 
ATOM      5  O   UNL A   1      33.798  29.192  23.098  1.00  0.00    -0.252 OA
BRANCH   4   6
ATOM      6  C   UNL A   1      31.492  28.634  23.389  1.00  0.00     0.184 C 
BRANCH   6   7
ATOM      7  C   UNL A   1      31.545  27.254  22.821  1.00  0.00     0.274 C 
BRANCH   7   8
ATOM      8  N   UNL A   1      32.298  26.445  23.760  1.00  0.00    -0.332 N 
ATOM      9  C   UNL A   1      31.039  25.313  24.544  1.00  0.00     0.284 C 
ATOM     10  C   UNL A   1      33.668  25.573  22.786  1.00  0.00     0.284 C 
ATOM     11  H   UNL A   1      32.769  26.957  24.505  1.00  0.00     0.348 HD
ATOM     12  C   UNL A   1      31.051  23.403  24.339  1.00  0.00     0.181 C 
ATOM     13  C   UNL A   1      33.653  23.557  22.682  1.00  0.00     0.181 C 
ATOM     14  N   UNL A   1      32.579  22.659  23.868  1.00  0.00    -0.326 N 
ATOM     15  C   UNL A   1      32.978  21.624  24.806  1.00  0.00     0.275 C 
ATOM     16  O   UNL A   1      32.136  21.203  25.606  1.00  0.00    -0.267 OA
BRANCH  15  17
ATOM     17  C   UNL A   1      34.388  21.149  24.975  1.00  0.00     0.157 A 
ATOM     18  N   UNL A   1      34.798  19.896  24.729  1.00  0.00    -0.169 NA
ATOM     19  C   UNL A   1      35.524  21.940  25.394  1.00  0.00     0.033 A 
ATOM     20  N   UNL A   1      36.090  19.858  25.063  1.00  0.00    -0.277 N 
ATOM     21  C   UNL A   1      36.616  21.076  25.370  1.00  0.00     0.066 A 
ATOM     22  C   UNL A   1      35.765  23.302  25.661  1.00  0.00     0.013 A 
ATOM     23  H   UNL A   1      36.615  19.026  25.086  1.00  0.00     0.190 HD
ATOM     24  C   UNL A   1      37.936  21.473  25.599  1.00  0.00     0.028 A 
ATOM     25  C   UNL A   1      37.088  23.737  25.834  1.00  0.00     0.001 A 
ATOM     26  C   UNL A   1      38.154  22.835  25.804  1.00  0.00     0.002 A 
ENDBRANCH  15  17
ENDBRANCH   7   8
ENDBRANCH   6   7
ENDBRANCH   4   6
ENDBRANCH   3   4
ENDBRANCH   2   3
ENDBRANCH   1   2
BRANCH   1  27
ATOM     27  O   UNL A   1      34.513  31.873  28.386  1.00  0.00    -0.374 OA
BRANCH  27  28
ATOM     28  C   UNL A   1      35.106  32.647  29.477  1.00  0.00     0.202 C 
BRANCH  28  29
ATOM     29  C   UNL A   1      35.096  32.364  31.071  1.00  0.00     0.261 C 
BRANCH  29  30
ATOM     30  O   UNL A   1      35.456  31.027  31.583  1.00  0.00    -0.460 OA
BRANCH  30  31
ATOM     31  C   UNL A   1      36.710  30.832  32.115  1.00  0.00     0.338 C 
ATOM     32  O   UNL A   1      37.037  31.237  33.232  1.00  0.00    -0.246 OA
BRANCH  31  33
ATOM     33  C   UNL A   1      37.631  29.921  31.309  1.00  0.00     0.060 A 
ATOM     34  C   UNL A   1      38.604  29.155  31.929  1.00  0.00     0.016 A 
ATOM     35  C   UNL A   1      37.710  29.996  29.908  1.00  0.00     0.016 A 
ATOM     36  C   UNL A   1      39.795  28.814  31.258  1.00  0.00     0.010 A 
ATOM     37  C   UNL A   1      38.826  29.468  29.199  1.00  0.00     0.010 A 
ATOM     38  C   UNL A   1      39.946  28.956  29.878  1.00  0.00    -0.014 A 
BRANCH  38  39
ATOM     39  C   UNL A   1      41.259  28.636  29.194  1.00  0.00     0.031 A 
ATOM     40  C   UNL A   1      41.511  27.253  28.616  1.00  0.00     0.074 A 
ATOM     41  C   UNL A   1      42.209  29.576  28.969  1.00  0.00     0.049 A 
ATOM     42  N   UNL A   1      42.636  26.681  28.255  1.00  0.00    -0.248 NA
ATOM     43  C   UNL A   1      40.327  26.411  28.389  1.00  0.00     0.031 C 
ATOM     44  C   UNL A   1      42.082  31.005  29.260  1.00  0.00     0.029 A 
ATOM     45  N   UNL A   1      43.475  29.478  28.424  1.00  0.00    -0.354 N 
ATOM     46  C   UNL A   1      42.302  25.398  27.824  1.00  0.00     0.074 A 
ATOM     47  C   UNL A   1      40.863  25.285  27.934  1.00  0.00     0.031 C 
ATOM     48  C   UNL A   1      43.182  31.649  28.850  1.00  0.00     0.029 A 
ATOM     49  C   UNL A   1      44.170  30.669  28.431  1.00  0.00     0.049 A 
ATOM     50  H   UNL A   1      43.845  28.639  28.066  1.00  0.00     0.167 HD
ATOM     51  C   UNL A   1      43.125  24.401  27.404  1.00  0.00     0.037 A 
ATOM     52  C   UNL A   1      45.475  30.943  28.227  1.00  0.00     0.037 A 
ATOM     53  C   UNL A   1      44.554  24.549  27.263  1.00  0.00     0.049 A 
ATOM     54  C   UNL A   1      46.408  29.801  27.933  1.00  0.00     0.074 A 
ATOM     55  C   UNL A   1      45.507  23.591  26.956  1.00  0.00     0.029 A 
ATOM     56  N   UNL A   1      45.234  25.750  27.404  1.00  0.00    -0.354 N 
ATOM     57  N   UNL A   1      46.125  28.537  27.726  1.00  0.00    -0.248 NA
ATOM     58  C   UNL A   1      47.843  30.112  27.884  1.00  0.00     0.031 C 
ATOM     59  C   UNL A   1      46.766  24.204  26.970  1.00  0.00     0.029 A 
ATOM     60  C   UNL A   1      46.593  25.555  27.220  1.00  0.00     0.049 A 
ATOM     61  H   UNL A   1      44.811  26.617  27.606  1.00  0.00     0.167 HD
ATOM     62  C   UNL A   1      47.341  27.905  27.513  1.00  0.00     0.074 A 
ATOM     63  C   UNL A   1      48.363  28.929  27.587  1.00  0.00     0.031 C 
ATOM     64  C   UNL A   1      47.593  26.591  27.291  1.00  0.00     0.037 A 
BRANCH  51  65
ATOM     65  C   UNL A   1      42.524  23.038  27.176  1.00  0.00     0.057 A 
ATOM     66  C   UNL A   1      42.106  22.199  28.217  1.00  0.00     0.134 A 
ATOM     67  C   UNL A   1      42.349  22.563  25.866  1.00  0.00     0.134 A 
ATOM     68  F   UNL A   1      42.247  22.579  29.495  1.00  0.00    -0.206 F 
ATOM     69  C   UNL A   1      41.568  20.931  27.966  1.00  0.00     0.040 A 
ATOM     70  C   UNL A   1      41.790  21.310  25.602  1.00  0.00     0.040 A 
ATOM     71  F   UNL A   1      42.713  23.314  24.816  1.00  0.00    -0.206 F 
ATOM     72  C   UNL A   1      41.406  20.485  26.655  1.00  0.00     0.006 A 
ENDBRANCH  51  65
BRANCH  52  73
ATOM     73  C   UNL A   1      46.005  32.325  28.444  1.00  0.00     0.057 A 
ATOM     74  C   UNL A   1      46.480  32.752  29.690  1.00  0.00     0.134 A 
ATOM     75  C   UNL A   1      46.013  33.273  27.408  1.00  0.00     0.134 A 
ATOM     76  F   UNL A   1      46.466  31.918  30.740  1.00  0.00    -0.206 F 
ATOM     77  C   UNL A   1      46.930  34.060  29.899  1.00  0.00     0.040 A 
ATOM     78  C   UNL A   1      46.501  34.568  27.589  1.00  0.00     0.040 A 
ATOM     79  F   UNL A   1      45.556  32.950  26.188  1.00  0.00    -0.206 F 
ATOM     80  C   UNL A   1      46.951  34.969  28.843  1.00  0.00     0.006 A 
ENDBRANCH  52  73
BRANCH  64  81
ATOM     81  C   UNL A   1      49.025  26.207  27.066  1.00  0.00     0.057 A 
ATOM     82  C   UNL A   1      49.620  26.273  25.801  1.00  0.00     0.134 A 
ATOM     83  C   UNL A   1      49.819  25.775  28.135  1.00  0.00     0.134 A 
ATOM     84  F   UNL A   1      48.908  26.661  24.731  1.00  0.00    -0.206 F 
ATOM     85  C   UNL A   1      50.948  25.894  25.600  1.00  0.00     0.040 A 
ATOM     86  C   UNL A   1      51.157  25.424  27.953  1.00  0.00     0.040 A 
ATOM     87  F   UNL A   1      49.311  25.696  29.374  1.00  0.00    -0.206 F 
ATOM     88  C   UNL A   1      51.723  25.474  26.681  1.00  0.00     0.006 A 
ENDBRANCH  64  81
ENDBRANCH  38  39
ENDBRANCH  31  33
ENDBRANCH  30  31
ENDBRANCH  29  30
ENDBRANCH  28  29
ENDBRANCH  27  28
ENDBRANCH   1  27
TORSDOF 17
ENDMDL
MODEL 3
REMARK VINA RESULT:     -12.0      3.402      9.005
REMARK SMILES O=C(CC[NH+]1CCN(C(=O)c2n[nH]c3ccccc23)CC1)OCCOCCOC(=O)c1ccc(-c2c3nc(c(-c4c(F)cccc4F)c4ccc([nH]4)c(-c4c(F)cccc4F)c4nc(c(-c5c(F)cccc5F)c5ccc2[nH]5)C=C4)C=C3)cc1
REMARK SMILES IDX 24 1 23 2 22 3 2 4 1 5 3 6 4 7 5 8 6 9 21 10 7 12 20 13 8 14
REMARK SMILES IDX 9 15 10 16 11 17 12 18 19 19 13 20 14 21 18 22 15 24 17 25
REMARK SMILES IDX 16 26 25 27 26 28 27 29 28 30 29 31 30 32 31 33 32 34 84 35
REMARK SMILES IDX 33 36 83 37 34 38 35 39 36 40 77 41 37 42 82 43 76 44 78 45
REMARK SMILES IDX 38 46 81 47 75 48 74 49 39 51 65 52 48 53 64 54 49 55 52 56
REMARK SMILES IDX 63 57 79 58 50 59 51 60 62 62 80 63 53 64 40 65 41 66 46 67
REMARK SMILES IDX 42 68 43 69 45 70 47 71 44 72 66 73 67 74 72 75 68 76 69 77
REMARK SMILES IDX 71 78 73 79 70 80 54 81 55 82 60 83 56 84 57 85 59 86 61 87
REMARK SMILES IDX 58 88
REMARK H PARENT 5 11 13 23 78 50 52 61
REMARK Flexibility Score: inf
ROOT
ATOM      1  C   UNL A   1      40.918  22.429  27.640  1.00  0.00     0.202 C 
ENDROOT
BRANCH   1   2
ATOM      2  C   UNL A   1      39.635  23.134  26.635  1.00  0.00     0.261 C 
BRANCH   2   3
ATOM      3  O   UNL A   1      38.065  22.154  26.007  1.00  0.00    -0.463 OA
BRANCH   3   4
ATOM      4  C   UNL A   1      36.932  21.802  25.189  1.00  0.00     0.311 C 
ATOM      5  O   UNL A   1      36.984  21.917  23.965  1.00  0.00    -0.252 OA
BRANCH   4   6
ATOM      6  C   UNL A   1      35.628  21.399  25.864  1.00  0.00     0.184 C 
BRANCH   6   7
ATOM      7  C   UNL A   1      34.470  21.987  25.127  1.00  0.00     0.274 C 
BRANCH   7   8
ATOM      8  N   UNL A   1      34.676  23.422  25.105  1.00  0.00    -0.332 N 
ATOM      9  C   UNL A   1      34.499  23.911  23.313  1.00  0.00     0.284 C 
ATOM     10  C   UNL A   1      33.405  24.194  26.278  1.00  0.00     0.284 C 
ATOM     11  H   UNL A   1      35.586  23.743  25.432  1.00  0.00     0.348 HD
ATOM     12  C   UNL A   1      33.100  25.048  22.653  1.00  0.00     0.181 C 
ATOM     13  C   UNL A   1      32.013  25.442  25.517  1.00  0.00     0.181 C 
ATOM     14  N   UNL A   1      32.299  26.094  23.825  1.00  0.00    -0.326 N 
ATOM     15  C   UNL A   1      32.347  27.487  23.416  1.00  0.00     0.275 C 
ATOM     16  O   UNL A   1      32.656  27.744  22.249  1.00  0.00    -0.267 OA
BRANCH  15  17
ATOM     17  C   UNL A   1      32.202  28.640  24.361  1.00  0.00     0.157 A 
ATOM     18  N   UNL A   1      31.144  29.463  24.393  1.00  0.00    -0.169 NA
ATOM     19  C   UNL A   1      33.138  29.039  25.389  1.00  0.00     0.033 A 
ATOM     20  N   UNL A   1      31.425  30.389  25.313  1.00  0.00    -0.277 N 
ATOM     21  C   UNL A   1      32.558  30.135  26.024  1.00  0.00     0.066 A 
ATOM     22  C   UNL A   1      34.332  28.519  25.928  1.00  0.00     0.013 A 
ATOM     23  H   UNL A   1      30.864  31.184  25.464  1.00  0.00     0.190 HD
ATOM     24  C   UNL A   1      33.088  30.756  27.157  1.00  0.00     0.028 A 
ATOM     25  C   UNL A   1      34.851  29.087  27.101  1.00  0.00     0.001 A 
ATOM     26  C   UNL A   1      34.239  30.187  27.703  1.00  0.00     0.002 A 
ENDBRANCH  15  17
ENDBRANCH   7   8
ENDBRANCH   6   7
ENDBRANCH   4   6
ENDBRANCH   3   4
ENDBRANCH   2   3
ENDBRANCH   1   2
BRANCH   1  27
ATOM     27  O   UNL A   1      41.947  21.421  27.377  1.00  0.00    -0.374 OA
BRANCH  27  28
ATOM     28  C   UNL A   1      41.971  19.960  27.439  1.00  0.00     0.202 C 
BRANCH  28  29
ATOM     29  C   UNL A   1      42.262  18.880  26.269  1.00  0.00     0.261 C 
BRANCH  29  30
ATOM     30  O   UNL A   1      42.768  19.333  24.958  1.00  0.00    -0.460 OA
BRANCH  30  31
ATOM     31  C   UNL A   1      44.122  19.294  24.716  1.00  0.00     0.338 C 
ATOM     32  O   UNL A   1      44.715  18.271  24.368  1.00  0.00    -0.246 OA
BRANCH  31  33
ATOM     33  C   UNL A   1      44.831  20.646  24.732  1.00  0.00     0.060 A 
ATOM     34  C   UNL A   1      45.562  21.059  25.833  1.00  0.00     0.016 A 
ATOM     35  C   UNL A   1      44.582  21.626  23.758  1.00  0.00     0.016 A 
ATOM     36  C   UNL A   1      45.698  22.426  26.142  1.00  0.00     0.010 A 
ATOM     37  C   UNL A   1      44.905  22.995  23.984  1.00  0.00     0.010 A 
ATOM     38  C   UNL A   1      45.377  23.436  25.233  1.00  0.00    -0.014 A 
BRANCH  38  39
ATOM     39  C   UNL A   1      45.478  24.898  25.615  1.00  0.00     0.031 A 
ATOM     40  C   UNL A   1      46.785  25.654  25.441  1.00  0.00     0.074 A 
ATOM     41  C   UNL A   1      44.403  25.620  26.017  1.00  0.00     0.049 A 
ATOM     42  N   UNL A   1      47.175  26.796  25.955  1.00  0.00    -0.248 NA
ATOM     43  C   UNL A   1      47.778  25.048  24.540  1.00  0.00     0.031 C 
ATOM     44  C   UNL A   1      43.020  25.141  26.056  1.00  0.00     0.029 A 
ATOM     45  N   UNL A   1      44.297  26.925  26.457  1.00  0.00    -0.354 N 
ATOM     46  C   UNL A   1      48.474  27.010  25.495  1.00  0.00     0.074 A 
ATOM     47  C   UNL A   1      48.795  25.895  24.629  1.00  0.00     0.031 C 
ATOM     48  C   UNL A   1      42.209  26.136  26.440  1.00  0.00     0.029 A 
ATOM     49  C   UNL A   1      43.020  27.271  26.846  1.00  0.00     0.049 A 
ATOM     50  H   UNL A   1      45.058  27.547  26.490  1.00  0.00     0.167 HD
ATOM     51  C   UNL A   1      49.324  28.027  25.792  1.00  0.00     0.037 A 
ATOM     52  C   UNL A   1      42.553  28.329  27.543  1.00  0.00     0.037 A 
ATOM     53  C   UNL A   1      48.968  29.151  26.626  1.00  0.00     0.049 A 
ATOM     54  C   UNL A   1      43.537  29.363  28.016  1.00  0.00     0.074 A 
ATOM     55  C   UNL A   1      49.766  30.183  27.091  1.00  0.00     0.029 A 
ATOM     56  N   UNL A   1      47.689  29.395  27.105  1.00  0.00    -0.354 N 
ATOM     57  N   UNL A   1      44.819  29.462  27.756  1.00  0.00    -0.248 NA
ATOM     58  C   UNL A   1      43.023  30.407  28.912  1.00  0.00     0.031 C 
ATOM     59  C   UNL A   1      48.981  31.017  27.898  1.00  0.00     0.029 A 
ATOM     60  C   UNL A   1      47.680  30.542  27.882  1.00  0.00     0.049 A 
ATOM     61  H   UNL A   1      46.900  28.834  26.919  1.00  0.00     0.167 HD
ATOM     62  C   UNL A   1      45.262  30.581  28.445  1.00  0.00     0.074 A 
ATOM     63  C   UNL A   1      44.106  31.145  29.112  1.00  0.00     0.031 C 
ATOM     64  C   UNL A   1      46.516  31.090  28.531  1.00  0.00     0.037 A 
BRANCH  51  65
ATOM     65  C   UNL A   1      50.749  27.920  25.312  1.00  0.00     0.057 A 
ATOM     66  C   UNL A   1      51.142  28.219  24.000  1.00  0.00     0.134 A 
ATOM     67  C   UNL A   1      51.757  27.518  26.202  1.00  0.00     0.134 A 
ATOM     68  F   UNL A   1      50.236  28.603  23.089  1.00  0.00    -0.206 F 
ATOM     69  C   UNL A   1      52.473  28.091  23.587  1.00  0.00     0.040 A 
ATOM     70  C   UNL A   1      53.093  27.411  25.808  1.00  0.00     0.040 A 
ATOM     71  F   UNL A   1      51.461  27.228  27.479  1.00  0.00    -0.206 F 
ATOM     72  C   UNL A   1      53.454  27.688  24.493  1.00  0.00     0.006 A 
ENDBRANCH  51  65
BRANCH  52  73
ATOM     73  C   UNL A   1      41.120  28.388  27.967  1.00  0.00     0.057 A 
ATOM     74  C   UNL A   1      40.123  28.922  27.142  1.00  0.00     0.134 A 
ATOM     75  C   UNL A   1      40.717  27.945  29.237  1.00  0.00     0.134 A 
ATOM     76  F   UNL A   1      40.435  29.405  25.930  1.00  0.00    -0.206 F 
ATOM     77  C   UNL A   1      38.792  29.019  27.562  1.00  0.00     0.040 A 
ATOM     78  C   UNL A   1      39.386  27.994  29.653  1.00  0.00     0.040 A 
ATOM     79  F   UNL A   1      41.615  27.439  30.097  1.00  0.00    -0.206 F 
ATOM     80  C   UNL A   1      38.419  28.544  28.818  1.00  0.00     0.006 A 
ENDBRANCH  52  73
BRANCH  64  81
ATOM     81  C   UNL A   1      46.682  32.343  29.339  1.00  0.00     0.057 A 
ATOM     82  C   UNL A   1      47.004  32.309  30.701  1.00  0.00     0.134 A 
ATOM     83  C   UNL A   1      46.529  33.599  28.740  1.00  0.00     0.134 A 
ATOM     84  F   UNL A   1      47.146  31.136  31.339  1.00  0.00    -0.206 F 
ATOM     85  C   UNL A   1      47.137  33.480  31.447  1.00  0.00     0.040 A 
ATOM     86  C   UNL A   1      46.690  34.778  29.468  1.00  0.00     0.040 A 
ATOM     87  F   UNL A   1      46.227  33.701  27.437  1.00  0.00    -0.206 F 
ATOM     88  C   UNL A   1      46.986  34.720  30.828  1.00  0.00     0.006 A 
ENDBRANCH  64  81
ENDBRANCH  38  39
ENDBRANCH  31  33
ENDBRANCH  30  31
ENDBRANCH  29  30
ENDBRANCH  28  29
ENDBRANCH  27  28
ENDBRANCH   1  27
TORSDOF 17
ENDMDL
