MODEL 1
REMARK VINA RESULT:     -12.2      0.000      0.000
REMARK SMILES O=C(Cc1c(C(=O)c2cc3c(cn2)CCCC3)[nH]c2cc(Cl)ccc12)OCCOCCOC(=O)c1ccc(-c2c3nc(c(-c4c(F)cccc4F)c4ccc([nH]4)c(-c4c(F)cccc4F)c4nc(c(-c5c(F)cccc5F)c5ccc2[nH]5)C=C4)C=C3)cc1
REMARK SMILES IDX 28 1 27 2 26 3 2 4 1 5 3 6 4 7 5 8 25 9 18 10 19 11 24 12
REMARK SMILES IDX 20 14 23 15 21 16 22 17 6 18 7 19 8 20 9 21 13 22 10 23
REMARK SMILES IDX 12 24 11 25 17 26 14 27 16 28 15 29 29 30 30 31 31 32 32 33
REMARK SMILES IDX 33 34 34 35 35 36 36 37 88 38 37 39 87 40 38 41 39 42 40 43
REMARK SMILES IDX 81 44 41 45 86 46 80 47 82 48 42 49 85 50 79 51 78 52 43 54
REMARK SMILES IDX 69 55 52 56 68 57 53 58 56 59 67 60 83 61 54 62 55 63 66 65
REMARK SMILES IDX 84 66 57 67 44 68 45 69 50 70 46 71 47 72 49 73 51 74 48 75
REMARK SMILES IDX 70 76 71 77 76 78 72 79 73 80 75 81 77 82 74 83 58 84 59 85
REMARK SMILES IDX 64 86 60 87 61 88 63 89 65 90 62 91
REMARK H PARENT 18 13 82 53 56 64
REMARK Flexibility Score: inf
ROOT
ATOM      1  C   UNL A   1      38.828  21.305  25.966  1.00  0.00     0.202 C 
ENDROOT
BRANCH   1   2
ATOM      2  C   UNL A   1      37.757  22.357  25.612  1.00  0.00     0.261 C 
BRANCH   2   3
ATOM      3  O   UNL A   1      37.034  22.197  24.393  1.00  0.00    -0.463 OA
BRANCH   3   4
ATOM      4  C   UNL A   1      36.218  23.198  23.993  1.00  0.00     0.310 C 
ATOM      5  O   UNL A   1      35.956  23.361  22.805  1.00  0.00    -0.252 OA
BRANCH   4   6
ATOM      6  C   UNL A   1      35.896  24.207  25.054  1.00  0.00     0.161 C 
BRANCH   6   7
ATOM      7  C   UNL A   1      34.454  24.588  25.209  1.00  0.00     0.000 A 
ATOM      8  C   UNL A   1      33.588  23.785  25.943  1.00  0.00     0.093 A 
ATOM      9  C   UNL A   1      33.637  25.623  24.623  1.00  0.00     0.004 A 
ATOM     10  N   UNL A   1      32.457  24.534  26.167  1.00  0.00    -0.351 N 
ATOM     11  C   UNL A   1      32.426  25.612  25.318  1.00  0.00     0.048 A 
ATOM     12  C   UNL A   1      33.749  26.572  23.579  1.00  0.00     0.012 A 
ATOM     13  H   UNL A   1      31.769  24.327  26.840  1.00  0.00     0.167 HD
ATOM     14  C   UNL A   1      31.405  26.554  25.110  1.00  0.00     0.047 A 
ATOM     15  C   UNL A   1      32.727  27.496  23.320  1.00  0.00     0.021 A 
ATOM     16  C   UNL A   1      31.584  27.502  24.104  1.00  0.00     0.043 A 
ATOM     17  Cl  UNL A   1      30.360  28.676  23.807  1.00  0.00    -0.084 Cl
BRANCH   8  18
ATOM     18  C   UNL A   1      33.836  22.420  26.399  1.00  0.00     0.227 C 
ATOM     19  O   UNL A   1      34.432  22.130  27.435  1.00  0.00    -0.285 OA
BRANCH  18  20
ATOM     20  C   UNL A   1      33.461  21.315  25.512  1.00  0.00     0.113 A 
ATOM     21  C   UNL A   1      34.251  20.177  25.516  1.00  0.00     0.036 A 
ATOM     22  N   UNL A   1      32.380  21.517  24.727  1.00  0.00    -0.252 NA
ATOM     23  C   UNL A   1      33.921  19.161  24.628  1.00  0.00    -0.041 A 
ATOM     24  C   UNL A   1      32.062  20.506  23.901  1.00  0.00     0.115 A 
ATOM     25  C   UNL A   1      32.805  19.332  23.793  1.00  0.00    -0.026 A 
ATOM     26  C   UNL A   1      34.809  17.949  24.542  1.00  0.00     0.036 C 
ATOM     27  C   UNL A   1      32.365  18.262  22.837  1.00  0.00     0.037 C 
ATOM     28  C   UNL A   1      34.158  16.792  23.794  1.00  0.00     0.005 C 
ATOM     29  C   UNL A   1      33.493  17.285  22.512  1.00  0.00     0.005 C 
ENDBRANCH  18  20
ENDBRANCH   8  18
ENDBRANCH   6   7
ENDBRANCH   4   6
ENDBRANCH   3   4
ENDBRANCH   2   3
ENDBRANCH   1   2
BRANCH   1  30
ATOM     30  O   UNL A   1      40.212  21.523  25.716  1.00  0.00    -0.374 OA
BRANCH  30  31
ATOM     31  C   UNL A   1      41.206  20.803  26.425  1.00  0.00     0.202 C 
BRANCH  31  32
ATOM     32  C   UNL A   1      42.643  21.112  26.020  1.00  0.00     0.261 C 
BRANCH  32  33
ATOM     33  O   UNL A   1      43.142  22.301  26.645  1.00  0.00    -0.460 OA
BRANCH  33  34
ATOM     34  C   UNL A   1      43.143  23.412  25.870  1.00  0.00     0.338 C 
ATOM     35  O   UNL A   1      43.418  23.491  24.683  1.00  0.00    -0.246 OA
BRANCH  34  36
ATOM     36  C   UNL A   1      42.579  24.534  26.647  1.00  0.00     0.060 A 
ATOM     37  C   UNL A   1      41.516  24.328  27.528  1.00  0.00     0.016 A 
ATOM     38  C   UNL A   1      43.133  25.814  26.487  1.00  0.00     0.016 A 
ATOM     39  C   UNL A   1      41.047  25.393  28.291  1.00  0.00     0.010 A 
ATOM     40  C   UNL A   1      42.664  26.880  27.255  1.00  0.00     0.010 A 
ATOM     41  C   UNL A   1      41.646  26.663  28.192  1.00  0.00    -0.014 A 
BRANCH  41  42
ATOM     42  C   UNL A   1      41.359  27.666  29.243  1.00  0.00     0.031 A 
ATOM     43  C   UNL A   1      40.212  28.618  29.155  1.00  0.00     0.074 A 
ATOM     44  C   UNL A   1      42.171  27.672  30.317  1.00  0.00     0.049 A 
ATOM     45  N   UNL A   1      39.726  29.400  30.086  1.00  0.00    -0.248 NA
ATOM     46  C   UNL A   1      39.531  28.721  27.859  1.00  0.00     0.031 C 
ATOM     47  C   UNL A   1      43.358  26.826  30.474  1.00  0.00     0.029 A 
ATOM     48  N   UNL A   1      42.106  28.377  31.489  1.00  0.00    -0.354 N 
ATOM     49  C   UNL A   1      38.666  30.075  29.501  1.00  0.00     0.074 A 
ATOM     50  C   UNL A   1      38.616  29.649  28.115  1.00  0.00     0.031 C 
ATOM     51  C   UNL A   1      43.869  27.010  31.700  1.00  0.00     0.029 A 
ATOM     52  C   UNL A   1      43.063  28.003  32.400  1.00  0.00     0.049 A 
ATOM     53  H   UNL A   1      41.440  29.081  31.660  1.00  0.00     0.167 HD
ATOM     54  C   UNL A   1      37.809  30.955  30.075  1.00  0.00     0.037 A 
ATOM     55  C   UNL A   1      43.252  28.397  33.671  1.00  0.00     0.037 A 
ATOM     56  C   UNL A   1      37.898  31.395  31.447  1.00  0.00     0.049 A 
ATOM     57  C   UNL A   1      42.300  29.389  34.271  1.00  0.00     0.074 A 
ATOM     58  C   UNL A   1      37.053  32.247  32.141  1.00  0.00     0.029 A 
ATOM     59  N   UNL A   1      38.909  31.039  32.331  1.00  0.00    -0.354 N 
ATOM     60  N   UNL A   1      41.230  29.936  33.746  1.00  0.00    -0.248 NA
ATOM     61  C   UNL A   1      42.579  29.809  35.650  1.00  0.00     0.031 C 
ATOM     62  C   UNL A   1      37.587  32.455  33.418  1.00  0.00     0.029 A 
ATOM     63  C   UNL A   1      38.728  31.679  33.548  1.00  0.00     0.049 A 
ATOM     64  H   UNL A   1      39.646  30.421  32.123  1.00  0.00     0.167 HD
ATOM     65  C   UNL A   1      40.687  30.737  34.742  1.00  0.00     0.074 A 
ATOM     66  C   UNL A   1      41.536  30.583  35.907  1.00  0.00     0.031 C 
ATOM     67  C   UNL A   1      39.585  31.527  34.699  1.00  0.00     0.037 A 
BRANCH  54  68
ATOM     68  C   UNL A   1      36.710  31.512  29.213  1.00  0.00     0.057 A 
ATOM     69  C   UNL A   1      35.613  30.721  28.847  1.00  0.00     0.134 A 
ATOM     70  C   UNL A   1      36.749  32.824  28.718  1.00  0.00     0.134 A 
ATOM     71  F   UNL A   1      35.514  29.453  29.273  1.00  0.00    -0.206 F 
ATOM     72  C   UNL A   1      34.595  31.214  28.028  1.00  0.00     0.040 A 
ATOM     73  C   UNL A   1      35.722  33.338  27.924  1.00  0.00     0.040 A 
ATOM     74  F   UNL A   1      37.768  33.638  29.031  1.00  0.00    -0.206 F 
ATOM     75  C   UNL A   1      34.643  32.530  27.573  1.00  0.00     0.006 A 
ENDBRANCH  54  68
BRANCH  55  76
ATOM     76  C   UNL A   1      44.353  27.816  34.478  1.00  0.00     0.057 A 
ATOM     77  C   UNL A   1      44.183  26.632  35.204  1.00  0.00     0.134 A 
ATOM     78  C   UNL A   1      45.615  28.423  34.519  1.00  0.00     0.134 A 
ATOM     79  F   UNL A   1      42.995  26.011  35.218  1.00  0.00    -0.206 F 
ATOM     80  C   UNL A   1      45.228  26.069  35.937  1.00  0.00     0.040 A 
ATOM     81  C   UNL A   1      46.678  27.854  35.222  1.00  0.00     0.040 A 
ATOM     82  F   UNL A   1      45.842  29.555  33.836  1.00  0.00    -0.206 F 
ATOM     83  C   UNL A   1      46.483  26.674  35.936  1.00  0.00     0.006 A 
ENDBRANCH  55  76
BRANCH  67  84
ATOM     84  C   UNL A   1      39.223  32.247  35.968  1.00  0.00     0.057 A 
ATOM     85  C   UNL A   1      39.735  33.525  36.230  1.00  0.00     0.134 A 
ATOM     86  C   UNL A   1      38.350  31.698  36.917  1.00  0.00     0.134 A 
ATOM     87  F   UNL A   1      40.584  34.109  35.371  1.00  0.00    -0.206 F 
ATOM     88  C   UNL A   1      39.379  34.235  37.377  1.00  0.00     0.040 A 
ATOM     89  C   UNL A   1      37.957  32.413  38.051  1.00  0.00     0.040 A 
ATOM     90  F   UNL A   1      37.811  30.484  36.724  1.00  0.00    -0.206 F 
ATOM     91  C   UNL A   1      38.474  33.685  38.284  1.00  0.00     0.006 A 
ENDBRANCH  67  84
ENDBRANCH  41  42
ENDBRANCH  34  36
ENDBRANCH  33  34
ENDBRANCH  32  33
ENDBRANCH  31  32
ENDBRANCH  30  31
ENDBRANCH   1  30
TORSDOF 17
ENDMDL
MODEL 2
REMARK VINA RESULT:     -12.0      4.702      9.883
REMARK SMILES O=C(Cc1c(C(=O)c2cc3c(cn2)CCCC3)[nH]c2cc(Cl)ccc12)OCCOCCOC(=O)c1ccc(-c2c3nc(c(-c4c(F)cccc4F)c4ccc([nH]4)c(-c4c(F)cccc4F)c4nc(c(-c5c(F)cccc5F)c5ccc2[nH]5)C=C4)C=C3)cc1
REMARK SMILES IDX 28 1 27 2 26 3 2 4 1 5 3 6 4 7 5 8 25 9 18 10 19 11 24 12
REMARK SMILES IDX 20 14 23 15 21 16 22 17 6 18 7 19 8 20 9 21 13 22 10 23
REMARK SMILES IDX 12 24 11 25 17 26 14 27 16 28 15 29 29 30 30 31 31 32 32 33
REMARK SMILES IDX 33 34 34 35 35 36 36 37 88 38 37 39 87 40 38 41 39 42 40 43
REMARK SMILES IDX 81 44 41 45 86 46 80 47 82 48 42 49 85 50 79 51 78 52 43 54
REMARK SMILES IDX 69 55 52 56 68 57 53 58 56 59 67 60 83 61 54 62 55 63 66 65
REMARK SMILES IDX 84 66 57 67 44 68 45 69 50 70 46 71 47 72 49 73 51 74 48 75
REMARK SMILES IDX 70 76 71 77 76 78 72 79 73 80 75 81 77 82 74 83 58 84 59 85
REMARK SMILES IDX 64 86 60 87 61 88 63 89 65 90 62 91
REMARK H PARENT 18 13 82 53 56 64
REMARK Flexibility Score: inf
ROOT
ATOM      1  C   UNL A   1      33.483  31.011  27.175  1.00  0.00     0.202 C 
ENDROOT
BRANCH   1   2
ATOM      2  C   UNL A   1      32.287  30.038  27.103  1.00  0.00     0.261 C 
BRANCH   2   3
ATOM      3  O   UNL A   1      32.292  29.041  26.083  1.00  0.00    -0.463 OA
BRANCH   3   4
ATOM      4  C   UNL A   1      32.555  27.762  26.435  1.00  0.00     0.310 C 
ATOM      5  O   UNL A   1      31.884  27.195  27.292  1.00  0.00    -0.252 OA
BRANCH   4   6
ATOM      6  C   UNL A   1      33.846  27.217  25.905  1.00  0.00     0.161 C 
BRANCH   6   7
ATOM      7  C   UNL A   1      33.760  26.003  25.030  1.00  0.00     0.000 A 
ATOM      8  C   UNL A   1      33.547  26.134  23.662  1.00  0.00     0.093 A 
ATOM      9  C   UNL A   1      33.718  24.586  25.306  1.00  0.00     0.004 A 
ATOM     10  N   UNL A   1      33.828  24.910  23.104  1.00  0.00    -0.351 N 
ATOM     11  C   UNL A   1      33.856  23.940  24.076  1.00  0.00     0.048 A 
ATOM     12  C   UNL A   1      33.568  23.750  26.437  1.00  0.00     0.012 A 
ATOM     13  H   UNL A   1      33.988  24.752  22.146  1.00  0.00     0.167 HD
ATOM     14  C   UNL A   1      33.973  22.547  23.941  1.00  0.00     0.047 A 
ATOM     15  C   UNL A   1      33.636  22.354  26.326  1.00  0.00     0.021 A 
ATOM     16  C   UNL A   1      33.870  21.768  25.093  1.00  0.00     0.043 A 
ATOM     17  Cl  UNL A   1      34.003  20.055  24.981  1.00  0.00    -0.084 Cl
BRANCH   8  18
ATOM     18  C   UNL A   1      33.120  27.338  22.956  1.00  0.00     0.227 C 
ATOM     19  O   UNL A   1      33.887  28.152  22.443  1.00  0.00    -0.285 OA
BRANCH  18  20
ATOM     20  C   UNL A   1      31.693  27.673  22.955  1.00  0.00     0.113 A 
ATOM     21  C   UNL A   1      31.310  28.902  22.443  1.00  0.00     0.036 A 
ATOM     22  N   UNL A   1      30.862  26.755  23.497  1.00  0.00    -0.252 NA
ATOM     23  C   UNL A   1      29.963  29.233  22.503  1.00  0.00    -0.041 A 
ATOM     24  C   UNL A   1      29.560  27.085  23.513  1.00  0.00     0.115 A 
ATOM     25  C   UNL A   1      29.065  28.307  23.060  1.00  0.00    -0.026 A 
ATOM     26  C   UNL A   1      29.523  30.594  22.038  1.00  0.00     0.036 C 
ATOM     27  C   UNL A   1      27.590  28.579  23.123  1.00  0.00     0.037 C 
ATOM     28  C   UNL A   1      28.014  30.695  21.846  1.00  0.00     0.005 C 
ATOM     29  C   UNL A   1      27.279  30.070  23.028  1.00  0.00     0.005 C 
ENDBRANCH  18  20
ENDBRANCH   8  18
ENDBRANCH   6   7
ENDBRANCH   4   6
ENDBRANCH   3   4
ENDBRANCH   2   3
ENDBRANCH   1   2
BRANCH   1  30
ATOM     30  O   UNL A   1      33.788  31.745  28.354  1.00  0.00    -0.374 OA
BRANCH  30  31
ATOM     31  C   UNL A   1      34.037  33.139  28.304  1.00  0.00     0.202 C 
BRANCH  31  32
ATOM     32  C   UNL A   1      34.289  33.802  29.654  1.00  0.00     0.261 C 
BRANCH  32  33
ATOM     33  O   UNL A   1      35.618  33.570  30.137  1.00  0.00    -0.460 OA
BRANCH  33  34
ATOM     34  C   UNL A   1      35.745  32.566  31.037  1.00  0.00     0.338 C 
ATOM     35  O   UNL A   1      35.010  32.314  31.979  1.00  0.00    -0.246 OA
BRANCH  34  36
ATOM     36  C   UNL A   1      36.844  31.678  30.606  1.00  0.00     0.060 A 
ATOM     37  C   UNL A   1      37.065  31.423  29.251  1.00  0.00     0.016 A 
ATOM     38  C   UNL A   1      37.666  31.096  31.583  1.00  0.00     0.016 A 
ATOM     39  C   UNL A   1      38.145  30.631  28.874  1.00  0.00     0.010 A 
ATOM     40  C   UNL A   1      38.751  30.305  31.204  1.00  0.00     0.010 A 
ATOM     41  C   UNL A   1      39.019  30.104  29.844  1.00  0.00    -0.014 A 
BRANCH  41  42
ATOM     42  C   UNL A   1      40.326  29.566  29.402  1.00  0.00     0.031 A 
ATOM     43  C   UNL A   1      40.503  28.155  28.947  1.00  0.00     0.074 A 
ATOM     44  C   UNL A   1      41.367  30.421  29.399  1.00  0.00     0.049 A 
ATOM     45  N   UNL A   1      41.532  27.614  28.346  1.00  0.00    -0.248 NA
ATOM     46  C   UNL A   1      39.397  27.227  29.212  1.00  0.00     0.031 C 
ATOM     47  C   UNL A   1      41.317  31.803  29.883  1.00  0.00     0.029 A 
ATOM     48  N   UNL A   1      42.651  30.272  28.945  1.00  0.00    -0.354 N 
ATOM     49  C   UNL A   1      41.195  26.285  28.136  1.00  0.00     0.074 A 
ATOM     50  C   UNL A   1      39.884  26.091  28.726  1.00  0.00     0.031 C 
ATOM     51  C   UNL A   1      42.492  32.398  29.636  1.00  0.00     0.029 A 
ATOM     52  C   UNL A   1      43.383  31.432  29.004  1.00  0.00     0.049 A 
ATOM     53  H   UNL A   1      43.010  29.420  28.611  1.00  0.00     0.167 HD
ATOM     54  C   UNL A   1      41.909  25.326  27.496  1.00  0.00     0.037 A 
ATOM     55  C   UNL A   1      44.627  31.695  28.570  1.00  0.00     0.037 A 
ATOM     56  C   UNL A   1      43.229  25.530  26.947  1.00  0.00     0.049 A 
ATOM     57  C   UNL A   1      45.401  30.607  27.886  1.00  0.00     0.074 A 
ATOM     58  C   UNL A   1      44.019  24.639  26.239  1.00  0.00     0.029 A 
ATOM     59  N   UNL A   1      43.967  26.701  27.068  1.00  0.00    -0.354 N 
ATOM     60  N   UNL A   1      45.030  29.385  27.588  1.00  0.00    -0.248 NA
ATOM     61  C   UNL A   1      46.767  30.943  27.467  1.00  0.00     0.031 C 
ATOM     62  C   UNL A   1      45.255  25.248  25.989  1.00  0.00     0.029 A 
ATOM     63  C   UNL A   1      45.213  26.544  26.480  1.00  0.00     0.049 A 
ATOM     64  H   UNL A   1      43.650  27.522  27.507  1.00  0.00     0.167 HD
ATOM     65  C   UNL A   1      46.104  28.817  26.915  1.00  0.00     0.074 A 
ATOM     66  C   UNL A   1      47.127  29.839  26.830  1.00  0.00     0.031 C 
ATOM     67  C   UNL A   1      46.230  27.565  26.410  1.00  0.00     0.037 A 
BRANCH  54  68
ATOM     68  C   UNL A   1      41.282  23.966  27.370  1.00  0.00     0.057 A 
ATOM     69  C   UNL A   1      40.196  23.751  26.512  1.00  0.00     0.134 A 
ATOM     70  C   UNL A   1      41.732  22.871  28.122  1.00  0.00     0.134 A 
ATOM     71  F   UNL A   1      39.704  24.755  25.771  1.00  0.00    -0.206 F 
ATOM     72  C   UNL A   1      39.587  22.500  26.400  1.00  0.00     0.040 A 
ATOM     73  C   UNL A   1      41.150  21.607  27.997  1.00  0.00     0.040 A 
ATOM     74  F   UNL A   1      42.769  23.003  28.963  1.00  0.00    -0.206 F 
ATOM     75  C   UNL A   1      40.070  21.421  27.136  1.00  0.00     0.006 A 
ENDBRANCH  54  68
BRANCH  55  76
ATOM     76  C   UNL A   1      45.200  33.056  28.720  1.00  0.00     0.057 A 
ATOM     77  C   UNL A   1      44.974  34.054  27.765  1.00  0.00     0.134 A 
ATOM     78  C   UNL A   1      45.967  33.396  29.841  1.00  0.00     0.134 A 
ATOM     79  F   UNL A   1      44.261  33.786  26.661  1.00  0.00    -0.206 F 
ATOM     80  C   UNL A   1      45.485  35.342  27.921  1.00  0.00     0.040 A 
ATOM     81  C   UNL A   1      46.458  34.689  30.026  1.00  0.00     0.040 A 
ATOM     82  F   UNL A   1      46.210  32.486  30.795  1.00  0.00    -0.206 F 
ATOM     83  C   UNL A   1      46.218  35.666  29.062  1.00  0.00     0.006 A 
ENDBRANCH  55  76
BRANCH  67  84
ATOM     84  C   UNL A   1      47.512  27.258  25.686  1.00  0.00     0.057 A 
ATOM     85  C   UNL A   1      48.609  26.729  26.379  1.00  0.00     0.134 A 
ATOM     86  C   UNL A   1      47.658  27.453  24.306  1.00  0.00     0.134 A 
ATOM     87  F   UNL A   1      48.546  26.525  27.704  1.00  0.00    -0.206 F 
ATOM     88  C   UNL A   1      49.795  26.392  25.725  1.00  0.00     0.040 A 
ATOM     89  C   UNL A   1      48.825  27.085  23.634  1.00  0.00     0.040 A 
ATOM     90  F   UNL A   1      46.642  27.941  23.577  1.00  0.00    -0.206 F 
ATOM     91  C   UNL A   1      49.899  26.554  24.345  1.00  0.00     0.006 A 
ENDBRANCH  67  84
ENDBRANCH  41  42
ENDBRANCH  34  36
ENDBRANCH  33  34
ENDBRANCH  32  33
ENDBRANCH  31  32
ENDBRANCH  30  31
ENDBRANCH   1  30
TORSDOF 17
ENDMDL
MODEL 3
REMARK VINA RESULT:     -11.9      1.637      4.041
REMARK SMILES O=C(Cc1c(C(=O)c2cc3c(cn2)CCCC3)[nH]c2cc(Cl)ccc12)OCCOCCOC(=O)c1ccc(-c2c3nc(c(-c4c(F)cccc4F)c4ccc([nH]4)c(-c4c(F)cccc4F)c4nc(c(-c5c(F)cccc5F)c5ccc2[nH]5)C=C4)C=C3)cc1
REMARK SMILES IDX 28 1 27 2 26 3 2 4 1 5 3 6 4 7 5 8 25 9 18 10 19 11 24 12
REMARK SMILES IDX 20 14 23 15 21 16 22 17 6 18 7 19 8 20 9 21 13 22 10 23
REMARK SMILES IDX 12 24 11 25 17 26 14 27 16 28 15 29 29 30 30 31 31 32 32 33
REMARK SMILES IDX 33 34 34 35 35 36 36 37 88 38 37 39 87 40 38 41 39 42 40 43
REMARK SMILES IDX 81 44 41 45 86 46 80 47 82 48 42 49 85 50 79 51 78 52 43 54
REMARK SMILES IDX 69 55 52 56 68 57 53 58 56 59 67 60 83 61 54 62 55 63 66 65
REMARK SMILES IDX 84 66 57 67 44 68 45 69 50 70 46 71 47 72 49 73 51 74 48 75
REMARK SMILES IDX 70 76 71 77 76 78 72 79 73 80 75 81 77 82 74 83 58 84 59 85
REMARK SMILES IDX 64 86 60 87 61 88 63 89 65 90 62 91
REMARK H PARENT 18 13 82 53 56 64
REMARK Flexibility Score: inf
ROOT
ATOM      1  C   UNL A   1      37.744  21.854  25.119  1.00  0.00     0.202 C 
ENDROOT
BRANCH   1   2
ATOM      2  C   UNL A   1      37.761  23.388  25.286  1.00  0.00     0.261 C 
BRANCH   2   3
ATOM      3  O   UNL A   1      36.770  23.985  26.120  1.00  0.00    -0.463 OA
BRANCH   3   4
ATOM      4  C   UNL A   1      35.486  23.977  25.697  1.00  0.00     0.310 C 
ATOM      5  O   UNL A   1      35.108  24.745  24.817  1.00  0.00    -0.252 OA
BRANCH   4   6
ATOM      6  C   UNL A   1      34.550  23.173  26.547  1.00  0.00     0.161 C 
BRANCH   6   7
ATOM      7  C   UNL A   1      33.627  22.232  25.833  1.00  0.00     0.000 A 
ATOM      8  C   UNL A   1      32.276  22.533  25.702  1.00  0.00     0.093 A 
ATOM      9  C   UNL A   1      33.791  20.899  25.302  1.00  0.00     0.004 A 
ATOM     10  N   UNL A   1      31.773  21.670  24.757  1.00  0.00    -0.351 N 
ATOM     11  C   UNL A   1      32.641  20.625  24.559  1.00  0.00     0.048 A 
ATOM     12  C   UNL A   1      34.758  19.867  25.359  1.00  0.00     0.012 A 
ATOM     13  H   UNL A   1      30.915  21.786  24.290  1.00  0.00     0.167 HD
ATOM     14  C   UNL A   1      32.473  19.460  23.792  1.00  0.00     0.047 A 
ATOM     15  C   UNL A   1      34.595  18.675  24.639  1.00  0.00     0.021 A 
ATOM     16  C   UNL A   1      33.478  18.495  23.840  1.00  0.00     0.043 A 
ATOM     17  Cl  UNL A   1      33.318  17.048  22.922  1.00  0.00    -0.084 Cl
BRANCH   8  18
ATOM     18  C   UNL A   1      31.539  23.571  26.417  1.00  0.00     0.227 C 
ATOM     19  O   UNL A   1      30.910  23.385  27.458  1.00  0.00    -0.285 OA
BRANCH  18  20
ATOM     20  C   UNL A   1      31.435  24.896  25.802  1.00  0.00     0.113 A 
ATOM     21  C   UNL A   1      31.922  25.985  26.507  1.00  0.00     0.036 A 
ATOM     22  N   UNL A   1      30.829  24.951  24.595  1.00  0.00    -0.252 NA
ATOM     23  C   UNL A   1      31.763  27.243  25.941  1.00  0.00    -0.041 A 
ATOM     24  C   UNL A   1      30.718  26.175  24.053  1.00  0.00     0.115 A 
ATOM     25  C   UNL A   1      31.137  27.343  24.687  1.00  0.00    -0.026 A 
ATOM     26  C   UNL A   1      32.199  28.455  26.718  1.00  0.00     0.036 C 
ATOM     27  C   UNL A   1      30.966  28.665  23.995  1.00  0.00     0.037 C 
ATOM     28  C   UNL A   1      32.279  29.711  25.858  1.00  0.00     0.005 C 
ATOM     29  C   UNL A   1      31.044  29.836  24.972  1.00  0.00     0.005 C 
ENDBRANCH  18  20
ENDBRANCH   8  18
ENDBRANCH   6   7
ENDBRANCH   4   6
ENDBRANCH   3   4
ENDBRANCH   2   3
ENDBRANCH   1   2
BRANCH   1  30
ATOM     30  O   UNL A   1      38.784  21.027  25.627  1.00  0.00    -0.374 OA
BRANCH  30  31
ATOM     31  C   UNL A   1      39.765  21.545  26.509  1.00  0.00     0.202 C 
BRANCH  31  32
ATOM     32  C   UNL A   1      41.206  21.402  26.032  1.00  0.00     0.261 C 
BRANCH  32  33
ATOM     33  O   UNL A   1      42.104  22.270  26.736  1.00  0.00    -0.460 OA
BRANCH  33  34
ATOM     34  C   UNL A   1      42.500  23.374  26.059  1.00  0.00     0.338 C 
ATOM     35  O   UNL A   1      43.017  23.423  24.954  1.00  0.00    -0.246 OA
BRANCH  34  36
ATOM     36  C   UNL A   1      42.050  24.571  26.797  1.00  0.00     0.060 A 
ATOM     37  C   UNL A   1      40.843  24.563  27.499  1.00  0.00     0.016 A 
ATOM     38  C   UNL A   1      42.857  25.719  26.782  1.00  0.00     0.016 A 
ATOM     39  C   UNL A   1      40.475  25.686  28.234  1.00  0.00     0.010 A 
ATOM     40  C   UNL A   1      42.489  26.842  27.522  1.00  0.00     0.010 A 
ATOM     41  C   UNL A   1      41.316  26.814  28.285  1.00  0.00    -0.014 A 
BRANCH  41  42
ATOM     42  C   UNL A   1      41.067  27.835  29.329  1.00  0.00     0.031 A 
ATOM     43  C   UNL A   1      39.954  28.827  29.236  1.00  0.00     0.074 A 
ATOM     44  C   UNL A   1      41.882  27.821  30.401  1.00  0.00     0.049 A 
ATOM     45  N   UNL A   1      39.500  29.633  30.162  1.00  0.00    -0.248 NA
ATOM     46  C   UNL A   1      39.274  28.944  27.941  1.00  0.00     0.031 C 
ATOM     47  C   UNL A   1      43.038  26.935  30.562  1.00  0.00     0.029 A 
ATOM     48  N   UNL A   1      41.845  28.538  31.568  1.00  0.00    -0.354 N 
ATOM     49  C   UNL A   1      38.462  30.341  29.573  1.00  0.00     0.074 A 
ATOM     50  C   UNL A   1      38.394  29.906  28.191  1.00  0.00     0.031 C 
ATOM     51  C   UNL A   1      43.558  27.110  31.785  1.00  0.00     0.029 A 
ATOM     52  C   UNL A   1      42.790  28.136  32.480  1.00  0.00     0.049 A 
ATOM     53  H   UNL A   1      41.205  29.266  31.734  1.00  0.00     0.167 HD
ATOM     54  C   UNL A   1      37.639  31.256  30.142  1.00  0.00     0.037 A 
ATOM     55  C   UNL A   1      42.997  28.534  33.746  1.00  0.00     0.037 A 
ATOM     56  C   UNL A   1      37.747  31.703  31.510  1.00  0.00     0.049 A 
ATOM     57  C   UNL A   1      42.082  29.565  34.340  1.00  0.00     0.074 A 
ATOM     58  C   UNL A   1      36.935  32.591  32.199  1.00  0.00     0.029 A 
ATOM     59  N   UNL A   1      38.747  31.318  32.395  1.00  0.00    -0.354 N 
ATOM     60  N   UNL A   1      41.031  30.145  33.814  1.00  0.00    -0.248 NA
ATOM     61  C   UNL A   1      42.380  29.985  35.715  1.00  0.00     0.031 C 
ATOM     62  C   UNL A   1      37.480  32.790  33.473  1.00  0.00     0.029 A 
ATOM     63  C   UNL A   1      38.593  31.975  33.607  1.00  0.00     0.049 A 
ATOM     64  H   UNL A   1      39.461  30.673  32.190  1.00  0.00     0.167 HD
ATOM     65  C   UNL A   1      40.520  30.973  34.804  1.00  0.00     0.074 A 
ATOM     66  C   UNL A   1      41.366  30.798  35.968  1.00  0.00     0.031 C 
ATOM     67  C   UNL A   1      39.447  31.801  34.757  1.00  0.00     0.037 A 
BRANCH  54  68
ATOM     68  C   UNL A   1      36.558  31.845  29.278  1.00  0.00     0.057 A 
ATOM     69  C   UNL A   1      35.447  31.082  28.897  1.00  0.00     0.134 A 
ATOM     70  C   UNL A   1      36.630  33.160  28.796  1.00  0.00     0.134 A 
ATOM     71  F   UNL A   1      35.318  29.812  29.310  1.00  0.00    -0.206 F 
ATOM     72  C   UNL A   1      34.446  31.605  28.077  1.00  0.00     0.040 A 
ATOM     73  C   UNL A   1      35.620  33.704  28.000  1.00  0.00     0.040 A 
ATOM     74  F   UNL A   1      37.664  33.949  29.123  1.00  0.00    -0.206 F 
ATOM     75  C   UNL A   1      34.525  32.923  27.634  1.00  0.00     0.006 A 
ENDBRANCH  54  68
BRANCH  55  76
ATOM     76  C   UNL A   1      44.078  27.921  34.556  1.00  0.00     0.057 A 
ATOM     77  C   UNL A   1      45.355  28.491  34.623  1.00  0.00     0.134 A 
ATOM     78  C   UNL A   1      43.850  26.760  35.304  1.00  0.00     0.134 A 
ATOM     79  F   UNL A   1      45.642  29.594  33.917  1.00  0.00    -0.206 F 
ATOM     80  C   UNL A   1      46.363  27.934  35.409  1.00  0.00     0.040 A 
ATOM     81  C   UNL A   1      44.839  26.209  36.120  1.00  0.00     0.040 A 
ATOM     82  F   UNL A   1      42.644  26.172  35.288  1.00  0.00    -0.206 F 
ATOM     83  C   UNL A   1      46.101  26.796  36.171  1.00  0.00     0.006 A 
ENDBRANCH  55  76
BRANCH  67  84
ATOM     84  C   UNL A   1      39.114  32.544  36.021  1.00  0.00     0.057 A 
ATOM     85  C   UNL A   1      39.606  33.839  36.234  1.00  0.00     0.134 A 
ATOM     86  C   UNL A   1      38.287  32.000  37.014  1.00  0.00     0.134 A 
ATOM     87  F   UNL A   1      40.412  34.420  35.332  1.00  0.00    -0.206 F 
ATOM     88  C   UNL A   1      39.275  34.569  37.377  1.00  0.00     0.040 A 
ATOM     89  C   UNL A   1      37.919  32.734  38.143  1.00  0.00     0.040 A 
ATOM     90  F   UNL A   1      37.768  30.771  36.868  1.00  0.00    -0.206 F 
ATOM     91  C   UNL A   1      38.416  34.022  38.328  1.00  0.00     0.006 A 
ENDBRANCH  67  84
ENDBRANCH  41  42
ENDBRANCH  34  36
ENDBRANCH  33  34
ENDBRANCH  32  33
ENDBRANCH  31  32
ENDBRANCH  30  31
ENDBRANCH   1  30
TORSDOF 17
ENDMDL
