MODEL 1
REMARK VINA RESULT:     -12.2      0.000      0.000
REMARK SMILES O=C(OCCOCCOC(=O)c1ccc([C@H]2CCCN(C(=O)c3ccc4[nH]ccc4c3)C2)cc1)c1ccc(-c2c3nc(c(-c4c(F)cccc4F)c4ccc([nH]4)c(-c4c(F)cccc4F)c4nc(c(-c5c(F)cccc5F)c5ccc2[nH]5)C=C4)C=C3)cc1
REMARK SMILES IDX 7 1 6 2 5 3 4 4 3 5 2 6 1 7 35 8 36 9 88 10 37 11 87 12
REMARK SMILES IDX 38 13 39 14 40 15 81 16 41 17 86 18 80 19 82 20 42 21 85 22
REMARK SMILES IDX 79 23 78 24 43 26 69 27 52 28 68 29 53 30 56 31 67 32 83 33
REMARK SMILES IDX 54 34 55 35 66 37 84 38 57 39 44 40 45 41 50 42 46 43 47 44
REMARK SMILES IDX 49 45 51 46 48 47 70 48 71 49 76 50 72 51 73 52 75 53 77 54
REMARK SMILES IDX 74 55 58 56 59 57 64 58 60 59 61 60 63 61 65 62 62 63 8 64
REMARK SMILES IDX 9 65 10 66 11 67 12 68 13 69 34 70 14 71 33 72 15 73 16 74
REMARK SMILES IDX 17 75 32 76 18 77 20 78 19 79 21 80 22 81 23 82 24 83 31 84
REMARK SMILES IDX 25 85 30 86 26 87 29 88 27 89 28 90
REMARK H PARENT 82 25 56 36 27 91
REMARK Flexibility Score: inf
ROOT
ATOM      1  C   UNL A   1      40.664  21.270  27.407  1.00  0.00     0.202 C 
ENDROOT
BRANCH   1   2
ATOM      2  O   UNL A   1      42.086  21.137  27.312  1.00  0.00    -0.374 OA
BRANCH   2   3
ATOM      3  C   UNL A   1      42.596  20.666  26.065  1.00  0.00     0.202 C 
BRANCH   3   4
ATOM      4  C   UNL A   1      43.625  21.596  25.418  1.00  0.00     0.261 C 
BRANCH   4   5
ATOM      5  O   UNL A   1      43.008  22.831  25.017  1.00  0.00    -0.460 OA
BRANCH   5   6
ATOM      6  C   UNL A   1      43.424  24.098  25.249  1.00  0.00     0.338 C 
ATOM      7  O   UNL A   1      44.250  24.591  24.483  1.00  0.00    -0.246 OA
BRANCH   6   8
ATOM      8  C   UNL A   1      42.947  24.942  26.390  1.00  0.00     0.060 A 
ATOM      9  C   UNL A   1      42.083  24.512  27.397  1.00  0.00     0.016 A 
ATOM     10  C   UNL A   1      43.484  26.237  26.499  1.00  0.00     0.016 A 
ATOM     11  C   UNL A   1      41.722  25.333  28.449  1.00  0.00     0.010 A 
ATOM     12  C   UNL A   1      43.155  27.066  27.579  1.00  0.00     0.010 A 
ATOM     13  C   UNL A   1      42.261  26.610  28.551  1.00  0.00    -0.014 A 
BRANCH  13  14
ATOM     14  C   UNL A   1      41.761  27.451  29.650  1.00  0.00     0.031 A 
ATOM     15  C   UNL A   1      42.561  27.514  30.911  1.00  0.00     0.074 A 
ATOM     16  C   UNL A   1      40.732  28.283  29.414  1.00  0.00     0.049 A 
ATOM     17  N   UNL A   1      42.345  28.213  31.992  1.00  0.00    -0.248 NA
ATOM     18  C   UNL A   1      43.788  26.698  30.952  1.00  0.00     0.031 C 
ATOM     19  C   UNL A   1      39.997  28.378  28.149  1.00  0.00     0.029 A 
ATOM     20  N   UNL A   1      40.158  29.242  30.203  1.00  0.00    -0.354 N 
ATOM     21  C   UNL A   1      43.401  27.917  32.842  1.00  0.00     0.074 A 
ATOM     22  C   UNL A   1      44.249  26.964  32.163  1.00  0.00     0.031 C 
ATOM     23  C   UNL A   1      39.087  29.360  28.240  1.00  0.00     0.029 A 
ATOM     24  C   UNL A   1      39.129  29.914  29.588  1.00  0.00     0.049 A 
ATOM     25  H   UNL A   1      40.454  29.433  31.123  1.00  0.00     0.167 HD
ATOM     26  C   UNL A   1      43.632  28.406  34.081  1.00  0.00     0.037 A 
ATOM     27  C   UNL A   1      38.297  30.848  30.083  1.00  0.00     0.037 A 
ATOM     28  C   UNL A   1      42.756  29.342  34.731  1.00  0.00     0.049 A 
ATOM     29  C   UNL A   1      38.506  31.280  31.509  1.00  0.00     0.074 A 
ATOM     30  C   UNL A   1      42.808  29.829  36.022  1.00  0.00     0.029 A 
ATOM     31  N   UNL A   1      41.658  29.934  34.118  1.00  0.00    -0.354 N 
ATOM     32  N   UNL A   1      39.451  30.926  32.350  1.00  0.00    -0.248 NA
ATOM     33  C   UNL A   1      37.531  32.226  32.062  1.00  0.00     0.031 C 
ATOM     34  C   UNL A   1      41.719  30.691  36.202  1.00  0.00     0.029 A 
ATOM     35  C   UNL A   1      41.018  30.777  35.008  1.00  0.00     0.049 A 
ATOM     36  H   UNL A   1      41.378  29.778  33.187  1.00  0.00     0.167 HD
ATOM     37  C   UNL A   1      39.193  31.615  33.526  1.00  0.00     0.074 A 
ATOM     38  C   UNL A   1      38.018  32.428  33.278  1.00  0.00     0.031 C 
ATOM     39  C   UNL A   1      39.854  31.575  34.709  1.00  0.00     0.037 A 
BRANCH  26  40
ATOM     40  C   UNL A   1      44.830  27.874  34.808  1.00  0.00     0.057 A 
ATOM     41  C   UNL A   1      44.774  26.705  35.578  1.00  0.00     0.134 A 
ATOM     42  C   UNL A   1      46.045  28.568  34.776  1.00  0.00     0.134 A 
ATOM     43  F   UNL A   1      43.630  26.010  35.678  1.00  0.00    -0.206 F 
ATOM     44  C   UNL A   1      45.877  26.260  36.311  1.00  0.00     0.040 A 
ATOM     45  C   UNL A   1      47.161  28.122  35.485  1.00  0.00     0.040 A 
ATOM     46  F   UNL A   1      46.164  29.701  34.067  1.00  0.00    -0.206 F 
ATOM     47  C   UNL A   1      47.076  26.968  36.263  1.00  0.00     0.006 A 
ENDBRANCH  26  40
BRANCH  27  48
ATOM     48  C   UNL A   1      37.170  31.372  29.267  1.00  0.00     0.057 A 
ATOM     49  C   UNL A   1      37.179  32.666  28.736  1.00  0.00     0.134 A 
ATOM     50  C   UNL A   1      36.028  30.593  29.032  1.00  0.00     0.134 A 
ATOM     51  F   UNL A   1      38.231  33.473  28.940  1.00  0.00    -0.206 F 
ATOM     52  C   UNL A   1      36.089  33.175  28.025  1.00  0.00     0.040 A 
ATOM     53  C   UNL A   1      34.943  31.077  28.297  1.00  0.00     0.040 A 
ATOM     54  F   UNL A   1      35.947  29.342  29.511  1.00  0.00    -0.206 F 
ATOM     55  C   UNL A   1      34.968  32.378  27.801  1.00  0.00     0.006 A 
ENDBRANCH  27  48
BRANCH  39  56
ATOM     56  C   UNL A   1      39.331  32.461  35.799  1.00  0.00     0.057 A 
ATOM     57  C   UNL A   1      38.406  32.001  36.743  1.00  0.00     0.134 A 
ATOM     58  C   UNL A   1      39.787  33.779  35.919  1.00  0.00     0.134 A 
ATOM     59  F   UNL A   1      37.922  30.752  36.669  1.00  0.00    -0.206 F 
ATOM     60  C   UNL A   1      37.931  32.831  37.757  1.00  0.00     0.040 A 
ATOM     61  C   UNL A   1      39.341  34.609  36.945  1.00  0.00     0.040 A 
ATOM     62  F   UNL A   1      40.681  34.274  35.049  1.00  0.00    -0.206 F 
ATOM     63  C   UNL A   1      38.405  34.138  37.864  1.00  0.00     0.006 A 
ENDBRANCH  39  56
ENDBRANCH  13  14
ENDBRANCH   6   8
ENDBRANCH   5   6
ENDBRANCH   4   5
ENDBRANCH   3   4
ENDBRANCH   2   3
ENDBRANCH   1   2
BRANCH   1  64
ATOM     64  C   UNL A   1      40.022  20.725  26.127  1.00  0.00     0.261 C 
BRANCH  64  65
ATOM     65  O   UNL A   1      38.900  21.554  25.805  1.00  0.00    -0.460 OA
BRANCH  65  66
ATOM     66  C   UNL A   1      37.937  20.945  25.061  1.00  0.00     0.338 C 
ATOM     67  O   UNL A   1      37.928  19.799  24.663  1.00  0.00    -0.246 OA
BRANCH  66  68
ATOM     68  C   UNL A   1      36.782  21.873  24.988  1.00  0.00     0.060 A 
ATOM     69  C   UNL A   1      37.001  23.253  25.070  1.00  0.00     0.016 A 
ATOM     70  C   UNL A   1      35.496  21.387  24.772  1.00  0.00     0.016 A 
ATOM     71  C   UNL A   1      35.920  24.139  25.009  1.00  0.00     0.005 A 
ATOM     72  C   UNL A   1      34.427  22.268  24.694  1.00  0.00     0.005 A 
ATOM     73  C   UNL A   1      34.611  23.649  24.882  1.00  0.00    -0.043 A 
BRANCH  73  74
ATOM     74  C   UNL A   1      33.431  24.567  25.161  1.00  0.00     0.039 C 
ATOM     75  C   UNL A   1      32.401  24.060  26.185  1.00  0.00     0.012 C 
ATOM     76  C   UNL A   1      33.882  25.977  25.573  1.00  0.00     0.128 C 
ATOM     77  C   UNL A   1      31.239  25.067  26.319  1.00  0.00     0.022 C 
ATOM     78  N   UNL A   1      32.755  26.876  25.616  1.00  0.00    -0.338 N 
ATOM     79  C   UNL A   1      31.711  26.506  26.570  1.00  0.00     0.120 C 
BRANCH  78  80
ATOM     80  C   UNL A   1      32.733  27.911  24.694  1.00  0.00     0.253 C 
ATOM     81  O   UNL A   1      33.731  28.503  24.290  1.00  0.00    -0.269 OA
BRANCH  80  82
ATOM     82  C   UNL A   1      31.443  28.354  24.169  1.00  0.00     0.040 A 
ATOM     83  C   UNL A   1      30.732  27.494  23.335  1.00  0.00     0.016 A 
ATOM     84  C   UNL A   1      31.023  29.661  24.442  1.00  0.00     0.024 A 
ATOM     85  C   UNL A   1      29.528  27.912  22.770  1.00  0.00     0.027 A 
ATOM     86  C   UNL A   1      29.825  30.100  23.857  1.00  0.00     0.000 A 
ATOM     87  C   UNL A   1      29.102  29.217  23.051  1.00  0.00     0.045 A 
ATOM     88  C   UNL A   1      29.122  31.334  23.868  1.00  0.00     0.028 A 
ATOM     89  N   UNL A   1      27.981  29.893  22.622  1.00  0.00    -0.361 N 
ATOM     90  C   UNL A   1      27.994  31.178  23.096  1.00  0.00     0.083 A 
ATOM     91  H   UNL A   1      27.275  29.508  22.057  1.00  0.00     0.166 HD
ENDBRANCH  80  82
ENDBRANCH  78  80
ENDBRANCH  73  74
ENDBRANCH  66  68
ENDBRANCH  65  66
ENDBRANCH  64  65
ENDBRANCH   1  64
TORSDOF 17
ENDMDL
MODEL 2
REMARK VINA RESULT:     -12.2      4.523     10.015
REMARK SMILES O=C(OCCOCCOC(=O)c1ccc([C@H]2CCCN(C(=O)c3ccc4[nH]ccc4c3)C2)cc1)c1ccc(-c2c3nc(c(-c4c(F)cccc4F)c4ccc([nH]4)c(-c4c(F)cccc4F)c4nc(c(-c5c(F)cccc5F)c5ccc2[nH]5)C=C4)C=C3)cc1
REMARK SMILES IDX 7 1 6 2 5 3 4 4 3 5 2 6 1 7 35 8 36 9 88 10 37 11 87 12
REMARK SMILES IDX 38 13 39 14 40 15 81 16 41 17 86 18 80 19 82 20 42 21 85 22
REMARK SMILES IDX 79 23 78 24 43 26 69 27 52 28 68 29 53 30 56 31 67 32 83 33
REMARK SMILES IDX 54 34 55 35 66 37 84 38 57 39 44 40 45 41 50 42 46 43 47 44
REMARK SMILES IDX 49 45 51 46 48 47 70 48 71 49 76 50 72 51 73 52 75 53 77 54
REMARK SMILES IDX 74 55 58 56 59 57 64 58 60 59 61 60 63 61 65 62 62 63 8 64
REMARK SMILES IDX 9 65 10 66 11 67 12 68 13 69 34 70 14 71 33 72 15 73 16 74
REMARK SMILES IDX 17 75 32 76 18 77 20 78 19 79 21 80 22 81 23 82 24 83 31 84
REMARK SMILES IDX 25 85 30 86 26 87 29 88 27 89 28 90
REMARK H PARENT 82 25 56 36 27 91
REMARK Flexibility Score: inf
ROOT
ATOM      1  C   UNL A   1      34.022  34.718  29.120  1.00  0.00     0.202 C 
ENDROOT
BRANCH   1   2
ATOM      2  O   UNL A   1      33.628  34.501  30.479  1.00  0.00    -0.374 OA
BRANCH   2   3
ATOM      3  C   UNL A   1      34.681  34.426  31.440  1.00  0.00     0.202 C 
BRANCH   3   4
ATOM      4  C   UNL A   1      34.353  33.561  32.660  1.00  0.00     0.261 C 
BRANCH   4   5
ATOM      5  O   UNL A   1      35.112  32.340  32.632  1.00  0.00    -0.460 OA
BRANCH   5   6
ATOM      6  C   UNL A   1      36.352  32.105  33.118  1.00  0.00     0.338 C 
ATOM      7  O   UNL A   1      36.569  32.338  34.307  1.00  0.00    -0.246 OA
BRANCH   6   8
ATOM      8  C   UNL A   1      37.489  31.582  32.297  1.00  0.00     0.060 A 
ATOM      9  C   UNL A   1      38.521  30.778  32.780  1.00  0.00     0.016 A 
ATOM     10  C   UNL A   1      37.462  31.849  30.917  1.00  0.00     0.016 A 
ATOM     11  C   UNL A   1      39.516  30.290  31.952  1.00  0.00     0.010 A 
ATOM     12  C   UNL A   1      38.441  31.331  30.061  1.00  0.00     0.010 A 
ATOM     13  C   UNL A   1      39.477  30.555  30.588  1.00  0.00    -0.014 A 
BRANCH  13  14
ATOM     14  C   UNL A   1      40.615  30.073  29.790  1.00  0.00     0.031 A 
ATOM     15  C   UNL A   1      41.806  30.966  29.648  1.00  0.00     0.074 A 
ATOM     16  C   UNL A   1      40.635  28.788  29.397  1.00  0.00     0.049 A 
ATOM     17  N   UNL A   1      42.935  30.744  29.033  1.00  0.00    -0.248 NA
ATOM     18  C   UNL A   1      41.724  32.279  30.311  1.00  0.00     0.031 C 
ATOM     19  C   UNL A   1      39.562  27.816  29.636  1.00  0.00     0.029 A 
ATOM     20  N   UNL A   1      41.605  28.061  28.764  1.00  0.00    -0.354 N 
ATOM     21  C   UNL A   1      43.695  31.888  29.228  1.00  0.00     0.074 A 
ATOM     22  C   UNL A   1      42.896  32.811  30.002  1.00  0.00     0.031 C 
ATOM     23  C   UNL A   1      39.946  26.615  29.177  1.00  0.00     0.029 A 
ATOM     24  C   UNL A   1      41.256  26.748  28.554  1.00  0.00     0.049 A 
ATOM     25  H   UNL A   1      42.469  28.441  28.485  1.00  0.00     0.167 HD
ATOM     26  C   UNL A   1      44.950  32.136  28.793  1.00  0.00     0.037 A 
ATOM     27  C   UNL A   1      41.919  25.779  27.897  1.00  0.00     0.037 A 
ATOM     28  C   UNL A   1      45.709  31.200  28.010  1.00  0.00     0.049 A 
ATOM     29  C   UNL A   1      43.263  26.125  27.316  1.00  0.00     0.074 A 
ATOM     30  C   UNL A   1      46.941  31.365  27.410  1.00  0.00     0.029 A 
ATOM     31  N   UNL A   1      45.289  29.905  27.725  1.00  0.00    -0.354 N 
ATOM     32  N   UNL A   1      43.943  27.245  27.417  1.00  0.00    -0.248 NA
ATOM     33  C   UNL A   1      43.928  25.088  26.521  1.00  0.00     0.031 C 
ATOM     34  C   UNL A   1      47.252  30.181  26.730  1.00  0.00     0.029 A 
ATOM     35  C   UNL A   1      46.235  29.262  26.948  1.00  0.00     0.049 A 
ATOM     36  H   UNL A   1      44.443  29.505  28.031  1.00  0.00     0.167 HD
ATOM     37  C   UNL A   1      45.120  27.042  26.711  1.00  0.00     0.074 A 
ATOM     38  C   UNL A   1      45.071  25.682  26.211  1.00  0.00     0.031 C 
ATOM     39  C   UNL A   1      46.145  27.901  26.482  1.00  0.00     0.037 A 
BRANCH  26  40
ATOM     40  C   UNL A   1      45.520  33.488  29.102  1.00  0.00     0.057 A 
ATOM     41  C   UNL A   1      45.316  34.591  28.262  1.00  0.00     0.134 A 
ATOM     42  C   UNL A   1      46.327  33.676  30.230  1.00  0.00     0.134 A 
ATOM     43  F   UNL A   1      44.581  34.470  27.147  1.00  0.00    -0.206 F 
ATOM     44  C   UNL A   1      45.915  35.826  28.521  1.00  0.00     0.040 A 
ATOM     45  C   UNL A   1      46.913  34.911  30.512  1.00  0.00     0.040 A 
ATOM     46  F   UNL A   1      46.573  32.658  31.068  1.00  0.00    -0.206 F 
ATOM     47  C   UNL A   1      46.714  35.989  29.652  1.00  0.00     0.006 A 
ENDBRANCH  26  40
BRANCH  27  48
ATOM     48  C   UNL A   1      41.304  24.441  27.692  1.00  0.00     0.057 A 
ATOM     49  C   UNL A   1      41.732  23.313  28.399  1.00  0.00     0.134 A 
ATOM     50  C   UNL A   1      40.288  24.252  26.743  1.00  0.00     0.134 A 
ATOM     51  F   UNL A   1      42.714  23.418  29.307  1.00  0.00    -0.206 F 
ATOM     52  C   UNL A   1      41.195  22.046  28.156  1.00  0.00     0.040 A 
ATOM     53  C   UNL A   1      39.720  22.998  26.511  1.00  0.00     0.040 A 
ATOM     54  F   UNL A   1      39.827  25.288  26.026  1.00  0.00    -0.206 F 
ATOM     55  C   UNL A   1      40.183  21.887  27.211  1.00  0.00     0.006 A 
ENDBRANCH  27  48
BRANCH  39  56
ATOM     56  C   UNL A   1      47.297  27.369  25.686  1.00  0.00     0.057 A 
ATOM     57  C   UNL A   1      47.386  27.558  24.302  1.00  0.00     0.134 A 
ATOM     58  C   UNL A   1      48.344  26.690  26.321  1.00  0.00     0.134 A 
ATOM     59  F   UNL A   1      46.405  28.188  23.636  1.00  0.00    -0.206 F 
ATOM     60  C   UNL A   1      48.466  27.066  23.570  1.00  0.00     0.040 A 
ATOM     61  C   UNL A   1      49.442  26.219  25.605  1.00  0.00     0.040 A 
ATOM     62  F   UNL A   1      48.319  26.487  27.647  1.00  0.00    -0.206 F 
ATOM     63  C   UNL A   1      49.501  26.400  24.224  1.00  0.00     0.006 A 
ENDBRANCH  39  56
ENDBRANCH  13  14
ENDBRANCH   6   8
ENDBRANCH   5   6
ENDBRANCH   4   5
ENDBRANCH   3   4
ENDBRANCH   2   3
ENDBRANCH   1   2
BRANCH   1  64
ATOM     64  C   UNL A   1      33.260  33.746  28.215  1.00  0.00     0.261 C 
BRANCH  64  65
ATOM     65  O   UNL A   1      34.209  32.847  27.629  1.00  0.00    -0.460 OA
BRANCH  65  66
ATOM     66  C   UNL A   1      34.380  31.680  28.307  1.00  0.00     0.338 C 
ATOM     67  O   UNL A   1      34.682  31.542  29.473  1.00  0.00    -0.246 OA
BRANCH  66  68
ATOM     68  C   UNL A   1      33.929  30.583  27.416  1.00  0.00     0.060 A 
ATOM     69  C   UNL A   1      32.758  30.741  26.666  1.00  0.00     0.016 A 
ATOM     70  C   UNL A   1      34.694  29.429  27.271  1.00  0.00     0.016 A 
ATOM     71  C   UNL A   1      32.318  29.711  25.827  1.00  0.00     0.005 A 
ATOM     72  C   UNL A   1      34.265  28.416  26.426  1.00  0.00     0.005 A 
ATOM     73  C   UNL A   1      33.039  28.509  25.746  1.00  0.00    -0.043 A 
BRANCH  73  74
ATOM     74  C   UNL A   1      32.393  27.284  25.121  1.00  0.00     0.039 C 
ATOM     75  C   UNL A   1      30.943  26.987  25.542  1.00  0.00     0.012 C 
ATOM     76  C   UNL A   1      32.461  27.315  23.586  1.00  0.00     0.128 C 
ATOM     77  C   UNL A   1      30.445  25.688  24.875  1.00  0.00     0.022 C 
ATOM     78  N   UNL A   1      32.043  26.049  23.035  1.00  0.00    -0.338 N 
ATOM     79  C   UNL A   1      30.669  25.665  23.355  1.00  0.00     0.120 C 
BRANCH  78  80
ATOM     80  C   UNL A   1      32.998  25.300  22.366  1.00  0.00     0.253 C 
ATOM     81  O   UNL A   1      33.442  25.574  21.254  1.00  0.00    -0.269 OA
BRANCH  80  82
ATOM     82  C   UNL A   1      33.513  24.090  23.004  1.00  0.00     0.040 A 
ATOM     83  C   UNL A   1      32.676  22.980  23.102  1.00  0.00     0.016 A 
ATOM     84  C   UNL A   1      34.788  24.128  23.580  1.00  0.00     0.024 A 
ATOM     85  C   UNL A   1      33.118  21.833  23.758  1.00  0.00     0.027 A 
ATOM     86  C   UNL A   1      35.231  22.987  24.266  1.00  0.00     0.000 A 
ATOM     87  C   UNL A   1      34.398  21.867  24.328  1.00  0.00     0.045 A 
ATOM     88  C   UNL A   1      36.411  22.675  24.993  1.00  0.00     0.028 A 
ATOM     89  N   UNL A   1      35.076  20.903  25.039  1.00  0.00    -0.361 N 
ATOM     90  C   UNL A   1      36.285  21.388  25.460  1.00  0.00     0.083 A 
ATOM     91  H   UNL A   1      34.738  19.997  25.219  1.00  0.00     0.166 HD
ENDBRANCH  80  82
ENDBRANCH  78  80
ENDBRANCH  73  74
ENDBRANCH  66  68
ENDBRANCH  65  66
ENDBRANCH  64  65
ENDBRANCH   1  64
TORSDOF 17
ENDMDL
MODEL 3
REMARK VINA RESULT:     -12.1      1.157      6.266
REMARK SMILES O=C(OCCOCCOC(=O)c1ccc([C@H]2CCCN(C(=O)c3ccc4[nH]ccc4c3)C2)cc1)c1ccc(-c2c3nc(c(-c4c(F)cccc4F)c4ccc([nH]4)c(-c4c(F)cccc4F)c4nc(c(-c5c(F)cccc5F)c5ccc2[nH]5)C=C4)C=C3)cc1
REMARK SMILES IDX 7 1 6 2 5 3 4 4 3 5 2 6 1 7 35 8 36 9 88 10 37 11 87 12
REMARK SMILES IDX 38 13 39 14 40 15 81 16 41 17 86 18 80 19 82 20 42 21 85 22
REMARK SMILES IDX 79 23 78 24 43 26 69 27 52 28 68 29 53 30 56 31 67 32 83 33
REMARK SMILES IDX 54 34 55 35 66 37 84 38 57 39 44 40 45 41 50 42 46 43 47 44
REMARK SMILES IDX 49 45 51 46 48 47 70 48 71 49 76 50 72 51 73 52 75 53 77 54
REMARK SMILES IDX 74 55 58 56 59 57 64 58 60 59 61 60 63 61 65 62 62 63 8 64
REMARK SMILES IDX 9 65 10 66 11 67 12 68 13 69 34 70 14 71 33 72 15 73 16 74
REMARK SMILES IDX 17 75 32 76 18 77 20 78 19 79 21 80 22 81 23 82 24 83 31 84
REMARK SMILES IDX 25 85 30 86 26 87 29 88 27 89 28 90
REMARK H PARENT 82 25 56 36 27 91
REMARK Flexibility Score: inf
ROOT
ATOM      1  C   UNL A   1      42.009  19.760  26.126  1.00  0.00     0.202 C 
ENDROOT
BRANCH   1   2
ATOM      2  O   UNL A   1      42.559  20.870  25.408  1.00  0.00    -0.374 OA
BRANCH   2   3
ATOM      3  C   UNL A   1      43.982  20.967  25.387  1.00  0.00     0.202 C 
BRANCH   3   4
ATOM      4  C   UNL A   1      44.528  22.282  25.952  1.00  0.00     0.261 C 
BRANCH   4   5
ATOM      5  O   UNL A   1      43.804  23.401  25.416  1.00  0.00    -0.460 OA
BRANCH   5   6
ATOM      6  C   UNL A   1      44.089  24.720  25.520  1.00  0.00     0.338 C 
ATOM      7  O   UNL A   1      44.794  25.236  24.655  1.00  0.00    -0.246 OA
BRANCH   6   8
ATOM      8  C   UNL A   1      43.603  25.597  26.631  1.00  0.00     0.060 A 
ATOM      9  C   UNL A   1      43.915  26.949  26.779  1.00  0.00     0.016 A 
ATOM     10  C   UNL A   1      42.691  25.035  27.543  1.00  0.00     0.016 A 
ATOM     11  C   UNL A   1      43.390  27.712  27.806  1.00  0.00     0.010 A 
ATOM     12  C   UNL A   1      42.124  25.806  28.565  1.00  0.00     0.010 A 
ATOM     13  C   UNL A   1      42.486  27.148  28.698  1.00  0.00    -0.014 A 
BRANCH  13  14
ATOM     14  C   UNL A   1      42.041  28.001  29.812  1.00  0.00     0.031 A 
ATOM     15  C   UNL A   1      40.789  28.798  29.634  1.00  0.00     0.074 A 
ATOM     16  C   UNL A   1      42.646  27.878  31.006  1.00  0.00     0.049 A 
ATOM     17  N   UNL A   1      40.182  29.582  30.482  1.00  0.00    -0.248 NA
ATOM     18  C   UNL A   1      40.113  28.675  28.331  1.00  0.00     0.031 C 
ATOM     19  C   UNL A   1      43.787  27.001  31.287  1.00  0.00     0.029 A 
ATOM     20  N   UNL A   1      42.359  28.446  32.217  1.00  0.00    -0.354 N 
ATOM     21  C   UNL A   1      39.059  30.050  29.816  1.00  0.00     0.074 A 
ATOM     22  C   UNL A   1      39.074  29.479  28.488  1.00  0.00     0.031 C 
ATOM     23  C   UNL A   1      44.086  27.071  32.593  1.00  0.00     0.029 A 
ATOM     24  C   UNL A   1      43.205  28.046  33.224  1.00  0.00     0.049 A 
ATOM     25  H   UNL A   1      41.619  29.080  32.354  1.00  0.00     0.167 HD
ATOM     26  C   UNL A   1      38.104  30.886  30.283  1.00  0.00     0.037 A 
ATOM     27  C   UNL A   1      43.271  28.457  34.503  1.00  0.00     0.037 A 
ATOM     28  C   UNL A   1      38.131  31.448  31.605  1.00  0.00     0.049 A 
ATOM     29  C   UNL A   1      42.268  29.483  34.957  1.00  0.00     0.074 A 
ATOM     30  C   UNL A   1      37.294  32.391  32.166  1.00  0.00     0.029 A 
ATOM     31  N   UNL A   1      39.061  31.101  32.579  1.00  0.00    -0.354 N 
ATOM     32  N   UNL A   1      41.260  30.002  34.294  1.00  0.00    -0.248 NA
ATOM     33  C   UNL A   1      42.415  29.991  36.325  1.00  0.00     0.031 C 
ATOM     34  C   UNL A   1      37.740  32.643  33.470  1.00  0.00     0.029 A 
ATOM     35  C   UNL A   1      38.824  31.819  33.736  1.00  0.00     0.049 A 
ATOM     36  H   UNL A   1      39.782  30.440  32.462  1.00  0.00     0.167 HD
ATOM     37  C   UNL A   1      40.645  30.888  35.167  1.00  0.00     0.074 A 
ATOM     38  C   UNL A   1      41.378  30.813  36.415  1.00  0.00     0.031 C 
ATOM     39  C   UNL A   1      39.579  31.701  34.959  1.00  0.00     0.037 A 
BRANCH  26  40
ATOM     40  C   UNL A   1      37.018  31.276  29.326  1.00  0.00     0.057 A 
ATOM     41  C   UNL A   1      36.970  32.545  28.733  1.00  0.00     0.134 A 
ATOM     42  C   UNL A   1      35.978  30.387  29.033  1.00  0.00     0.134 A 
ATOM     43  F   UNL A   1      37.918  33.456  28.998  1.00  0.00    -0.206 F 
ATOM     44  C   UNL A   1      35.912  32.923  27.902  1.00  0.00     0.040 A 
ATOM     45  C   UNL A   1      34.927  30.744  28.187  1.00  0.00     0.040 A 
ATOM     46  F   UNL A   1      35.957  29.161  29.577  1.00  0.00    -0.206 F 
ATOM     47  C   UNL A   1      34.888  32.018  27.624  1.00  0.00     0.006 A 
ENDBRANCH  26  40
BRANCH  27  48
ATOM     48  C   UNL A   1      44.346  27.967  35.405  1.00  0.00     0.057 A 
ATOM     49  C   UNL A   1      44.183  26.828  36.202  1.00  0.00     0.134 A 
ATOM     50  C   UNL A   1      45.561  28.658  35.521  1.00  0.00     0.134 A 
ATOM     51  F   UNL A   1      43.037  26.131  36.156  1.00  0.00    -0.206 F 
ATOM     52  C   UNL A   1      45.172  26.410  37.096  1.00  0.00     0.040 A 
ATOM     53  C   UNL A   1      46.571  28.234  36.387  1.00  0.00     0.040 A 
ATOM     54  F   UNL A   1      45.789  29.759  34.789  1.00  0.00    -0.206 F 
ATOM     55  C   UNL A   1      46.372  27.112  37.187  1.00  0.00     0.006 A 
ENDBRANCH  27  48
BRANCH  39  56
ATOM     56  C   UNL A   1      39.139  32.538  36.121  1.00  0.00     0.057 A 
ATOM     57  C   UNL A   1      38.273  32.039  37.102  1.00  0.00     0.134 A 
ATOM     58  C   UNL A   1      39.617  33.844  36.274  1.00  0.00     0.134 A 
ATOM     59  F   UNL A   1      37.771  30.799  37.001  1.00  0.00    -0.206 F 
ATOM     60  C   UNL A   1      37.875  32.824  38.184  1.00  0.00     0.040 A 
ATOM     61  C   UNL A   1      39.249  34.628  37.366  1.00  0.00     0.040 A 
ATOM     62  F   UNL A   1      40.456  34.373  35.371  1.00  0.00    -0.206 F 
ATOM     63  C   UNL A   1      38.370  34.120  38.321  1.00  0.00     0.006 A 
ENDBRANCH  39  56
ENDBRANCH  13  14
ENDBRANCH   6   8
ENDBRANCH   5   6
ENDBRANCH   4   5
ENDBRANCH   3   4
ENDBRANCH   2   3
ENDBRANCH   1   2
BRANCH   1  64
ATOM     64  C   UNL A   1      40.795  20.234  26.930  1.00  0.00     0.261 C 
BRANCH  64  65
ATOM     65  O   UNL A   1      39.884  20.872  26.026  1.00  0.00    -0.460 OA
BRANCH  65  66
ATOM     66  C   UNL A   1      39.693  22.200  26.254  1.00  0.00     0.338 C 
ATOM     67  O   UNL A   1      40.534  23.029  26.530  1.00  0.00    -0.246 OA
BRANCH  66  68
ATOM     68  C   UNL A   1      38.285  22.509  25.903  1.00  0.00     0.060 A 
ATOM     69  C   UNL A   1      37.458  21.492  25.412  1.00  0.00     0.016 A 
ATOM     70  C   UNL A   1      37.765  23.782  26.121  1.00  0.00     0.016 A 
ATOM     71  C   UNL A   1      36.131  21.773  25.070  1.00  0.00     0.005 A 
ATOM     72  C   UNL A   1      36.443  24.053  25.798  1.00  0.00     0.005 A 
ATOM     73  C   UNL A   1      35.627  23.076  25.203  1.00  0.00    -0.043 A 
BRANCH  73  74
ATOM     74  C   UNL A   1      34.321  23.453  24.521  1.00  0.00     0.039 C 
ATOM     75  C   UNL A   1      33.879  22.556  23.352  1.00  0.00     0.012 C 
ATOM     76  C   UNL A   1      33.159  23.566  25.520  1.00  0.00     0.128 C 
ATOM     77  C   UNL A   1      32.576  23.094  22.726  1.00  0.00     0.022 C 
ATOM     78  N   UNL A   1      31.997  24.135  24.882  1.00  0.00    -0.338 N 
ATOM     79  C   UNL A   1      31.472  23.358  23.761  1.00  0.00     0.120 C 
BRANCH  78  80
ATOM     80  C   UNL A   1      31.576  25.380  25.322  1.00  0.00     0.253 C 
ATOM     81  O   UNL A   1      31.255  25.636  26.479  1.00  0.00    -0.269 OA
BRANCH  80  82
ATOM     82  C   UNL A   1      31.486  26.471  24.353  1.00  0.00     0.040 A 
ATOM     83  C   UNL A   1      32.635  26.845  23.660  1.00  0.00     0.016 A 
ATOM     84  C   UNL A   1      30.274  27.162  24.235  1.00  0.00     0.024 A 
ATOM     85  C   UNL A   1      32.594  27.920  22.775  1.00  0.00     0.027 A 
ATOM     86  C   UNL A   1      30.230  28.263  23.366  1.00  0.00     0.000 A 
ATOM     87  C   UNL A   1      31.379  28.607  22.650  1.00  0.00     0.045 A 
ATOM     88  C   UNL A   1      29.223  29.206  23.026  1.00  0.00     0.028 A 
ATOM     89  N   UNL A   1      31.056  29.701  21.877  1.00  0.00    -0.361 N 
ATOM     90  C   UNL A   1      29.762  30.080  22.112  1.00  0.00     0.083 A 
ATOM     91  H   UNL A   1      31.669  30.145  21.249  1.00  0.00     0.166 HD
ENDBRANCH  80  82
ENDBRANCH  78  80
ENDBRANCH  73  74
ENDBRANCH  66  68
ENDBRANCH  65  66
ENDBRANCH  64  65
ENDBRANCH   1  64
TORSDOF 17
ENDMDL
