MODEL 1
REMARK VINA RESULT:     -11.3      0.000      0.000
REMARK SMILES Cc1ccc(NC(=O)C[C@H]([NH2+]Cc2cccnc2)C(=O)OCCOCCOC(=O)c2ccc(-c3c4nc(c(-c5c(F)cccc5F)c5ccc([nH]5)c(-c5c(F)cccc5F)c5nc(c(-c6c(F)cccc6F)c6ccc3[nH]6)C=C5)C=C4)cc2)cc1Cl
REMARK SMILES IDX 23 1 22 2 21 3 19 4 20 5 10 6 9 7 7 8 6 9 8 11 5 12 1 13
REMARK SMILES IDX 2 14 3 15 85 16 4 17 84 18 86 19 11 20 12 23 13 24 14 25
REMARK SMILES IDX 18 26 15 27 17 28 16 29 24 30 25 31 26 32 27 33 28 34 29 35
REMARK SMILES IDX 30 36 31 37 83 38 32 39 82 40 33 41 34 42 35 43 76 44 36 45
REMARK SMILES IDX 81 46 75 47 77 48 37 49 80 50 74 51 73 52 38 54 64 55 47 56
REMARK SMILES IDX 63 57 48 58 51 59 62 60 78 61 49 62 50 63 61 65 79 66 52 67
REMARK SMILES IDX 39 68 40 69 45 70 41 71 42 72 44 73 46 74 43 75 65 76 66 77
REMARK SMILES IDX 71 78 67 79 68 80 70 81 72 82 69 83 53 84 54 85 59 86 55 87
REMARK SMILES IDX 56 88 58 89 60 90 57 91
REMARK H PARENT 6 10 11 21 11 22 77 53 51 64
REMARK Flexibility Score: inf
ROOT
ATOM      1  C   UNL A   1      36.522  23.297  24.614  1.00  0.00     0.202 C 
ENDROOT
BRANCH   1   2
ATOM      2  C   UNL A   1      35.284  24.083  24.187  1.00  0.00     0.261 C 
BRANCH   2   3
ATOM      3  O   UNL A   1      34.097  23.269  24.211  1.00  0.00    -0.459 OA
BRANCH   3   4
ATOM      4  C   UNL A   1      33.472  23.004  23.037  1.00  0.00     0.365 C 
ATOM      5  O   UNL A   1      33.877  23.356  21.934  1.00  0.00    -0.245 OA
BRANCH   4   6
ATOM      6  C   UNL A   1      32.192  22.163  23.227  1.00  0.00     0.303 C 
BRANCH   6   7
ATOM      7  C   UNL A   1      31.032  22.959  23.829  1.00  0.00     0.177 C 
BRANCH   7   8
ATOM      8  C   UNL A   1      30.799  23.224  25.311  1.00  0.00     0.231 C 
ATOM      9  N   UNL A   1      31.153  24.343  25.993  1.00  0.00    -0.326 N 
ATOM     10  H   UNL A   1      31.388  24.134  26.925  1.00  0.00     0.169 HD
ATOM     11  O   UNL A   1      30.476  22.255  26.020  1.00  0.00    -0.274 OA
BRANCH   9  12
ATOM     12  C   UNL A   1      31.275  25.716  25.732  1.00  0.00     0.042 A 
ATOM     13  C   UNL A   1      31.722  30.019  25.334  1.00  0.00     0.046 C 
ATOM     14  C   UNL A   1      31.559  28.531  25.459  1.00  0.00    -0.032 A 
ATOM     15  C   UNL A   1      32.271  27.829  26.438  1.00  0.00     0.007 A 
ATOM     16  C   UNL A   1      30.700  27.804  24.629  1.00  0.00     0.046 A 
ATOM     17  C   UNL A   1      32.126  26.443  26.571  1.00  0.00     0.026 A 
ATOM     18  C   UNL A   1      30.527  26.422  24.803  1.00  0.00     0.047 A 
ATOM     19  Cl  UNL A   1      29.819  28.584  23.361  1.00  0.00    -0.084 Cl
ENDBRANCH   9  12
ENDBRANCH   7   8
ENDBRANCH   6   7
BRANCH   6  20
ATOM     20  N   UNL A   1      32.484  20.864  23.873  1.00  0.00    -0.330 N 
ATOM     21  H   UNL A   1      31.923  20.800  24.722  1.00  0.00     0.347 HD
ATOM     22  H   UNL A   1      33.489  20.854  24.048  1.00  0.00     0.347 HD
BRANCH  20  23
ATOM     23  C   UNL A   1      32.201  19.686  23.052  1.00  0.00     0.299 C 
BRANCH  23  24
ATOM     24  C   UNL A   1      32.728  18.431  23.695  1.00  0.00     0.024 A 
ATOM     25  C   UNL A   1      33.498  17.504  22.988  1.00  0.00     0.013 A 
ATOM     26  C   UNL A   1      32.495  18.160  25.043  1.00  0.00     0.120 A 
ATOM     27  C   UNL A   1      33.983  16.368  23.634  1.00  0.00     0.021 A 
ATOM     28  N   UNL A   1      32.943  17.061  25.695  1.00  0.00    -0.264 NA
ATOM     29  C   UNL A   1      33.683  16.193  24.975  1.00  0.00     0.111 A 
ENDBRANCH  23  24
ENDBRANCH  20  23
ENDBRANCH   6  20
ENDBRANCH   4   6
ENDBRANCH   3   4
ENDBRANCH   2   3
ENDBRANCH   1   2
BRANCH   1  30
ATOM     30  O   UNL A   1      36.522  21.969  24.090  1.00  0.00    -0.374 OA
BRANCH  30  31
ATOM     31  C   UNL A   1      36.512  20.928  25.071  1.00  0.00     0.202 C 
BRANCH  31  32
ATOM     32  C   UNL A   1      37.812  20.125  25.048  1.00  0.00     0.261 C 
BRANCH  32  33
ATOM     33  O   UNL A   1      38.930  21.029  25.134  1.00  0.00    -0.460 OA
BRANCH  33  34
ATOM     34  C   UNL A   1      39.798  20.758  26.126  1.00  0.00     0.338 C 
ATOM     35  O   UNL A   1      40.387  19.705  26.334  1.00  0.00    -0.246 OA
BRANCH  34  36
ATOM     36  C   UNL A   1      40.069  21.979  26.899  1.00  0.00     0.060 A 
ATOM     37  C   UNL A   1      39.392  23.143  26.528  1.00  0.00     0.016 A 
ATOM     38  C   UNL A   1      41.073  22.020  27.868  1.00  0.00     0.016 A 
ATOM     39  C   UNL A   1      39.784  24.369  27.061  1.00  0.00     0.010 A 
ATOM     40  C   UNL A   1      41.449  23.249  28.423  1.00  0.00     0.010 A 
ATOM     41  C   UNL A   1      40.852  24.438  27.970  1.00  0.00    -0.014 A 
BRANCH  41  42
ATOM     42  C   UNL A   1      41.453  25.766  28.268  1.00  0.00     0.031 A 
ATOM     43  C   UNL A   1      42.823  26.089  27.727  1.00  0.00     0.074 A 
ATOM     44  C   UNL A   1      40.759  26.708  28.930  1.00  0.00     0.049 A 
ATOM     45  N   UNL A   1      43.490  27.216  27.774  1.00  0.00    -0.248 NA
ATOM     46  C   UNL A   1      43.541  24.999  27.046  1.00  0.00     0.031 C 
ATOM     47  C   UNL A   1      39.425  26.532  29.502  1.00  0.00     0.029 A 
ATOM     48  N   UNL A   1      41.080  28.012  29.215  1.00  0.00    -0.354 N 
ATOM     49  C   UNL A   1      44.699  26.968  27.133  1.00  0.00     0.074 A 
ATOM     50  C   UNL A   1      44.695  25.575  26.747  1.00  0.00     0.031 C 
ATOM     51  C   UNL A   1      39.033  27.693  30.054  1.00  0.00     0.029 A 
ATOM     52  C   UNL A   1      40.089  28.689  29.882  1.00  0.00     0.049 A 
ATOM     53  H   UNL A   1      41.939  28.423  28.966  1.00  0.00     0.167 HD
ATOM     54  C   UNL A   1      45.711  27.826  26.863  1.00  0.00     0.037 A 
ATOM     55  C   UNL A   1      40.034  29.970  30.296  1.00  0.00     0.037 A 
ATOM     56  C   UNL A   1      45.715  29.220  27.215  1.00  0.00     0.049 A 
ATOM     57  C   UNL A   1      41.177  30.903  29.994  1.00  0.00     0.074 A 
ATOM     58  C   UNL A   1      46.684  30.173  26.954  1.00  0.00     0.029 A 
ATOM     59  N   UNL A   1      44.698  29.860  27.903  1.00  0.00    -0.354 N 
ATOM     60  N   UNL A   1      42.291  30.665  29.345  1.00  0.00    -0.248 NA
ATOM     61  C   UNL A   1      41.045  32.288  30.469  1.00  0.00     0.031 C 
ATOM     62  C   UNL A   1      46.266  31.387  27.514  1.00  0.00     0.029 A 
ATOM     63  C   UNL A   1      45.021  31.194  28.090  1.00  0.00     0.049 A 
ATOM     64  H   UNL A   1      43.868  29.431  28.215  1.00  0.00     0.167 HD
ATOM     65  C   UNL A   1      42.977  31.873  29.311  1.00  0.00     0.074 A 
ATOM     66  C   UNL A   1      42.149  32.845  29.994  1.00  0.00     0.031 C 
ATOM     67  C   UNL A   1      44.184  32.153  28.762  1.00  0.00     0.037 A 
BRANCH  54  68
ATOM     68  C   UNL A   1      46.908  27.273  26.147  1.00  0.00     0.057 A 
ATOM     69  C   UNL A   1      47.964  26.664  26.839  1.00  0.00     0.134 A 
ATOM     70  C   UNL A   1      46.995  27.327  24.751  1.00  0.00     0.134 A 
ATOM     71  F   UNL A   1      47.947  26.593  28.178  1.00  0.00    -0.206 F 
ATOM     72  C   UNL A   1      49.074  26.149  26.167  1.00  0.00     0.040 A 
ATOM     73  C   UNL A   1      48.089  26.795  24.067  1.00  0.00     0.040 A 
ATOM     74  F   UNL A   1      46.016  27.894  24.029  1.00  0.00    -0.206 F 
ATOM     75  C   UNL A   1      49.135  26.208  24.776  1.00  0.00     0.006 A 
ENDBRANCH  54  68
BRANCH  55  76
ATOM     76  C   UNL A   1      38.839  30.462  31.023  1.00  0.00     0.057 A 
ATOM     77  C   UNL A   1      38.736  30.345  32.414  1.00  0.00     0.134 A 
ATOM     78  C   UNL A   1      37.763  31.040  30.341  1.00  0.00     0.134 A 
ATOM     79  F   UNL A   1      39.726  29.776  33.119  1.00  0.00    -0.206 F 
ATOM     80  C   UNL A   1      37.599  30.773  33.101  1.00  0.00     0.040 A 
ATOM     81  C   UNL A   1      36.629  31.492  31.017  1.00  0.00     0.040 A 
ATOM     82  F   UNL A   1      37.803  31.180  29.009  1.00  0.00    -0.206 F 
ATOM     83  C   UNL A   1      36.542  31.352  32.401  1.00  0.00     0.006 A 
ENDBRANCH  55  76
BRANCH  67  84
ATOM     84  C   UNL A   1      44.669  33.569  28.848  1.00  0.00     0.057 A 
ATOM     85  C   UNL A   1      44.355  34.517  27.867  1.00  0.00     0.134 A 
ATOM     86  C   UNL A   1      45.429  33.999  29.943  1.00  0.00     0.134 A 
ATOM     87  F   UNL A   1      43.639  34.168  26.788  1.00  0.00    -0.206 F 
ATOM     88  C   UNL A   1      44.798  35.838  27.961  1.00  0.00     0.040 A 
ATOM     89  C   UNL A   1      45.859  35.321  30.060  1.00  0.00     0.040 A 
ATOM     90  F   UNL A   1      45.757  33.141  30.922  1.00  0.00    -0.206 F 
ATOM     91  C   UNL A   1      45.548  36.244  29.063  1.00  0.00     0.006 A 
ENDBRANCH  67  84
ENDBRANCH  41  42
ENDBRANCH  34  36
ENDBRANCH  33  34
ENDBRANCH  32  33
ENDBRANCH  31  32
ENDBRANCH  30  31
ENDBRANCH   1  30
TORSDOF 20
ENDMDL
MODEL 2
REMARK VINA RESULT:     -11.3      1.753      2.601
REMARK SMILES Cc1ccc(NC(=O)C[C@H]([NH2+]Cc2cccnc2)C(=O)OCCOCCOC(=O)c2ccc(-c3c4nc(c(-c5c(F)cccc5F)c5ccc([nH]5)c(-c5c(F)cccc5F)c5nc(c(-c6c(F)cccc6F)c6ccc3[nH]6)C=C5)C=C4)cc2)cc1Cl
REMARK SMILES IDX 23 1 22 2 21 3 19 4 20 5 10 6 9 7 7 8 6 9 8 11 5 12 1 13
REMARK SMILES IDX 2 14 3 15 85 16 4 17 84 18 86 19 11 20 12 23 13 24 14 25
REMARK SMILES IDX 18 26 15 27 17 28 16 29 24 30 25 31 26 32 27 33 28 34 29 35
REMARK SMILES IDX 30 36 31 37 83 38 32 39 82 40 33 41 34 42 35 43 76 44 36 45
REMARK SMILES IDX 81 46 75 47 77 48 37 49 80 50 74 51 73 52 38 54 64 55 47 56
REMARK SMILES IDX 63 57 48 58 51 59 62 60 78 61 49 62 50 63 61 65 79 66 52 67
REMARK SMILES IDX 39 68 40 69 45 70 41 71 42 72 44 73 46 74 43 75 65 76 66 77
REMARK SMILES IDX 71 78 67 79 68 80 70 81 72 82 69 83 53 84 54 85 59 86 55 87
REMARK SMILES IDX 56 88 58 89 60 90 57 91
REMARK H PARENT 6 10 11 21 11 22 77 53 51 64
REMARK Flexibility Score: inf
ROOT
ATOM      1  C   UNL A   1      37.121  22.868  25.352  1.00  0.00     0.202 C 
ENDROOT
BRANCH   1   2
ATOM      2  C   UNL A   1      35.919  23.716  24.941  1.00  0.00     0.261 C 
BRANCH   2   3
ATOM      3  O   UNL A   1      34.747  22.910  24.714  1.00  0.00    -0.459 OA
BRANCH   3   4
ATOM      4  C   UNL A   1      34.225  22.869  23.463  1.00  0.00     0.365 C 
ATOM      5  O   UNL A   1      34.764  23.334  22.465  1.00  0.00    -0.245 OA
BRANCH   4   6
ATOM      6  C   UNL A   1      32.871  22.129  23.413  1.00  0.00     0.303 C 
BRANCH   6   7
ATOM      7  C   UNL A   1      31.681  23.027  23.755  1.00  0.00     0.177 C 
BRANCH   7   8
ATOM      8  C   UNL A   1      31.102  23.260  25.145  1.00  0.00     0.231 C 
ATOM      9  N   UNL A   1      31.210  24.396  25.880  1.00  0.00    -0.326 N 
ATOM     10  H   UNL A   1      31.244  24.197  26.843  1.00  0.00     0.169 HD
ATOM     11  O   UNL A   1      30.700  22.264  25.771  1.00  0.00    -0.274 OA
BRANCH   9  12
ATOM     12  C   UNL A   1      31.285  25.777  25.642  1.00  0.00     0.042 A 
ATOM     13  C   UNL A   1      31.506  30.103  25.323  1.00  0.00     0.046 C 
ATOM     14  C   UNL A   1      31.424  28.607  25.420  1.00  0.00    -0.032 A 
ATOM     15  C   UNL A   1      31.986  27.945  26.517  1.00  0.00     0.007 A 
ATOM     16  C   UNL A   1      30.787  27.832  24.445  1.00  0.00     0.046 A 
ATOM     17  C   UNL A   1      31.913  26.551  26.624  1.00  0.00     0.026 A 
ATOM     18  C   UNL A   1      30.679  26.441  24.588  1.00  0.00     0.047 A 
ATOM     19  Cl  UNL A   1      30.108  28.564  23.033  1.00  0.00    -0.084 Cl
ENDBRANCH   9  12
ENDBRANCH   7   8
ENDBRANCH   6   7
BRANCH   6  20
ATOM     20  N   UNL A   1      32.930  20.838  24.133  1.00  0.00    -0.330 N 
ATOM     21  H   UNL A   1      32.515  20.971  25.055  1.00  0.00     0.347 HD
ATOM     22  H   UNL A   1      33.916  20.575  24.166  1.00  0.00     0.347 HD
BRANCH  20  23
ATOM     23  C   UNL A   1      32.233  19.729  23.478  1.00  0.00     0.299 C 
BRANCH  23  24
ATOM     24  C   UNL A   1      32.773  18.399  23.930  1.00  0.00     0.024 A 
ATOM     25  C   UNL A   1      33.538  17.586  23.090  1.00  0.00     0.013 A 
ATOM     26  C   UNL A   1      32.556  17.938  25.228  1.00  0.00     0.120 A 
ATOM     27  C   UNL A   1      34.035  16.373  23.563  1.00  0.00     0.021 A 
ATOM     28  N   UNL A   1      33.015  16.760  25.713  1.00  0.00    -0.264 NA
ATOM     29  C   UNL A   1      33.750  16.007  24.869  1.00  0.00     0.111 A 
ENDBRANCH  23  24
ENDBRANCH  20  23
ENDBRANCH   6  20
ENDBRANCH   4   6
ENDBRANCH   3   4
ENDBRANCH   2   3
ENDBRANCH   1   2
BRANCH   1  30
ATOM     30  O   UNL A   1      37.411  21.849  24.395  1.00  0.00    -0.374 OA
BRANCH  30  31
ATOM     31  C   UNL A   1      37.279  20.508  24.876  1.00  0.00     0.202 C 
BRANCH  31  32
ATOM     32  C   UNL A   1      38.631  19.797  24.928  1.00  0.00     0.261 C 
BRANCH  32  33
ATOM     33  O   UNL A   1      39.347  20.224  26.102  1.00  0.00    -0.460 OA
BRANCH  33  34
ATOM     34  C   UNL A   1      40.654  19.904  26.111  1.00  0.00     0.338 C 
ATOM     35  O   UNL A   1      41.175  18.885  25.676  1.00  0.00    -0.246 OA
BRANCH  34  36
ATOM     36  C   UNL A   1      41.442  21.038  26.616  1.00  0.00     0.060 A 
ATOM     37  C   UNL A   1      41.551  21.185  28.000  1.00  0.00     0.016 A 
ATOM     38  C   UNL A   1      41.937  22.020  25.757  1.00  0.00     0.016 A 
ATOM     39  C   UNL A   1      42.075  22.363  28.530  1.00  0.00     0.010 A 
ATOM     40  C   UNL A   1      42.488  23.192  26.289  1.00  0.00     0.010 A 
ATOM     41  C   UNL A   1      42.496  23.397  27.679  1.00  0.00    -0.014 A 
BRANCH  41  42
ATOM     42  C   UNL A   1      42.741  24.745  28.259  1.00  0.00     0.031 A 
ATOM     43  C   UNL A   1      44.159  25.177  28.539  1.00  0.00     0.074 A 
ATOM     44  C   UNL A   1      41.731  25.611  28.452  1.00  0.00     0.049 A 
ATOM     45  N   UNL A   1      44.608  26.339  28.942  1.00  0.00    -0.248 NA
ATOM     46  C   UNL A   1      45.210  24.165  28.343  1.00  0.00     0.031 C 
ATOM     47  C   UNL A   1      40.316  25.327  28.219  1.00  0.00     0.029 A 
ATOM     48  N   UNL A   1      41.748  26.919  28.872  1.00  0.00    -0.354 N 
ATOM     49  C   UNL A   1      45.988  26.196  29.048  1.00  0.00     0.074 A 
ATOM     50  C   UNL A   1      46.298  24.825  28.712  1.00  0.00     0.031 C 
ATOM     51  C   UNL A   1      39.601  26.435  28.481  1.00  0.00     0.029 A 
ATOM     52  C   UNL A   1      40.506  27.501  28.907  1.00  0.00     0.049 A 
ATOM     53  H   UNL A   1      42.573  27.393  29.124  1.00  0.00     0.167 HD
ATOM     54  C   UNL A   1      46.918  27.126  29.368  1.00  0.00     0.037 A 
ATOM     55  C   UNL A   1      40.141  28.756  29.235  1.00  0.00     0.037 A 
ATOM     56  C   UNL A   1      46.626  28.500  29.675  1.00  0.00     0.049 A 
ATOM     57  C   UNL A   1      41.192  29.771  29.597  1.00  0.00     0.074 A 
ATOM     58  C   UNL A   1      47.508  29.523  29.979  1.00  0.00     0.029 A 
ATOM     59  N   UNL A   1      45.353  29.044  29.714  1.00  0.00    -0.354 N 
ATOM     60  N   UNL A   1      42.495  29.633  29.645  1.00  0.00    -0.248 NA
ATOM     61  C   UNL A   1      40.721  31.122  29.935  1.00  0.00     0.031 C 
ATOM     62  C   UNL A   1      46.765  30.681  30.234  1.00  0.00     0.029 A 
ATOM     63  C   UNL A   1      45.424  30.386  30.052  1.00  0.00     0.049 A 
ATOM     64  H   UNL A   1      44.521  28.551  29.530  1.00  0.00     0.167 HD
ATOM     65  C   UNL A   1      42.998  30.881  29.991  1.00  0.00     0.074 A 
ATOM     66  C   UNL A   1      41.862  31.768  30.129  1.00  0.00     0.031 C 
ATOM     67  C   UNL A   1      44.286  31.259  30.176  1.00  0.00     0.037 A 
BRANCH  54  68
ATOM     68  C   UNL A   1      48.351  26.682  29.402  1.00  0.00     0.057 A 
ATOM     69  C   UNL A   1      49.187  26.808  28.284  1.00  0.00     0.134 A 
ATOM     70  C   UNL A   1      48.907  26.147  30.569  1.00  0.00     0.134 A 
ATOM     71  F   UNL A   1      48.711  27.301  27.131  1.00  0.00    -0.206 F 
ATOM     72  C   UNL A   1      50.521  26.396  28.322  1.00  0.00     0.040 A 
ATOM     73  C   UNL A   1      50.244  25.752  30.626  1.00  0.00     0.040 A 
ATOM     74  F   UNL A   1      48.160  26.002  31.675  1.00  0.00    -0.206 F 
ATOM     75  C   UNL A   1      51.054  25.873  29.498  1.00  0.00     0.006 A 
ENDBRANCH  54  68
BRANCH  55  76
ATOM     76  C   UNL A   1      38.708  29.139  29.211  1.00  0.00     0.057 A 
ATOM     77  C   UNL A   1      38.102  29.611  28.040  1.00  0.00     0.134 A 
ATOM     78  C   UNL A   1      37.918  29.062  30.362  1.00  0.00     0.134 A 
ATOM     79  F   UNL A   1      38.817  29.730  26.911  1.00  0.00    -0.206 F 
ATOM     80  C   UNL A   1      36.764  30.007  28.019  1.00  0.00     0.040 A 
ATOM     81  C   UNL A   1      36.573  29.434  30.351  1.00  0.00     0.040 A 
ATOM     82  F   UNL A   1      38.441  28.618  31.514  1.00  0.00    -0.206 F 
ATOM     83  C   UNL A   1      35.994  29.915  29.177  1.00  0.00     0.006 A 
ENDBRANCH  55  76
BRANCH  67  84
ATOM     84  C   UNL A   1      44.540  32.697  30.516  1.00  0.00     0.057 A 
ATOM     85  C   UNL A   1      44.624  33.139  31.842  1.00  0.00     0.134 A 
ATOM     86  C   UNL A   1      44.739  33.646  29.504  1.00  0.00     0.134 A 
ATOM     87  F   UNL A   1      44.433  32.282  32.857  1.00  0.00    -0.206 F 
ATOM     88  C   UNL A   1      44.875  34.477  32.150  1.00  0.00     0.040 A 
ATOM     89  C   UNL A   1      45.013  34.982  29.800  1.00  0.00     0.040 A 
ATOM     90  F   UNL A   1      44.681  33.286  28.213  1.00  0.00    -0.206 F 
ATOM     91  C   UNL A   1      45.076  35.401  31.128  1.00  0.00     0.006 A 
ENDBRANCH  67  84
ENDBRANCH  41  42
ENDBRANCH  34  36
ENDBRANCH  33  34
ENDBRANCH  32  33
ENDBRANCH  31  32
ENDBRANCH  30  31
ENDBRANCH   1  30
TORSDOF 20
ENDMDL
MODEL 3
REMARK VINA RESULT:     -11.2      4.108      7.695
REMARK SMILES Cc1ccc(NC(=O)C[C@H]([NH2+]Cc2cccnc2)C(=O)OCCOCCOC(=O)c2ccc(-c3c4nc(c(-c5c(F)cccc5F)c5ccc([nH]5)c(-c5c(F)cccc5F)c5nc(c(-c6c(F)cccc6F)c6ccc3[nH]6)C=C5)C=C4)cc2)cc1Cl
REMARK SMILES IDX 23 1 22 2 21 3 19 4 20 5 10 6 9 7 7 8 6 9 8 11 5 12 1 13
REMARK SMILES IDX 2 14 3 15 85 16 4 17 84 18 86 19 11 20 12 23 13 24 14 25
REMARK SMILES IDX 18 26 15 27 17 28 16 29 24 30 25 31 26 32 27 33 28 34 29 35
REMARK SMILES IDX 30 36 31 37 83 38 32 39 82 40 33 41 34 42 35 43 76 44 36 45
REMARK SMILES IDX 81 46 75 47 77 48 37 49 80 50 74 51 73 52 38 54 64 55 47 56
REMARK SMILES IDX 63 57 48 58 51 59 62 60 78 61 49 62 50 63 61 65 79 66 52 67
REMARK SMILES IDX 39 68 40 69 45 70 41 71 42 72 44 73 46 74 43 75 65 76 66 77
REMARK SMILES IDX 71 78 67 79 68 80 70 81 72 82 69 83 53 84 54 85 59 86 55 87
REMARK SMILES IDX 56 88 58 89 60 90 57 91
REMARK H PARENT 6 10 11 21 11 22 77 53 51 64
REMARK Flexibility Score: inf
ROOT
ATOM      1  C   UNL A   1      38.949  21.426  25.749  1.00  0.00     0.202 C 
ENDROOT
BRANCH   1   2
ATOM      2  C   UNL A   1      38.128  22.714  25.754  1.00  0.00     0.261 C 
BRANCH   2   3
ATOM      3  O   UNL A   1      36.748  22.473  25.422  1.00  0.00    -0.459 OA
BRANCH   3   4
ATOM      4  C   UNL A   1      36.316  22.803  24.180  1.00  0.00     0.365 C 
ATOM      5  O   UNL A   1      36.988  22.711  23.158  1.00  0.00    -0.245 OA
BRANCH   4   6
ATOM      6  C   UNL A   1      34.849  23.283  24.174  1.00  0.00     0.303 C 
BRANCH   6   7
ATOM      7  C   UNL A   1      34.236  23.330  22.773  1.00  0.00     0.177 C 
BRANCH   7   8
ATOM      8  C   UNL A   1      32.778  23.061  22.422  1.00  0.00     0.231 C 
ATOM      9  N   UNL A   1      31.714  23.834  22.759  1.00  0.00    -0.326 N 
ATOM     10  H   UNL A   1      30.907  23.289  22.903  1.00  0.00     0.169 HD
ATOM     11  O   UNL A   1      32.492  21.927  22.000  1.00  0.00    -0.274 OA
BRANCH   9  12
ATOM     12  C   UNL A   1      31.450  25.197  22.957  1.00  0.00     0.042 A 
ATOM     13  C   UNL A   1      30.229  29.331  23.498  1.00  0.00     0.046 C 
ATOM     14  C   UNL A   1      30.665  27.906  23.307  1.00  0.00    -0.032 A 
ATOM     15  C   UNL A   1      29.802  26.860  23.648  1.00  0.00     0.007 A 
ATOM     16  C   UNL A   1      31.919  27.575  22.783  1.00  0.00     0.046 A 
ATOM     17  C   UNL A   1      30.191  25.526  23.472  1.00  0.00     0.026 A 
ATOM     18  C   UNL A   1      32.279  26.237  22.566  1.00  0.00     0.047 A 
ATOM     19  Cl  UNL A   1      33.066  28.806  22.380  1.00  0.00    -0.084 Cl
ENDBRANCH   9  12
ENDBRANCH   7   8
ENDBRANCH   6   7
BRANCH   6  20
ATOM     20  N   UNL A   1      34.672  24.501  24.995  1.00  0.00    -0.330 N 
ATOM     21  H   UNL A   1      34.623  25.302  24.365  1.00  0.00     0.347 HD
ATOM     22  H   UNL A   1      35.468  24.533  25.631  1.00  0.00     0.347 HD
BRANCH  20  23
ATOM     23  C   UNL A   1      33.474  24.513  25.836  1.00  0.00     0.299 C 
BRANCH  23  24
ATOM     24  C   UNL A   1      33.030  25.920  26.137  1.00  0.00     0.024 A 
ATOM     25  C   UNL A   1      33.827  27.028  25.836  1.00  0.00     0.013 A 
ATOM     26  C   UNL A   1      31.780  26.176  26.700  1.00  0.00     0.120 A 
ATOM     27  C   UNL A   1      33.361  28.312  26.112  1.00  0.00     0.021 A 
ATOM     28  N   UNL A   1      31.305  27.411  26.990  1.00  0.00    -0.264 NA
ATOM     29  C   UNL A   1      32.107  28.451  26.683  1.00  0.00     0.111 A 
ENDBRANCH  23  24
ENDBRANCH  20  23
ENDBRANCH   6  20
ENDBRANCH   4   6
ENDBRANCH   3   4
ENDBRANCH   2   3
ENDBRANCH   1   2
BRANCH   1  30
ATOM     30  O   UNL A   1      40.028  21.473  26.682  1.00  0.00    -0.374 OA
BRANCH  30  31
ATOM     31  C   UNL A   1      41.079  20.533  26.444  1.00  0.00     0.202 C 
BRANCH  31  32
ATOM     32  C   UNL A   1      42.317  21.213  25.863  1.00  0.00     0.261 C 
BRANCH  32  33
ATOM     33  O   UNL A   1      42.626  22.383  26.643  1.00  0.00    -0.460 OA
BRANCH  33  34
ATOM     34  C   UNL A   1      42.828  23.503  25.923  1.00  0.00     0.338 C 
ATOM     35  O   UNL A   1      43.320  23.592  24.806  1.00  0.00    -0.246 OA
BRANCH  34  36
ATOM     36  C   UNL A   1      42.236  24.655  26.618  1.00  0.00     0.060 A 
ATOM     37  C   UNL A   1      42.965  25.845  26.635  1.00  0.00     0.016 A 
ATOM     38  C   UNL A   1      41.062  24.532  27.364  1.00  0.00     0.016 A 
ATOM     39  C   UNL A   1      42.570  26.886  27.474  1.00  0.00     0.010 A 
ATOM     40  C   UNL A   1      40.651  25.587  28.187  1.00  0.00     0.010 A 
ATOM     41  C   UNL A   1      41.442  26.743  28.297  1.00  0.00    -0.014 A 
BRANCH  41  42
ATOM     42  C   UNL A   1      41.234  27.719  29.401  1.00  0.00     0.031 A 
ATOM     43  C   UNL A   1      40.087  28.694  29.312  1.00  0.00     0.074 A 
ATOM     44  C   UNL A   1      41.993  27.683  30.509  1.00  0.00     0.049 A 
ATOM     45  N   UNL A   1      39.659  29.556  30.200  1.00  0.00    -0.248 NA
ATOM     46  C   UNL A   1      39.322  28.704  28.054  1.00  0.00     0.031 C 
ATOM     47  C   UNL A   1      43.130  26.790  30.730  1.00  0.00     0.029 A 
ATOM     48  N   UNL A   1      41.906  28.412  31.671  1.00  0.00    -0.354 N 
ATOM     49  C   UNL A   1      38.581  30.206  29.610  1.00  0.00     0.074 A 
ATOM     50  C   UNL A   1      38.448  29.675  28.271  1.00  0.00     0.031 C 
ATOM     51  C   UNL A   1      43.623  27.010  31.960  1.00  0.00     0.029 A 
ATOM     52  C   UNL A   1      42.844  28.063  32.610  1.00  0.00     0.049 A 
ATOM     53  H   UNL A   1      41.235  29.117  31.815  1.00  0.00     0.167 HD
ATOM     54  C   UNL A   1      37.757  31.141  30.138  1.00  0.00     0.037 A 
ATOM     55  C   UNL A   1      43.045  28.531  33.858  1.00  0.00     0.037 A 
ATOM     56  C   UNL A   1      37.860  31.657  31.476  1.00  0.00     0.049 A 
ATOM     57  C   UNL A   1      42.121  29.578  34.421  1.00  0.00     0.074 A 
ATOM     58  C   UNL A   1      37.049  32.583  32.109  1.00  0.00     0.029 A 
ATOM     59  N   UNL A   1      38.834  31.287  32.389  1.00  0.00    -0.354 N 
ATOM     60  N   UNL A   1      41.079  30.148  33.866  1.00  0.00    -0.248 NA
ATOM     61  C   UNL A   1      42.396  30.036  35.791  1.00  0.00     0.031 C 
ATOM     62  C   UNL A   1      37.553  32.798  33.398  1.00  0.00     0.029 A 
ATOM     63  C   UNL A   1      38.654  31.977  33.576  1.00  0.00     0.049 A 
ATOM     64  H   UNL A   1      39.548  30.631  32.219  1.00  0.00     0.167 HD
ATOM     65  C   UNL A   1      40.559  31.007  34.827  1.00  0.00     0.074 A 
ATOM     66  C   UNL A   1      41.393  30.876  36.003  1.00  0.00     0.031 C 
ATOM     67  C   UNL A   1      39.485  31.830  34.742  1.00  0.00     0.037 A 
BRANCH  54  68
ATOM     68  C   UNL A   1      36.664  31.671  29.258  1.00  0.00     0.057 A 
ATOM     69  C   UNL A   1      35.540  30.899  28.935  1.00  0.00     0.134 A 
ATOM     70  C   UNL A   1      36.722  32.973  28.748  1.00  0.00     0.134 A 
ATOM     71  F   UNL A   1      35.430  29.638  29.380  1.00  0.00    -0.206 F 
ATOM     72  C   UNL A   1      34.523  31.397  28.117  1.00  0.00     0.040 A 
ATOM     73  C   UNL A   1      35.701  33.490  27.949  1.00  0.00     0.040 A 
ATOM     74  F   UNL A   1      37.770  33.765  29.023  1.00  0.00    -0.206 F 
ATOM     75  C   UNL A   1      34.600  32.700  27.628  1.00  0.00     0.006 A 
ENDBRANCH  54  68
BRANCH  55  76
ATOM     76  C   UNL A   1      44.156  27.993  34.679  1.00  0.00     0.057 A 
ATOM     77  C   UNL A   1      43.966  26.897  35.530  1.00  0.00     0.134 A 
ATOM     78  C   UNL A   1      45.427  28.575  34.649  1.00  0.00     0.134 A 
ATOM     79  F   UNL A   1      42.762  26.313  35.619  1.00  0.00    -0.206 F 
ATOM     80  C   UNL A   1      44.998  26.408  36.332  1.00  0.00     0.040 A 
ATOM     81  C   UNL A   1      46.474  28.084  35.430  1.00  0.00     0.040 A 
ATOM     82  F   UNL A   1      45.671  29.627  33.855  1.00  0.00    -0.206 F 
ATOM     83  C   UNL A   1      46.258  27.000  36.280  1.00  0.00     0.006 A 
ENDBRANCH  55  76
BRANCH  67  84
ATOM     84  C   UNL A   1      39.132  32.629  35.961  1.00  0.00     0.057 A 
ATOM     85  C   UNL A   1      38.312  32.111  36.971  1.00  0.00     0.134 A 
ATOM     86  C   UNL A   1      39.647  33.919  36.144  1.00  0.00     0.134 A 
ATOM     87  F   UNL A   1      37.778  30.886  36.851  1.00  0.00    -0.206 F 
ATOM     88  C   UNL A   1      37.998  32.856  38.109  1.00  0.00     0.040 A 
ATOM     89  C   UNL A   1      39.359  34.664  37.288  1.00  0.00     0.040 A 
ATOM     90  F   UNL A   1      40.446  34.470  35.217  1.00  0.00    -0.206 F 
ATOM     91  C   UNL A   1      38.528  34.134  38.273  1.00  0.00     0.006 A 
ENDBRANCH  67  84
ENDBRANCH  41  42
ENDBRANCH  34  36
ENDBRANCH  33  34
ENDBRANCH  32  33
ENDBRANCH  31  32
ENDBRANCH  30  31
ENDBRANCH   1  30
TORSDOF 20
ENDMDL
