MODEL 1
REMARK VINA RESULT:      -9.8      0.000      0.000
REMARK SMILES CC[NH2+]C(C)(C)C(=O)N[C@@](C)(C(=O)OCCOCCOC(=O)c1ccc(-c2c3nc(c(-c4c(F)cccc4F)c4ccc([nH]4)c(-c4c(F)cccc4F)c4nc(c(-c5c(F)cccc5F)c5ccc2[nH]5)C=C4)C=C3)cc1)C(F)(F)F
REMARK SMILES IDX 16 1 15 2 14 3 12 4 13 5 10 6 11 7 9 8 7 9 8 10 4 12 5 13
REMARK SMILES IDX 6 14 3 15 2 18 1 19 77 20 78 21 79 22 80 23 17 24 18 25
REMARK SMILES IDX 19 26 20 27 21 28 22 29 23 30 24 31 76 32 25 33 75 34 26 35
REMARK SMILES IDX 27 36 28 37 69 38 29 39 74 40 68 41 70 42 30 43 73 44 67 45
REMARK SMILES IDX 66 46 31 48 57 49 40 50 56 51 41 52 44 53 55 54 71 55 42 56
REMARK SMILES IDX 43 57 54 59 72 60 45 61 32 62 33 63 38 64 34 65 35 66 37 67
REMARK SMILES IDX 39 68 36 69 58 70 59 71 64 72 60 73 61 74 63 75 65 76 62 77
REMARK SMILES IDX 46 78 47 79 52 80 48 81 49 82 51 83 53 84 50 85
REMARK H PARENT 9 11 3 16 3 17 70 47 44 58
REMARK Flexibility Score: inf
ROOT
ATOM      1  C   UNL A   1      31.836  29.656  25.941  1.00  0.00     0.202 C 
ENDROOT
BRANCH   1   2
ATOM      2  C   UNL A   1      31.909  28.194  26.398  1.00  0.00     0.261 C 
BRANCH   2   3
ATOM      3  O   UNL A   1      31.778  27.264  25.311  1.00  0.00    -0.461 OA
BRANCH   3   4
ATOM      4  C   UNL A   1      32.956  26.816  24.783  1.00  0.00     0.341 C 
ATOM      5  O   UNL A   1      33.933  26.528  25.464  1.00  0.00    -0.249 OA
BRANCH   4   6
ATOM      6  C   UNL A   1      32.916  26.722  23.241  1.00  0.00     0.231 C 
ATOM      7  C   UNL A   1      31.433  26.613  22.865  1.00  0.00     0.058 C 
BRANCH   6   8
ATOM      8  N   UNL A   1      33.602  25.431  22.799  1.00  0.00    -0.328 N 
ATOM      9  C   UNL A   1      33.706  24.104  23.086  1.00  0.00     0.281 C 
ATOM     10  O   UNL A   1      34.668  23.571  22.516  1.00  0.00    -0.268 OA
ATOM     11  H   UNL A   1      34.180  25.632  22.027  1.00  0.00     0.165 HD
BRANCH   9  12
ATOM     12  C   UNL A   1      32.685  23.269  23.928  1.00  0.00     0.169 C 
ATOM     13  C   UNL A   1      33.334  21.942  24.350  1.00  0.00     0.090 C 
ATOM     14  C   UNL A   1      31.383  23.071  23.134  1.00  0.00     0.090 C 
BRANCH  12  15
ATOM     15  N   UNL A   1      32.196  23.960  25.164  1.00  0.00    -0.334 N 
ATOM     16  H   UNL A   1      32.859  24.707  25.370  1.00  0.00     0.347 HD
ATOM     17  H   UNL A   1      31.247  24.245  24.925  1.00  0.00     0.347 HD
BRANCH  15  18
ATOM     18  C   UNL A   1      32.030  23.184  26.391  1.00  0.00     0.257 C 
ATOM     19  C   UNL A   1      30.537  23.003  26.659  1.00  0.00     0.071 C 
ENDBRANCH  15  18
ENDBRANCH  12  15
ENDBRANCH   9  12
ENDBRANCH   6   8
BRANCH   6  20
ATOM     20  C   UNL A   1      33.495  28.094  22.851  1.00  0.00     0.422 C 
ATOM     21  F   UNL A   1      32.532  29.039  22.750  1.00  0.00    -0.168 F 
ATOM     22  F   UNL A   1      34.397  28.546  23.750  1.00  0.00    -0.168 F 
ATOM     23  F   UNL A   1      34.157  28.067  21.671  1.00  0.00    -0.168 F 
ENDBRANCH   6  20
ENDBRANCH   4   6
ENDBRANCH   3   4
ENDBRANCH   2   3
ENDBRANCH   1   2
BRANCH   1  24
ATOM     24  O   UNL A   1      31.996  30.671  26.927  1.00  0.00    -0.374 OA
BRANCH  24  25
ATOM     25  C   UNL A   1      31.406  31.948  26.683  1.00  0.00     0.202 C 
BRANCH  25  26
ATOM     26  C   UNL A   1      32.279  33.202  26.842  1.00  0.00     0.261 C 
BRANCH  26  27
ATOM     27  O   UNL A   1      32.162  33.823  28.136  1.00  0.00    -0.460 OA
BRANCH  27  28
ATOM     28  C   UNL A   1      33.228  34.584  28.492  1.00  0.00     0.338 C 
ATOM     29  O   UNL A   1      33.240  35.779  28.731  1.00  0.00    -0.246 OA
BRANCH  28  30
ATOM     30  C   UNL A   1      34.403  33.731  28.746  1.00  0.00     0.060 A 
ATOM     31  C   UNL A   1      34.177  32.461  29.293  1.00  0.00     0.016 A 
ATOM     32  C   UNL A   1      35.702  34.210  28.575  1.00  0.00     0.016 A 
ATOM     33  C   UNL A   1      35.251  31.678  29.708  1.00  0.00     0.010 A 
ATOM     34  C   UNL A   1      36.780  33.427  29.006  1.00  0.00     0.010 A 
ATOM     35  C   UNL A   1      36.556  32.174  29.605  1.00  0.00    -0.014 A 
BRANCH  35  36
ATOM     36  C   UNL A   1      37.666  31.441  30.262  1.00  0.00     0.031 A 
ATOM     37  C   UNL A   1      37.967  31.715  31.710  1.00  0.00     0.074 A 
ATOM     38  C   UNL A   1      38.374  30.518  29.587  1.00  0.00     0.049 A 
ATOM     39  N   UNL A   1      38.896  31.203  32.476  1.00  0.00    -0.248 NA
ATOM     40  C   UNL A   1      37.103  32.697  32.388  1.00  0.00     0.031 C 
ATOM     41  C   UNL A   1      38.152  30.134  28.194  1.00  0.00     0.029 A 
ATOM     42  N   UNL A   1      39.430  29.737  29.987  1.00  0.00    -0.354 N 
ATOM     43  C   UNL A   1      38.738  31.807  33.717  1.00  0.00     0.074 A 
ATOM     44  C   UNL A   1      37.634  32.735  33.600  1.00  0.00     0.031 C 
ATOM     45  C   UNL A   1      39.054  29.197  27.851  1.00  0.00     0.029 A 
ATOM     46  C   UNL A   1      39.931  28.936  28.991  1.00  0.00     0.049 A 
ATOM     47  H   UNL A   1      39.792  29.750  30.902  1.00  0.00     0.167 HD
ATOM     48  C   UNL A   1      39.445  31.602  34.853  1.00  0.00     0.037 A 
ATOM     49  C   UNL A   1      40.989  28.104  28.996  1.00  0.00     0.037 A 
ATOM     50  C   UNL A   1      40.532  30.667  34.974  1.00  0.00     0.049 A 
ATOM     51  C   UNL A   1      41.797  27.941  30.257  1.00  0.00     0.074 A 
ATOM     52  C   UNL A   1      41.282  30.357  36.096  1.00  0.00     0.029 A 
ATOM     53  N   UNL A   1      41.028  29.896  33.935  1.00  0.00    -0.354 N 
ATOM     54  N   UNL A   1      41.609  28.483  31.436  1.00  0.00    -0.248 NA
ATOM     55  C   UNL A   1      42.963  27.049  30.188  1.00  0.00     0.031 C 
ATOM     56  C   UNL A   1      42.263  29.433  35.723  1.00  0.00     0.029 A 
ATOM     57  C   UNL A   1      42.095  29.133  34.382  1.00  0.00     0.049 A 
ATOM     58  H   UNL A   1      40.675  29.891  33.016  1.00  0.00     0.167 HD
ATOM     59  C   UNL A   1      42.610  27.973  32.254  1.00  0.00     0.074 A 
ATOM     60  C   UNL A   1      43.398  27.072  31.440  1.00  0.00     0.031 C 
ATOM     61  C   UNL A   1      42.856  28.228  33.562  1.00  0.00     0.037 A 
BRANCH  48  62
ATOM     62  C   UNL A   1      39.087  32.419  36.057  1.00  0.00     0.057 A 
ATOM     63  C   UNL A   1      38.240  31.928  37.060  1.00  0.00     0.134 A 
ATOM     64  C   UNL A   1      39.645  33.689  36.244  1.00  0.00     0.134 A 
ATOM     65  F   UNL A   1      37.664  30.723  36.933  1.00  0.00    -0.206 F 
ATOM     66  C   UNL A   1      37.952  32.679  38.202  1.00  0.00     0.040 A 
ATOM     67  C   UNL A   1      39.381  34.440  37.391  1.00  0.00     0.040 A 
ATOM     68  F   UNL A   1      40.466  34.214  35.324  1.00  0.00    -0.206 F 
ATOM     69  C   UNL A   1      38.532  33.935  38.373  1.00  0.00     0.006 A 
ENDBRANCH  48  62
BRANCH  49  70
ATOM     70  C   UNL A   1      41.372  27.366  27.764  1.00  0.00     0.057 A 
ATOM     71  C   UNL A   1      42.207  27.945  26.802  1.00  0.00     0.134 A 
ATOM     72  C   UNL A   1      40.872  26.087  27.498  1.00  0.00     0.134 A 
ATOM     73  F   UNL A   1      42.697  29.179  26.988  1.00  0.00    -0.206 F 
ATOM     74  C   UNL A   1      42.510  27.289  25.608  1.00  0.00     0.040 A 
ATOM     75  C   UNL A   1      41.186  25.408  26.320  1.00  0.00     0.040 A 
ATOM     76  F   UNL A   1      40.065  25.477  28.380  1.00  0.00    -0.206 F 
ATOM     77  C   UNL A   1      42.000  26.015  25.365  1.00  0.00     0.006 A 
ENDBRANCH  49  70
BRANCH  61  78
ATOM     78  C   UNL A   1      43.993  27.490  34.206  1.00  0.00     0.057 A 
ATOM     79  C   UNL A   1      45.279  28.038  34.284  1.00  0.00     0.134 A 
ATOM     80  C   UNL A   1      43.786  26.235  34.790  1.00  0.00     0.134 A 
ATOM     81  F   UNL A   1      45.545  29.232  33.732  1.00  0.00    -0.206 F 
ATOM     82  C   UNL A   1      46.325  27.353  34.903  1.00  0.00     0.040 A 
ATOM     83  C   UNL A   1      44.817  25.551  35.434  1.00  0.00     0.040 A 
ATOM     84  F   UNL A   1      42.575  25.659  34.759  1.00  0.00    -0.206 F 
ATOM     85  C   UNL A   1      46.094  26.108  35.487  1.00  0.00     0.006 A 
ENDBRANCH  61  78
ENDBRANCH  35  36
ENDBRANCH  28  30
ENDBRANCH  27  28
ENDBRANCH  26  27
ENDBRANCH  25  26
ENDBRANCH  24  25
ENDBRANCH   1  24
TORSDOF 19
ENDMDL
MODEL 2
REMARK VINA RESULT:      -9.8      1.357      2.292
REMARK SMILES CC[NH2+]C(C)(C)C(=O)N[C@@](C)(C(=O)OCCOCCOC(=O)c1ccc(-c2c3nc(c(-c4c(F)cccc4F)c4ccc([nH]4)c(-c4c(F)cccc4F)c4nc(c(-c5c(F)cccc5F)c5ccc2[nH]5)C=C4)C=C3)cc1)C(F)(F)F
REMARK SMILES IDX 16 1 15 2 14 3 12 4 13 5 10 6 11 7 9 8 7 9 8 10 4 12 5 13
REMARK SMILES IDX 6 14 3 15 2 18 1 19 77 20 78 21 79 22 80 23 17 24 18 25
REMARK SMILES IDX 19 26 20 27 21 28 22 29 23 30 24 31 76 32 25 33 75 34 26 35
REMARK SMILES IDX 27 36 28 37 69 38 29 39 74 40 68 41 70 42 30 43 73 44 67 45
REMARK SMILES IDX 66 46 31 48 57 49 40 50 56 51 41 52 44 53 55 54 71 55 42 56
REMARK SMILES IDX 43 57 54 59 72 60 45 61 32 62 33 63 38 64 34 65 35 66 37 67
REMARK SMILES IDX 39 68 36 69 58 70 59 71 64 72 60 73 61 74 63 75 65 76 62 77
REMARK SMILES IDX 46 78 47 79 52 80 48 81 49 82 51 83 53 84 50 85
REMARK H PARENT 9 11 3 16 3 17 70 47 44 58
REMARK Flexibility Score: inf
ROOT
ATOM      1  C   UNL A   1      32.382  29.566  26.152  1.00  0.00     0.202 C 
ENDROOT
BRANCH   1   2
ATOM      2  C   UNL A   1      31.865  29.187  24.759  1.00  0.00     0.261 C 
BRANCH   2   3
ATOM      3  O   UNL A   1      30.929  28.097  24.791  1.00  0.00    -0.461 OA
BRANCH   3   4
ATOM      4  C   UNL A   1      31.481  26.852  24.684  1.00  0.00     0.341 C 
ATOM      5  O   UNL A   1      32.686  26.641  24.754  1.00  0.00    -0.249 OA
BRANCH   4   6
ATOM      6  C   UNL A   1      30.420  25.751  24.461  1.00  0.00     0.231 C 
ATOM      7  C   UNL A   1      29.105  26.486  24.173  1.00  0.00     0.058 C 
BRANCH   6   8
ATOM      8  N   UNL A   1      30.235  24.962  25.755  1.00  0.00    -0.328 N 
ATOM      9  C   UNL A   1      30.698  23.881  26.443  1.00  0.00     0.281 C 
ATOM     10  O   UNL A   1      29.949  23.559  27.376  1.00  0.00    -0.268 OA
ATOM     11  H   UNL A   1      29.523  25.389  26.284  1.00  0.00     0.165 HD
BRANCH   9  12
ATOM     12  C   UNL A   1      32.070  23.167  26.208  1.00  0.00     0.169 C 
ATOM     13  C   UNL A   1      31.920  22.125  25.091  1.00  0.00     0.090 C 
ATOM     14  C   UNL A   1      32.582  22.562  27.527  1.00  0.00     0.090 C 
BRANCH  12  15
ATOM     15  N   UNL A   1      33.188  24.091  25.834  1.00  0.00    -0.334 N 
ATOM     16  H   UNL A   1      33.170  24.187  24.819  1.00  0.00     0.347 HD
ATOM     17  H   UNL A   1      32.999  24.935  26.375  1.00  0.00     0.347 HD
BRANCH  15  18
ATOM     18  C   UNL A   1      34.555  23.736  26.207  1.00  0.00     0.257 C 
ATOM     19  C   UNL A   1      35.491  24.109  25.057  1.00  0.00     0.071 C 
ENDBRANCH  15  18
ENDBRANCH  12  15
ENDBRANCH   9  12
ENDBRANCH   6   8
BRANCH   6  20
ATOM     20  C   UNL A   1      30.971  25.068  23.195  1.00  0.00     0.422 C 
ATOM     21  F   UNL A   1      32.263  24.694  23.345  1.00  0.00    -0.168 F 
ATOM     22  F   UNL A   1      30.275  23.958  22.865  1.00  0.00    -0.168 F 
ATOM     23  F   UNL A   1      30.907  25.863  22.102  1.00  0.00    -0.168 F 
ENDBRANCH   6  20
ENDBRANCH   4   6
ENDBRANCH   3   4
ENDBRANCH   2   3
ENDBRANCH   1   2
BRANCH   1  24
ATOM     24  O   UNL A   1      31.655  30.543  26.889  1.00  0.00    -0.374 OA
BRANCH  24  25
ATOM     25  C   UNL A   1      31.166  31.689  26.193  1.00  0.00     0.202 C 
BRANCH  25  26
ATOM     26  C   UNL A   1      31.756  33.065  26.537  1.00  0.00     0.261 C 
BRANCH  26  27
ATOM     27  O   UNL A   1      32.216  33.169  27.897  1.00  0.00    -0.460 OA
BRANCH  27  28
ATOM     28  C   UNL A   1      33.274  34.002  28.070  1.00  0.00     0.338 C 
ATOM     29  O   UNL A   1      33.255  35.218  28.153  1.00  0.00    -0.246 OA
BRANCH  28  30
ATOM     30  C   UNL A   1      34.497  33.227  28.339  1.00  0.00     0.060 A 
ATOM     31  C   UNL A   1      34.345  31.904  28.775  1.00  0.00     0.016 A 
ATOM     32  C   UNL A   1      35.761  33.818  28.291  1.00  0.00     0.016 A 
ATOM     33  C   UNL A   1      35.453  31.178  29.203  1.00  0.00     0.010 A 
ATOM     34  C   UNL A   1      36.872  33.090  28.734  1.00  0.00     0.010 A 
ATOM     35  C   UNL A   1      36.717  31.780  29.225  1.00  0.00    -0.014 A 
BRANCH  35  36
ATOM     36  C   UNL A   1      37.841  31.087  29.899  1.00  0.00     0.031 A 
ATOM     37  C   UNL A   1      38.106  31.368  31.353  1.00  0.00     0.074 A 
ATOM     38  C   UNL A   1      38.594  30.192  29.234  1.00  0.00     0.049 A 
ATOM     39  N   UNL A   1      39.041  30.889  32.134  1.00  0.00    -0.248 NA
ATOM     40  C   UNL A   1      37.195  32.315  32.017  1.00  0.00     0.031 C 
ATOM     41  C   UNL A   1      38.412  29.805  27.837  1.00  0.00     0.029 A 
ATOM     42  N   UNL A   1      39.672  29.450  29.651  1.00  0.00    -0.354 N 
ATOM     43  C   UNL A   1      38.839  31.483  33.373  1.00  0.00     0.074 A 
ATOM     44  C   UNL A   1      37.704  32.370  33.239  1.00  0.00     0.031 C 
ATOM     45  C   UNL A   1      39.353  28.903  27.508  1.00  0.00     0.029 A 
ATOM     46  C   UNL A   1      40.219  28.671  28.662  1.00  0.00     0.049 A 
ATOM     47  H   UNL A   1      40.018  29.475  30.572  1.00  0.00     0.167 HD
ATOM     48  C   UNL A   1      39.534  31.301  34.520  1.00  0.00     0.037 A 
ATOM     49  C   UNL A   1      41.308  27.879  28.683  1.00  0.00     0.037 A 
ATOM     50  C   UNL A   1      40.652  30.407  34.658  1.00  0.00     0.049 A 
ATOM     51  C   UNL A   1      42.098  27.743  29.959  1.00  0.00     0.074 A 
ATOM     52  C   UNL A   1      41.393  30.122  35.792  1.00  0.00     0.029 A 
ATOM     53  N   UNL A   1      41.194  29.658  33.627  1.00  0.00    -0.354 N 
ATOM     54  N   UNL A   1      41.871  28.274  31.135  1.00  0.00    -0.248 NA
ATOM     55  C   UNL A   1      43.299  26.895  29.907  1.00  0.00     0.031 C 
ATOM     56  C   UNL A   1      42.414  29.236  35.435  1.00  0.00     0.029 A 
ATOM     57  C   UNL A   1      42.281  28.934  34.090  1.00  0.00     0.049 A 
ATOM     58  H   UNL A   1      40.858  29.643  32.701  1.00  0.00     0.167 HD
ATOM     59  C   UNL A   1      42.876  27.800  31.969  1.00  0.00     0.074 A 
ATOM     60  C   UNL A   1      43.711  26.931  31.167  1.00  0.00     0.031 C 
ATOM     61  C   UNL A   1      43.089  28.060  33.282  1.00  0.00     0.037 A 
BRANCH  48  62
ATOM     62  C   UNL A   1      39.124  32.101  35.720  1.00  0.00     0.057 A 
ATOM     63  C   UNL A   1      38.294  31.571  36.716  1.00  0.00     0.134 A 
ATOM     64  C   UNL A   1      39.617  33.398  35.910  1.00  0.00     0.134 A 
ATOM     65  F   UNL A   1      37.780  30.338  36.586  1.00  0.00    -0.206 F 
ATOM     66  C   UNL A   1      37.959  32.307  37.854  1.00  0.00     0.040 A 
ATOM     67  C   UNL A   1      39.306  34.136  37.053  1.00  0.00     0.040 A 
ATOM     68  F   UNL A   1      40.420  33.961  34.996  1.00  0.00    -0.206 F 
ATOM     69  C   UNL A   1      38.474  33.591  38.028  1.00  0.00     0.006 A 
ENDBRANCH  48  62
BRANCH  49  70
ATOM     70  C   UNL A   1      41.739  27.160  27.457  1.00  0.00     0.057 A 
ATOM     71  C   UNL A   1      41.398  25.820  27.245  1.00  0.00     0.134 A 
ATOM     72  C   UNL A   1      42.544  27.781  26.496  1.00  0.00     0.134 A 
ATOM     73  F   UNL A   1      40.650  25.162  28.143  1.00  0.00    -0.206 F 
ATOM     74  C   UNL A   1      41.863  25.115  26.133  1.00  0.00     0.040 A 
ATOM     75  C   UNL A   1      42.996  27.096  25.367  1.00  0.00     0.040 A 
ATOM     76  F   UNL A   1      42.908  29.064  26.642  1.00  0.00    -0.206 F 
ATOM     77  C   UNL A   1      42.663  25.755  25.189  1.00  0.00     0.006 A 
ENDBRANCH  49  70
BRANCH  61  78
ATOM     78  C   UNL A   1      44.242  27.363  33.944  1.00  0.00     0.057 A 
ATOM     79  C   UNL A   1      44.109  26.089  34.510  1.00  0.00     0.134 A 
ATOM     80  C   UNL A   1      45.508  27.960  33.977  1.00  0.00     0.134 A 
ATOM     81  F   UNL A   1      42.919  25.471  34.522  1.00  0.00    -0.206 F 
ATOM     82  C   UNL A   1      45.193  25.442  35.104  1.00  0.00     0.040 A 
ATOM     83  C   UNL A   1      46.605  27.312  34.546  1.00  0.00     0.040 A 
ATOM     84  F   UNL A   1      45.704  29.175  33.443  1.00  0.00    -0.206 F 
ATOM     85  C   UNL A   1      46.447  26.051  35.117  1.00  0.00     0.006 A 
ENDBRANCH  61  78
ENDBRANCH  35  36
ENDBRANCH  28  30
ENDBRANCH  27  28
ENDBRANCH  26  27
ENDBRANCH  25  26
ENDBRANCH  24  25
ENDBRANCH   1  24
TORSDOF 19
ENDMDL
MODEL 3
REMARK VINA RESULT:      -9.7      4.416      9.664
REMARK SMILES CC[NH2+]C(C)(C)C(=O)N[C@@](C)(C(=O)OCCOCCOC(=O)c1ccc(-c2c3nc(c(-c4c(F)cccc4F)c4ccc([nH]4)c(-c4c(F)cccc4F)c4nc(c(-c5c(F)cccc5F)c5ccc2[nH]5)C=C4)C=C3)cc1)C(F)(F)F
REMARK SMILES IDX 16 1 15 2 14 3 12 4 13 5 10 6 11 7 9 8 7 9 8 10 4 12 5 13
REMARK SMILES IDX 6 14 3 15 2 18 1 19 77 20 78 21 79 22 80 23 17 24 18 25
REMARK SMILES IDX 19 26 20 27 21 28 22 29 23 30 24 31 76 32 25 33 75 34 26 35
REMARK SMILES IDX 27 36 28 37 69 38 29 39 74 40 68 41 70 42 30 43 73 44 67 45
REMARK SMILES IDX 66 46 31 48 57 49 40 50 56 51 41 52 44 53 55 54 71 55 42 56
REMARK SMILES IDX 43 57 54 59 72 60 45 61 32 62 33 63 38 64 34 65 35 66 37 67
REMARK SMILES IDX 39 68 36 69 58 70 59 71 64 72 60 73 61 74 63 75 65 76 62 77
REMARK SMILES IDX 46 78 47 79 52 80 48 81 49 82 51 83 53 84 50 85
REMARK H PARENT 9 11 3 16 3 17 70 47 44 58
REMARK Flexibility Score: inf
ROOT
ATOM      1  C   UNL A   1      35.420  21.414  25.981  1.00  0.00     0.202 C 
ENDROOT
BRANCH   1   2
ATOM      2  C   UNL A   1      34.487  21.123  24.799  1.00  0.00     0.261 C 
BRANCH   2   3
ATOM      3  O   UNL A   1      33.986  22.317  24.178  1.00  0.00    -0.461 OA
BRANCH   3   4
ATOM      4  C   UNL A   1      32.635  22.501  24.274  1.00  0.00     0.341 C 
ATOM      5  O   UNL A   1      31.831  21.578  24.315  1.00  0.00    -0.249 OA
BRANCH   4   6
ATOM      6  C   UNL A   1      32.243  23.996  24.319  1.00  0.00     0.231 C 
ATOM      7  C   UNL A   1      30.793  24.064  23.822  1.00  0.00     0.058 C 
BRANCH   6   8
ATOM      8  N   UNL A   1      33.109  24.771  23.329  1.00  0.00    -0.328 N 
ATOM      9  C   UNL A   1      33.315  26.012  22.806  1.00  0.00     0.281 C 
ATOM     10  O   UNL A   1      34.026  25.986  21.792  1.00  0.00    -0.268 OA
ATOM     11  H   UNL A   1      33.752  24.148  22.920  1.00  0.00     0.165 HD
BRANCH   9  12
ATOM     12  C   UNL A   1      32.837  27.361  23.439  1.00  0.00     0.169 C 
ATOM     13  C   UNL A   1      33.230  28.526  22.519  1.00  0.00     0.090 C 
ATOM     14  C   UNL A   1      33.404  27.505  24.862  1.00  0.00     0.090 C 
BRANCH  12  15
ATOM     15  N   UNL A   1      31.361  27.438  23.682  1.00  0.00    -0.334 N 
ATOM     16  H   UNL A   1      30.982  26.506  23.518  1.00  0.00     0.347 HD
ATOM     17  H   UNL A   1      31.288  27.800  24.632  1.00  0.00     0.347 HD
BRANCH  15  18
ATOM     18  C   UNL A   1      30.561  28.371  22.890  1.00  0.00     0.257 C 
ATOM     19  C   UNL A   1      29.086  28.161  23.227  1.00  0.00     0.071 C 
ENDBRANCH  15  18
ENDBRANCH  12  15
ENDBRANCH   9  12
ENDBRANCH   6   8
BRANCH   6  20
ATOM     20  C   UNL A   1      32.333  24.275  25.830  1.00  0.00     0.422 C 
ATOM     21  F   UNL A   1      33.599  24.552  26.218  1.00  0.00    -0.168 F 
ATOM     22  F   UNL A   1      31.568  25.324  26.205  1.00  0.00    -0.168 F 
ATOM     23  F   UNL A   1      31.900  23.236  26.581  1.00  0.00    -0.168 F 
ENDBRANCH   6  20
ENDBRANCH   4   6
ENDBRANCH   3   4
ENDBRANCH   2   3
ENDBRANCH   1   2
BRANCH   1  24
ATOM     24  O   UNL A   1      36.820  21.254  25.779  1.00  0.00    -0.374 OA
BRANCH  24  25
ATOM     25  C   UNL A   1      37.258  20.329  24.784  1.00  0.00     0.202 C 
BRANCH  25  26
ATOM     26  C   UNL A   1      38.542  19.525  25.041  1.00  0.00     0.261 C 
BRANCH  26  27
ATOM     27  O   UNL A   1      39.097  19.735  26.353  1.00  0.00    -0.460 OA
BRANCH  27  28
ATOM     28  C   UNL A   1      40.422  20.029  26.361  1.00  0.00     0.338 C 
ATOM     29  O   UNL A   1      41.329  19.379  25.870  1.00  0.00    -0.246 OA
BRANCH  28  30
ATOM     30  C   UNL A   1      40.643  21.382  26.901  1.00  0.00     0.060 A 
ATOM     31  C   UNL A   1      39.978  22.446  26.278  1.00  0.00     0.016 A 
ATOM     32  C   UNL A   1      41.577  21.620  27.911  1.00  0.00     0.016 A 
ATOM     33  C   UNL A   1      40.274  23.759  26.636  1.00  0.00     0.010 A 
ATOM     34  C   UNL A   1      41.882  22.942  28.259  1.00  0.00     0.010 A 
ATOM     35  C   UNL A   1      41.258  24.016  27.598  1.00  0.00    -0.014 A 
BRANCH  35  36
ATOM     36  C   UNL A   1      41.732  25.406  27.801  1.00  0.00     0.031 A 
ATOM     37  C   UNL A   1      43.067  25.812  27.236  1.00  0.00     0.074 A 
ATOM     38  C   UNL A   1      40.970  26.305  28.447  1.00  0.00     0.049 A 
ATOM     39  N   UNL A   1      43.681  26.966  27.306  1.00  0.00    -0.248 NA
ATOM     40  C   UNL A   1      43.807  24.781  26.490  1.00  0.00     0.031 C 
ATOM     41  C   UNL A   1      39.643  26.045  29.004  1.00  0.00     0.029 A 
ATOM     42  N   UNL A   1      41.208  27.623  28.749  1.00  0.00    -0.354 N 
ATOM     43  C   UNL A   1      44.881  26.796  26.628  1.00  0.00     0.074 A 
ATOM     44  C   UNL A   1      44.918  25.425  26.166  1.00  0.00     0.031 C 
ATOM     45  C   UNL A   1      39.188  27.166  29.590  1.00  0.00     0.029 A 
ATOM     46  C   UNL A   1      40.202  28.213  29.474  1.00  0.00     0.049 A 
ATOM     47  H   UNL A   1      42.024  28.100  28.471  1.00  0.00     0.167 HD
ATOM     48  C   UNL A   1      45.862  27.703  26.406  1.00  0.00     0.037 A 
ATOM     49  C   UNL A   1      40.120  29.450  29.999  1.00  0.00     0.037 A 
ATOM     50  C   UNL A   1      45.818  29.070  26.851  1.00  0.00     0.049 A 
ATOM     51  C   UNL A   1      41.254  30.419  29.788  1.00  0.00     0.074 A 
ATOM     52  C   UNL A   1      46.744  30.076  26.637  1.00  0.00     0.029 A 
ATOM     53  N   UNL A   1      44.796  29.620  27.607  1.00  0.00    -0.354 N 
ATOM     54  N   UNL A   1      42.363  30.261  29.106  1.00  0.00    -0.248 NA
ATOM     55  C   UNL A   1      41.123  31.741  30.420  1.00  0.00     0.031 C 
ATOM     56  C   UNL A   1      46.304  31.224  27.303  1.00  0.00     0.029 A 
ATOM     57  C   UNL A   1      45.083  30.945  27.894  1.00  0.00     0.049 A 
ATOM     58  H   UNL A   1      43.986  29.142  27.897  1.00  0.00     0.167 HD
ATOM     59  C   UNL A   1      43.043  31.469  29.200  1.00  0.00     0.074 A 
ATOM     60  C   UNL A   1      42.219  32.354  29.996  1.00  0.00     0.031 C 
ATOM     61  C   UNL A   1      44.243  31.816  28.673  1.00  0.00     0.037 A 
BRANCH  48  62
ATOM     62  C   UNL A   1      47.083  27.245  25.666  1.00  0.00     0.057 A 
ATOM     63  C   UNL A   1      47.268  27.515  24.304  1.00  0.00     0.134 A 
ATOM     64  C   UNL A   1      48.113  26.579  26.341  1.00  0.00     0.134 A 
ATOM     65  F   UNL A   1      46.312  28.139  23.599  1.00  0.00    -0.206 F 
ATOM     66  C   UNL A   1      48.432  27.128  23.637  1.00  0.00     0.040 A 
ATOM     67  C   UNL A   1      49.289  26.206  25.691  1.00  0.00     0.040 A 
ATOM     68  F   UNL A   1      47.998  26.295  27.647  1.00  0.00    -0.206 F 
ATOM     69  C   UNL A   1      49.450  26.479  24.334  1.00  0.00     0.006 A 
ENDBRANCH  48  62
BRANCH  49  70
ATOM     70  C   UNL A   1      38.933  29.852  30.797  1.00  0.00     0.057 A 
ATOM     71  C   UNL A   1      38.835  29.540  32.157  1.00  0.00     0.134 A 
ATOM     72  C   UNL A   1      37.850  30.512  30.206  1.00  0.00     0.134 A 
ATOM     73  F   UNL A   1      39.829  28.885  32.774  1.00  0.00    -0.206 F 
ATOM     74  C   UNL A   1      37.690  29.846  32.896  1.00  0.00     0.040 A 
ATOM     75  C   UNL A   1      36.710  30.847  30.938  1.00  0.00     0.040 A 
ATOM     76  F   UNL A   1      37.883  30.838  28.905  1.00  0.00    -0.206 F 
ATOM     77  C   UNL A   1      36.624  30.505  32.286  1.00  0.00     0.006 A 
ENDBRANCH  49  70
BRANCH  61  78
ATOM     78  C   UNL A   1      44.715  33.222  28.901  1.00  0.00     0.057 A 
ATOM     79  C   UNL A   1      44.380  34.265  28.030  1.00  0.00     0.134 A 
ATOM     80  C   UNL A   1      45.480  33.540  30.031  1.00  0.00     0.134 A 
ATOM     81  F   UNL A   1      43.662  34.023  26.923  1.00  0.00    -0.206 F 
ATOM     82  C   UNL A   1      44.808  35.573  28.263  1.00  0.00     0.040 A 
ATOM     83  C   UNL A   1      45.892  34.847  30.289  1.00  0.00     0.040 A 
ATOM     84  F   UNL A   1      45.826  32.587  30.910  1.00  0.00    -0.206 F 
ATOM     85  C   UNL A   1      45.560  35.868  29.399  1.00  0.00     0.006 A 
ENDBRANCH  61  78
ENDBRANCH  35  36
ENDBRANCH  28  30
ENDBRANCH  27  28
ENDBRANCH  26  27
ENDBRANCH  25  26
ENDBRANCH  24  25
ENDBRANCH   1  24
TORSDOF 19
ENDMDL
