MODEL 1
REMARK VINA RESULT:     -11.6      0.000      0.000
REMARK SMILES O=C(OCCOCCOC(=O)c1ccc(NS(=O)(=O)c2ccc3c(c2)CCC3)cc1Cl)c1ccc(-c2c3nc(c(-c4c(F)cccc4F)c4ccc([nH]4)c(-c4c(F)cccc4F)c4nc(c(-c5c(F)cccc5F)c5ccc2[nH]5)C=C4)C=C3)cc1
REMARK SMILES IDX 7 1 6 2 5 3 4 4 3 5 2 6 1 7 32 8 33 9 85 10 34 11 84 12
REMARK SMILES IDX 35 13 36 14 37 15 78 16 38 17 83 18 77 19 79 20 39 21 82 22
REMARK SMILES IDX 76 23 75 24 40 26 66 27 49 28 65 29 50 30 53 31 64 32 80 33
REMARK SMILES IDX 51 34 52 35 63 37 81 38 54 39 41 40 42 41 47 42 43 43 44 44
REMARK SMILES IDX 46 45 48 46 45 47 67 48 68 49 73 50 69 51 70 52 72 53 74 54
REMARK SMILES IDX 71 55 55 56 56 57 61 58 57 59 58 60 60 61 62 62 59 63 8 64
REMARK SMILES IDX 9 65 10 66 11 67 12 68 13 69 30 70 14 71 29 72 31 73 15 74
REMARK SMILES IDX 16 75 17 77 18 78 19 79 20 80 21 81 25 82 22 83 24 84 23 85
REMARK SMILES IDX 26 86 28 87 27 88
REMARK H PARENT 79 25 53 36 16 76
REMARK Flexibility Score: inf
ROOT
ATOM      1  C   UNL A   1      32.653  28.920  25.585  1.00  0.00     0.202 C 
ENDROOT
BRANCH   1   2
ATOM      2  O   UNL A   1      31.918  30.151  25.658  1.00  0.00    -0.374 OA
BRANCH   2   3
ATOM      3  C   UNL A   1      32.288  31.009  26.744  1.00  0.00     0.202 C 
BRANCH   3   4
ATOM      4  C   UNL A   1      31.460  32.292  26.877  1.00  0.00     0.261 C 
BRANCH   4   5
ATOM      5  O   UNL A   1      32.315  33.448  26.916  1.00  0.00    -0.460 OA
BRANCH   5   6
ATOM      6  C   UNL A   1      32.968  33.980  27.975  1.00  0.00     0.338 C 
ATOM      7  O   UNL A   1      32.529  35.012  28.481  1.00  0.00    -0.246 OA
BRANCH   6   8
ATOM      8  C   UNL A   1      34.208  33.388  28.562  1.00  0.00     0.060 A 
ATOM      9  C   UNL A   1      35.498  33.870  28.337  1.00  0.00     0.016 A 
ATOM     10  C   UNL A   1      34.052  32.330  29.476  1.00  0.00     0.016 A 
ATOM     11  C   UNL A   1      36.605  33.268  28.918  1.00  0.00     0.010 A 
ATOM     12  C   UNL A   1      35.158  31.764  30.121  1.00  0.00     0.010 A 
ATOM     13  C   UNL A   1      36.444  32.221  29.824  1.00  0.00    -0.014 A 
BRANCH  13  14
ATOM     14  C   UNL A   1      37.663  31.620  30.399  1.00  0.00     0.031 A 
ATOM     15  C   UNL A   1      38.005  31.888  31.832  1.00  0.00     0.074 A 
ATOM     16  C   UNL A   1      38.348  30.715  29.673  1.00  0.00     0.049 A 
ATOM     17  N   UNL A   1      38.976  31.398  32.555  1.00  0.00    -0.248 NA
ATOM     18  C   UNL A   1      37.122  32.815  32.557  1.00  0.00     0.031 C 
ATOM     19  C   UNL A   1      38.031  30.332  28.295  1.00  0.00     0.029 A 
ATOM     20  N   UNL A   1      39.412  29.920  30.004  1.00  0.00    -0.354 N 
ATOM     21  C   UNL A   1      38.824  31.956  33.815  1.00  0.00     0.074 A 
ATOM     22  C   UNL A   1      37.679  32.838  33.758  1.00  0.00     0.031 C 
ATOM     23  C   UNL A   1      38.853  29.341  27.915  1.00  0.00     0.029 A 
ATOM     24  C   UNL A   1      39.789  29.062  28.998  1.00  0.00     0.049 A 
ATOM     25  H   UNL A   1      39.864  29.959  30.878  1.00  0.00     0.167 HD
ATOM     26  C   UNL A   1      39.575  31.745  34.922  1.00  0.00     0.037 A 
ATOM     27  C   UNL A   1      40.789  28.163  28.957  1.00  0.00     0.037 A 
ATOM     28  C   UNL A   1      40.722  30.880  34.952  1.00  0.00     0.049 A 
ATOM     29  C   UNL A   1      41.653  28.007  30.178  1.00  0.00     0.074 A 
ATOM     30  C   UNL A   1      41.622  30.666  35.980  1.00  0.00     0.029 A 
ATOM     31  N   UNL A   1      41.125  30.079  33.891  1.00  0.00    -0.354 N 
ATOM     32  N   UNL A   1      41.541  28.592  31.347  1.00  0.00    -0.248 NA
ATOM     33  C   UNL A   1      42.785  27.078  30.073  1.00  0.00     0.031 C 
ATOM     34  C   UNL A   1      42.585  29.753  35.531  1.00  0.00     0.029 A 
ATOM     35  C   UNL A   1      42.263  29.372  34.236  1.00  0.00     0.049 A 
ATOM     36  H   UNL A   1      40.667  30.022  33.021  1.00  0.00     0.167 HD
ATOM     37  C   UNL A   1      42.588  28.106  32.117  1.00  0.00     0.074 A 
ATOM     38  C   UNL A   1      43.300  27.149  31.292  1.00  0.00     0.031 C 
ATOM     39  C   UNL A   1      42.942  28.430  33.385  1.00  0.00     0.037 A 
BRANCH  26  40
ATOM     40  C   UNL A   1      39.192  32.506  36.154  1.00  0.00     0.057 A 
ATOM     41  C   UNL A   1      39.720  33.773  36.433  1.00  0.00     0.134 A 
ATOM     42  C   UNL A   1      38.311  31.951  37.090  1.00  0.00     0.134 A 
ATOM     43  F   UNL A   1      40.592  34.347  35.590  1.00  0.00    -0.206 F 
ATOM     44  C   UNL A   1      39.404  34.452  37.612  1.00  0.00     0.040 A 
ATOM     45  C   UNL A   1      37.972  32.627  38.263  1.00  0.00     0.040 A 
ATOM     46  F   UNL A   1      37.777  30.738  36.886  1.00  0.00    -0.206 F 
ATOM     47  C   UNL A   1      38.525  33.879  38.530  1.00  0.00     0.006 A 
ENDBRANCH  26  40
BRANCH  27  48
ATOM     48  C   UNL A   1      41.051  27.384  27.720  1.00  0.00     0.057 A 
ATOM     49  C   UNL A   1      40.466  26.132  27.501  1.00  0.00     0.134 A 
ATOM     50  C   UNL A   1      41.915  27.870  26.729  1.00  0.00     0.134 A 
ATOM     51  F   UNL A   1      39.646  25.599  28.418  1.00  0.00    -0.206 F 
ATOM     52  C   UNL A   1      40.742  25.386  26.352  1.00  0.00     0.040 A 
ATOM     53  C   UNL A   1      42.178  27.149  25.564  1.00  0.00     0.040 A 
ATOM     54  F   UNL A   1      42.509  29.064  26.875  1.00  0.00    -0.206 F 
ATOM     55  C   UNL A   1      41.596  25.897  25.377  1.00  0.00     0.006 A 
ENDBRANCH  27  48
BRANCH  39  56
ATOM     56  C   UNL A   1      44.147  27.735  33.941  1.00  0.00     0.057 A 
ATOM     57  C   UNL A   1      45.428  28.291  33.835  1.00  0.00     0.134 A 
ATOM     58  C   UNL A   1      44.020  26.511  34.608  1.00  0.00     0.134 A 
ATOM     59  F   UNL A   1      45.612  29.454  33.192  1.00  0.00    -0.206 F 
ATOM     60  C   UNL A   1      46.547  27.641  34.354  1.00  0.00     0.040 A 
ATOM     61  C   UNL A   1      45.129  25.864  35.153  1.00  0.00     0.040 A 
ATOM     62  F   UNL A   1      42.818  25.932  34.748  1.00  0.00    -0.206 F 
ATOM     63  C   UNL A   1      46.398  26.427  35.020  1.00  0.00     0.006 A 
ENDBRANCH  39  56
ENDBRANCH  13  14
ENDBRANCH   6   8
ENDBRANCH   5   6
ENDBRANCH   4   5
ENDBRANCH   3   4
ENDBRANCH   2   3
ENDBRANCH   1   2
BRANCH   1  64
ATOM     64  C   UNL A   1      33.314  28.785  24.210  1.00  0.00     0.261 C 
BRANCH  64  65
ATOM     65  O   UNL A   1      33.477  27.384  23.939  1.00  0.00    -0.460 OA
BRANCH  65  66
ATOM     66  C   UNL A   1      33.464  27.032  22.632  1.00  0.00     0.339 C 
ATOM     67  O   UNL A   1      34.026  27.584  21.701  1.00  0.00    -0.246 OA
BRANCH  66  68
ATOM     68  C   UNL A   1      32.966  25.647  22.585  1.00  0.00     0.078 A 
ATOM     69  C   UNL A   1      33.942  24.672  22.370  1.00  0.00     0.019 A 
ATOM     70  C   UNL A   1      31.668  25.266  22.926  1.00  0.00     0.057 A 
ATOM     71  C   UNL A   1      33.645  23.331  22.602  1.00  0.00     0.028 A 
ATOM     72  C   UNL A   1      31.371  23.909  23.126  1.00  0.00     0.048 A 
ATOM     73  Cl  UNL A   1      30.396  26.416  23.129  1.00  0.00    -0.083 Cl
ATOM     74  C   UNL A   1      32.365  22.936  22.988  1.00  0.00     0.050 A 
BRANCH  74  75
ATOM     75  N   UNL A   1      32.078  21.601  23.402  1.00  0.00    -0.280 N 
ATOM     76  H   UNL A   1      31.825  20.941  22.717  1.00  0.00     0.180 HD
BRANCH  75  77
ATOM     77  S   UNL A   1      32.154  21.102  25.012  1.00  0.00     0.261 S 
ATOM     78  O   UNL A   1      31.147  21.868  25.715  1.00  0.00    -0.201 OA
ATOM     79  O   UNL A   1      32.153  19.656  25.035  1.00  0.00    -0.201 OA
BRANCH  77  80
ATOM     80  C   UNL A   1      33.737  21.689  25.565  1.00  0.00     0.088 A 
ATOM     81  C   UNL A   1      33.825  22.942  26.202  1.00  0.00     0.022 A 
ATOM     82  C   UNL A   1      34.884  20.967  25.211  1.00  0.00     0.026 A 
ATOM     83  C   UNL A   1      35.076  23.520  26.431  1.00  0.00     0.005 A 
ATOM     84  C   UNL A   1      36.112  21.570  25.418  1.00  0.00    -0.043 A 
ATOM     85  C   UNL A   1      36.207  22.833  26.013  1.00  0.00    -0.045 A 
ATOM     86  C   UNL A   1      37.451  21.092  24.950  1.00  0.00     0.036 C 
ATOM     87  C   UNL A   1      37.628  23.309  26.017  1.00  0.00     0.036 C 
ATOM     88  C   UNL A   1      38.391  22.003  25.750  1.00  0.00     0.010 C 
ENDBRANCH  77  80
ENDBRANCH  75  77
ENDBRANCH  74  75
ENDBRANCH  66  68
ENDBRANCH  65  66
ENDBRANCH  64  65
ENDBRANCH   1  64
TORSDOF 17
ENDMDL
MODEL 2
REMARK VINA RESULT:     -11.3      3.343      8.255
REMARK SMILES O=C(OCCOCCOC(=O)c1ccc(NS(=O)(=O)c2ccc3c(c2)CCC3)cc1Cl)c1ccc(-c2c3nc(c(-c4c(F)cccc4F)c4ccc([nH]4)c(-c4c(F)cccc4F)c4nc(c(-c5c(F)cccc5F)c5ccc2[nH]5)C=C4)C=C3)cc1
REMARK SMILES IDX 7 1 6 2 5 3 4 4 3 5 2 6 1 7 32 8 33 9 85 10 34 11 84 12
REMARK SMILES IDX 35 13 36 14 37 15 78 16 38 17 83 18 77 19 79 20 39 21 82 22
REMARK SMILES IDX 76 23 75 24 40 26 66 27 49 28 65 29 50 30 53 31 64 32 80 33
REMARK SMILES IDX 51 34 52 35 63 37 81 38 54 39 41 40 42 41 47 42 43 43 44 44
REMARK SMILES IDX 46 45 48 46 45 47 67 48 68 49 73 50 69 51 70 52 72 53 74 54
REMARK SMILES IDX 71 55 55 56 56 57 61 58 57 59 58 60 60 61 62 62 59 63 8 64
REMARK SMILES IDX 9 65 10 66 11 67 12 68 13 69 30 70 14 71 29 72 31 73 15 74
REMARK SMILES IDX 16 75 17 77 18 78 19 79 20 80 21 81 25 82 22 83 24 84 23 85
REMARK SMILES IDX 26 86 28 87 27 88
REMARK H PARENT 79 25 53 36 16 76
REMARK Flexibility Score: inf
ROOT
ATOM      1  C   UNL A   1      42.546  20.031  26.058  1.00  0.00     0.202 C 
ENDROOT
BRANCH   1   2
ATOM      2  O   UNL A   1      43.165  21.326  25.998  1.00  0.00    -0.374 OA
BRANCH   2   3
ATOM      3  C   UNL A   1      44.354  21.388  25.202  1.00  0.00     0.202 C 
BRANCH   3   4
ATOM      4  C   UNL A   1      44.355  22.461  24.108  1.00  0.00     0.261 C 
BRANCH   4   5
ATOM      5  O   UNL A   1      43.719  23.664  24.575  1.00  0.00    -0.460 OA
BRANCH   5   6
ATOM      6  C   UNL A   1      44.291  24.770  25.107  1.00  0.00     0.338 C 
ATOM      7  O   UNL A   1      45.347  25.177  24.626  1.00  0.00    -0.246 OA
BRANCH   6   8
ATOM      8  C   UNL A   1      43.713  25.522  26.262  1.00  0.00     0.060 A 
ATOM      9  C   UNL A   1      43.940  26.873  26.519  1.00  0.00     0.016 A 
ATOM     10  C   UNL A   1      42.803  24.839  27.090  1.00  0.00     0.016 A 
ATOM     11  C   UNL A   1      43.367  27.507  27.613  1.00  0.00     0.010 A 
ATOM     12  C   UNL A   1      42.166  25.489  28.154  1.00  0.00     0.010 A 
ATOM     13  C   UNL A   1      42.466  26.826  28.430  1.00  0.00    -0.014 A 
BRANCH  13  14
ATOM     14  C   UNL A   1      41.899  27.555  29.581  1.00  0.00     0.031 A 
ATOM     15  C   UNL A   1      42.641  27.561  30.881  1.00  0.00     0.074 A 
ATOM     16  C   UNL A   1      40.815  28.333  29.389  1.00  0.00     0.049 A 
ATOM     17  N   UNL A   1      42.366  28.202  31.985  1.00  0.00    -0.248 NA
ATOM     18  C   UNL A   1      43.871  26.756  30.940  1.00  0.00     0.031 C 
ATOM     19  C   UNL A   1      40.080  28.451  28.127  1.00  0.00     0.029 A 
ATOM     20  N   UNL A   1      40.177  29.204  30.229  1.00  0.00    -0.354 N 
ATOM     21  C   UNL A   1      43.383  27.877  32.870  1.00  0.00     0.074 A 
ATOM     22  C   UNL A   1      44.274  26.967  32.184  1.00  0.00     0.031 C 
ATOM     23  C   UNL A   1      39.120  29.379  28.263  1.00  0.00     0.029 A 
ATOM     24  C   UNL A   1      39.136  29.876  29.634  1.00  0.00     0.049 A 
ATOM     25  H   UNL A   1      40.438  29.337  31.169  1.00  0.00     0.167 HD
ATOM     26  C   UNL A   1      43.557  28.306  34.142  1.00  0.00     0.037 A 
ATOM     27  C   UNL A   1      38.283  30.781  30.150  1.00  0.00     0.037 A 
ATOM     28  C   UNL A   1      42.648  29.195  34.813  1.00  0.00     0.049 A 
ATOM     29  C   UNL A   1      38.457  31.180  31.589  1.00  0.00     0.074 A 
ATOM     30  C   UNL A   1      42.660  29.617  36.130  1.00  0.00     0.029 A 
ATOM     31  N   UNL A   1      41.557  29.801  34.206  1.00  0.00    -0.354 N 
ATOM     32  N   UNL A   1      39.386  30.813  32.440  1.00  0.00    -0.248 NA
ATOM     33  C   UNL A   1      37.462  32.106  32.143  1.00  0.00     0.031 C 
ATOM     34  C   UNL A   1      41.558  30.460  36.325  1.00  0.00     0.029 A 
ATOM     35  C   UNL A   1      40.884  30.591  35.120  1.00  0.00     0.049 A 
ATOM     36  H   UNL A   1      41.300  29.686  33.262  1.00  0.00     0.167 HD
ATOM     37  C   UNL A   1      39.088  31.461  33.630  1.00  0.00     0.074 A 
ATOM     38  C   UNL A   1      37.912  32.272  33.379  1.00  0.00     0.031 C 
ATOM     39  C   UNL A   1      39.715  31.382  34.829  1.00  0.00     0.037 A 
BRANCH  26  40
ATOM     40  C   UNL A   1      44.746  27.770  34.880  1.00  0.00     0.057 A 
ATOM     41  C   UNL A   1      45.952  28.479  34.952  1.00  0.00     0.134 A 
ATOM     42  C   UNL A   1      44.696  26.514  35.495  1.00  0.00     0.134 A 
ATOM     43  F   UNL A   1      46.073  29.676  34.357  1.00  0.00    -0.206 F 
ATOM     44  C   UNL A   1      47.073  27.947  35.592  1.00  0.00     0.040 A 
ATOM     45  C   UNL A   1      45.805  25.979  36.154  1.00  0.00     0.040 A 
ATOM     46  F   UNL A   1      43.573  25.780  35.455  1.00  0.00    -0.206 F 
ATOM     47  C   UNL A   1      47.000  26.694  36.197  1.00  0.00     0.006 A 
ENDBRANCH  26  40
BRANCH  27  48
ATOM     48  C   UNL A   1      37.178  31.330  29.323  1.00  0.00     0.057 A 
ATOM     49  C   UNL A   1      36.033  30.579  29.032  1.00  0.00     0.134 A 
ATOM     50  C   UNL A   1      37.250  32.622  28.785  1.00  0.00     0.134 A 
ATOM     51  F   UNL A   1      35.909  29.328  29.498  1.00  0.00    -0.206 F 
ATOM     52  C   UNL A   1      35.011  31.085  28.225  1.00  0.00     0.040 A 
ATOM     53  C   UNL A   1      36.225  33.151  28.001  1.00  0.00     0.040 A 
ATOM     54  F   UNL A   1      38.319  33.396  29.026  1.00  0.00    -0.206 F 
ATOM     55  C   UNL A   1      35.104  32.378  27.712  1.00  0.00     0.006 A 
ENDBRANCH  27  48
BRANCH  39  56
ATOM     56  C   UNL A   1      39.136  32.201  35.942  1.00  0.00     0.057 A 
ATOM     57  C   UNL A   1      38.204  31.663  36.838  1.00  0.00     0.134 A 
ATOM     58  C   UNL A   1      39.533  33.529  36.132  1.00  0.00     0.134 A 
ATOM     59  F   UNL A   1      37.776  30.399  36.696  1.00  0.00    -0.206 F 
ATOM     60  C   UNL A   1      37.668  32.427  37.873  1.00  0.00     0.040 A 
ATOM     61  C   UNL A   1      39.021  34.296  37.179  1.00  0.00     0.040 A 
ATOM     62  F   UNL A   1      40.428  34.098  35.310  1.00  0.00    -0.206 F 
ATOM     63  C   UNL A   1      38.081  33.746  38.049  1.00  0.00     0.006 A 
ENDBRANCH  39  56
ENDBRANCH  13  14
ENDBRANCH   6   8
ENDBRANCH   5   6
ENDBRANCH   4   5
ENDBRANCH   3   4
ENDBRANCH   2   3
ENDBRANCH   1   2
BRANCH   1  64
ATOM     64  C   UNL A   1      41.253  20.106  26.876  1.00  0.00     0.261 C 
BRANCH  64  65
ATOM     65  O   UNL A   1      40.263  20.762  26.068  1.00  0.00    -0.460 OA
BRANCH  65  66
ATOM     66  C   UNL A   1      39.655  21.831  26.635  1.00  0.00     0.339 C 
ATOM     67  O   UNL A   1      40.143  22.665  27.379  1.00  0.00    -0.246 OA
BRANCH  66  68
ATOM     68  C   UNL A   1      38.398  22.029  25.894  1.00  0.00     0.078 A 
ATOM     69  C   UNL A   1      37.902  23.333  25.904  1.00  0.00     0.019 A 
ATOM     70  C   UNL A   1      37.818  21.072  25.059  1.00  0.00     0.057 A 
ATOM     71  C   UNL A   1      36.903  23.702  25.007  1.00  0.00     0.028 A 
ATOM     72  C   UNL A   1      36.790  21.448  24.180  1.00  0.00     0.048 A 
ATOM     73  Cl  UNL A   1      38.332  19.425  25.053  1.00  0.00    -0.083 Cl
ATOM     74  C   UNL A   1      36.343  22.772  24.133  1.00  0.00     0.050 A 
BRANCH  74  75
ATOM     75  N   UNL A   1      35.451  23.155  23.088  1.00  0.00    -0.280 N 
ATOM     76  H   UNL A   1      35.830  23.396  22.212  1.00  0.00     0.180 HD
BRANCH  75  77
ATOM     77  S   UNL A   1      33.776  23.215  23.284  1.00  0.00     0.261 S 
ATOM     78  O   UNL A   1      33.211  22.839  22.006  1.00  0.00    -0.201 OA
ATOM     79  O   UNL A   1      33.440  22.502  24.497  1.00  0.00    -0.201 OA
BRANCH  77  80
ATOM     80  C   UNL A   1      33.437  24.944  23.516  1.00  0.00     0.088 A 
ATOM     81  C   UNL A   1      33.284  25.774  22.389  1.00  0.00     0.022 A 
ATOM     82  C   UNL A   1      33.489  25.473  24.811  1.00  0.00     0.026 A 
ATOM     83  C   UNL A   1      33.251  27.162  22.546  1.00  0.00     0.005 A 
ATOM     84  C   UNL A   1      33.487  26.850  24.943  1.00  0.00    -0.043 A 
ATOM     85  C   UNL A   1      33.376  27.684  23.825  1.00  0.00    -0.045 A 
ATOM     86  C   UNL A   1      33.729  27.646  26.188  1.00  0.00     0.036 C 
ATOM     87  C   UNL A   1      33.514  29.123  24.224  1.00  0.00     0.036 C 
ATOM     88  C   UNL A   1      33.286  29.044  25.741  1.00  0.00     0.010 C 
ENDBRANCH  77  80
ENDBRANCH  75  77
ENDBRANCH  74  75
ENDBRANCH  66  68
ENDBRANCH  65  66
ENDBRANCH  64  65
ENDBRANCH   1  64
TORSDOF 17
ENDMDL
MODEL 3
REMARK VINA RESULT:     -11.3      3.425      8.256
REMARK SMILES O=C(OCCOCCOC(=O)c1ccc(NS(=O)(=O)c2ccc3c(c2)CCC3)cc1Cl)c1ccc(-c2c3nc(c(-c4c(F)cccc4F)c4ccc([nH]4)c(-c4c(F)cccc4F)c4nc(c(-c5c(F)cccc5F)c5ccc2[nH]5)C=C4)C=C3)cc1
REMARK SMILES IDX 7 1 6 2 5 3 4 4 3 5 2 6 1 7 32 8 33 9 85 10 34 11 84 12
REMARK SMILES IDX 35 13 36 14 37 15 78 16 38 17 83 18 77 19 79 20 39 21 82 22
REMARK SMILES IDX 76 23 75 24 40 26 66 27 49 28 65 29 50 30 53 31 64 32 80 33
REMARK SMILES IDX 51 34 52 35 63 37 81 38 54 39 41 40 42 41 47 42 43 43 44 44
REMARK SMILES IDX 46 45 48 46 45 47 67 48 68 49 73 50 69 51 70 52 72 53 74 54
REMARK SMILES IDX 71 55 55 56 56 57 61 58 57 59 58 60 60 61 62 62 59 63 8 64
REMARK SMILES IDX 9 65 10 66 11 67 12 68 13 69 30 70 14 71 29 72 31 73 15 74
REMARK SMILES IDX 16 75 17 77 18 78 19 79 20 80 21 81 25 82 22 83 24 84 23 85
REMARK SMILES IDX 26 86 28 87 27 88
REMARK H PARENT 79 25 53 36 16 76
REMARK Flexibility Score: inf
ROOT
ATOM      1  C   UNL A   1      42.560  19.960  25.916  1.00  0.00     0.202 C 
ENDROOT
BRANCH   1   2
ATOM      2  O   UNL A   1      43.182  21.255  25.897  1.00  0.00    -0.374 OA
BRANCH   2   3
ATOM      3  C   UNL A   1      44.326  21.359  25.041  1.00  0.00     0.202 C 
BRANCH   3   4
ATOM      4  C   UNL A   1      44.260  22.476  23.993  1.00  0.00     0.261 C 
BRANCH   4   5
ATOM      5  O   UNL A   1      43.676  23.665  24.553  1.00  0.00    -0.460 OA
BRANCH   5   6
ATOM      6  C   UNL A   1      44.298  24.721  25.128  1.00  0.00     0.338 C 
ATOM      7  O   UNL A   1      45.394  25.069  24.693  1.00  0.00    -0.246 OA
BRANCH   6   8
ATOM      8  C   UNL A   1      43.728  25.486  26.279  1.00  0.00     0.060 A 
ATOM      9  C   UNL A   1      43.904  26.854  26.484  1.00  0.00     0.016 A 
ATOM     10  C   UNL A   1      42.881  24.791  27.162  1.00  0.00     0.016 A 
ATOM     11  C   UNL A   1      43.342  27.498  27.578  1.00  0.00     0.010 A 
ATOM     12  C   UNL A   1      42.253  25.449  28.227  1.00  0.00     0.010 A 
ATOM     13  C   UNL A   1      42.503  26.806  28.449  1.00  0.00    -0.014 A 
BRANCH  13  14
ATOM     14  C   UNL A   1      41.945  27.548  29.596  1.00  0.00     0.031 A 
ATOM     15  C   UNL A   1      42.696  27.567  30.891  1.00  0.00     0.074 A 
ATOM     16  C   UNL A   1      40.861  28.325  29.404  1.00  0.00     0.049 A 
ATOM     17  N   UNL A   1      42.430  28.219  31.990  1.00  0.00    -0.248 NA
ATOM     18  C   UNL A   1      43.926  26.761  30.949  1.00  0.00     0.031 C 
ATOM     19  C   UNL A   1      40.116  28.431  28.146  1.00  0.00     0.029 A 
ATOM     20  N   UNL A   1      40.230  29.207  30.240  1.00  0.00    -0.354 N 
ATOM     21  C   UNL A   1      43.453  27.903  32.871  1.00  0.00     0.074 A 
ATOM     22  C   UNL A   1      44.338  26.985  32.188  1.00  0.00     0.031 C 
ATOM     23  C   UNL A   1      39.159  29.362  28.280  1.00  0.00     0.029 A 
ATOM     24  C   UNL A   1      39.185  29.873  29.645  1.00  0.00     0.049 A 
ATOM     25  H   UNL A   1      40.498  29.349  31.177  1.00  0.00     0.167 HD
ATOM     26  C   UNL A   1      43.637  28.345  34.137  1.00  0.00     0.037 A 
ATOM     27  C   UNL A   1      38.338  30.785  30.157  1.00  0.00     0.037 A 
ATOM     28  C   UNL A   1      42.734  29.242  34.806  1.00  0.00     0.049 A 
ATOM     29  C   UNL A   1      38.522  31.199  31.591  1.00  0.00     0.074 A 
ATOM     30  C   UNL A   1      42.756  29.678  36.118  1.00  0.00     0.029 A 
ATOM     31  N   UNL A   1      41.639  29.844  34.199  1.00  0.00    -0.354 N 
ATOM     32  N   UNL A   1      39.457  30.840  32.439  1.00  0.00    -0.248 NA
ATOM     33  C   UNL A   1      37.532  32.132  32.142  1.00  0.00     0.031 C 
ATOM     34  C   UNL A   1      41.657  30.525  36.311  1.00  0.00     0.029 A 
ATOM     35  C   UNL A   1      40.974  30.644  35.110  1.00  0.00     0.049 A 
ATOM     36  H   UNL A   1      41.376  29.719  33.259  1.00  0.00     0.167 HD
ATOM     37  C   UNL A   1      39.168  31.500  33.624  1.00  0.00     0.074 A 
ATOM     38  C   UNL A   1      37.992  32.311  33.373  1.00  0.00     0.031 C 
ATOM     39  C   UNL A   1      39.804  31.434  34.819  1.00  0.00     0.037 A 
BRANCH  26  40
ATOM     40  C   UNL A   1      44.830  27.816  34.872  1.00  0.00     0.057 A 
ATOM     41  C   UNL A   1      44.765  26.647  35.642  1.00  0.00     0.134 A 
ATOM     42  C   UNL A   1      46.050  28.501  34.839  1.00  0.00     0.134 A 
ATOM     43  F   UNL A   1      43.616  25.960  35.737  1.00  0.00    -0.206 F 
ATOM     44  C   UNL A   1      45.865  26.191  36.371  1.00  0.00     0.040 A 
ATOM     45  C   UNL A   1      47.163  28.046  35.549  1.00  0.00     0.040 A 
ATOM     46  F   UNL A   1      46.177  29.632  34.128  1.00  0.00    -0.206 F 
ATOM     47  C   UNL A   1      47.070  26.891  36.323  1.00  0.00     0.006 A 
ENDBRANCH  26  40
BRANCH  27  48
ATOM     48  C   UNL A   1      37.227  31.326  29.333  1.00  0.00     0.057 A 
ATOM     49  C   UNL A   1      37.278  32.612  28.782  1.00  0.00     0.134 A 
ATOM     50  C   UNL A   1      36.071  30.571  29.090  1.00  0.00     0.134 A 
ATOM     51  F   UNL A   1      38.346  33.396  28.994  1.00  0.00    -0.206 F 
ATOM     52  C   UNL A   1      36.217  33.132  28.037  1.00  0.00     0.040 A 
ATOM     53  C   UNL A   1      35.016  31.067  28.323  1.00  0.00     0.040 A 
ATOM     54  F   UNL A   1      35.957  29.330  29.586  1.00  0.00    -0.206 F 
ATOM     55  C   UNL A   1      35.084  32.356  27.801  1.00  0.00     0.006 A 
ENDBRANCH  27  48
BRANCH  39  56
ATOM     56  C   UNL A   1      39.235  32.264  35.928  1.00  0.00     0.057 A 
ATOM     57  C   UNL A   1      38.284  31.747  36.816  1.00  0.00     0.134 A 
ATOM     58  C   UNL A   1      39.658  33.584  36.122  1.00  0.00     0.134 A 
ATOM     59  F   UNL A   1      37.829  30.493  36.670  1.00  0.00    -0.206 F 
ATOM     60  C   UNL A   1      37.756  32.523  37.847  1.00  0.00     0.040 A 
ATOM     61  C   UNL A   1      39.156  34.362  37.164  1.00  0.00     0.040 A 
ATOM     62  F   UNL A   1      40.573  34.133  35.307  1.00  0.00    -0.206 F 
ATOM     63  C   UNL A   1      38.196  33.833  38.026  1.00  0.00     0.006 A 
ENDBRANCH  39  56
ENDBRANCH  13  14
ENDBRANCH   6   8
ENDBRANCH   5   6
ENDBRANCH   4   5
ENDBRANCH   3   4
ENDBRANCH   2   3
ENDBRANCH   1   2
BRANCH   1  64
ATOM     64  C   UNL A   1      41.225  20.032  26.665  1.00  0.00     0.261 C 
BRANCH  64  65
ATOM     65  O   UNL A   1      40.371  20.937  25.948  1.00  0.00    -0.460 OA
BRANCH  65  66
ATOM     66  C   UNL A   1      39.710  21.846  26.704  1.00  0.00     0.339 C 
ATOM     67  O   UNL A   1      40.155  22.537  27.605  1.00  0.00    -0.246 OA
BRANCH  66  68
ATOM     68  C   UNL A   1      38.451  22.130  25.997  1.00  0.00     0.078 A 
ATOM     69  C   UNL A   1      38.006  23.451  26.082  1.00  0.00     0.019 A 
ATOM     70  C   UNL A   1      37.820  21.241  25.125  1.00  0.00     0.057 A 
ATOM     71  C   UNL A   1      37.009  23.904  25.224  1.00  0.00     0.028 A 
ATOM     72  C   UNL A   1      36.793  21.701  24.285  1.00  0.00     0.048 A 
ATOM     73  Cl  UNL A   1      38.269  19.577  25.026  1.00  0.00    -0.083 Cl
ATOM     74  C   UNL A   1      36.398  23.042  24.314  1.00  0.00     0.050 A 
BRANCH  74  75
ATOM     75  N   UNL A   1      35.505  23.513  23.306  1.00  0.00    -0.280 N 
ATOM     76  H   UNL A   1      35.869  23.712  22.413  1.00  0.00     0.180 HD
BRANCH  75  77
ATOM     77  S   UNL A   1      33.856  23.746  23.574  1.00  0.00     0.261 S 
ATOM     78  O   UNL A   1      33.757  24.771  24.590  1.00  0.00    -0.201 OA
ATOM     79  O   UNL A   1      33.208  23.892  22.289  1.00  0.00    -0.201 OA
BRANCH  77  80
ATOM     80  C   UNL A   1      33.328  22.221  24.319  1.00  0.00     0.088 A 
ATOM     81  C   UNL A   1      33.467  22.048  25.709  1.00  0.00     0.022 A 
ATOM     82  C   UNL A   1      32.935  21.165  23.486  1.00  0.00     0.026 A 
ATOM     83  C   UNL A   1      33.279  20.784  26.275  1.00  0.00     0.005 A 
ATOM     84  C   UNL A   1      32.784  19.916  24.061  1.00  0.00    -0.043 A 
ATOM     85  C   UNL A   1      32.961  19.726  25.436  1.00  0.00    -0.045 A 
ATOM     86  C   UNL A   1      32.567  18.612  23.359  1.00  0.00     0.036 C 
ATOM     87  C   UNL A   1      32.855  18.272  25.786  1.00  0.00     0.036 C 
ATOM     88  C   UNL A   1      32.176  17.703  24.531  1.00  0.00     0.010 C 
ENDBRANCH  77  80
ENDBRANCH  75  77
ENDBRANCH  74  75
ENDBRANCH  66  68
ENDBRANCH  65  66
ENDBRANCH  64  65
ENDBRANCH   1  64
TORSDOF 17
ENDMDL
