MODEL 1
REMARK VINA RESULT:     -12.2      0.000      0.000
REMARK SMILES O=C(OCCOCCOC(=O)[C@@H]1CC=CC[C@H]1C(=O)N1CC[NH+](Cc2ccc3c(c2)OCO3)CC1)c1ccc(-c2c3nc(c(-c4c(F)cccc4F)c4ccc([nH]4)c(-c4c(F)cccc4F)c4nc(c(-c5c(F)cccc5F)c5ccc2[nH]5)C=C4)C=C3)cc1
REMARK SMILES IDX 7 1 6 2 5 3 4 4 3 5 2 6 1 7 36 8 37 9 89 10 38 11 88 12
REMARK SMILES IDX 39 13 40 14 41 15 82 16 42 17 87 18 81 19 83 20 43 21 86 22
REMARK SMILES IDX 80 23 79 24 44 26 70 27 53 28 69 29 54 30 57 31 68 32 84 33
REMARK SMILES IDX 55 34 56 35 67 37 85 38 58 39 45 40 46 41 51 42 47 43 48 44
REMARK SMILES IDX 50 45 52 46 49 47 71 48 72 49 77 50 73 51 74 52 76 53 78 54
REMARK SMILES IDX 75 55 59 56 60 57 65 58 61 59 62 60 64 61 66 62 63 63 8 64
REMARK SMILES IDX 9 65 10 66 11 67 12 68 13 69 17 70 14 71 16 72 15 73 18 74
REMARK SMILES IDX 19 75 20 76 21 77 35 78 22 79 34 80 23 81 24 83 25 84 26 85
REMARK SMILES IDX 30 86 27 87 29 88 28 89 31 90 33 91 32 92
REMARK H PARENT 83 25 57 36 23 82
REMARK Flexibility Score: inf
ROOT
ATOM      1  C   UNL A   1      36.627  22.865  25.638  1.00  0.00     0.202 C 
ENDROOT
BRANCH   1   2
ATOM      2  O   UNL A   1      37.001  21.531  25.263  1.00  0.00    -0.374 OA
BRANCH   2   3
ATOM      3  C   UNL A   1      38.379  21.194  25.437  1.00  0.00     0.202 C 
BRANCH   3   4
ATOM      4  C   UNL A   1      38.776  19.757  25.090  1.00  0.00     0.261 C 
BRANCH   4   5
ATOM      5  O   UNL A   1      39.715  19.245  26.051  1.00  0.00    -0.460 OA
BRANCH   5   6
ATOM      6  C   UNL A   1      41.053  19.447  26.094  1.00  0.00     0.338 C 
ATOM      7  O   UNL A   1      41.802  18.536  25.748  1.00  0.00    -0.246 OA
BRANCH   6   8
ATOM      8  C   UNL A   1      41.680  20.733  26.526  1.00  0.00     0.060 A 
ATOM      9  C   UNL A   1      41.949  21.092  27.846  1.00  0.00     0.016 A 
ATOM     10  C   UNL A   1      42.083  21.617  25.511  1.00  0.00     0.016 A 
ATOM     11  C   UNL A   1      42.522  22.303  28.171  1.00  0.00     0.010 A 
ATOM     12  C   UNL A   1      42.689  22.838  25.822  1.00  0.00     0.010 A 
ATOM     13  C   UNL A   1      42.876  23.187  27.161  1.00  0.00    -0.014 A 
BRANCH  13  14
ATOM     14  C   UNL A   1      43.256  24.533  27.600  1.00  0.00     0.031 A 
ATOM     15  C   UNL A   1      44.661  24.972  27.336  1.00  0.00     0.074 A 
ATOM     16  C   UNL A   1      42.295  25.387  27.989  1.00  0.00     0.049 A 
ATOM     17  N   UNL A   1      45.222  26.128  27.555  1.00  0.00    -0.248 NA
ATOM     18  C   UNL A   1      45.551  23.978  26.707  1.00  0.00     0.031 C 
ATOM     19  C   UNL A   1      40.869  25.059  28.092  1.00  0.00     0.029 A 
ATOM     20  N   UNL A   1      42.357  26.713  28.306  1.00  0.00    -0.354 N 
ATOM     21  C   UNL A   1      46.534  25.990  27.123  1.00  0.00     0.074 A 
ATOM     22  C   UNL A   1      46.689  24.645  26.621  1.00  0.00     0.031 C 
ATOM     23  C   UNL A   1      40.188  26.170  28.416  1.00  0.00     0.029 A 
ATOM     24  C   UNL A   1      41.136  27.262  28.606  1.00  0.00     0.049 A 
ATOM     25  H   UNL A   1      43.198  27.227  28.318  1.00  0.00     0.167 HD
ATOM     26  C   UNL A   1      47.520  26.914  27.162  1.00  0.00     0.037 A 
ATOM     27  C   UNL A   1      40.837  28.508  29.011  1.00  0.00     0.037 A 
ATOM     28  C   UNL A   1      47.323  28.242  27.671  1.00  0.00     0.049 A 
ATOM     29  C   UNL A   1      41.973  29.485  29.145  1.00  0.00     0.074 A 
ATOM     30  C   UNL A   1      48.248  29.249  27.855  1.00  0.00     0.029 A 
ATOM     31  N   UNL A   1      46.091  28.744  28.077  1.00  0.00    -0.354 N 
ATOM     32  N   UNL A   1      43.238  29.327  28.831  1.00  0.00    -0.248 NA
ATOM     33  C   UNL A   1      41.648  30.802  29.701  1.00  0.00     0.031 C 
ATOM     34  C   UNL A   1      47.583  30.347  28.413  1.00  0.00     0.029 A 
ATOM     35  C   UNL A   1      46.234  30.042  28.527  1.00  0.00     0.049 A 
ATOM     36  H   UNL A   1      45.242  28.246  28.048  1.00  0.00     0.167 HD
ATOM     37  C   UNL A   1      43.859  30.531  29.130  1.00  0.00     0.074 A 
ATOM     38  C   UNL A   1      42.822  31.413  29.635  1.00  0.00     0.031 C 
ATOM     39  C   UNL A   1      45.164  30.882  29.006  1.00  0.00     0.037 A 
BRANCH  26  40
ATOM     40  C   UNL A   1      48.886  26.461  26.742  1.00  0.00     0.057 A 
ATOM     41  C   UNL A   1      49.805  25.904  27.641  1.00  0.00     0.134 A 
ATOM     42  C   UNL A   1      49.311  26.654  25.422  1.00  0.00     0.134 A 
ATOM     43  F   UNL A   1      49.476  25.728  28.930  1.00  0.00    -0.206 F 
ATOM     44  C   UNL A   1      51.107  25.584  27.248  1.00  0.00     0.040 A 
ATOM     45  C   UNL A   1      50.601  26.317  25.011  1.00  0.00     0.040 A 
ATOM     46  F   UNL A   1      48.485  27.198  24.514  1.00  0.00    -0.206 F 
ATOM     47  C   UNL A   1      51.507  25.790  25.928  1.00  0.00     0.006 A 
ENDBRANCH  26  40
BRANCH  27  48
ATOM     48  C   UNL A   1      39.440  28.878  29.356  1.00  0.00     0.057 A 
ATOM     49  C   UNL A   1      38.938  28.725  30.653  1.00  0.00     0.134 A 
ATOM     50  C   UNL A   1      38.561  29.383  28.385  1.00  0.00     0.134 A 
ATOM     51  F   UNL A   1      39.720  28.232  31.625  1.00  0.00    -0.206 F 
ATOM     52  C   UNL A   1      37.615  29.043  30.970  1.00  0.00     0.040 A 
ATOM     53  C   UNL A   1      37.246  29.731  28.694  1.00  0.00     0.040 A 
ATOM     54  F   UNL A   1      38.975  29.555  27.121  1.00  0.00    -0.206 F 
ATOM     55  C   UNL A   1      36.766  29.552  29.989  1.00  0.00     0.006 A 
ENDBRANCH  27  48
BRANCH  39  56
ATOM     56  C   UNL A   1      45.516  32.289  29.377  1.00  0.00     0.057 A 
ATOM     57  C   UNL A   1      45.961  32.625  30.661  1.00  0.00     0.134 A 
ATOM     58  C   UNL A   1      45.445  33.309  28.421  1.00  0.00     0.134 A 
ATOM     59  F   UNL A   1      46.037  31.692  31.622  1.00  0.00    -0.206 F 
ATOM     60  C   UNL A   1      46.300  33.938  30.988  1.00  0.00     0.040 A 
ATOM     61  C   UNL A   1      45.809  34.618  28.729  1.00  0.00     0.040 A 
ATOM     62  F   UNL A   1      45.036  33.043  27.171  1.00  0.00    -0.206 F 
ATOM     63  C   UNL A   1      46.231  34.937  30.018  1.00  0.00     0.006 A 
ENDBRANCH  39  56
ENDBRANCH  13  14
ENDBRANCH   6   8
ENDBRANCH   5   6
ENDBRANCH   4   5
ENDBRANCH   3   4
ENDBRANCH   2   3
ENDBRANCH   1   2
BRANCH   1  64
ATOM     64  C   UNL A   1      35.974  23.568  24.450  1.00  0.00     0.261 C 
BRANCH  64  65
ATOM     65  O   UNL A   1      35.211  24.658  24.986  1.00  0.00    -0.463 OA
BRANCH  65  66
ATOM     66  C   UNL A   1      34.115  25.004  24.259  1.00  0.00     0.310 C 
ATOM     67  O   UNL A   1      34.047  24.992  23.037  1.00  0.00    -0.252 OA
BRANCH  66  68
ATOM     68  C   UNL A   1      32.944  25.232  25.198  1.00  0.00     0.115 C 
ATOM     69  C   UNL A   1      32.379  23.866  25.627  1.00  0.00     0.043 C 
ATOM     70  C   UNL A   1      31.912  26.186  24.596  1.00  0.00     0.097 C 
ATOM     71  C   UNL A   1      31.026  23.939  26.253  1.00  0.00    -0.030 C 
ATOM     72  C   UNL A   1      30.580  26.235  25.370  1.00  0.00     0.041 C 
ATOM     73  C   UNL A   1      30.221  24.999  26.129  1.00  0.00    -0.030 C 
BRANCH  70  74
ATOM     74  C   UNL A   1      32.363  27.644  24.358  1.00  0.00     0.227 C 
ATOM     75  O   UNL A   1      32.289  28.123  23.223  1.00  0.00    -0.275 OA
ATOM     76  N   UNL A   1      32.637  28.451  25.463  1.00  0.00    -0.331 N 
ATOM     77  C   UNL A   1      32.202  29.838  25.375  1.00  0.00     0.181 C 
ATOM     78  C   UNL A   1      33.846  28.280  26.259  1.00  0.00     0.181 C 
ATOM     79  C   UNL A   1      32.169  30.543  26.747  1.00  0.00     0.284 C 
ATOM     80  C   UNL A   1      33.809  28.988  27.627  1.00  0.00     0.284 C 
ATOM     81  N   UNL A   1      33.342  30.375  27.613  1.00  0.00    -0.328 N 
ATOM     82  H   UNL A   1      33.010  30.568  28.558  1.00  0.00     0.348 HD
BRANCH  81  83
ATOM     83  C   UNL A   1      34.384  31.403  27.511  1.00  0.00     0.299 C 
BRANCH  83  84
ATOM     84  C   UNL A   1      34.305  32.549  28.493  1.00  0.00     0.010 A 
ATOM     85  C   UNL A   1      34.915  32.448  29.763  1.00  0.00     0.013 A 
ATOM     86  C   UNL A   1      33.575  33.706  28.170  1.00  0.00     0.060 A 
ATOM     87  C   UNL A   1      34.714  33.428  30.741  1.00  0.00     0.051 A 
ATOM     88  C   UNL A   1      33.407  34.661  29.149  1.00  0.00     0.166 A 
ATOM     89  C   UNL A   1      33.942  34.517  30.406  1.00  0.00     0.165 A 
ATOM     90  O   UNL A   1      32.687  35.804  29.020  1.00  0.00    -0.454 OA
ATOM     91  O   UNL A   1      33.608  35.544  31.232  1.00  0.00    -0.454 OA
ATOM     92  C   UNL A   1      32.793  36.347  30.350  1.00  0.00     0.468 C 
ENDBRANCH  83  84
ENDBRANCH  81  83
ENDBRANCH  70  74
ENDBRANCH  66  68
ENDBRANCH  65  66
ENDBRANCH  64  65
ENDBRANCH   1  64
TORSDOF 17
ENDMDL
MODEL 2
REMARK VINA RESULT:     -11.9      2.570      3.932
REMARK SMILES O=C(OCCOCCOC(=O)[C@@H]1CC=CC[C@H]1C(=O)N1CC[NH+](Cc2ccc3c(c2)OCO3)CC1)c1ccc(-c2c3nc(c(-c4c(F)cccc4F)c4ccc([nH]4)c(-c4c(F)cccc4F)c4nc(c(-c5c(F)cccc5F)c5ccc2[nH]5)C=C4)C=C3)cc1
REMARK SMILES IDX 7 1 6 2 5 3 4 4 3 5 2 6 1 7 36 8 37 9 89 10 38 11 88 12
REMARK SMILES IDX 39 13 40 14 41 15 82 16 42 17 87 18 81 19 83 20 43 21 86 22
REMARK SMILES IDX 80 23 79 24 44 26 70 27 53 28 69 29 54 30 57 31 68 32 84 33
REMARK SMILES IDX 55 34 56 35 67 37 85 38 58 39 45 40 46 41 51 42 47 43 48 44
REMARK SMILES IDX 50 45 52 46 49 47 71 48 72 49 77 50 73 51 74 52 76 53 78 54
REMARK SMILES IDX 75 55 59 56 60 57 65 58 61 59 62 60 64 61 66 62 63 63 8 64
REMARK SMILES IDX 9 65 10 66 11 67 12 68 13 69 17 70 14 71 16 72 15 73 18 74
REMARK SMILES IDX 19 75 20 76 21 77 35 78 22 79 34 80 23 81 24 83 25 84 26 85
REMARK SMILES IDX 30 86 27 87 29 88 28 89 31 90 33 91 32 92
REMARK H PARENT 83 25 57 36 23 82
REMARK Flexibility Score: inf
ROOT
ATOM      1  C   UNL A   1      38.132  23.532  25.922  1.00  0.00     0.202 C 
ENDROOT
BRANCH   1   2
ATOM      2  O   UNL A   1      38.745  22.276  26.251  1.00  0.00    -0.374 OA
BRANCH   2   3
ATOM      3  C   UNL A   1      38.493  21.201  25.343  1.00  0.00     0.202 C 
BRANCH   3   4
ATOM      4  C   UNL A   1      38.745  19.788  25.876  1.00  0.00     0.261 C 
BRANCH   4   5
ATOM      5  O   UNL A   1      39.995  19.277  25.386  1.00  0.00    -0.460 OA
BRANCH   5   6
ATOM      6  C   UNL A   1      41.215  19.367  25.967  1.00  0.00     0.338 C 
ATOM      7  O   UNL A   1      41.889  18.346  26.093  1.00  0.00    -0.246 OA
BRANCH   6   8
ATOM      8  C   UNL A   1      41.805  20.650  26.454  1.00  0.00     0.060 A 
ATOM      9  C   UNL A   1      41.995  20.990  27.793  1.00  0.00     0.016 A 
ATOM     10  C   UNL A   1      42.258  21.554  25.478  1.00  0.00     0.016 A 
ATOM     11  C   UNL A   1      42.537  22.201  28.169  1.00  0.00     0.010 A 
ATOM     12  C   UNL A   1      42.834  22.774  25.843  1.00  0.00     0.010 A 
ATOM     13  C   UNL A   1      42.941  23.104  27.196  1.00  0.00    -0.014 A 
BRANCH  13  14
ATOM     14  C   UNL A   1      43.283  24.445  27.677  1.00  0.00     0.031 A 
ATOM     15  C   UNL A   1      44.704  24.888  27.528  1.00  0.00     0.074 A 
ATOM     16  C   UNL A   1      42.294  25.295  27.997  1.00  0.00     0.049 A 
ATOM     17  N   UNL A   1      45.245  26.042  27.802  1.00  0.00    -0.248 NA
ATOM     18  C   UNL A   1      45.642  23.901  26.961  1.00  0.00     0.031 C 
ATOM     19  C   UNL A   1      40.864  24.965  27.984  1.00  0.00     0.029 A 
ATOM     20  N   UNL A   1      42.329  26.618  28.331  1.00  0.00    -0.354 N 
ATOM     21  C   UNL A   1      46.587  25.910  27.473  1.00  0.00     0.074 A 
ATOM     22  C   UNL A   1      46.782  24.570  26.971  1.00  0.00     0.031 C 
ATOM     23  C   UNL A   1      40.159  26.071  28.265  1.00  0.00     0.029 A 
ATOM     24  C   UNL A   1      41.087  27.162  28.540  1.00  0.00     0.049 A 
ATOM     25  H   UNL A   1      43.166  27.131  28.414  1.00  0.00     0.167 HD
ATOM     26  C   UNL A   1      47.565  26.833  27.599  1.00  0.00     0.037 A 
ATOM     27  C   UNL A   1      40.755  28.405  28.933  1.00  0.00     0.037 A 
ATOM     28  C   UNL A   1      47.327  28.156  28.104  1.00  0.00     0.049 A 
ATOM     29  C   UNL A   1      41.876  29.381  29.165  1.00  0.00     0.074 A 
ATOM     30  C   UNL A   1      48.233  29.162  28.370  1.00  0.00     0.029 A 
ATOM     31  N   UNL A   1      46.066  28.653  28.416  1.00  0.00    -0.354 N 
ATOM     32  N   UNL A   1      43.162  29.227  28.950  1.00  0.00    -0.248 NA
ATOM     33  C   UNL A   1      41.506  30.692  29.708  1.00  0.00     0.031 C 
ATOM     34  C   UNL A   1      47.525  30.254  28.885  1.00  0.00     0.029 A 
ATOM     35  C   UNL A   1      46.171  29.947  28.890  1.00  0.00     0.049 A 
ATOM     36  H   UNL A   1      45.222  28.155  28.316  1.00  0.00     0.167 HD
ATOM     37  C   UNL A   1      43.756  30.428  29.309  1.00  0.00     0.074 A 
ATOM     38  C   UNL A   1      42.681  31.304  29.740  1.00  0.00     0.031 C 
ATOM     39  C   UNL A   1      45.066  30.781  29.291  1.00  0.00     0.037 A 
BRANCH  26  40
ATOM     40  C   UNL A   1      48.960  26.386  27.283  1.00  0.00     0.057 A 
ATOM     41  C   UNL A   1      49.798  25.798  28.240  1.00  0.00     0.134 A 
ATOM     42  C   UNL A   1      49.497  26.615  26.009  1.00  0.00     0.134 A 
ATOM     43  F   UNL A   1      49.361  25.587  29.490  1.00  0.00    -0.206 F 
ATOM     44  C   UNL A   1      51.129  25.483  27.949  1.00  0.00     0.040 A 
ATOM     45  C   UNL A   1      50.816  26.283  25.700  1.00  0.00     0.040 A 
ATOM     46  F   UNL A   1      48.752  27.189  25.051  1.00  0.00    -0.206 F 
ATOM     47  C   UNL A   1      51.639  25.725  26.674  1.00  0.00     0.006 A 
ENDBRANCH  26  40
BRANCH  27  48
ATOM     48  C   UNL A   1      39.335  28.770  29.170  1.00  0.00     0.057 A 
ATOM     49  C   UNL A   1      38.545  29.340  28.165  1.00  0.00     0.134 A 
ATOM     50  C   UNL A   1      38.733  28.571  30.421  1.00  0.00     0.134 A 
ATOM     51  F   UNL A   1      39.064  29.574  26.951  1.00  0.00    -0.206 F 
ATOM     52  C   UNL A   1      37.219  29.713  28.398  1.00  0.00     0.040 A 
ATOM     53  C   UNL A   1      37.401  28.912  30.660  1.00  0.00     0.040 A 
ATOM     54  F   UNL A   1      39.431  28.029  31.431  1.00  0.00    -0.206 F 
ATOM     55  C   UNL A   1      36.642  29.495  29.647  1.00  0.00     0.006 A 
ENDBRANCH  27  48
BRANCH  39  56
ATOM     56  C   UNL A   1      45.386  32.184  29.704  1.00  0.00     0.057 A 
ATOM     57  C   UNL A   1      45.331  33.251  28.799  1.00  0.00     0.134 A 
ATOM     58  C   UNL A   1      45.715  32.470  31.034  1.00  0.00     0.134 A 
ATOM     59  F   UNL A   1      45.034  33.036  27.509  1.00  0.00    -0.206 F 
ATOM     60  C   UNL A   1      45.618  34.556  29.202  1.00  0.00     0.040 A 
ATOM     61  C   UNL A   1      45.975  33.773  31.453  1.00  0.00     0.040 A 
ATOM     62  F   UNL A   1      45.773  31.488  31.947  1.00  0.00    -0.206 F 
ATOM     63  C   UNL A   1      45.934  34.819  30.533  1.00  0.00     0.006 A 
ENDBRANCH  39  56
ENDBRANCH  13  14
ENDBRANCH   6   8
ENDBRANCH   5   6
ENDBRANCH   4   5
ENDBRANCH   3   4
ENDBRANCH   2   3
ENDBRANCH   1   2
BRANCH   1  64
ATOM     64  C   UNL A   1      36.616  23.418  26.069  1.00  0.00     0.261 C 
BRANCH  64  65
ATOM     65  O   UNL A   1      36.042  24.163  24.987  1.00  0.00    -0.463 OA
BRANCH  65  66
ATOM     66  C   UNL A   1      35.372  23.417  24.067  1.00  0.00     0.310 C 
ATOM     67  O   UNL A   1      35.640  23.363  22.874  1.00  0.00    -0.252 OA
BRANCH  66  68
ATOM     68  C   UNL A   1      34.366  22.531  24.779  1.00  0.00     0.115 C 
ATOM     69  C   UNL A   1      34.561  21.079  24.308  1.00  0.00     0.043 C 
ATOM     70  C   UNL A   1      32.939  23.061  24.628  1.00  0.00     0.097 C 
ATOM     71  C   UNL A   1      33.425  20.173  24.649  1.00  0.00    -0.030 C 
ATOM     72  C   UNL A   1      31.852  22.067  25.081  1.00  0.00     0.041 C 
ATOM     73  C   UNL A   1      32.212  20.619  24.987  1.00  0.00    -0.030 C 
BRANCH  70  74
ATOM     74  C   UNL A   1      32.625  24.422  25.289  1.00  0.00     0.227 C 
ATOM     75  O   UNL A   1      33.154  24.707  26.367  1.00  0.00    -0.275 OA
ATOM     76  N   UNL A   1      31.928  25.380  24.553  1.00  0.00    -0.331 N 
ATOM     77  C   UNL A   1      32.363  26.761  24.712  1.00  0.00     0.181 C 
ATOM     78  C   UNL A   1      30.500  25.258  24.289  1.00  0.00     0.181 C 
ATOM     79  C   UNL A   1      31.838  27.687  23.595  1.00  0.00     0.284 C 
ATOM     80  C   UNL A   1      29.980  26.186  23.176  1.00  0.00     0.284 C 
ATOM     81  N   UNL A   1      30.414  27.582  23.255  1.00  0.00    -0.328 N 
ATOM     82  H   UNL A   1      30.335  27.955  22.309  1.00  0.00     0.348 HD
BRANCH  81  83
ATOM     83  C   UNL A   1      29.505  28.499  23.950  1.00  0.00     0.299 C 
BRANCH  83  84
ATOM     84  C   UNL A   1      29.227  29.822  23.274  1.00  0.00     0.010 A 
ATOM     85  C   UNL A   1      29.373  31.034  23.985  1.00  0.00     0.013 A 
ATOM     86  C   UNL A   1      28.767  29.854  21.947  1.00  0.00     0.060 A 
ATOM     87  C   UNL A   1      28.965  32.251  23.430  1.00  0.00     0.051 A 
ATOM     88  C   UNL A   1      28.387  31.070  21.421  1.00  0.00     0.166 A 
ATOM     89  C   UNL A   1      28.463  32.232  22.148  1.00  0.00     0.165 A 
ATOM     90  O   UNL A   1      27.872  31.265  20.182  1.00  0.00    -0.454 OA
ATOM     91  O   UNL A   1      27.984  33.304  21.462  1.00  0.00    -0.454 OA
ATOM     92  C   UNL A   1      27.591  32.678  20.222  1.00  0.00     0.468 C 
ENDBRANCH  83  84
ENDBRANCH  81  83
ENDBRANCH  70  74
ENDBRANCH  66  68
ENDBRANCH  65  66
ENDBRANCH  64  65
ENDBRANCH   1  64
TORSDOF 17
ENDMDL
MODEL 3
REMARK VINA RESULT:     -11.7      4.157      9.313
REMARK SMILES O=C(OCCOCCOC(=O)[C@@H]1CC=CC[C@H]1C(=O)N1CC[NH+](Cc2ccc3c(c2)OCO3)CC1)c1ccc(-c2c3nc(c(-c4c(F)cccc4F)c4ccc([nH]4)c(-c4c(F)cccc4F)c4nc(c(-c5c(F)cccc5F)c5ccc2[nH]5)C=C4)C=C3)cc1
REMARK SMILES IDX 7 1 6 2 5 3 4 4 3 5 2 6 1 7 36 8 37 9 89 10 38 11 88 12
REMARK SMILES IDX 39 13 40 14 41 15 82 16 42 17 87 18 81 19 83 20 43 21 86 22
REMARK SMILES IDX 80 23 79 24 44 26 70 27 53 28 69 29 54 30 57 31 68 32 84 33
REMARK SMILES IDX 55 34 56 35 67 37 85 38 58 39 45 40 46 41 51 42 47 43 48 44
REMARK SMILES IDX 50 45 52 46 49 47 71 48 72 49 77 50 73 51 74 52 76 53 78 54
REMARK SMILES IDX 75 55 59 56 60 57 65 58 61 59 62 60 64 61 66 62 63 63 8 64
REMARK SMILES IDX 9 65 10 66 11 67 12 68 13 69 17 70 14 71 16 72 15 73 18 74
REMARK SMILES IDX 19 75 20 76 21 77 35 78 22 79 34 80 23 81 24 83 25 84 26 85
REMARK SMILES IDX 30 86 27 87 29 88 28 89 31 90 33 91 32 92
REMARK H PARENT 83 25 57 36 23 82
REMARK Flexibility Score: inf
ROOT
ATOM      1  C   UNL A   1      33.284  28.113  26.596  1.00  0.00     0.202 C 
ENDROOT
BRANCH   1   2
ATOM      2  O   UNL A   1      32.265  29.118  26.482  1.00  0.00    -0.374 OA
BRANCH   2   3
ATOM      3  C   UNL A   1      32.451  30.291  27.279  1.00  0.00     0.202 C 
BRANCH   3   4
ATOM      4  C   UNL A   1      32.605  31.611  26.518  1.00  0.00     0.261 C 
BRANCH   4   5
ATOM      5  O   UNL A   1      32.173  32.715  27.329  1.00  0.00    -0.460 OA
BRANCH   5   6
ATOM      6  C   UNL A   1      32.941  33.576  28.038  1.00  0.00     0.338 C 
ATOM      7  O   UNL A   1      32.512  34.706  28.264  1.00  0.00    -0.246 OA
BRANCH   6   8
ATOM      8  C   UNL A   1      34.287  33.225  28.584  1.00  0.00     0.060 A 
ATOM      9  C   UNL A   1      35.505  33.546  27.986  1.00  0.00     0.016 A 
ATOM     10  C   UNL A   1      34.319  32.573  29.829  1.00  0.00     0.016 A 
ATOM     11  C   UNL A   1      36.711  33.179  28.544  1.00  0.00     0.010 A 
ATOM     12  C   UNL A   1      35.535  32.217  30.420  1.00  0.00     0.010 A 
ATOM     13  C   UNL A   1      36.729  32.497  29.753  1.00  0.00    -0.014 A 
BRANCH  13  14
ATOM     14  C   UNL A   1      38.026  31.944  30.151  1.00  0.00     0.031 A 
ATOM     15  C   UNL A   1      38.677  32.521  31.368  1.00  0.00     0.074 A 
ATOM     16  C   UNL A   1      38.456  30.809  29.574  1.00  0.00     0.049 A 
ATOM     17  N   UNL A   1      39.777  32.163  31.968  1.00  0.00    -0.248 NA
ATOM     18  C   UNL A   1      37.970  33.640  32.020  1.00  0.00     0.031 C 
ATOM     19  C   UNL A   1      37.761  30.099  28.495  1.00  0.00     0.029 A 
ATOM     20  N   UNL A   1      39.536  30.023  29.852  1.00  0.00    -0.354 N 
ATOM     21  C   UNL A   1      39.912  33.030  33.043  1.00  0.00     0.074 A 
ATOM     22  C   UNL A   1      38.780  33.927  33.024  1.00  0.00     0.031 C 
ATOM     23  C   UNL A   1      38.420  28.960  28.228  1.00  0.00     0.029 A 
ATOM     24  C   UNL A   1      39.611  28.899  29.067  1.00  0.00     0.049 A 
ATOM     25  H   UNL A   1      40.198  30.241  30.548  1.00  0.00     0.167 HD
ATOM     26  C   UNL A   1      40.910  33.072  33.953  1.00  0.00     0.037 A 
ATOM     27  C   UNL A   1      40.559  27.947  29.029  1.00  0.00     0.037 A 
ATOM     28  C   UNL A   1      42.018  32.159  33.935  1.00  0.00     0.049 A 
ATOM     29  C   UNL A   1      41.712  28.078  29.986  1.00  0.00     0.074 A 
ATOM     30  C   UNL A   1      43.142  32.140  34.736  1.00  0.00     0.029 A 
ATOM     31  N   UNL A   1      42.129  31.088  33.054  1.00  0.00    -0.354 N 
ATOM     32  N   UNL A   1      41.894  28.959  30.943  1.00  0.00    -0.248 NA
ATOM     33  C   UNL A   1      42.796  27.100  29.851  1.00  0.00     0.031 C 
ATOM     34  C   UNL A   1      43.955  31.082  34.310  1.00  0.00     0.029 A 
ATOM     35  C   UNL A   1      43.312  30.411  33.279  1.00  0.00     0.049 A 
ATOM     36  H   UNL A   1      41.463  30.849  32.370  1.00  0.00     0.167 HD
ATOM     37  C   UNL A   1      43.102  28.629  31.541  1.00  0.00     0.074 A 
ATOM     38  C   UNL A   1      43.597  27.455  30.845  1.00  0.00     0.031 C 
ATOM     39  C   UNL A   1      43.750  29.237  32.566  1.00  0.00     0.037 A 
BRANCH  26  40
ATOM     40  C   UNL A   1      40.872  34.194  34.945  1.00  0.00     0.057 A 
ATOM     41  C   UNL A   1      40.284  34.063  36.210  1.00  0.00     0.134 A 
ATOM     42  C   UNL A   1      41.376  35.454  34.596  1.00  0.00     0.134 A 
ATOM     43  F   UNL A   1      39.747  32.894  36.593  1.00  0.00    -0.206 F 
ATOM     44  C   UNL A   1      40.170  35.152  37.078  1.00  0.00     0.040 A 
ATOM     45  C   UNL A   1      41.289  36.543  35.463  1.00  0.00     0.040 A 
ATOM     46  F   UNL A   1      41.938  35.651  33.393  1.00  0.00    -0.206 F 
ATOM     47  C   UNL A   1      40.675  36.397  36.704  1.00  0.00     0.006 A 
ENDBRANCH  26  40
BRANCH  27  48
ATOM     48  C   UNL A   1      40.481  26.840  28.042  1.00  0.00     0.057 A 
ATOM     49  C   UNL A   1      41.174  26.888  26.827  1.00  0.00     0.134 A 
ATOM     50  C   UNL A   1      39.694  25.704  28.284  1.00  0.00     0.134 A 
ATOM     51  F   UNL A   1      41.932  27.953  26.525  1.00  0.00    -0.206 F 
ATOM     52  C   UNL A   1      41.076  25.862  25.885  1.00  0.00     0.040 A 
ATOM     53  C   UNL A   1      39.608  24.658  27.365  1.00  0.00     0.040 A 
ATOM     54  F   UNL A   1      39.002  25.591  29.428  1.00  0.00    -0.206 F 
ATOM     55  C   UNL A   1      40.294  24.740  26.155  1.00  0.00     0.006 A 
ENDBRANCH  27  48
BRANCH  39  56
ATOM     56  C   UNL A   1      45.031  28.605  33.016  1.00  0.00     0.057 A 
ATOM     57  C   UNL A   1      46.271  29.004  32.503  1.00  0.00     0.134 A 
ATOM     58  C   UNL A   1      45.019  27.613  34.003  1.00  0.00     0.134 A 
ATOM     59  F   UNL A   1      46.344  29.940  31.546  1.00  0.00    -0.206 F 
ATOM     60  C   UNL A   1      47.458  28.416  32.943  1.00  0.00     0.040 A 
ATOM     61  C   UNL A   1      46.200  27.040  34.470  1.00  0.00     0.040 A 
ATOM     62  F   UNL A   1      43.860  27.199  34.538  1.00  0.00    -0.206 F 
ATOM     63  C   UNL A   1      47.423  27.437  33.934  1.00  0.00     0.006 A 
ENDBRANCH  39  56
ENDBRANCH  13  14
ENDBRANCH   6   8
ENDBRANCH   5   6
ENDBRANCH   4   5
ENDBRANCH   3   4
ENDBRANCH   2   3
ENDBRANCH   1   2
BRANCH   1  64
ATOM     64  C   UNL A   1      32.638  26.730  26.638  1.00  0.00     0.261 C 
BRANCH  64  65
ATOM     65  O   UNL A   1      33.602  25.810  26.110  1.00  0.00    -0.463 OA
BRANCH  65  66
ATOM     66  C   UNL A   1      33.312  24.496  26.310  1.00  0.00     0.310 C 
ATOM     67  O   UNL A   1      32.486  24.070  27.107  1.00  0.00    -0.252 OA
BRANCH  66  68
ATOM     68  C   UNL A   1      34.036  23.660  25.271  1.00  0.00     0.115 C 
ATOM     69  C   UNL A   1      35.488  23.441  25.733  1.00  0.00     0.043 C 
ATOM     70  C   UNL A   1      33.899  24.257  23.869  1.00  0.00     0.097 C 
ATOM     71  C   UNL A   1      36.398  22.950  24.657  1.00  0.00    -0.030 C 
ATOM     72  C   UNL A   1      34.837  23.620  22.824  1.00  0.00     0.041 C 
ATOM     73  C   UNL A   1      36.107  23.039  23.356  1.00  0.00    -0.030 C 
BRANCH  70  74
ATOM     74  C   UNL A   1      32.480  24.289  23.259  1.00  0.00     0.227 C 
ATOM     75  O   UNL A   1      32.023  23.268  22.737  1.00  0.00    -0.275 OA
ATOM     76  N   UNL A   1      31.670  25.398  23.501  1.00  0.00    -0.331 N 
ATOM     77  C   UNL A   1      30.258  25.128  23.740  1.00  0.00     0.181 C 
ATOM     78  C   UNL A   1      31.904  26.679  22.848  1.00  0.00     0.181 C 
ATOM     79  C   UNL A   1      29.522  26.320  24.388  1.00  0.00     0.284 C 
ATOM     80  C   UNL A   1      31.165  27.865  23.496  1.00  0.00     0.284 C 
ATOM     81  N   UNL A   1      29.750  27.646  23.799  1.00  0.00    -0.328 N 
ATOM     82  H   UNL A   1      29.514  28.311  24.534  1.00  0.00     0.348 HD
BRANCH  81  83
ATOM     83  C   UNL A   1      28.798  28.077  22.770  1.00  0.00     0.299 C 
BRANCH  83  84
ATOM     84  C   UNL A   1      28.696  29.564  22.520  1.00  0.00     0.010 A 
ATOM     85  C   UNL A   1      28.970  30.485  23.556  1.00  0.00     0.013 A 
ATOM     86  C   UNL A   1      28.274  30.043  21.268  1.00  0.00     0.060 A 
ATOM     87  C   UNL A   1      28.725  31.852  23.392  1.00  0.00     0.051 A 
ATOM     88  C   UNL A   1      28.055  31.396  21.132  1.00  0.00     0.166 A 
ATOM     89  C   UNL A   1      28.253  32.274  22.169  1.00  0.00     0.165 A 
ATOM     90  O   UNL A   1      27.596  32.011  20.013  1.00  0.00    -0.454 OA
ATOM     91  O   UNL A   1      27.923  33.551  21.838  1.00  0.00    -0.454 OA
ATOM     92  C   UNL A   1      27.486  33.372  20.473  1.00  0.00     0.468 C 
ENDBRANCH  83  84
ENDBRANCH  81  83
ENDBRANCH  70  74
ENDBRANCH  66  68
ENDBRANCH  65  66
ENDBRANCH  64  65
ENDBRANCH   1  64
TORSDOF 17
ENDMDL
