MODEL 1
REMARK VINA RESULT:     -10.2      0.000      0.000
REMARK SMILES Cc1ncccc1C(=O)NCCOCC(=O)OCCOCCOC(=O)c1ccc(-c2c3nc(c(-c4c(F)cccc4F)c4ccc([nH]4)c(-c4c(F)cccc4F)c4nc(c(-c5c(F)cccc5F)c5ccc2[nH]5)C=C4)C=C3)cc1
REMARK SMILES IDX 18 1 17 2 15 3 16 4 14 5 13 6 12 7 11 8 10 9 8 10 9 11 7 13
REMARK SMILES IDX 1 14 2 15 3 16 4 17 6 18 5 19 19 20 20 21 21 22 22 23 23 24
REMARK SMILES IDX 24 25 25 26 26 27 27 28 79 29 28 30 78 31 29 32 30 33 31 34
REMARK SMILES IDX 72 35 32 36 77 37 71 38 73 39 33 40 76 41 70 42 69 43 34 45
REMARK SMILES IDX 60 46 43 47 59 48 44 49 47 50 58 51 74 52 45 53 46 54 57 56
REMARK SMILES IDX 75 57 48 58 35 59 36 60 41 61 37 62 38 63 40 64 42 65 39 66
REMARK SMILES IDX 61 67 62 68 67 69 63 70 64 71 66 72 68 73 65 74 49 75 50 76
REMARK SMILES IDX 55 77 51 78 52 79 54 80 56 81 53 82
REMARK H PARENT 10 12 73 44 47 55
REMARK Flexibility Score: inf
ROOT
ATOM      1  C   UNL A   1      41.613  19.755  26.980  1.00  0.00     0.261 C 
ENDROOT
BRANCH   1   2
ATOM      2  O   UNL A   1      40.477  20.211  26.209  1.00  0.00    -0.462 OA
BRANCH   2   3
ATOM      3  C   UNL A   1      39.937  21.402  26.583  1.00  0.00     0.332 C 
ATOM      4  O   UNL A   1      40.361  22.110  27.487  1.00  0.00    -0.250 OA
BRANCH   3   5
ATOM      5  C   UNL A   1      38.657  21.739  25.794  1.00  0.00     0.282 C 
BRANCH   5   6
ATOM      6  O   UNL A   1      37.994  22.985  25.726  1.00  0.00    -0.368 OA
BRANCH   6   7
ATOM      7  C   UNL A   1      36.674  23.005  25.207  1.00  0.00     0.182 C 
BRANCH   7   8
ATOM      8  C   UNL A   1      35.723  21.901  25.699  1.00  0.00     0.144 C 
BRANCH   8   9
ATOM      9  N   UNL A   1      34.399  22.314  26.128  1.00  0.00    -0.350 N 
ATOM     10  C   UNL A   1      33.145  21.783  25.953  1.00  0.00     0.253 C 
ATOM     11  O   UNL A   1      32.230  22.294  26.603  1.00  0.00    -0.269 OA
ATOM     12  H   UNL A   1      34.400  23.148  26.652  1.00  0.00     0.163 HD
BRANCH  10  13
ATOM     13  C   UNL A   1      32.789  20.714  24.986  1.00  0.00     0.061 A 
ATOM     14  C   UNL A   1      32.484  22.144  22.881  1.00  0.00     0.067 C 
ATOM     15  C   UNL A   1      32.478  20.851  23.632  1.00  0.00     0.050 A 
ATOM     16  N   UNL A   1      32.191  19.776  22.839  1.00  0.00    -0.261 NA
ATOM     17  C   UNL A   1      32.312  18.536  23.360  1.00  0.00     0.111 A 
ATOM     18  C   UNL A   1      32.925  19.400  25.479  1.00  0.00     0.017 A 
ATOM     19  C   UNL A   1      32.694  18.299  24.662  1.00  0.00     0.021 A 
ENDBRANCH  10  13
ENDBRANCH   8   9
ENDBRANCH   7   8
ENDBRANCH   6   7
ENDBRANCH   5   6
ENDBRANCH   3   5
ENDBRANCH   2   3
ENDBRANCH   1   2
BRANCH   1  20
ATOM     20  C   UNL A   1      42.679  19.135  26.075  1.00  0.00     0.202 C 
BRANCH  20  21
ATOM     21  O   UNL A   1      43.272  20.031  25.131  1.00  0.00    -0.374 OA
BRANCH  21  22
ATOM     22  C   UNL A   1      43.803  21.242  25.659  1.00  0.00     0.202 C 
BRANCH  22  23
ATOM     23  C   UNL A   1      44.339  22.225  24.608  1.00  0.00     0.261 C 
BRANCH  23  24
ATOM     24  O   UNL A   1      43.586  23.451  24.591  1.00  0.00    -0.460 OA
BRANCH  24  25
ATOM     25  C   UNL A   1      44.273  24.528  25.040  1.00  0.00     0.338 C 
ATOM     26  O   UNL A   1      45.374  24.912  24.669  1.00  0.00    -0.246 OA
BRANCH  25  27
ATOM     27  C   UNL A   1      43.436  25.334  25.947  1.00  0.00     0.060 A 
ATOM     28  C   UNL A   1      43.820  26.666  26.147  1.00  0.00     0.016 A 
ATOM     29  C   UNL A   1      42.351  24.798  26.644  1.00  0.00     0.016 A 
ATOM     30  C   UNL A   1      43.158  27.451  27.086  1.00  0.00     0.010 A 
ATOM     31  C   UNL A   1      41.690  25.587  27.595  1.00  0.00     0.010 A 
ATOM     32  C   UNL A   1      42.118  26.903  27.849  1.00  0.00    -0.014 A 
BRANCH  32  33
ATOM     33  C   UNL A   1      41.609  27.665  29.015  1.00  0.00     0.031 A 
ATOM     34  C   UNL A   1      42.341  27.562  30.325  1.00  0.00     0.074 A 
ATOM     35  C   UNL A   1      40.557  28.494  28.893  1.00  0.00     0.049 A 
ATOM     36  N   UNL A   1      42.101  28.167  31.461  1.00  0.00    -0.248 NA
ATOM     37  C   UNL A   1      43.503  26.659  30.358  1.00  0.00     0.031 C 
ATOM     38  C   UNL A   1      39.791  28.713  27.668  1.00  0.00     0.029 A 
ATOM     39  N   UNL A   1      39.958  29.312  29.817  1.00  0.00    -0.354 N 
ATOM     40  C   UNL A   1      43.080  27.721  32.339  1.00  0.00     0.074 A 
ATOM     41  C   UNL A   1      43.896  26.769  31.618  1.00  0.00     0.031 C 
ATOM     42  C   UNL A   1      38.820  29.609  27.917  1.00  0.00     0.029 A 
ATOM     43  C   UNL A   1      38.883  30.008  29.322  1.00  0.00     0.049 A 
ATOM     44  H   UNL A   1      40.269  29.393  30.748  1.00  0.00     0.167 HD
ATOM     45  C   UNL A   1      43.290  28.081  33.628  1.00  0.00     0.037 A 
ATOM     46  C   UNL A   1      38.041  30.861  29.937  1.00  0.00     0.037 A 
ATOM     47  C   UNL A   1      42.480  29.028  34.348  1.00  0.00     0.049 A 
ATOM     48  C   UNL A   1      38.253  31.194  31.390  1.00  0.00     0.074 A 
ATOM     49  C   UNL A   1      42.621  29.468  35.652  1.00  0.00     0.029 A 
ATOM     50  N   UNL A   1      41.373  29.676  33.823  1.00  0.00    -0.354 N 
ATOM     51  N   UNL A   1      39.197  30.785  32.203  1.00  0.00    -0.248 NA
ATOM     52  C   UNL A   1      37.283  32.109  32.010  1.00  0.00     0.031 C 
ATOM     53  C   UNL A   1      41.572  30.351  35.931  1.00  0.00     0.029 A 
ATOM     54  C   UNL A   1      40.805  30.494  34.785  1.00  0.00     0.049 A 
ATOM     55  H   UNL A   1      41.039  29.570  32.903  1.00  0.00     0.167 HD
ATOM     56  C   UNL A   1      38.951  31.411  33.419  1.00  0.00     0.074 A 
ATOM     57  C   UNL A   1      37.776  32.236  33.234  1.00  0.00     0.031 C 
ATOM     58  C   UNL A   1      39.638  31.313  34.584  1.00  0.00     0.037 A 
BRANCH  45  59
ATOM     59  C   UNL A   1      44.431  27.427  34.348  1.00  0.00     0.057 A 
ATOM     60  C   UNL A   1      44.275  26.216  35.035  1.00  0.00     0.134 A 
ATOM     61  C   UNL A   1      45.707  28.002  34.332  1.00  0.00     0.134 A 
ATOM     62  F   UNL A   1      43.074  25.622  35.102  1.00  0.00    -0.206 F 
ATOM     63  C   UNL A   1      45.344  25.613  35.702  1.00  0.00     0.040 A 
ATOM     64  C   UNL A   1      46.789  27.397  34.975  1.00  0.00     0.040 A 
ATOM     65  F   UNL A   1      45.925  29.160  33.689  1.00  0.00    -0.206 F 
ATOM     66  C   UNL A   1      46.607  26.201  35.667  1.00  0.00     0.006 A 
ENDBRANCH  45  59
BRANCH  46  67
ATOM     67  C   UNL A   1      36.911  31.462  29.183  1.00  0.00     0.057 A 
ATOM     68  C   UNL A   1      35.771  30.716  28.864  1.00  0.00     0.134 A 
ATOM     69  C   UNL A   1      36.957  32.791  28.747  1.00  0.00     0.134 A 
ATOM     70  F   UNL A   1      35.680  29.430  29.234  1.00  0.00    -0.206 F 
ATOM     71  C   UNL A   1      34.721  31.267  28.126  1.00  0.00     0.040 A 
ATOM     72  C   UNL A   1      35.905  33.361  28.028  1.00  0.00     0.040 A 
ATOM     73  F   UNL A   1      38.023  33.558  29.020  1.00  0.00    -0.206 F 
ATOM     74  C   UNL A   1      34.785  32.595  27.710  1.00  0.00     0.006 A 
ENDBRANCH  46  67
BRANCH  58  75
ATOM     75  C   UNL A   1      39.154  32.139  35.739  1.00  0.00     0.057 A 
ATOM     76  C   UNL A   1      38.301  31.612  36.718  1.00  0.00     0.134 A 
ATOM     77  C   UNL A   1      39.583  33.463  35.899  1.00  0.00     0.134 A 
ATOM     78  F   UNL A   1      37.846  30.354  36.616  1.00  0.00    -0.206 F 
ATOM     79  C   UNL A   1      37.875  32.380  37.802  1.00  0.00     0.040 A 
ATOM     80  C   UNL A   1      39.182  34.233  36.991  1.00  0.00     0.040 A 
ATOM     81  F   UNL A   1      40.408  34.023  35.002  1.00  0.00    -0.206 F 
ATOM     82  C   UNL A   1      38.321  33.693  37.944  1.00  0.00     0.006 A 
ENDBRANCH  58  75
ENDBRANCH  32  33
ENDBRANCH  25  27
ENDBRANCH  24  25
ENDBRANCH  23  24
ENDBRANCH  22  23
ENDBRANCH  21  22
ENDBRANCH  20  21
ENDBRANCH   1  20
TORSDOF 19
ENDMDL
MODEL 2
REMARK VINA RESULT:     -10.1      1.345      2.155
REMARK SMILES Cc1ncccc1C(=O)NCCOCC(=O)OCCOCCOC(=O)c1ccc(-c2c3nc(c(-c4c(F)cccc4F)c4ccc([nH]4)c(-c4c(F)cccc4F)c4nc(c(-c5c(F)cccc5F)c5ccc2[nH]5)C=C4)C=C3)cc1
REMARK SMILES IDX 18 1 17 2 15 3 16 4 14 5 13 6 12 7 11 8 10 9 8 10 9 11 7 13
REMARK SMILES IDX 1 14 2 15 3 16 4 17 6 18 5 19 19 20 20 21 21 22 22 23 23 24
REMARK SMILES IDX 24 25 25 26 26 27 27 28 79 29 28 30 78 31 29 32 30 33 31 34
REMARK SMILES IDX 72 35 32 36 77 37 71 38 73 39 33 40 76 41 70 42 69 43 34 45
REMARK SMILES IDX 60 46 43 47 59 48 44 49 47 50 58 51 74 52 45 53 46 54 57 56
REMARK SMILES IDX 75 57 48 58 35 59 36 60 41 61 37 62 38 63 40 64 42 65 39 66
REMARK SMILES IDX 61 67 62 68 67 69 63 70 64 71 66 72 68 73 65 74 49 75 50 76
REMARK SMILES IDX 55 77 51 78 52 79 54 80 56 81 53 82
REMARK H PARENT 10 12 73 44 47 55
REMARK Flexibility Score: inf
ROOT
ATOM      1  C   UNL A   1      41.532  19.837  26.946  1.00  0.00     0.261 C 
ENDROOT
BRANCH   1   2
ATOM      2  O   UNL A   1      40.428  20.265  26.116  1.00  0.00    -0.462 OA
BRANCH   2   3
ATOM      3  C   UNL A   1      39.838  21.440  26.461  1.00  0.00     0.332 C 
ATOM      4  O   UNL A   1      40.227  22.183  27.353  1.00  0.00    -0.250 OA
BRANCH   3   5
ATOM      5  C   UNL A   1      38.551  21.710  25.657  1.00  0.00     0.282 C 
BRANCH   5   6
ATOM      6  O   UNL A   1      37.859  22.935  25.530  1.00  0.00    -0.368 OA
BRANCH   6   7
ATOM      7  C   UNL A   1      36.576  22.912  24.927  1.00  0.00     0.182 C 
BRANCH   7   8
ATOM      8  C   UNL A   1      35.547  23.925  25.458  1.00  0.00     0.144 C 
BRANCH   8   9
ATOM      9  N   UNL A   1      34.722  24.604  24.474  1.00  0.00    -0.350 N 
ATOM     10  C   UNL A   1      33.386  24.913  24.419  1.00  0.00     0.253 C 
ATOM     11  O   UNL A   1      33.027  25.661  23.508  1.00  0.00    -0.269 OA
ATOM     12  H   UNL A   1      35.226  24.905  23.683  1.00  0.00     0.163 HD
BRANCH  10  13
ATOM     13  C   UNL A   1      32.334  24.352  25.304  1.00  0.00     0.061 A 
ATOM     14  C   UNL A   1      31.649  26.489  26.540  1.00  0.00     0.067 C 
ATOM     15  C   UNL A   1      31.568  25.024  26.257  1.00  0.00     0.050 A 
ATOM     16  N   UNL A   1      30.605  24.392  26.994  1.00  0.00    -0.261 NA
ATOM     17  C   UNL A   1      30.321  23.101  26.717  1.00  0.00     0.111 A 
ATOM     18  C   UNL A   1      31.986  23.013  25.034  1.00  0.00     0.017 A 
ATOM     19  C   UNL A   1      30.967  22.379  25.738  1.00  0.00     0.021 A 
ENDBRANCH  10  13
ENDBRANCH   8   9
ENDBRANCH   7   8
ENDBRANCH   6   7
ENDBRANCH   5   6
ENDBRANCH   3   5
ENDBRANCH   2   3
ENDBRANCH   1   2
BRANCH   1  20
ATOM     20  C   UNL A   1      42.640  19.202  26.103  1.00  0.00     0.202 C 
BRANCH  20  21
ATOM     21  O   UNL A   1      43.258  20.074  25.153  1.00  0.00    -0.374 OA
BRANCH  21  22
ATOM     22  C   UNL A   1      43.792  21.289  25.669  1.00  0.00     0.202 C 
BRANCH  22  23
ATOM     23  C   UNL A   1      44.379  22.236  24.612  1.00  0.00     0.261 C 
BRANCH  23  24
ATOM     24  O   UNL A   1      43.662  23.482  24.554  1.00  0.00    -0.460 OA
BRANCH  24  25
ATOM     25  C   UNL A   1      44.353  24.542  25.037  1.00  0.00     0.338 C 
ATOM     26  O   UNL A   1      45.464  24.922  24.691  1.00  0.00    -0.246 OA
BRANCH  25  27
ATOM     27  C   UNL A   1      43.511  25.336  25.949  1.00  0.00     0.060 A 
ATOM     28  C   UNL A   1      43.877  26.674  26.144  1.00  0.00     0.016 A 
ATOM     29  C   UNL A   1      42.439  24.785  26.654  1.00  0.00     0.016 A 
ATOM     30  C   UNL A   1      43.210  27.450  27.088  1.00  0.00     0.010 A 
ATOM     31  C   UNL A   1      41.773  25.565  27.609  1.00  0.00     0.010 A 
ATOM     32  C   UNL A   1      42.184  26.887  27.858  1.00  0.00    -0.014 A 
BRANCH  32  33
ATOM     33  C   UNL A   1      41.671  27.643  29.027  1.00  0.00     0.031 A 
ATOM     34  C   UNL A   1      42.402  27.536  30.338  1.00  0.00     0.074 A 
ATOM     35  C   UNL A   1      40.618  28.471  28.908  1.00  0.00     0.049 A 
ATOM     36  N   UNL A   1      42.159  28.135  31.476  1.00  0.00    -0.248 NA
ATOM     37  C   UNL A   1      43.566  26.635  30.368  1.00  0.00     0.031 C 
ATOM     38  C   UNL A   1      39.854  28.695  27.683  1.00  0.00     0.029 A 
ATOM     39  N   UNL A   1      40.017  29.284  29.835  1.00  0.00    -0.354 N 
ATOM     40  C   UNL A   1      43.139  27.687  32.354  1.00  0.00     0.074 A 
ATOM     41  C   UNL A   1      43.957  26.740  31.629  1.00  0.00     0.031 C 
ATOM     42  C   UNL A   1      38.881  29.588  27.935  1.00  0.00     0.029 A 
ATOM     43  C   UNL A   1      38.942  29.981  29.341  1.00  0.00     0.049 A 
ATOM     44  H   UNL A   1      40.327  29.361  30.767  1.00  0.00     0.167 HD
ATOM     45  C   UNL A   1      43.345  28.041  33.644  1.00  0.00     0.037 A 
ATOM     46  C   UNL A   1      38.098  30.830  29.959  1.00  0.00     0.037 A 
ATOM     47  C   UNL A   1      42.533  28.984  34.367  1.00  0.00     0.049 A 
ATOM     48  C   UNL A   1      38.307  31.156  31.414  1.00  0.00     0.074 A 
ATOM     49  C   UNL A   1      42.672  29.418  35.674  1.00  0.00     0.029 A 
ATOM     50  N   UNL A   1      41.427  29.633  33.844  1.00  0.00    -0.354 N 
ATOM     51  N   UNL A   1      39.251  30.745  32.226  1.00  0.00    -0.248 NA
ATOM     52  C   UNL A   1      37.334  32.067  32.036  1.00  0.00     0.031 C 
ATOM     53  C   UNL A   1      41.621  30.298  35.955  1.00  0.00     0.029 A 
ATOM     54  C   UNL A   1      40.856  30.445  34.809  1.00  0.00     0.049 A 
ATOM     55  H   UNL A   1      41.094  29.530  32.923  1.00  0.00     0.167 HD
ATOM     56  C   UNL A   1      39.002  31.365  33.445  1.00  0.00     0.074 A 
ATOM     57  C   UNL A   1      37.825  32.189  33.262  1.00  0.00     0.031 C 
ATOM     58  C   UNL A   1      39.687  31.263  34.610  1.00  0.00     0.037 A 
BRANCH  45  59
ATOM     59  C   UNL A   1      44.487  27.386  34.363  1.00  0.00     0.057 A 
ATOM     60  C   UNL A   1      45.767  27.957  34.392  1.00  0.00     0.134 A 
ATOM     61  C   UNL A   1      44.300  26.183  35.053  1.00  0.00     0.134 A 
ATOM     62  F   UNL A   1      46.016  29.101  33.737  1.00  0.00    -0.206 F 
ATOM     63  C   UNL A   1      46.825  27.342  35.065  1.00  0.00     0.040 A 
ATOM     64  C   UNL A   1      45.344  25.569  35.748  1.00  0.00     0.040 A 
ATOM     65  F   UNL A   1      43.099  25.585  35.066  1.00  0.00    -0.206 F 
ATOM     66  C   UNL A   1      46.612  26.147  35.750  1.00  0.00     0.006 A 
ENDBRANCH  45  59
BRANCH  46  67
ATOM     67  C   UNL A   1      36.967  31.432  29.207  1.00  0.00     0.057 A 
ATOM     68  C   UNL A   1      35.815  30.696  28.911  1.00  0.00     0.134 A 
ATOM     69  C   UNL A   1      37.025  32.753  28.748  1.00  0.00     0.134 A 
ATOM     70  F   UNL A   1      35.712  29.417  29.302  1.00  0.00    -0.206 F 
ATOM     71  C   UNL A   1      34.765  31.247  28.173  1.00  0.00     0.040 A 
ATOM     72  C   UNL A   1      35.973  33.324  28.030  1.00  0.00     0.040 A 
ATOM     73  F   UNL A   1      38.103  33.511  28.998  1.00  0.00    -0.206 F 
ATOM     74  C   UNL A   1      34.841  32.567  27.735  1.00  0.00     0.006 A 
ENDBRANCH  46  67
BRANCH  58  75
ATOM     75  C   UNL A   1      39.200  32.083  35.768  1.00  0.00     0.057 A 
ATOM     76  C   UNL A   1      39.598  33.414  35.949  1.00  0.00     0.134 A 
ATOM     77  C   UNL A   1      38.289  31.549  36.688  1.00  0.00     0.134 A 
ATOM     78  F   UNL A   1      40.478  33.980  35.108  1.00  0.00    -0.206 F 
ATOM     79  C   UNL A   1      39.123  34.178  37.016  1.00  0.00     0.040 A 
ATOM     80  C   UNL A   1      37.789  32.311  37.745  1.00  0.00     0.040 A 
ATOM     81  F   UNL A   1      37.861  30.284  36.566  1.00  0.00    -0.206 F 
ATOM     82  C   UNL A   1      38.210  33.628  37.914  1.00  0.00     0.006 A 
ENDBRANCH  58  75
ENDBRANCH  32  33
ENDBRANCH  25  27
ENDBRANCH  24  25
ENDBRANCH  23  24
ENDBRANCH  22  23
ENDBRANCH  21  22
ENDBRANCH  20  21
ENDBRANCH   1  20
TORSDOF 19
ENDMDL
MODEL 3
REMARK VINA RESULT:     -10.0      1.521      2.192
REMARK SMILES Cc1ncccc1C(=O)NCCOCC(=O)OCCOCCOC(=O)c1ccc(-c2c3nc(c(-c4c(F)cccc4F)c4ccc([nH]4)c(-c4c(F)cccc4F)c4nc(c(-c5c(F)cccc5F)c5ccc2[nH]5)C=C4)C=C3)cc1
REMARK SMILES IDX 18 1 17 2 15 3 16 4 14 5 13 6 12 7 11 8 10 9 8 10 9 11 7 13
REMARK SMILES IDX 1 14 2 15 3 16 4 17 6 18 5 19 19 20 20 21 21 22 22 23 23 24
REMARK SMILES IDX 24 25 25 26 26 27 27 28 79 29 28 30 78 31 29 32 30 33 31 34
REMARK SMILES IDX 72 35 32 36 77 37 71 38 73 39 33 40 76 41 70 42 69 43 34 45
REMARK SMILES IDX 60 46 43 47 59 48 44 49 47 50 58 51 74 52 45 53 46 54 57 56
REMARK SMILES IDX 75 57 48 58 35 59 36 60 41 61 37 62 38 63 40 64 42 65 39 66
REMARK SMILES IDX 61 67 62 68 67 69 63 70 64 71 66 72 68 73 65 74 49 75 50 76
REMARK SMILES IDX 55 77 51 78 52 79 54 80 56 81 53 82
REMARK H PARENT 10 12 73 44 47 55
REMARK Flexibility Score: inf
ROOT
ATOM      1  C   UNL A   1      42.416  19.115  26.273  1.00  0.00     0.261 C 
ENDROOT
BRANCH   1   2
ATOM      2  O   UNL A   1      41.580  20.293  26.326  1.00  0.00    -0.462 OA
BRANCH   2   3
ATOM      3  C   UNL A   1      40.271  20.116  26.000  1.00  0.00     0.332 C 
ATOM      4  O   UNL A   1      39.827  19.154  25.387  1.00  0.00    -0.250 OA
BRANCH   3   5
ATOM      5  C   UNL A   1      39.395  21.314  26.413  1.00  0.00     0.282 C 
BRANCH   5   6
ATOM      6  O   UNL A   1      39.823  22.625  26.721  1.00  0.00    -0.368 OA
BRANCH   6   7
ATOM      7  C   UNL A   1      38.915  23.690  26.492  1.00  0.00     0.182 C 
BRANCH   7   8
ATOM      8  C   UNL A   1      37.638  23.349  25.706  1.00  0.00     0.144 C 
BRANCH   8   9
ATOM      9  N   UNL A   1      36.422  23.158  26.477  1.00  0.00    -0.350 N 
ATOM     10  C   UNL A   1      35.108  23.494  26.259  1.00  0.00     0.253 C 
ATOM     11  O   UNL A   1      34.279  23.027  27.043  1.00  0.00    -0.269 OA
ATOM     12  H   UNL A   1      36.570  22.692  27.332  1.00  0.00     0.163 HD
BRANCH  10  13
ATOM     13  C   UNL A   1      34.620  24.437  25.222  1.00  0.00     0.061 A 
ATOM     14  C   UNL A   1      34.886  22.952  23.152  1.00  0.00     0.067 C 
ATOM     15  C   UNL A   1      34.528  24.227  23.846  1.00  0.00     0.050 A 
ATOM     16  N   UNL A   1      34.032  25.175  22.996  1.00  0.00    -0.261 NA
ATOM     17  C   UNL A   1      33.522  26.310  23.519  1.00  0.00     0.111 A 
ATOM     18  C   UNL A   1      34.054  25.627  25.724  1.00  0.00     0.017 A 
ATOM     19  C   UNL A   1      33.492  26.571  24.871  1.00  0.00     0.021 A 
ENDBRANCH  10  13
ENDBRANCH   8   9
ENDBRANCH   7   8
ENDBRANCH   6   7
ENDBRANCH   5   6
ENDBRANCH   3   5
ENDBRANCH   2   3
ENDBRANCH   1   2
BRANCH   1  20
ATOM     20  C   UNL A   1      43.426  19.208  25.127  1.00  0.00     0.202 C 
BRANCH  20  21
ATOM     21  O   UNL A   1      44.636  19.903  25.438  1.00  0.00    -0.374 OA
BRANCH  21  22
ATOM     22  C   UNL A   1      45.034  20.915  24.519  1.00  0.00     0.202 C 
BRANCH  22  23
ATOM     23  C   UNL A   1      44.184  22.194  24.558  1.00  0.00     0.261 C 
BRANCH  23  24
ATOM     24  O   UNL A   1      44.446  22.973  25.739  1.00  0.00    -0.460 OA
BRANCH  24  25
ATOM     25  C   UNL A   1      44.645  24.291  25.500  1.00  0.00     0.338 C 
ATOM     26  O   UNL A   1      45.327  24.788  24.613  1.00  0.00    -0.246 OA
BRANCH  25  27
ATOM     27  C   UNL A   1      43.769  25.110  26.356  1.00  0.00     0.060 A 
ATOM     28  C   UNL A   1      44.109  26.462  26.501  1.00  0.00     0.016 A 
ATOM     29  C   UNL A   1      42.689  24.572  27.060  1.00  0.00     0.016 A 
ATOM     30  C   UNL A   1      43.408  27.266  27.394  1.00  0.00     0.010 A 
ATOM     31  C   UNL A   1      41.989  25.382  27.965  1.00  0.00     0.010 A 
ATOM     32  C   UNL A   1      42.372  26.721  28.164  1.00  0.00    -0.014 A 
BRANCH  32  33
ATOM     33  C   UNL A   1      41.821  27.519  29.287  1.00  0.00     0.031 A 
ATOM     34  C   UNL A   1      42.510  27.465  30.623  1.00  0.00     0.074 A 
ATOM     35  C   UNL A   1      40.769  28.337  29.103  1.00  0.00     0.049 A 
ATOM     36  N   UNL A   1      42.229  28.106  31.729  1.00  0.00    -0.248 NA
ATOM     37  C   UNL A   1      43.676  26.571  30.724  1.00  0.00     0.031 C 
ATOM     38  C   UNL A   1      40.043  28.509  27.847  1.00  0.00     0.029 A 
ATOM     39  N   UNL A   1      40.136  29.181  29.979  1.00  0.00    -0.354 N 
ATOM     40  C   UNL A   1      43.182  27.696  32.654  1.00  0.00     0.074 A 
ATOM     41  C   UNL A   1      44.026  26.726  31.992  1.00  0.00     0.031 C 
ATOM     42  C   UNL A   1      39.060  29.407  28.033  1.00  0.00     0.029 A 
ATOM     43  C   UNL A   1      39.075  29.853  29.425  1.00  0.00     0.049 A 
ATOM     44  H   UNL A   1      40.416  29.295  30.916  1.00  0.00     0.167 HD
ATOM     45  C   UNL A   1      43.347  28.100  33.936  1.00  0.00     0.037 A 
ATOM     46  C   UNL A   1      38.208  30.721  29.983  1.00  0.00     0.037 A 
ATOM     47  C   UNL A   1      42.509  29.066  34.596  1.00  0.00     0.049 A 
ATOM     48  C   UNL A   1      38.370  31.104  31.430  1.00  0.00     0.074 A 
ATOM     49  C   UNL A   1      42.604  29.551  35.889  1.00  0.00     0.029 A 
ATOM     50  N   UNL A   1      41.417  29.689  34.014  1.00  0.00    -0.354 N 
ATOM     51  N   UNL A   1      39.289  30.729  32.287  1.00  0.00    -0.248 NA
ATOM     52  C   UNL A   1      37.375  32.034  31.986  1.00  0.00     0.031 C 
ATOM     53  C   UNL A   1      41.542  30.436  36.103  1.00  0.00     0.029 A 
ATOM     54  C   UNL A   1      40.813  30.536  34.929  1.00  0.00     0.049 A 
ATOM     55  H   UNL A   1      41.114  29.550  33.088  1.00  0.00     0.167 HD
ATOM     56  C   UNL A   1      39.000  31.394  33.472  1.00  0.00     0.074 A 
ATOM     57  C   UNL A   1      37.827  32.204  33.221  1.00  0.00     0.031 C 
ATOM     58  C   UNL A   1      39.648  31.339  34.661  1.00  0.00     0.037 A 
BRANCH  45  59
ATOM     59  C   UNL A   1      44.468  27.479  34.714  1.00  0.00     0.057 A 
ATOM     60  C   UNL A   1      44.314  26.257  35.383  1.00  0.00     0.134 A 
ATOM     61  C   UNL A   1      45.722  28.096  34.775  1.00  0.00     0.134 A 
ATOM     62  F   UNL A   1      43.132  25.623  35.378  1.00  0.00    -0.206 F 
ATOM     63  C   UNL A   1      45.363  25.684  36.105  1.00  0.00     0.040 A 
ATOM     64  C   UNL A   1      46.786  27.522  35.473  1.00  0.00     0.040 A 
ATOM     65  F   UNL A   1      45.937  29.266  34.153  1.00  0.00    -0.206 F 
ATOM     66  C   UNL A   1      46.606  26.314  36.145  1.00  0.00     0.006 A 
ENDBRANCH  45  59
BRANCH  46  67
ATOM     67  C   UNL A   1      37.100  31.289  29.173  1.00  0.00     0.057 A 
ATOM     68  C   UNL A   1      37.125  32.616  28.734  1.00  0.00     0.134 A 
ATOM     69  C   UNL A   1      35.979  30.518  28.838  1.00  0.00     0.134 A 
ATOM     70  F   UNL A   1      38.160  33.411  29.044  1.00  0.00    -0.206 F 
ATOM     71  C   UNL A   1      36.069  33.164  28.002  1.00  0.00     0.040 A 
ATOM     72  C   UNL A   1      34.928  31.046  28.088  1.00  0.00     0.040 A 
ATOM     73  F   UNL A   1      35.895  29.238  29.231  1.00  0.00    -0.206 F 
ATOM     74  C   UNL A   1      34.968  32.376  27.674  1.00  0.00     0.006 A 
ENDBRANCH  46  67
BRANCH  58  75
ATOM     75  C   UNL A   1      39.123  32.201  35.772  1.00  0.00     0.057 A 
ATOM     76  C   UNL A   1      38.235  31.704  36.735  1.00  0.00     0.134 A 
ATOM     77  C   UNL A   1      39.545  33.530  35.905  1.00  0.00     0.134 A 
ATOM     78  F   UNL A   1      37.784  30.442  36.656  1.00  0.00    -0.206 F 
ATOM     79  C   UNL A   1      37.769  32.505  37.778  1.00  0.00     0.040 A 
ATOM     80  C   UNL A   1      39.104  34.333  36.957  1.00  0.00     0.040 A 
ATOM     81  F   UNL A   1      40.402  34.063  35.022  1.00  0.00    -0.206 F 
ATOM     82  C   UNL A   1      38.209  33.822  37.895  1.00  0.00     0.006 A 
ENDBRANCH  58  75
ENDBRANCH  32  33
ENDBRANCH  25  27
ENDBRANCH  24  25
ENDBRANCH  23  24
ENDBRANCH  22  23
ENDBRANCH  21  22
ENDBRANCH  20  21
ENDBRANCH   1  20
TORSDOF 19
ENDMDL
