MODEL 1
REMARK VINA RESULT:     -11.9      0.000      0.000
REMARK SMILES CCCc1cc(S(F)(F)(F)(F)F)cc2c1O[C@@H](C(F)(F)F)C(C(=O)OCCOCCOC(=O)c1ccc(-c3c4nc(c(-c5c(F)cccc5F)c5ccc([nH]5)c(-c5c(F)cccc5F)c5nc(c(-c6c(F)cccc6F)c6ccc3[nH]6)C=C5)C=C4)cc1)=C2
REMARK SMILES IDX 28 1 27 2 26 3 25 4 23 5 24 6 22 7 4 8 5 9 15 10 6 11 14 12
REMARK SMILES IDX 16 13 13 14 88 15 17 16 3 17 2 18 1 19 7 20 8 21 9 22 10 23
REMARK SMILES IDX 11 24 12 25 18 26 19 27 20 28 21 29 29 30 30 31 31 32 32 33
REMARK SMILES IDX 33 34 34 35 35 36 87 37 36 38 86 39 37 40 38 41 39 42 80 43
REMARK SMILES IDX 40 44 85 45 79 46 81 47 41 48 84 49 78 50 77 51 42 53 68 54
REMARK SMILES IDX 51 55 67 56 52 57 55 58 66 59 82 60 53 61 54 62 65 64 83 65
REMARK SMILES IDX 56 66 43 67 44 68 49 69 45 70 46 71 48 72 50 73 47 74 69 75
REMARK SMILES IDX 70 76 75 77 71 78 72 79 74 80 76 81 73 82 57 83 58 84 63 85
REMARK SMILES IDX 59 86 60 87 62 88 64 89 61 90
REMARK H PARENT 81 52 55 63
REMARK Flexibility Score: inf
ROOT
ATOM      1  O   UNL A   1      31.579  30.824  26.528  1.00  0.00    -0.374 OA
ENDROOT
BRANCH   1   2
ATOM      2  C   UNL A   1      32.842  30.505  27.092  1.00  0.00     0.202 C 
BRANCH   2   3
ATOM      3  C   UNL A   1      33.462  29.349  26.325  1.00  0.00     0.261 C 
BRANCH   3   4
ATOM      4  O   UNL A   1      32.434  28.574  25.726  1.00  0.00    -0.460 OA
BRANCH   4   5
ATOM      5  C   UNL A   1      32.625  28.018  24.433  1.00  0.00     0.338 C 
ATOM      6  O   UNL A   1      32.554  28.762  23.406  1.00  0.00    -0.246 OA
BRANCH   5   7
ATOM      7  C   UNL A   1      32.913  26.534  24.278  1.00  0.00     0.087 C 
ATOM      8  C   UNL A   1      33.389  22.384  24.249  1.00  0.00    -0.004 A 
ATOM      9  C   UNL A   1      34.611  21.827  24.582  1.00  0.00     0.032 A 
ATOM     10  C   UNL A   1      33.245  23.748  24.319  1.00  0.00     0.131 A 
ATOM     11  C   UNL A   1      35.659  22.614  24.980  1.00  0.00     0.108 A 
ATOM     12  C   UNL A   1      34.287  24.576  24.698  1.00  0.00     0.019 A 
ATOM     13  O   UNL A   1      31.998  24.277  24.094  1.00  0.00    -0.475 OA
ATOM     14  C   UNL A   1      35.500  23.984  25.031  1.00  0.00     0.036 A 
ATOM     15  C   UNL A   1      34.023  26.003  24.778  1.00  0.00     0.027 C 
ATOM     16  C   UNL A   1      31.936  25.624  23.547  1.00  0.00     0.316 C 
BRANCH   8  17
ATOM     17  C   UNL A   1      32.219  21.516  23.816  1.00  0.00     0.039 C 
BRANCH  17  18
ATOM     18  C   UNL A   1      32.267  20.192  24.561  1.00  0.00     0.001 C 
ATOM     19  C   UNL A   1      32.505  19.063  23.571  1.00  0.00     0.004 C 
ENDBRANCH  17  18
ENDBRANCH   8  17
BRANCH  11  20
ATOM     20  S   UNL A   1      37.242  21.863  25.435  1.00  0.00     0.310 S 
ATOM     21  F   UNL A   1      37.625  21.612  23.917  1.00  0.00    -0.094 F 
ATOM     22  F   UNL A   1      36.540  20.452  25.420  1.00  0.00    -0.094 F 
ATOM     23  F   UNL A   1      38.600  21.214  25.823  1.00  0.00    -0.094 F 
ATOM     24  F   UNL A   1      37.956  23.266  25.309  1.00  0.00    -0.094 F 
ATOM     25  F   UNL A   1      35.895  22.520  24.932  1.00  0.00    -0.094 F 
ENDBRANCH  11  20
BRANCH  16  26
ATOM     26  C   UNL A   1      30.526  26.166  23.722  1.00  0.00     0.430 C 
ATOM     27  F   UNL A   1      30.317  27.147  22.848  1.00  0.00    -0.167 F 
ATOM     28  F   UNL A   1      29.646  25.191  23.513  1.00  0.00    -0.167 F 
ATOM     29  F   UNL A   1      30.382  26.636  24.958  1.00  0.00    -0.167 F 
ENDBRANCH  16  26
ENDBRANCH   5   7
ENDBRANCH   4   5
ENDBRANCH   3   4
ENDBRANCH   2   3
ENDBRANCH   1   2
BRANCH   1  30
ATOM     30  C   UNL A   1      31.384  32.230  26.568  1.00  0.00     0.202 C 
BRANCH  30  31
ATOM     31  C   UNL A   1      32.519  32.877  27.344  1.00  0.00     0.261 C 
BRANCH  31  32
ATOM     32  O   UNL A   1      32.135  34.183  27.745  1.00  0.00    -0.460 OA
BRANCH  32  33
ATOM     33  C   UNL A   1      32.923  34.896  28.687  1.00  0.00     0.338 C 
ATOM     34  O   UNL A   1      32.504  36.001  29.158  1.00  0.00    -0.246 OA
BRANCH  33  35
ATOM     35  C   UNL A   1      34.265  34.340  29.132  1.00  0.00     0.060 A 
ATOM     36  C   UNL A   1      35.419  34.550  28.396  1.00  0.00     0.016 A 
ATOM     37  C   UNL A   1      34.272  33.576  30.218  1.00  0.00     0.016 A 
ATOM     38  C   UNL A   1      36.478  33.671  28.724  1.00  0.00     0.010 A 
ATOM     39  C   UNL A   1      35.388  32.849  30.556  1.00  0.00     0.010 A 
ATOM     40  C   UNL A   1      36.545  32.963  29.837  1.00  0.00    -0.014 A 
BRANCH  40  41
ATOM     41  C   UNL A   1      37.839  32.309  30.293  1.00  0.00     0.031 A 
ATOM     42  C   UNL A   1      38.501  32.957  31.337  1.00  0.00     0.074 A 
ATOM     43  C   UNL A   1      38.272  31.128  29.718  1.00  0.00     0.049 A 
ATOM     44  N   UNL A   1      39.605  32.560  31.972  1.00  0.00    -0.248 NA
ATOM     45  C   UNL A   1      38.062  34.231  31.926  1.00  0.00     0.031 C 
ATOM     46  C   UNL A   1      37.606  30.462  28.669  1.00  0.00     0.029 A 
ATOM     47  N   UNL A   1      39.392  30.392  30.038  1.00  0.00    -0.354 N 
ATOM     48  C   UNL A   1      39.927  33.435  32.928  1.00  0.00     0.074 A 
ATOM     49  C   UNL A   1      38.942  34.525  32.908  1.00  0.00     0.031 C 
ATOM     50  C   UNL A   1      38.320  29.350  28.355  1.00  0.00     0.029 A 
ATOM     51  C   UNL A   1      39.444  29.300  29.200  1.00  0.00     0.049 A 
ATOM     52  H   UNL A   1      40.044  30.611  30.743  1.00  0.00     0.167 HD
ATOM     53  C   UNL A   1      41.001  33.363  33.817  1.00  0.00     0.037 A 
ATOM     54  C   UNL A   1      40.410  28.306  29.160  1.00  0.00     0.037 A 
ATOM     55  C   UNL A   1      41.941  32.346  33.805  1.00  0.00     0.049 A 
ATOM     56  C   UNL A   1      41.516  28.266  30.010  1.00  0.00     0.074 A 
ATOM     57  C   UNL A   1      43.026  32.255  34.699  1.00  0.00     0.029 A 
ATOM     58  N   UNL A   1      42.007  31.267  32.952  1.00  0.00    -0.354 N 
ATOM     59  N   UNL A   1      41.815  29.118  30.993  1.00  0.00    -0.248 NA
ATOM     60  C   UNL A   1      42.562  27.236  29.956  1.00  0.00     0.031 C 
ATOM     61  C   UNL A   1      43.740  31.142  34.383  1.00  0.00     0.029 A 
ATOM     62  C   UNL A   1      43.114  30.520  33.287  1.00  0.00     0.049 A 
ATOM     63  H   UNL A   1      41.371  31.064  32.228  1.00  0.00     0.167 HD
ATOM     64  C   UNL A   1      42.943  28.742  31.600  1.00  0.00     0.074 A 
ATOM     65  C   UNL A   1      43.444  27.530  30.936  1.00  0.00     0.031 C 
ATOM     66  C   UNL A   1      43.573  29.359  32.683  1.00  0.00     0.037 A 
BRANCH  53  67
ATOM     67  C   UNL A   1      41.146  34.463  34.857  1.00  0.00     0.057 A 
ATOM     68  C   UNL A   1      41.818  35.633  34.543  1.00  0.00     0.134 A 
ATOM     69  C   UNL A   1      40.554  34.302  36.035  1.00  0.00     0.134 A 
ATOM     70  F   UNL A   1      42.202  35.940  33.308  1.00  0.00    -0.206 F 
ATOM     71  C   UNL A   1      42.058  36.471  35.657  1.00  0.00     0.040 A 
ATOM     72  C   UNL A   1      40.721  35.230  37.033  1.00  0.00     0.040 A 
ATOM     73  F   UNL A   1      39.792  33.232  36.249  1.00  0.00    -0.206 F 
ATOM     74  C   UNL A   1      41.423  36.383  36.812  1.00  0.00     0.006 A 
ENDBRANCH  53  67
BRANCH  54  75
ATOM     75  C   UNL A   1      40.255  27.197  28.131  1.00  0.00     0.057 A 
ATOM     76  C   UNL A   1      39.651  26.008  28.505  1.00  0.00     0.134 A 
ATOM     77  C   UNL A   1      40.765  27.359  26.916  1.00  0.00     0.134 A 
ATOM     78  F   UNL A   1      38.911  25.883  29.602  1.00  0.00    -0.206 F 
ATOM     79  C   UNL A   1      39.895  24.936  27.612  1.00  0.00     0.040 A 
ATOM     80  C   UNL A   1      40.848  26.300  26.046  1.00  0.00     0.040 A 
ATOM     81  F   UNL A   1      41.200  28.558  26.539  1.00  0.00    -0.206 F 
ATOM     82  C   UNL A   1      40.326  25.080  26.372  1.00  0.00     0.006 A 
ENDBRANCH  54  75
BRANCH  66  83
ATOM     83  C   UNL A   1      44.836  28.719  33.232  1.00  0.00     0.057 A 
ATOM     84  C   UNL A   1      44.765  27.734  34.203  1.00  0.00     0.134 A 
ATOM     85  C   UNL A   1      46.005  29.154  32.777  1.00  0.00     0.134 A 
ATOM     86  F   UNL A   1      43.639  27.092  34.505  1.00  0.00    -0.206 F 
ATOM     87  C   UNL A   1      45.999  27.471  34.846  1.00  0.00     0.040 A 
ATOM     88  C   UNL A   1      47.179  28.751  33.366  1.00  0.00     0.040 A 
ATOM     89  F   UNL A   1      46.039  29.988  31.742  1.00  0.00    -0.206 F 
ATOM     90  C   UNL A   1      47.179  27.824  34.372  1.00  0.00     0.006 A 
ENDBRANCH  66  83
ENDBRANCH  40  41
ENDBRANCH  33  35
ENDBRANCH  32  33
ENDBRANCH  31  32
ENDBRANCH  30  31
ENDBRANCH   1  30
TORSDOF 18
ENDMDL
MODEL 2
REMARK VINA RESULT:     -11.8      1.535      2.205
REMARK SMILES CCCc1cc(S(F)(F)(F)(F)F)cc2c1O[C@@H](C(F)(F)F)C(C(=O)OCCOCCOC(=O)c1ccc(-c3c4nc(c(-c5c(F)cccc5F)c5ccc([nH]5)c(-c5c(F)cccc5F)c5nc(c(-c6c(F)cccc6F)c6ccc3[nH]6)C=C5)C=C4)cc1)=C2
REMARK SMILES IDX 28 1 27 2 26 3 25 4 23 5 24 6 22 7 4 8 5 9 15 10 6 11 14 12
REMARK SMILES IDX 16 13 13 14 88 15 17 16 3 17 2 18 1 19 7 20 8 21 9 22 10 23
REMARK SMILES IDX 11 24 12 25 18 26 19 27 20 28 21 29 29 30 30 31 31 32 32 33
REMARK SMILES IDX 33 34 34 35 35 36 87 37 36 38 86 39 37 40 38 41 39 42 80 43
REMARK SMILES IDX 40 44 85 45 79 46 81 47 41 48 84 49 78 50 77 51 42 53 68 54
REMARK SMILES IDX 51 55 67 56 52 57 55 58 66 59 82 60 53 61 54 62 65 64 83 65
REMARK SMILES IDX 56 66 43 67 44 68 49 69 45 70 46 71 48 72 50 73 47 74 69 75
REMARK SMILES IDX 70 76 75 77 71 78 72 79 74 80 76 81 73 82 57 83 58 84 63 85
REMARK SMILES IDX 59 86 60 87 62 88 64 89 61 90
REMARK H PARENT 81 52 55 63
REMARK Flexibility Score: inf
ROOT
ATOM      1  O   UNL A   1      31.565  30.446  26.653  1.00  0.00    -0.374 OA
ENDROOT
BRANCH   1   2
ATOM      2  C   UNL A   1      32.960  30.215  26.777  1.00  0.00     0.202 C 
BRANCH   2   3
ATOM      3  C   UNL A   1      33.419  29.275  25.675  1.00  0.00     0.261 C 
BRANCH   3   4
ATOM      4  O   UNL A   1      32.579  29.430  24.541  1.00  0.00    -0.460 OA
BRANCH   4   5
ATOM      5  C   UNL A   1      32.657  28.504  23.467  1.00  0.00     0.338 C 
ATOM      6  O   UNL A   1      32.716  28.926  22.269  1.00  0.00    -0.246 OA
BRANCH   5   7
ATOM      7  C   UNL A   1      32.670  27.011  23.748  1.00  0.00     0.087 C 
ATOM      8  C   UNL A   1      32.609  23.030  25.009  1.00  0.00    -0.004 A 
ATOM      9  C   UNL A   1      33.772  22.281  24.991  1.00  0.00     0.032 A 
ATOM     10  C   UNL A   1      32.668  24.351  24.641  1.00  0.00     0.131 A 
ATOM     11  C   UNL A   1      34.964  22.843  24.618  1.00  0.00     0.108 A 
ATOM     12  C   UNL A   1      33.850  24.947  24.240  1.00  0.00     0.019 A 
ATOM     13  O   UNL A   1      31.530  25.109  24.771  1.00  0.00    -0.475 OA
ATOM     14  C   UNL A   1      35.002  24.168  24.237  1.00  0.00     0.036 A 
ATOM     15  C   UNL A   1      33.817  26.361  23.906  1.00  0.00     0.027 C 
ATOM     16  C   UNL A   1      31.368  26.229  23.856  1.00  0.00     0.316 C 
BRANCH   8  17
ATOM     17  C   UNL A   1      31.283  22.416  25.432  1.00  0.00     0.039 C 
BRANCH  17  18
ATOM     18  C   UNL A   1      30.978  22.809  26.868  1.00  0.00     0.001 C 
ATOM     19  C   UNL A   1      29.496  22.611  27.144  1.00  0.00     0.004 C 
ENDBRANCH  17  18
ENDBRANCH   8  17
BRANCH  11  20
ATOM     20  S   UNL A   1      36.480  21.852  24.623  1.00  0.00     0.310 S 
ATOM     21  F   UNL A   1      37.325  23.044  25.243  1.00  0.00    -0.094 F 
ATOM     22  F   UNL A   1      36.828  22.436  23.202  1.00  0.00    -0.094 F 
ATOM     23  F   UNL A   1      37.784  21.006  24.626  1.00  0.00    -0.094 F 
ATOM     24  F   UNL A   1      36.184  21.388  26.103  1.00  0.00    -0.094 F 
ATOM     25  F   UNL A   1      35.211  22.793  24.680  1.00  0.00    -0.094 F 
ENDBRANCH  11  20
BRANCH  16  26
ATOM     26  C   UNL A   1      30.278  27.148  24.384  1.00  0.00     0.430 C 
ATOM     27  F   UNL A   1      30.061  28.125  23.509  1.00  0.00    -0.167 F 
ATOM     28  F   UNL A   1      29.158  26.452  24.560  1.00  0.00    -0.167 F 
ATOM     29  F   UNL A   1      30.664  27.670  25.545  1.00  0.00    -0.167 F 
ENDBRANCH  16  26
ENDBRANCH   5   7
ENDBRANCH   4   5
ENDBRANCH   3   4
ENDBRANCH   2   3
ENDBRANCH   1   2
BRANCH   1  30
ATOM     30  C   UNL A   1      31.321  31.841  26.557  1.00  0.00     0.202 C 
BRANCH  30  31
ATOM     31  C   UNL A   1      32.532  32.602  27.071  1.00  0.00     0.261 C 
BRANCH  31  32
ATOM     32  O   UNL A   1      32.128  33.886  27.523  1.00  0.00    -0.460 OA
BRANCH  32  33
ATOM     33  C   UNL A   1      32.949  34.610  28.428  1.00  0.00     0.338 C 
ATOM     34  O   UNL A   1      32.640  35.800  28.752  1.00  0.00    -0.246 OA
BRANCH  33  35
ATOM     35  C   UNL A   1      34.196  33.964  29.008  1.00  0.00     0.060 A 
ATOM     36  C   UNL A   1      35.453  34.202  28.476  1.00  0.00     0.016 A 
ATOM     37  C   UNL A   1      34.022  33.097  29.998  1.00  0.00     0.016 A 
ATOM     38  C   UNL A   1      36.430  33.256  28.865  1.00  0.00     0.010 A 
ATOM     39  C   UNL A   1      35.057  32.300  30.422  1.00  0.00     0.010 A 
ATOM     40  C   UNL A   1      36.312  32.441  29.897  1.00  0.00    -0.014 A 
BRANCH  40  41
ATOM     41  C   UNL A   1      37.508  31.698  30.471  1.00  0.00     0.031 A 
ATOM     42  C   UNL A   1      37.815  31.994  31.800  1.00  0.00     0.074 A 
ATOM     43  C   UNL A   1      38.190  30.765  29.709  1.00  0.00     0.049 A 
ATOM     44  N   UNL A   1      38.756  31.435  32.562  1.00  0.00    -0.248 NA
ATOM     45  C   UNL A   1      37.114  33.009  32.601  1.00  0.00     0.031 C 
ATOM     46  C   UNL A   1      37.881  30.454  28.369  1.00  0.00     0.029 A 
ATOM     47  N   UNL A   1      39.261  29.985  30.086  1.00  0.00    -0.354 N 
ATOM     48  C   UNL A   1      38.735  31.968  33.786  1.00  0.00     0.074 A 
ATOM     49  C   UNL A   1      37.683  32.992  33.826  1.00  0.00     0.031 C 
ATOM     50  C   UNL A   1      38.760  29.510  27.943  1.00  0.00     0.029 A 
ATOM     51  C   UNL A   1      39.633  29.214  29.007  1.00  0.00     0.049 A 
ATOM     52  H   UNL A   1      39.687  29.981  30.973  1.00  0.00     0.167 HD
ATOM     53  C   UNL A   1      39.551  31.637  34.869  1.00  0.00     0.037 A 
ATOM     54  C   UNL A   1      40.672  28.300  28.935  1.00  0.00     0.037 A 
ATOM     55  C   UNL A   1      40.562  30.692  34.810  1.00  0.00     0.049 A 
ATOM     56  C   UNL A   1      41.526  28.012  30.002  1.00  0.00     0.074 A 
ATOM     57  C   UNL A   1      41.388  30.342  35.895  1.00  0.00     0.029 A 
ATOM     58  N   UNL A   1      40.950  29.938  33.724  1.00  0.00    -0.354 N 
ATOM     59  N   UNL A   1      41.479  28.515  31.237  1.00  0.00    -0.248 NA
ATOM     60  C   UNL A   1      42.650  27.069  29.929  1.00  0.00     0.031 C 
ATOM     61  C   UNL A   1      42.267  29.397  35.467  1.00  0.00     0.029 A 
ATOM     62  C   UNL A   1      42.006  29.142  34.108  1.00  0.00     0.049 A 
ATOM     63  H   UNL A   1      40.542  29.964  32.828  1.00  0.00     0.167 HD
ATOM     64  C   UNL A   1      42.448  27.985  31.987  1.00  0.00     0.074 A 
ATOM     65  C   UNL A   1      43.220  27.053  31.153  1.00  0.00     0.031 C 
ATOM     66  C   UNL A   1      42.717  28.239  33.333  1.00  0.00     0.037 A 
BRANCH  53  67
ATOM     67  C   UNL A   1      39.316  32.355  36.189  1.00  0.00     0.057 A 
ATOM     68  C   UNL A   1      38.379  31.872  37.087  1.00  0.00     0.134 A 
ATOM     69  C   UNL A   1      40.077  33.403  36.483  1.00  0.00     0.134 A 
ATOM     70  F   UNL A   1      37.781  30.693  36.948  1.00  0.00    -0.206 F 
ATOM     71  C   UNL A   1      38.117  32.747  38.168  1.00  0.00     0.040 A 
ATOM     72  C   UNL A   1      39.851  34.132  37.625  1.00  0.00     0.040 A 
ATOM     73  F   UNL A   1      41.067  33.749  35.664  1.00  0.00    -0.206 F 
ATOM     74  C   UNL A   1      38.901  33.746  38.530  1.00  0.00     0.006 A 
ENDBRANCH  53  67
BRANCH  54  75
ATOM     75  C   UNL A   1      40.896  27.570  27.620  1.00  0.00     0.057 A 
ATOM     76  C   UNL A   1      40.295  26.338  27.420  1.00  0.00     0.134 A 
ATOM     77  C   UNL A   1      41.720  28.089  26.719  1.00  0.00     0.134 A 
ATOM     78  F   UNL A   1      39.282  25.896  28.159  1.00  0.00    -0.206 F 
ATOM     79  C   UNL A   1      40.857  25.592  26.357  1.00  0.00     0.040 A 
ATOM     80  C   UNL A   1      42.122  27.352  25.631  1.00  0.00     0.040 A 
ATOM     81  F   UNL A   1      42.161  29.335  26.869  1.00  0.00    -0.206 F 
ATOM     82  C   UNL A   1      41.615  26.103  25.403  1.00  0.00     0.006 A 
ENDBRANCH  54  75
BRANCH  66  83
ATOM     83  C   UNL A   1      43.858  27.479  33.988  1.00  0.00     0.057 A 
ATOM     84  C   UNL A   1      45.149  27.982  33.964  1.00  0.00     0.134 A 
ATOM     85  C   UNL A   1      43.585  26.309  34.553  1.00  0.00     0.134 A 
ATOM     86  F   UNL A   1      45.431  29.242  33.643  1.00  0.00    -0.206 F 
ATOM     87  C   UNL A   1      46.141  27.034  34.312  1.00  0.00     0.040 A 
ATOM     88  C   UNL A   1      44.598  25.492  34.993  1.00  0.00     0.040 A 
ATOM     89  F   UNL A   1      42.320  25.926  34.693  1.00  0.00    -0.206 F 
ATOM     90  C   UNL A   1      45.903  25.900  34.945  1.00  0.00     0.006 A 
ENDBRANCH  66  83
ENDBRANCH  40  41
ENDBRANCH  33  35
ENDBRANCH  32  33
ENDBRANCH  31  32
ENDBRANCH  30  31
ENDBRANCH   1  30
TORSDOF 18
ENDMDL
MODEL 3
REMARK VINA RESULT:     -11.8      0.589      6.012
REMARK SMILES CCCc1cc(S(F)(F)(F)(F)F)cc2c1O[C@@H](C(F)(F)F)C(C(=O)OCCOCCOC(=O)c1ccc(-c3c4nc(c(-c5c(F)cccc5F)c5ccc([nH]5)c(-c5c(F)cccc5F)c5nc(c(-c6c(F)cccc6F)c6ccc3[nH]6)C=C5)C=C4)cc1)=C2
REMARK SMILES IDX 28 1 27 2 26 3 25 4 23 5 24 6 22 7 4 8 5 9 15 10 6 11 14 12
REMARK SMILES IDX 16 13 13 14 88 15 17 16 3 17 2 18 1 19 7 20 8 21 9 22 10 23
REMARK SMILES IDX 11 24 12 25 18 26 19 27 20 28 21 29 29 30 30 31 31 32 32 33
REMARK SMILES IDX 33 34 34 35 35 36 87 37 36 38 86 39 37 40 38 41 39 42 80 43
REMARK SMILES IDX 40 44 85 45 79 46 81 47 41 48 84 49 78 50 77 51 42 53 68 54
REMARK SMILES IDX 51 55 67 56 52 57 55 58 66 59 82 60 53 61 54 62 65 64 83 65
REMARK SMILES IDX 56 66 43 67 44 68 49 69 45 70 46 71 48 72 50 73 47 74 69 75
REMARK SMILES IDX 70 76 75 77 71 78 72 79 74 80 76 81 73 82 57 83 58 84 63 85
REMARK SMILES IDX 59 86 60 87 62 88 64 89 61 90
REMARK H PARENT 81 52 55 63
REMARK Flexibility Score: inf
ROOT
ATOM      1  O   UNL A   1      31.552  30.559  26.713  1.00  0.00    -0.374 OA
ENDROOT
BRANCH   1   2
ATOM      2  C   UNL A   1      32.919  30.210  26.868  1.00  0.00     0.202 C 
BRANCH   2   3
ATOM      3  C   UNL A   1      33.345  29.310  25.720  1.00  0.00     0.261 C 
BRANCH   3   4
ATOM      4  O   UNL A   1      32.217  29.007  24.913  1.00  0.00    -0.460 OA
BRANCH   4   5
ATOM      5  C   UNL A   1      32.381  28.271  23.710  1.00  0.00     0.338 C 
ATOM      6  O   UNL A   1      32.281  28.859  22.587  1.00  0.00    -0.246 OA
BRANCH   5   7
ATOM      7  C   UNL A   1      32.676  26.781  23.764  1.00  0.00     0.087 C 
ATOM      8  C   UNL A   1      33.233  22.685  24.357  1.00  0.00    -0.004 A 
ATOM      9  C   UNL A   1      34.503  22.187  24.592  1.00  0.00     0.032 A 
ATOM     10  C   UNL A   1      33.071  24.041  24.219  1.00  0.00     0.131 A 
ATOM     11  C   UNL A   1      35.581  23.027  24.690  1.00  0.00     0.108 A 
ATOM     12  C   UNL A   1      34.139  24.918  24.293  1.00  0.00     0.019 A 
ATOM     13  O   UNL A   1      31.793  24.529  24.099  1.00  0.00    -0.475 OA
ATOM     14  C   UNL A   1      35.401  24.386  24.534  1.00  0.00     0.036 A 
ATOM     15  C   UNL A   1      33.859  26.339  24.172  1.00  0.00     0.027 C 
ATOM     16  C   UNL A   1      31.620  25.764  23.350  1.00  0.00     0.316 C 
BRANCH   8  17
ATOM     17  C   UNL A   1      32.030  21.760  24.257  1.00  0.00     0.039 C 
BRANCH  17  18
ATOM     18  C   UNL A   1      32.368  20.586  23.353  1.00  0.00     0.001 C 
ATOM     19  C   UNL A   1      32.485  19.321  24.189  1.00  0.00     0.004 C 
ENDBRANCH  17  18
ENDBRANCH   8  17
BRANCH  11  20
ATOM     20  S   UNL A   1      37.230  22.357  25.021  1.00  0.00     0.310 S 
ATOM     21  F   UNL A   1      36.629  21.058  25.704  1.00  0.00    -0.094 F 
ATOM     22  F   UNL A   1      37.186  23.040  26.441  1.00  0.00    -0.094 F 
ATOM     23  F   UNL A   1      38.644  21.782  25.310  1.00  0.00    -0.094 F 
ATOM     24  F   UNL A   1      37.195  21.568  23.654  1.00  0.00    -0.094 F 
ATOM     25  F   UNL A   1      35.748  22.842  24.761  1.00  0.00    -0.094 F 
ENDBRANCH  11  20
BRANCH  16  26
ATOM     26  C   UNL A   1      30.241  26.333  23.642  1.00  0.00     0.430 C 
ATOM     27  F   UNL A   1      29.350  25.347  23.662  1.00  0.00    -0.167 F 
ATOM     28  F   UNL A   1      30.253  26.945  24.823  1.00  0.00    -0.167 F 
ATOM     29  F   UNL A   1      29.913  27.207  22.693  1.00  0.00    -0.167 F 
ENDBRANCH  16  26
ENDBRANCH   5   7
ENDBRANCH   4   5
ENDBRANCH   3   4
ENDBRANCH   2   3
ENDBRANCH   1   2
BRANCH   1  30
ATOM     30  C   UNL A   1      31.419  31.973  26.723  1.00  0.00     0.202 C 
BRANCH  30  31
ATOM     31  C   UNL A   1      32.596  32.586  27.463  1.00  0.00     0.261 C 
BRANCH  31  32
ATOM     32  O   UNL A   1      32.358  33.971  27.667  1.00  0.00    -0.460 OA
BRANCH  32  33
ATOM     33  C   UNL A   1      33.055  34.668  28.688  1.00  0.00     0.338 C 
ATOM     34  O   UNL A   1      32.550  35.717  29.200  1.00  0.00    -0.246 OA
BRANCH  33  35
ATOM     35  C   UNL A   1      34.405  34.162  29.170  1.00  0.00     0.060 A 
ATOM     36  C   UNL A   1      35.560  34.358  28.430  1.00  0.00     0.016 A 
ATOM     37  C   UNL A   1      34.418  33.454  30.293  1.00  0.00     0.016 A 
ATOM     38  C   UNL A   1      36.633  33.517  28.810  1.00  0.00     0.010 A 
ATOM     39  C   UNL A   1      35.546  32.768  30.674  1.00  0.00     0.010 A 
ATOM     40  C   UNL A   1      36.706  32.868  29.957  1.00  0.00    -0.014 A 
BRANCH  40  41
ATOM     41  C   UNL A   1      38.009  32.264  30.454  1.00  0.00     0.031 A 
ATOM     42  C   UNL A   1      38.361  31.043  29.877  1.00  0.00     0.074 A 
ATOM     43  C   UNL A   1      38.787  32.933  31.383  1.00  0.00     0.049 A 
ATOM     44  N   UNL A   1      39.478  30.341  30.075  1.00  0.00    -0.248 NA
ATOM     45  C   UNL A   1      37.520  30.313  28.916  1.00  0.00     0.031 C 
ATOM     46  C   UNL A   1      38.443  34.170  31.964  1.00  0.00     0.029 A 
ATOM     47  N   UNL A   1      40.001  32.546  31.905  1.00  0.00    -0.354 N 
ATOM     48  C   UNL A   1      39.464  29.232  29.331  1.00  0.00     0.074 A 
ATOM     49  C   UNL A   1      38.202  29.196  28.580  1.00  0.00     0.031 C 
ATOM     50  C   UNL A   1      39.429  34.517  32.832  1.00  0.00     0.029 A 
ATOM     51  C   UNL A   1      40.407  33.504  32.809  1.00  0.00     0.049 A 
ATOM     52  H   UNL A   1      40.493  31.726  31.673  1.00  0.00     0.167 HD
ATOM     53  C   UNL A   1      40.456  28.254  29.248  1.00  0.00     0.037 A 
ATOM     54  C   UNL A   1      41.559  33.511  33.579  1.00  0.00     0.037 A 
ATOM     55  C   UNL A   1      41.628  28.283  29.985  1.00  0.00     0.049 A 
ATOM     56  C   UNL A   1      42.523  32.501  33.539  1.00  0.00     0.074 A 
ATOM     57  C   UNL A   1      42.641  27.307  29.908  1.00  0.00     0.029 A 
ATOM     58  N   UNL A   1      42.022  29.228  30.907  1.00  0.00    -0.354 N 
ATOM     59  N   UNL A   1      42.528  31.414  32.765  1.00  0.00    -0.248 NA
ATOM     60  C   UNL A   1      43.732  32.481  34.373  1.00  0.00     0.031 C 
ATOM     61  C   UNL A   1      43.627  27.655  30.777  1.00  0.00     0.029 A 
ATOM     62  C   UNL A   1      43.247  28.852  31.412  1.00  0.00     0.049 A 
ATOM     63  H   UNL A   1      41.516  30.033  31.160  1.00  0.00     0.167 HD
ATOM     64  C   UNL A   1      43.626  30.691  32.995  1.00  0.00     0.074 A 
ATOM     65  C   UNL A   1      44.413  31.364  34.038  1.00  0.00     0.031 C 
ATOM     66  C   UNL A   1      44.006  29.500  32.374  1.00  0.00     0.037 A 
BRANCH  53  67
ATOM     67  C   UNL A   1      40.236  27.090  28.294  1.00  0.00     0.057 A 
ATOM     68  C   UNL A   1      39.495  25.991  28.695  1.00  0.00     0.134 A 
ATOM     69  C   UNL A   1      40.709  27.189  27.056  1.00  0.00     0.134 A 
ATOM     70  F   UNL A   1      38.796  25.961  29.826  1.00  0.00    -0.206 F 
ATOM     71  C   UNL A   1      39.548  24.903  27.792  1.00  0.00     0.040 A 
ATOM     72  C   UNL A   1      40.605  26.134  26.183  1.00  0.00     0.040 A 
ATOM     73  F   UNL A   1      41.287  28.320  26.660  1.00  0.00    -0.206 F 
ATOM     74  C   UNL A   1      39.937  24.994  26.533  1.00  0.00     0.006 A 
ENDBRANCH  53  67
BRANCH  54  75
ATOM     75  C   UNL A   1      41.786  34.683  34.520  1.00  0.00     0.057 A 
ATOM     76  C   UNL A   1      42.472  35.795  34.061  1.00  0.00     0.134 A 
ATOM     77  C   UNL A   1      41.388  34.591  35.783  1.00  0.00     0.134 A 
ATOM     78  F   UNL A   1      42.666  36.048  32.770  1.00  0.00    -0.206 F 
ATOM     79  C   UNL A   1      42.949  36.639  35.092  1.00  0.00     0.040 A 
ATOM     80  C   UNL A   1      41.780  35.526  36.710  1.00  0.00     0.040 A 
ATOM     81  F   UNL A   1      40.602  33.584  36.155  1.00  0.00    -0.206 F 
ATOM     82  C   UNL A   1      42.511  36.620  36.338  1.00  0.00     0.006 A 
ENDBRANCH  54  75
BRANCH  66  83
ATOM     83  C   UNL A   1      45.332  28.876  32.777  1.00  0.00     0.057 A 
ATOM     84  C   UNL A   1      46.503  29.222  32.124  1.00  0.00     0.134 A 
ATOM     85  C   UNL A   1      45.326  27.971  33.748  1.00  0.00     0.134 A 
ATOM     86  F   UNL A   1      46.606  30.288  31.334  1.00  0.00    -0.206 F 
ATOM     87  C   UNL A   1      47.581  28.340  32.373  1.00  0.00     0.040 A 
ATOM     88  C   UNL A   1      46.455  27.239  34.029  1.00  0.00     0.040 A 
ATOM     89  F   UNL A   1      44.218  27.771  34.455  1.00  0.00    -0.206 F 
ATOM     90  C   UNL A   1      47.633  27.487  33.380  1.00  0.00     0.006 A 
ENDBRANCH  66  83
ENDBRANCH  40  41
ENDBRANCH  33  35
ENDBRANCH  32  33
ENDBRANCH  31  32
ENDBRANCH  30  31
ENDBRANCH   1  30
TORSDOF 18
ENDMDL
