MODEL 1
REMARK VINA RESULT:     -10.3      0.000      0.000
REMARK SMILES O=C(OCCOCCOC(=O)[C@H]1C[C@@H]2N=CN=C2C[NH2+]1)c1ccc(-c2c3nc(c(-c4c(F)cccc4F)c4ccc([nH]4)c(-c4c(F)cccc4F)c4nc(c(-c5c(F)cccc5F)c5ccc2[nH]5)C=C4)C=C3)cc1
REMARK SMILES IDX 5 1 4 2 3 3 2 4 1 5 21 6 22 7 74 8 23 9 73 10 24 11 25 12
REMARK SMILES IDX 26 13 67 14 27 15 72 16 66 17 68 18 28 19 71 20 65 21 64 22
REMARK SMILES IDX 29 24 55 25 38 26 54 27 39 28 42 29 53 30 69 31 40 32 41 33
REMARK SMILES IDX 52 35 70 36 43 37 30 38 31 39 36 40 32 41 33 42 35 43 37 44
REMARK SMILES IDX 34 45 56 46 57 47 62 48 58 49 59 50 61 51 63 52 60 53 44 54
REMARK SMILES IDX 45 55 50 56 46 57 47 58 49 59 51 60 48 61 6 62 7 63 8 64
REMARK SMILES IDX 9 65 10 66 11 67 12 68 13 69 20 70 14 71 19 72 15 75 18 76
REMARK SMILES IDX 16 77 17 78
REMARK H PARENT 68 23 42 34 20 73 20 74
REMARK Flexibility Score: inf
ROOT
ATOM      1  C   UNL A   1      41.718  19.613  27.266  1.00  0.00     0.202 C 
ENDROOT
BRANCH   1   2
ATOM      2  C   UNL A   1      42.333  19.488  25.879  1.00  0.00     0.261 C 
BRANCH   2   3
ATOM      3  O   UNL A   1      43.760  19.715  25.814  1.00  0.00    -0.460 OA
BRANCH   3   4
ATOM      4  C   UNL A   1      44.279  20.553  24.881  1.00  0.00     0.338 C 
ATOM      5  O   UNL A   1      44.486  20.223  23.732  1.00  0.00    -0.246 OA
BRANCH   4   6
ATOM      6  C   UNL A   1      44.273  21.978  25.308  1.00  0.00     0.060 A 
ATOM      7  C   UNL A   1      45.055  22.436  26.371  1.00  0.00     0.016 A 
ATOM      8  C   UNL A   1      43.370  22.851  24.681  1.00  0.00     0.016 A 
ATOM      9  C   UNL A   1      44.889  23.717  26.857  1.00  0.00     0.010 A 
ATOM     10  C   UNL A   1      43.187  24.138  25.178  1.00  0.00     0.010 A 
ATOM     11  C   UNL A   1      43.916  24.543  26.298  1.00  0.00    -0.014 A 
BRANCH  11  12
ATOM     12  C   UNL A   1      43.699  25.814  26.972  1.00  0.00     0.031 A 
ATOM     13  C   UNL A   1      44.716  26.872  26.734  1.00  0.00     0.074 A 
ATOM     14  C   UNL A   1      42.622  26.031  27.749  1.00  0.00     0.049 A 
ATOM     15  N   UNL A   1      45.428  27.515  27.605  1.00  0.00    -0.248 NA
ATOM     16  C   UNL A   1      45.017  27.216  25.337  1.00  0.00     0.031 C 
ATOM     17  C   UNL A   1      41.428  25.192  27.873  1.00  0.00     0.029 A 
ATOM     18  N   UNL A   1      42.324  27.120  28.513  1.00  0.00    -0.354 N 
ATOM     19  C   UNL A   1      46.135  28.475  26.882  1.00  0.00     0.074 A 
ATOM     20  C   UNL A   1      45.934  28.170  25.490  1.00  0.00     0.031 C 
ATOM     21  C   UNL A   1      40.453  25.905  28.474  1.00  0.00     0.029 A 
ATOM     22  C   UNL A   1      40.989  27.195  28.874  1.00  0.00     0.049 A 
ATOM     23  H   UNL A   1      42.994  27.788  28.783  1.00  0.00     0.167 HD
ATOM     24  C   UNL A   1      46.647  29.586  27.479  1.00  0.00     0.037 A 
ATOM     25  C   UNL A   1      40.347  28.275  29.379  1.00  0.00     0.037 A 
ATOM     26  C   UNL A   1      46.874  29.383  28.886  1.00  0.00     0.049 A 
ATOM     27  C   UNL A   1      41.360  29.204  29.931  1.00  0.00     0.074 A 
ATOM     28  C   UNL A   1      47.606  28.485  29.641  1.00  0.00     0.029 A 
ATOM     29  N   UNL A   1      46.068  30.035  29.785  1.00  0.00    -0.354 N 
ATOM     30  N   UNL A   1      42.046  28.992  31.019  1.00  0.00    -0.248 NA
ATOM     31  C   UNL A   1      41.892  30.236  29.053  1.00  0.00     0.031 C 
ATOM     32  C   UNL A   1      46.858  28.307  30.843  1.00  0.00     0.029 A 
ATOM     33  C   UNL A   1      45.730  29.122  30.748  1.00  0.00     0.049 A 
ATOM     34  H   UNL A   1      45.786  30.977  29.746  1.00  0.00     0.167 HD
ATOM     35  C   UNL A   1      43.292  29.543  30.764  1.00  0.00     0.074 A 
ATOM     36  C   UNL A   1      43.099  30.397  29.597  1.00  0.00     0.031 C 
ATOM     37  C   UNL A   1      44.420  29.040  31.345  1.00  0.00     0.037 A 
BRANCH  24  38
ATOM     38  C   UNL A   1      46.565  30.968  26.864  1.00  0.00     0.057 A 
ATOM     39  C   UNL A   1      47.705  31.794  26.876  1.00  0.00     0.134 A 
ATOM     40  C   UNL A   1      45.354  31.631  26.570  1.00  0.00     0.134 A 
ATOM     41  F   UNL A   1      48.920  31.287  27.136  1.00  0.00    -0.206 F 
ATOM     42  C   UNL A   1      47.630  33.184  26.725  1.00  0.00     0.040 A 
ATOM     43  C   UNL A   1      45.276  33.011  26.367  1.00  0.00     0.040 A 
ATOM     44  F   UNL A   1      44.173  31.006  26.559  1.00  0.00    -0.206 F 
ATOM     45  C   UNL A   1      46.409  33.799  26.486  1.00  0.00     0.006 A 
ENDBRANCH  24  38
BRANCH  25  46
ATOM     46  C   UNL A   1      38.935  28.664  29.177  1.00  0.00     0.057 A 
ATOM     47  C   UNL A   1      38.028  28.690  30.245  1.00  0.00     0.134 A 
ATOM     48  C   UNL A   1      38.493  29.254  27.978  1.00  0.00     0.134 A 
ATOM     49  F   UNL A   1      38.374  28.202  31.444  1.00  0.00    -0.206 F 
ATOM     50  C   UNL A   1      36.759  29.272  30.129  1.00  0.00     0.040 A 
ATOM     51  C   UNL A   1      37.223  29.823  27.844  1.00  0.00     0.040 A 
ATOM     52  F   UNL A   1      39.306  29.377  26.920  1.00  0.00    -0.206 F 
ATOM     53  C   UNL A   1      36.355  29.844  28.926  1.00  0.00     0.006 A 
ENDBRANCH  25  46
BRANCH  37  54
ATOM     54  C   UNL A   1      44.257  28.095  32.497  1.00  0.00     0.057 A 
ATOM     55  C   UNL A   1      44.040  26.718  32.349  1.00  0.00     0.134 A 
ATOM     56  C   UNL A   1      44.467  28.571  33.797  1.00  0.00     0.134 A 
ATOM     57  F   UNL A   1      43.938  26.160  31.135  1.00  0.00    -0.206 F 
ATOM     58  C   UNL A   1      43.977  25.862  33.452  1.00  0.00     0.040 A 
ATOM     59  C   UNL A   1      44.441  27.720  34.904  1.00  0.00     0.040 A 
ATOM     60  F   UNL A   1      44.744  29.868  34.008  1.00  0.00    -0.206 F 
ATOM     61  C   UNL A   1      44.182  26.362  34.734  1.00  0.00     0.006 A 
ENDBRANCH  37  54
ENDBRANCH  11  12
ENDBRANCH   4   6
ENDBRANCH   3   4
ENDBRANCH   2   3
ENDBRANCH   1   2
BRANCH   1  62
ATOM     62  O   UNL A   1      40.857  20.749  27.372  1.00  0.00    -0.374 OA
BRANCH  62  63
ATOM     63  C   UNL A   1      40.194  21.137  26.163  1.00  0.00     0.202 C 
BRANCH  63  64
ATOM     64  C   UNL A   1      39.106  22.209  26.299  1.00  0.00     0.261 C 
BRANCH  64  65
ATOM     65  O   UNL A   1      37.842  21.709  25.829  1.00  0.00    -0.459 OA
BRANCH  65  66
ATOM     66  C   UNL A   1      36.873  22.634  25.604  1.00  0.00     0.365 C 
ATOM     67  O   UNL A   1      37.051  23.838  25.454  1.00  0.00    -0.245 OA
BRANCH  66  68
ATOM     68  C   UNL A   1      35.503  21.957  25.446  1.00  0.00     0.296 C 
ATOM     69  C   UNL A   1      34.783  22.517  24.212  1.00  0.00     0.111 C 
ATOM     70  N   UNL A   1      35.719  20.475  25.426  1.00  0.00    -0.330 N 
ATOM     71  C   UNL A   1      33.466  21.802  23.946  1.00  0.00     0.164 C 
ATOM     72  C   UNL A   1      34.657  19.700  24.767  1.00  0.00     0.316 C 
ATOM     73  H   UNL A   1      35.794  20.153  26.391  1.00  0.00     0.347 HD
ATOM     74  H   UNL A   1      36.567  20.318  24.880  1.00  0.00     0.347 HD
ATOM     75  N   UNL A   1      32.284  22.499  24.491  1.00  0.00    -0.264 NA
ATOM     76  C   UNL A   1      33.430  20.542  24.733  1.00  0.00     0.098 C 
ATOM     77  C   UNL A   1      31.718  21.619  25.264  1.00  0.00     0.216 C 
ATOM     78  N   UNL A   1      32.367  20.423  25.455  1.00  0.00    -0.238 NA
ENDBRANCH  66  68
ENDBRANCH  65  66
ENDBRANCH  64  65
ENDBRANCH  63  64
ENDBRANCH  62  63
ENDBRANCH   1  62
TORSDOF 14
ENDMDL
MODEL 2
REMARK VINA RESULT:     -10.2      4.848     10.050
REMARK SMILES O=C(OCCOCCOC(=O)[C@H]1C[C@@H]2N=CN=C2C[NH2+]1)c1ccc(-c2c3nc(c(-c4c(F)cccc4F)c4ccc([nH]4)c(-c4c(F)cccc4F)c4nc(c(-c5c(F)cccc5F)c5ccc2[nH]5)C=C4)C=C3)cc1
REMARK SMILES IDX 5 1 4 2 3 3 2 4 1 5 21 6 22 7 74 8 23 9 73 10 24 11 25 12
REMARK SMILES IDX 26 13 67 14 27 15 72 16 66 17 68 18 28 19 71 20 65 21 64 22
REMARK SMILES IDX 29 24 55 25 38 26 54 27 39 28 42 29 53 30 69 31 40 32 41 33
REMARK SMILES IDX 52 35 70 36 43 37 30 38 31 39 36 40 32 41 33 42 35 43 37 44
REMARK SMILES IDX 34 45 56 46 57 47 62 48 58 49 59 50 61 51 63 52 60 53 44 54
REMARK SMILES IDX 45 55 50 56 46 57 47 58 49 59 51 60 48 61 6 62 7 63 8 64
REMARK SMILES IDX 9 65 10 66 11 67 12 68 13 69 20 70 14 71 19 72 15 75 18 76
REMARK SMILES IDX 16 77 17 78
REMARK H PARENT 68 23 42 34 20 73 20 74
REMARK Flexibility Score: inf
ROOT
ATOM      1  C   UNL A   1      35.081  33.406  29.360  1.00  0.00     0.202 C 
ENDROOT
BRANCH   1   2
ATOM      2  C   UNL A   1      35.191  32.268  28.355  1.00  0.00     0.261 C 
BRANCH   2   3
ATOM      3  O   UNL A   1      36.377  31.450  28.476  1.00  0.00    -0.460 OA
BRANCH   3   4
ATOM      4  C   UNL A   1      36.273  30.100  28.560  1.00  0.00     0.338 C 
ATOM      5  O   UNL A   1      35.214  29.511  28.541  1.00  0.00    -0.246 OA
BRANCH   4   6
ATOM      6  C   UNL A   1      37.572  29.401  28.360  1.00  0.00     0.060 A 
ATOM      7  C   UNL A   1      38.118  28.561  29.333  1.00  0.00     0.016 A 
ATOM      8  C   UNL A   1      38.305  29.691  27.198  1.00  0.00     0.016 A 
ATOM      9  C   UNL A   1      39.403  28.077  29.193  1.00  0.00     0.010 A 
ATOM     10  C   UNL A   1      39.608  29.220  27.062  1.00  0.00     0.010 A 
ATOM     11  C   UNL A   1      40.164  28.455  28.089  1.00  0.00    -0.014 A 
BRANCH  11  12
ATOM     12  C   UNL A   1      41.556  28.031  28.101  1.00  0.00     0.031 A 
ATOM     13  C   UNL A   1      41.853  26.714  27.480  1.00  0.00     0.074 A 
ATOM     14  C   UNL A   1      42.527  28.801  28.624  1.00  0.00     0.049 A 
ATOM     15  N   UNL A   1      42.432  25.684  28.012  1.00  0.00    -0.248 NA
ATOM     16  C   UNL A   1      41.391  26.500  26.101  1.00  0.00     0.031 C 
ATOM     17  C   UNL A   1      42.430  30.204  29.035  1.00  0.00     0.029 A 
ATOM     18  N   UNL A   1      43.849  28.513  28.795  1.00  0.00    -0.354 N 
ATOM     19  C   UNL A   1      42.575  24.756  26.982  1.00  0.00     0.074 A 
ATOM     20  C   UNL A   1      41.817  25.260  25.868  1.00  0.00     0.031 C 
ATOM     21  C   UNL A   1      43.675  30.703  29.185  1.00  0.00     0.029 A 
ATOM     22  C   UNL A   1      44.640  29.632  28.995  1.00  0.00     0.049 A 
ATOM     23  H   UNL A   1      44.207  27.596  28.778  1.00  0.00     0.167 HD
ATOM     24  C   UNL A   1      43.493  23.753  27.046  1.00  0.00     0.037 A 
ATOM     25  C   UNL A   1      45.989  29.694  28.915  1.00  0.00     0.037 A 
ATOM     26  C   UNL A   1      43.844  23.431  28.405  1.00  0.00     0.049 A 
ATOM     27  C   UNL A   1      46.529  28.321  29.054  1.00  0.00     0.074 A 
ATOM     28  C   UNL A   1      43.144  23.035  29.530  1.00  0.00     0.029 A 
ATOM     29  N   UNL A   1      45.096  23.761  28.859  1.00  0.00    -0.354 N 
ATOM     30  N   UNL A   1      46.536  27.636  30.163  1.00  0.00    -0.248 NA
ATOM     31  C   UNL A   1      46.736  27.542  27.842  1.00  0.00     0.031 C 
ATOM     32  C   UNL A   1      43.845  23.611  30.631  1.00  0.00     0.029 A 
ATOM     33  C   UNL A   1      44.935  24.304  30.105  1.00  0.00     0.049 A 
ATOM     34  H   UNL A   1      45.946  23.633  28.381  1.00  0.00     0.167 HD
ATOM     35  C   UNL A   1      46.326  26.324  29.770  1.00  0.00     0.074 A 
ATOM     36  C   UNL A   1      46.579  26.312  28.333  1.00  0.00     0.031 C 
ATOM     37  C   UNL A   1      45.692  25.433  30.588  1.00  0.00     0.037 A 
BRANCH  24  38
ATOM     38  C   UNL A   1      44.357  23.345  25.870  1.00  0.00     0.057 A 
ATOM     39  C   UNL A   1      44.476  21.980  25.546  1.00  0.00     0.134 A 
ATOM     40  C   UNL A   1      45.317  24.185  25.267  1.00  0.00     0.134 A 
ATOM     41  F   UNL A   1      43.622  21.075  26.048  1.00  0.00    -0.206 F 
ATOM     42  C   UNL A   1      45.535  21.478  24.780  1.00  0.00     0.040 A 
ATOM     43  C   UNL A   1      46.349  23.698  24.459  1.00  0.00     0.040 A 
ATOM     44  F   UNL A   1      45.375  25.500  25.500  1.00  0.00    -0.206 F 
ATOM     45  C   UNL A   1      46.486  22.337  24.248  1.00  0.00     0.006 A 
ENDBRANCH  24  38
BRANCH  25  46
ATOM     46  C   UNL A   1      46.819  30.833  28.467  1.00  0.00     0.057 A 
ATOM     47  C   UNL A   1      46.877  31.203  27.118  1.00  0.00     0.134 A 
ATOM     48  C   UNL A   1      47.388  31.740  29.381  1.00  0.00     0.134 A 
ATOM     49  F   UNL A   1      46.316  30.434  26.175  1.00  0.00    -0.206 F 
ATOM     50  C   UNL A   1      47.462  32.406  26.702  1.00  0.00     0.040 A 
ATOM     51  C   UNL A   1      47.989  32.935  28.978  1.00  0.00     0.040 A 
ATOM     52  F   UNL A   1      47.305  31.541  30.704  1.00  0.00    -0.206 F 
ATOM     53  C   UNL A   1      48.018  33.278  27.634  1.00  0.00     0.006 A 
ENDBRANCH  25  46
BRANCH  37  54
ATOM     54  C   UNL A   1      45.513  25.804  32.029  1.00  0.00     0.057 A 
ATOM     55  C   UNL A   1      46.492  25.601  33.011  1.00  0.00     0.134 A 
ATOM     56  C   UNL A   1      44.370  26.517  32.407  1.00  0.00     0.134 A 
ATOM     57  F   UNL A   1      47.665  25.024  32.712  1.00  0.00    -0.206 F 
ATOM     58  C   UNL A   1      46.314  26.039  34.326  1.00  0.00     0.040 A 
ATOM     59  C   UNL A   1      44.195  26.991  33.709  1.00  0.00     0.040 A 
ATOM     60  F   UNL A   1      43.419  26.804  31.502  1.00  0.00    -0.206 F 
ATOM     61  C   UNL A   1      45.165  26.740  34.678  1.00  0.00     0.006 A 
ENDBRANCH  37  54
ENDBRANCH  11  12
ENDBRANCH   4   6
ENDBRANCH   3   4
ENDBRANCH   2   3
ENDBRANCH   1   2
BRANCH   1  62
ATOM     62  O   UNL A   1      33.815  34.065  29.288  1.00  0.00    -0.374 OA
BRANCH  62  63
ATOM     63  C   UNL A   1      33.799  35.294  28.552  1.00  0.00     0.202 C 
BRANCH  63  64
ATOM     64  C   UNL A   1      33.505  36.565  29.358  1.00  0.00     0.261 C 
BRANCH  64  65
ATOM     65  O   UNL A   1      32.575  36.288  30.418  1.00  0.00    -0.459 OA
BRANCH  65  66
ATOM     66  C   UNL A   1      32.990  36.585  31.678  1.00  0.00     0.365 C 
ATOM     67  O   UNL A   1      32.598  37.526  32.359  1.00  0.00    -0.245 OA
BRANCH  66  68
ATOM     68  C   UNL A   1      33.951  35.506  32.200  1.00  0.00     0.296 C 
ATOM     69  C   UNL A   1      34.587  35.968  33.518  1.00  0.00     0.111 C 
ATOM     70  N   UNL A   1      33.196  34.216  32.286  1.00  0.00    -0.330 N 
ATOM     71  C   UNL A   1      35.466  34.890  34.136  1.00  0.00     0.164 C 
ATOM     72  C   UNL A   1      33.748  33.233  33.231  1.00  0.00     0.316 C 
ATOM     73  H   UNL A   1      33.186  33.791  31.358  1.00  0.00     0.347 HD
ATOM     74  H   UNL A   1      32.265  34.453  32.633  1.00  0.00     0.347 HD
ATOM     75  N   UNL A   1      36.901  35.035  33.825  1.00  0.00    -0.264 NA
ATOM     76  C   UNL A   1      35.172  33.589  33.481  1.00  0.00     0.098 C 
ATOM     77  C   UNL A   1      37.229  33.902  33.275  1.00  0.00     0.216 C 
ATOM     78  N   UNL A   1      36.227  32.994  33.035  1.00  0.00    -0.238 NA
ENDBRANCH  66  68
ENDBRANCH  65  66
ENDBRANCH  64  65
ENDBRANCH  63  64
ENDBRANCH  62  63
ENDBRANCH   1  62
TORSDOF 14
ENDMDL
MODEL 3
REMARK VINA RESULT:     -10.0      4.711      9.062
REMARK SMILES O=C(OCCOCCOC(=O)[C@H]1C[C@@H]2N=CN=C2C[NH2+]1)c1ccc(-c2c3nc(c(-c4c(F)cccc4F)c4ccc([nH]4)c(-c4c(F)cccc4F)c4nc(c(-c5c(F)cccc5F)c5ccc2[nH]5)C=C4)C=C3)cc1
REMARK SMILES IDX 5 1 4 2 3 3 2 4 1 5 21 6 22 7 74 8 23 9 73 10 24 11 25 12
REMARK SMILES IDX 26 13 67 14 27 15 72 16 66 17 68 18 28 19 71 20 65 21 64 22
REMARK SMILES IDX 29 24 55 25 38 26 54 27 39 28 42 29 53 30 69 31 40 32 41 33
REMARK SMILES IDX 52 35 70 36 43 37 30 38 31 39 36 40 32 41 33 42 35 43 37 44
REMARK SMILES IDX 34 45 56 46 57 47 62 48 58 49 59 50 61 51 63 52 60 53 44 54
REMARK SMILES IDX 45 55 50 56 46 57 47 58 49 59 51 60 48 61 6 62 7 63 8 64
REMARK SMILES IDX 9 65 10 66 11 67 12 68 13 69 20 70 14 71 19 72 15 75 18 76
REMARK SMILES IDX 16 77 17 78
REMARK H PARENT 68 23 42 34 20 73 20 74
REMARK Flexibility Score: inf
ROOT
ATOM      1  C   UNL A   1      33.268  29.198  26.913  1.00  0.00     0.202 C 
ENDROOT
BRANCH   1   2
ATOM      2  C   UNL A   1      33.282  30.677  27.271  1.00  0.00     0.261 C 
BRANCH   2   3
ATOM      3  O   UNL A   1      34.593  31.282  27.348  1.00  0.00    -0.460 OA
BRANCH   3   4
ATOM      4  C   UNL A   1      35.049  31.784  28.524  1.00  0.00     0.338 C 
ATOM      5  O   UNL A   1      34.389  32.507  29.239  1.00  0.00    -0.246 OA
BRANCH   4   6
ATOM      6  C   UNL A   1      36.293  31.119  28.999  1.00  0.00     0.060 A 
ATOM      7  C   UNL A   1      37.479  31.827  29.202  1.00  0.00     0.016 A 
ATOM      8  C   UNL A   1      36.281  29.722  29.141  1.00  0.00     0.016 A 
ATOM      9  C   UNL A   1      38.655  31.153  29.464  1.00  0.00     0.010 A 
ATOM     10  C   UNL A   1      37.468  29.038  29.388  1.00  0.00     0.010 A 
ATOM     11  C   UNL A   1      38.657  29.761  29.498  1.00  0.00    -0.014 A 
BRANCH  11  12
ATOM     12  C   UNL A   1      39.963  29.130  29.620  1.00  0.00     0.031 A 
ATOM     13  C   UNL A   1      40.545  29.072  30.987  1.00  0.00     0.074 A 
ATOM     14  C   UNL A   1      40.599  28.604  28.558  1.00  0.00     0.049 A 
ATOM     15  N   UNL A   1      41.685  29.531  31.398  1.00  0.00    -0.248 NA
ATOM     16  C   UNL A   1      39.720  28.473  32.046  1.00  0.00     0.031 C 
ATOM     17  C   UNL A   1      40.054  28.363  27.221  1.00  0.00     0.029 A 
ATOM     18  N   UNL A   1      41.851  28.068  28.490  1.00  0.00    -0.354 N 
ATOM     19  C   UNL A   1      41.805  29.118  32.723  1.00  0.00     0.074 A 
ATOM     20  C   UNL A   1      40.526  28.577  33.101  1.00  0.00     0.031 C 
ATOM     21  C   UNL A   1      40.881  27.530  26.555  1.00  0.00     0.029 A 
ATOM     22  C   UNL A   1      42.056  27.278  27.372  1.00  0.00     0.049 A 
ATOM     23  H   UNL A   1      42.544  28.228  29.171  1.00  0.00     0.167 HD
ATOM     24  C   UNL A   1      43.014  29.042  33.342  1.00  0.00     0.037 A 
ATOM     25  C   UNL A   1      43.073  26.406  27.172  1.00  0.00     0.037 A 
ATOM     26  C   UNL A   1      43.984  29.915  32.734  1.00  0.00     0.049 A 
ATOM     27  C   UNL A   1      44.178  26.758  28.094  1.00  0.00     0.074 A 
ATOM     28  C   UNL A   1      44.057  31.272  32.479  1.00  0.00     0.029 A 
ATOM     29  N   UNL A   1      45.016  29.359  32.019  1.00  0.00    -0.354 N 
ATOM     30  N   UNL A   1      44.938  27.810  27.972  1.00  0.00    -0.248 NA
ATOM     31  C   UNL A   1      44.208  26.118  29.401  1.00  0.00     0.031 C 
ATOM     32  C   UNL A   1      44.798  31.387  31.265  1.00  0.00     0.029 A 
ATOM     33  C   UNL A   1      45.143  30.094  30.872  1.00  0.00     0.049 A 
ATOM     34  H   UNL A   1      45.559  28.582  32.281  1.00  0.00     0.167 HD
ATOM     35  C   UNL A   1      45.205  28.205  29.273  1.00  0.00     0.074 A 
ATOM     36  C   UNL A   1      44.836  27.063  30.102  1.00  0.00     0.031 C 
ATOM     37  C   UNL A   1      45.430  29.516  29.582  1.00  0.00     0.037 A 
BRANCH  24  38
ATOM     38  C   UNL A   1      43.415  27.887  34.238  1.00  0.00     0.057 A 
ATOM     39  C   UNL A   1      43.926  28.160  35.522  1.00  0.00     0.134 A 
ATOM     40  C   UNL A   1      43.630  26.570  33.781  1.00  0.00     0.134 A 
ATOM     41  F   UNL A   1      43.784  29.373  36.077  1.00  0.00    -0.206 F 
ATOM     42  C   UNL A   1      44.690  27.232  36.240  1.00  0.00     0.040 A 
ATOM     43  C   UNL A   1      44.347  25.621  34.513  1.00  0.00     0.040 A 
ATOM     44  F   UNL A   1      43.247  26.155  32.569  1.00  0.00    -0.206 F 
ATOM     45  C   UNL A   1      44.917  25.963  35.728  1.00  0.00     0.006 A 
ENDBRANCH  24  38
BRANCH  25  46
ATOM     46  C   UNL A   1      43.039  25.134  26.418  1.00  0.00     0.057 A 
ATOM     47  C   UNL A   1      43.859  24.931  25.301  1.00  0.00     0.134 A 
ATOM     48  C   UNL A   1      42.378  23.995  26.915  1.00  0.00     0.134 A 
ATOM     49  F   UNL A   1      44.573  25.941  24.785  1.00  0.00    -0.206 F 
ATOM     50  C   UNL A   1      44.017  23.668  24.715  1.00  0.00     0.040 A 
ATOM     51  C   UNL A   1      42.514  22.734  26.330  1.00  0.00     0.040 A 
ATOM     52  F   UNL A   1      41.646  24.047  28.036  1.00  0.00    -0.206 F 
ATOM     53  C   UNL A   1      43.345  22.564  25.232  1.00  0.00     0.006 A 
ENDBRANCH  25  46
BRANCH  37  54
ATOM     54  C   UNL A   1      45.698  30.469  28.456  1.00  0.00     0.057 A 
ATOM     55  C   UNL A   1      44.690  31.083  27.701  1.00  0.00     0.134 A 
ATOM     56  C   UNL A   1      47.014  30.885  28.220  1.00  0.00     0.134 A 
ATOM     57  F   UNL A   1      43.395  30.826  27.935  1.00  0.00    -0.206 F 
ATOM     58  C   UNL A   1      44.984  32.028  26.714  1.00  0.00     0.040 A 
ATOM     59  C   UNL A   1      47.318  31.854  27.262  1.00  0.00     0.040 A 
ATOM     60  F   UNL A   1      48.025  30.386  28.951  1.00  0.00    -0.206 F 
ATOM     61  C   UNL A   1      46.301  32.420  26.496  1.00  0.00     0.006 A 
ENDBRANCH  37  54
ENDBRANCH  11  12
ENDBRANCH   4   6
ENDBRANCH   3   4
ENDBRANCH   2   3
ENDBRANCH   1   2
BRANCH   1  62
ATOM     62  O   UNL A   1      31.975  28.760  26.489  1.00  0.00    -0.374 OA
BRANCH  62  63
ATOM     63  C   UNL A   1      31.953  27.551  25.721  1.00  0.00     0.202 C 
BRANCH  63  64
ATOM     64  C   UNL A   1      32.210  27.697  24.216  1.00  0.00     0.261 C 
BRANCH  64  65
ATOM     65  O   UNL A   1      31.598  28.897  23.713  1.00  0.00    -0.459 OA
BRANCH  65  66
ATOM     66  C   UNL A   1      30.755  28.748  22.658  1.00  0.00     0.365 C 
ATOM     67  O   UNL A   1      30.602  27.724  22.001  1.00  0.00    -0.245 OA
BRANCH  66  68
ATOM     68  C   UNL A   1      29.914  30.017  22.452  1.00  0.00     0.296 C 
ATOM     69  C   UNL A   1      28.537  29.644  21.886  1.00  0.00     0.111 C 
ATOM     70  N   UNL A   1      29.877  30.763  23.750  1.00  0.00    -0.330 N 
ATOM     71  C   UNL A   1      27.623  30.855  21.765  1.00  0.00     0.164 C 
ATOM     72  C   UNL A   1      28.733  31.673  23.912  1.00  0.00     0.316 C 
ATOM     73  H   UNL A   1      30.732  31.313  23.824  1.00  0.00     0.347 HD
ATOM     74  H   UNL A   1      29.785  30.056  24.482  1.00  0.00     0.347 HD
ATOM     75  N   UNL A   1      27.601  31.458  20.418  1.00  0.00    -0.264 NA
ATOM     76  C   UNL A   1      28.193  31.975  22.559  1.00  0.00     0.098 C 
ATOM     77  C   UNL A   1      27.940  32.699  20.614  1.00  0.00     0.216 C 
ATOM     78  N   UNL A   1      28.315  33.067  21.882  1.00  0.00    -0.238 NA
ENDBRANCH  66  68
ENDBRANCH  65  66
ENDBRANCH  64  65
ENDBRANCH  63  64
ENDBRANCH  62  63
ENDBRANCH   1  62
TORSDOF 14
ENDMDL
