MODEL 1
REMARK VINA RESULT:     -11.8      0.000      0.000
REMARK SMILES C[C@H]1Oc2ccccc2C=C1/C=C/C(=O)N[C@H](C(=O)OCCOCCOC(=O)c1ccc(-c2c3nc(c(-c4c(F)cccc4F)c4ccc([nH]4)c(-c4c(F)cccc4F)c4nc(c(-c5c(F)cccc5F)c5ccc2[nH]5)C=C4)C=C3)cc1)c1ccccc1
REMARK SMILES IDX 22 1 21 2 20 3 18 4 19 5 17 6 16 7 14 8 15 9 13 11 12 12
REMARK SMILES IDX 11 13 1 14 2 15 3 16 4 17 10 18 5 19 9 20 6 21 8 22 7 23
REMARK SMILES IDX 83 24 84 25 88 26 85 27 87 28 86 29 23 30 24 31 25 32 26 33
REMARK SMILES IDX 27 34 28 35 29 36 30 37 82 38 31 39 81 40 32 41 33 42 34 43
REMARK SMILES IDX 75 44 35 45 80 46 74 47 76 48 36 49 79 50 73 51 72 52 37 54
REMARK SMILES IDX 63 55 46 56 62 57 47 58 50 59 61 60 77 61 48 62 49 63 60 65
REMARK SMILES IDX 78 66 51 67 38 68 39 69 44 70 40 71 41 72 43 73 45 74 42 75
REMARK SMILES IDX 64 76 65 77 70 78 66 79 67 80 69 81 71 82 68 83 52 84 53 85
REMARK SMILES IDX 58 86 54 87 55 88 57 89 59 90 56 91
REMARK H PARENT 16 10 76 53 50 64
REMARK Flexibility Score: inf
ROOT
ATOM      1  C   UNL A   1      29.429  31.126  24.262  1.00  0.00     0.202 C 
ENDROOT
BRANCH   1   2
ATOM      2  C   UNL A   1      29.207  30.428  22.909  1.00  0.00     0.261 C 
BRANCH   2   3
ATOM      3  O   UNL A   1      30.198  29.435  22.547  1.00  0.00    -0.461 OA
BRANCH   3   4
ATOM      4  C   UNL A   1      29.973  28.225  23.124  1.00  0.00     0.333 C 
ATOM      5  O   UNL A   1      28.832  27.773  23.224  1.00  0.00    -0.249 OA
BRANCH   4   6
ATOM      6  C   UNL A   1      31.220  27.509  23.726  1.00  0.00     0.223 C 
BRANCH   6   7
ATOM      7  N   UNL A   1      32.124  27.325  22.579  1.00  0.00    -0.335 N 
ATOM      8  C   UNL A   1      32.972  26.319  22.232  1.00  0.00     0.244 C 
ATOM      9  O   UNL A   1      33.694  26.515  21.250  1.00  0.00    -0.270 OA
ATOM     10  H   UNL A   1      32.112  28.073  21.941  1.00  0.00     0.165 HD
BRANCH   8  11
ATOM     11  C   UNL A   1      33.045  24.963  22.887  1.00  0.00     0.071 C 
ATOM     12  C   UNL A   1      32.091  24.097  23.277  1.00  0.00     0.013 C 
BRANCH  12  13
ATOM     13  C   UNL A   1      32.244  22.722  23.753  1.00  0.00    -0.007 C 
ATOM     14  C   UNL A   1      30.990  22.883  25.990  1.00  0.00     0.058 C 
ATOM     15  C   UNL A   1      32.296  22.524  25.276  1.00  0.00     0.200 C 
ATOM     16  O   UNL A   1      32.645  21.205  25.744  1.00  0.00    -0.485 OA
ATOM     17  C   UNL A   1      32.544  20.170  24.866  1.00  0.00     0.127 A 
ATOM     18  C   UNL A   1      32.339  21.676  22.922  1.00  0.00     0.019 C 
ATOM     19  C   UNL A   1      32.606  18.889  25.414  1.00  0.00     0.047 A 
ATOM     20  C   UNL A   1      32.426  20.341  23.488  1.00  0.00     0.017 A 
ATOM     21  C   UNL A   1      32.555  17.771  24.582  1.00  0.00     0.004 A 
ATOM     22  C   UNL A   1      32.391  19.218  22.655  1.00  0.00     0.012 A 
ATOM     23  C   UNL A   1      32.456  17.936  23.202  1.00  0.00     0.001 A 
ENDBRANCH  12  13
ENDBRANCH   8  11
ENDBRANCH   6   7
BRANCH   6  24
ATOM     24  C   UNL A   1      31.966  27.962  24.997  1.00  0.00    -0.014 A 
ATOM     25  C   UNL A   1      31.401  27.812  26.276  1.00  0.00     0.006 A 
ATOM     26  C   UNL A   1      33.312  28.395  24.979  1.00  0.00     0.006 A 
ATOM     27  C   UNL A   1      32.128  28.135  27.442  1.00  0.00     0.000 A 
ATOM     28  C   UNL A   1      34.018  28.775  26.124  1.00  0.00     0.000 A 
ATOM     29  C   UNL A   1      33.424  28.642  27.365  1.00  0.00     0.000 A 
ENDBRANCH   6  24
ENDBRANCH   4   6
ENDBRANCH   3   4
ENDBRANCH   2   3
ENDBRANCH   1   2
BRANCH   1  30
ATOM     30  O   UNL A   1      30.737  31.175  24.805  1.00  0.00    -0.374 OA
BRANCH  30  31
ATOM     31  C   UNL A   1      30.906  31.582  26.158  1.00  0.00     0.202 C 
BRANCH  31  32
ATOM     32  C   UNL A   1      31.635  32.895  26.485  1.00  0.00     0.261 C 
BRANCH  32  33
ATOM     33  O   UNL A   1      32.094  32.991  27.846  1.00  0.00    -0.460 OA
BRANCH  33  34
ATOM     34  C   UNL A   1      33.055  33.922  28.072  1.00  0.00     0.338 C 
ATOM     35  O   UNL A   1      32.912  35.135  28.123  1.00  0.00    -0.246 OA
BRANCH  34  36
ATOM     36  C   UNL A   1      34.308  33.251  28.465  1.00  0.00     0.060 A 
ATOM     37  C   UNL A   1      35.521  33.940  28.461  1.00  0.00     0.016 A 
ATOM     38  C   UNL A   1      34.248  31.917  28.895  1.00  0.00     0.016 A 
ATOM     39  C   UNL A   1      36.671  33.297  28.921  1.00  0.00     0.010 A 
ATOM     40  C   UNL A   1      35.400  31.274  29.347  1.00  0.00     0.010 A 
ATOM     41  C   UNL A   1      36.616  31.970  29.391  1.00  0.00    -0.014 A 
BRANCH  41  42
ATOM     42  C   UNL A   1      37.790  31.389  30.086  1.00  0.00     0.031 A 
ATOM     43  C   UNL A   1      38.125  31.733  31.505  1.00  0.00     0.074 A 
ATOM     44  C   UNL A   1      38.566  30.532  29.396  1.00  0.00     0.049 A 
ATOM     45  N   UNL A   1      39.044  31.213  32.279  1.00  0.00    -0.248 NA
ATOM     46  C   UNL A   1      37.337  32.801  32.133  1.00  0.00     0.031 C 
ATOM     47  C   UNL A   1      38.371  30.170  27.990  1.00  0.00     0.029 A 
ATOM     48  N   UNL A   1      39.661  29.802  29.780  1.00  0.00    -0.354 N 
ATOM     49  C   UNL A   1      38.930  31.870  33.497  1.00  0.00     0.074 A 
ATOM     50  C   UNL A   1      37.889  32.866  33.338  1.00  0.00     0.031 C 
ATOM     51  C   UNL A   1      39.287  29.253  27.643  1.00  0.00     0.029 A 
ATOM     52  C   UNL A   1      40.149  28.987  28.788  1.00  0.00     0.049 A 
ATOM     53  H   UNL A   1      40.056  29.855  30.679  1.00  0.00     0.167 HD
ATOM     54  C   UNL A   1      39.620  31.647  34.644  1.00  0.00     0.037 A 
ATOM     55  C   UNL A   1      41.175  28.117  28.804  1.00  0.00     0.037 A 
ATOM     56  C   UNL A   1      40.682  30.679  34.779  1.00  0.00     0.049 A 
ATOM     57  C   UNL A   1      41.951  27.926  30.076  1.00  0.00     0.074 A 
ATOM     58  C   UNL A   1      41.415  30.352  35.908  1.00  0.00     0.029 A 
ATOM     59  N   UNL A   1      41.181  29.900  33.745  1.00  0.00    -0.354 N 
ATOM     60  N   UNL A   1      41.764  28.477  31.252  1.00  0.00    -0.248 NA
ATOM     61  C   UNL A   1      43.075  26.984  30.023  1.00  0.00     0.031 C 
ATOM     62  C   UNL A   1      42.396  29.422  35.542  1.00  0.00     0.029 A 
ATOM     63  C   UNL A   1      42.235  29.120  34.200  1.00  0.00     0.049 A 
ATOM     64  H   UNL A   1      40.838  29.901  32.823  1.00  0.00     0.167 HD
ATOM     65  C   UNL A   1      42.734  27.931  32.083  1.00  0.00     0.074 A 
ATOM     66  C   UNL A   1      43.482  26.983  31.283  1.00  0.00     0.031 C 
ATOM     67  C   UNL A   1      42.984  28.192  33.390  1.00  0.00     0.037 A 
BRANCH  54  68
ATOM     68  C   UNL A   1      39.249  32.473  35.844  1.00  0.00     0.057 A 
ATOM     69  C   UNL A   1      39.832  33.728  36.064  1.00  0.00     0.134 A 
ATOM     70  C   UNL A   1      38.338  32.011  36.804  1.00  0.00     0.134 A 
ATOM     71  F   UNL A   1      40.721  34.229  35.193  1.00  0.00    -0.206 F 
ATOM     72  C   UNL A   1      39.519  34.493  37.190  1.00  0.00     0.040 A 
ATOM     73  C   UNL A   1      37.997  32.778  37.920  1.00  0.00     0.040 A 
ATOM     74  F   UNL A   1      37.738  30.820  36.655  1.00  0.00    -0.206 F 
ATOM     75  C   UNL A   1      38.592  34.022  38.118  1.00  0.00     0.006 A 
ENDBRANCH  54  68
BRANCH  55  76
ATOM     76  C   UNL A   1      41.518  27.343  27.585  1.00  0.00     0.057 A 
ATOM     77  C   UNL A   1      40.994  26.063  27.363  1.00  0.00     0.134 A 
ATOM     78  C   UNL A   1      42.352  27.877  26.597  1.00  0.00     0.134 A 
ATOM     79  F   UNL A   1      40.197  25.489  28.277  1.00  0.00    -0.206 F 
ATOM     80  C   UNL A   1      41.282  25.346  26.202  1.00  0.00     0.040 A 
ATOM     81  C   UNL A   1      42.624  27.186  25.416  1.00  0.00     0.040 A 
ATOM     82  F   UNL A   1      42.873  29.105  26.744  1.00  0.00    -0.206 F 
ATOM     83  C   UNL A   1      42.089  25.913  25.218  1.00  0.00     0.006 A 
ENDBRANCH  55  76
BRANCH  67  84
ATOM     84  C   UNL A   1      44.104  27.420  34.031  1.00  0.00     0.057 A 
ATOM     85  C   UNL A   1      43.868  26.166  34.609  1.00  0.00     0.134 A 
ATOM     86  C   UNL A   1      45.419  27.906  34.062  1.00  0.00     0.134 A 
ATOM     87  F   UNL A   1      42.633  25.641  34.623  1.00  0.00    -0.206 F 
ATOM     88  C   UNL A   1      44.898  25.421  35.186  1.00  0.00     0.040 A 
ATOM     89  C   UNL A   1      46.463  27.155  34.606  1.00  0.00     0.040 A 
ATOM     90  F   UNL A   1      45.718  29.091  33.511  1.00  0.00    -0.206 F 
ATOM     91  C   UNL A   1      46.202  25.910  35.173  1.00  0.00     0.006 A 
ENDBRANCH  67  84
ENDBRANCH  41  42
ENDBRANCH  34  36
ENDBRANCH  33  34
ENDBRANCH  32  33
ENDBRANCH  31  32
ENDBRANCH  30  31
ENDBRANCH   1  30
TORSDOF 18
ENDMDL
MODEL 2
REMARK VINA RESULT:     -11.7      3.763      9.426
REMARK SMILES C[C@H]1Oc2ccccc2C=C1/C=C/C(=O)N[C@H](C(=O)OCCOCCOC(=O)c1ccc(-c2c3nc(c(-c4c(F)cccc4F)c4ccc([nH]4)c(-c4c(F)cccc4F)c4nc(c(-c5c(F)cccc5F)c5ccc2[nH]5)C=C4)C=C3)cc1)c1ccccc1
REMARK SMILES IDX 22 1 21 2 20 3 18 4 19 5 17 6 16 7 14 8 15 9 13 11 12 12
REMARK SMILES IDX 11 13 1 14 2 15 3 16 4 17 10 18 5 19 9 20 6 21 8 22 7 23
REMARK SMILES IDX 83 24 84 25 88 26 85 27 87 28 86 29 23 30 24 31 25 32 26 33
REMARK SMILES IDX 27 34 28 35 29 36 30 37 82 38 31 39 81 40 32 41 33 42 34 43
REMARK SMILES IDX 75 44 35 45 80 46 74 47 76 48 36 49 79 50 73 51 72 52 37 54
REMARK SMILES IDX 63 55 46 56 62 57 47 58 50 59 61 60 77 61 48 62 49 63 60 65
REMARK SMILES IDX 78 66 51 67 38 68 39 69 44 70 40 71 41 72 43 73 45 74 42 75
REMARK SMILES IDX 64 76 65 77 70 78 66 79 67 80 69 81 71 82 68 83 52 84 53 85
REMARK SMILES IDX 58 86 54 87 55 88 57 89 59 90 56 91
REMARK H PARENT 16 10 76 53 50 64
REMARK Flexibility Score: inf
ROOT
ATOM      1  C   UNL A   1      33.867  19.279  25.054  1.00  0.00     0.202 C 
ENDROOT
BRANCH   1   2
ATOM      2  C   UNL A   1      32.969  19.334  23.807  1.00  0.00     0.261 C 
BRANCH   2   3
ATOM      3  O   UNL A   1      32.006  20.415  23.776  1.00  0.00    -0.461 OA
BRANCH   3   4
ATOM      4  C   UNL A   1      32.202  21.273  22.740  1.00  0.00     0.333 C 
ATOM      5  O   UNL A   1      31.940  20.940  21.584  1.00  0.00    -0.249 OA
BRANCH   4   6
ATOM      6  C   UNL A   1      32.858  22.641  23.095  1.00  0.00     0.223 C 
BRANCH   6   7
ATOM      7  N   UNL A   1      33.032  23.310  21.796  1.00  0.00    -0.335 N 
ATOM      8  C   UNL A   1      33.130  24.621  21.446  1.00  0.00     0.244 C 
ATOM      9  O   UNL A   1      33.155  24.873  20.237  1.00  0.00    -0.270 OA
ATOM     10  H   UNL A   1      33.087  22.690  21.035  1.00  0.00     0.165 HD
BRANCH   8  11
ATOM     11  C   UNL A   1      33.298  25.778  22.398  1.00  0.00     0.071 C 
ATOM     12  C   UNL A   1      32.506  26.827  22.692  1.00  0.00     0.013 C 
BRANCH  12  13
ATOM     13  C   UNL A   1      32.663  27.820  23.754  1.00  0.00    -0.007 C 
ATOM     14  C   UNL A   1      30.195  28.281  24.300  1.00  0.00     0.058 C 
ATOM     15  C   UNL A   1      31.547  28.868  23.885  1.00  0.00     0.200 C 
ATOM     16  O   UNL A   1      31.791  29.961  24.793  1.00  0.00    -0.485 OA
ATOM     17  C   UNL A   1      32.780  29.814  25.717  1.00  0.00     0.127 A 
ATOM     18  C   UNL A   1      33.718  27.835  24.579  1.00  0.00     0.019 C 
ATOM     19  C   UNL A   1      32.801  30.749  26.751  1.00  0.00     0.047 A 
ATOM     20  C   UNL A   1      33.756  28.823  25.645  1.00  0.00     0.017 A 
ATOM     21  C   UNL A   1      33.807  30.700  27.716  1.00  0.00     0.004 A 
ATOM     22  C   UNL A   1      34.772  28.784  26.605  1.00  0.00     0.012 A 
ATOM     23  C   UNL A   1      34.797  29.721  27.638  1.00  0.00     0.001 A 
ENDBRANCH  12  13
ENDBRANCH   8  11
ENDBRANCH   6   7
BRANCH   6  24
ATOM     24  C   UNL A   1      32.351  23.602  24.189  1.00  0.00    -0.014 A 
ATOM     25  C   UNL A   1      30.995  23.961  24.285  1.00  0.00     0.006 A 
ATOM     26  C   UNL A   1      33.169  24.047  25.254  1.00  0.00     0.006 A 
ATOM     27  C   UNL A   1      30.520  24.760  25.347  1.00  0.00     0.000 A 
ATOM     28  C   UNL A   1      32.719  24.888  26.276  1.00  0.00     0.000 A 
ATOM     29  C   UNL A   1      31.386  25.245  26.326  1.00  0.00     0.000 A 
ENDBRANCH   6  24
ENDBRANCH   4   6
ENDBRANCH   3   4
ENDBRANCH   2   3
ENDBRANCH   1   2
BRANCH   1  30
ATOM     30  O   UNL A   1      34.540  20.454  25.471  1.00  0.00    -0.374 OA
BRANCH  30  31
ATOM     31  C   UNL A   1      35.666  20.903  24.727  1.00  0.00     0.202 C 
BRANCH  31  32
ATOM     32  C   UNL A   1      37.067  20.353  25.035  1.00  0.00     0.261 C 
BRANCH  32  33
ATOM     33  O   UNL A   1      38.093  21.360  25.112  1.00  0.00    -0.460 OA
BRANCH  33  34
ATOM     34  C   UNL A   1      39.122  21.080  25.950  1.00  0.00     0.338 C 
ATOM     35  O   UNL A   1      39.699  20.010  26.083  1.00  0.00    -0.246 OA
BRANCH  34  36
ATOM     36  C   UNL A   1      39.614  22.329  26.561  1.00  0.00     0.060 A 
ATOM     37  C   UNL A   1      40.662  22.313  27.480  1.00  0.00     0.016 A 
ATOM     38  C   UNL A   1      39.037  23.544  26.160  1.00  0.00     0.016 A 
ATOM     39  C   UNL A   1      41.156  23.522  27.971  1.00  0.00     0.010 A 
ATOM     40  C   UNL A   1      39.526  24.751  26.658  1.00  0.00     0.010 A 
ATOM     41  C   UNL A   1      40.611  24.750  27.547  1.00  0.00    -0.014 A 
BRANCH  41  42
ATOM     42  C   UNL A   1      41.295  26.017  27.898  1.00  0.00     0.031 A 
ATOM     43  C   UNL A   1      42.709  26.298  27.489  1.00  0.00     0.074 A 
ATOM     44  C   UNL A   1      40.604  26.926  28.611  1.00  0.00     0.049 A 
ATOM     45  N   UNL A   1      43.395  27.405  27.618  1.00  0.00    -0.248 NA
ATOM     46  C   UNL A   1      43.451  25.194  26.867  1.00  0.00     0.031 C 
ATOM     47  C   UNL A   1      39.241  26.737  29.115  1.00  0.00     0.029 A 
ATOM     48  N   UNL A   1      40.940  28.189  29.024  1.00  0.00    -0.354 N 
ATOM     49  C   UNL A   1      44.644  27.145  27.069  1.00  0.00     0.074 A 
ATOM     50  C   UNL A   1      44.636  25.755  26.658  1.00  0.00     0.031 C 
ATOM     51  C   UNL A   1      38.843  27.860  29.731  1.00  0.00     0.029 A 
ATOM     52  C   UNL A   1      39.927  28.833  29.692  1.00  0.00     0.049 A 
ATOM     53  H   UNL A   1      41.821  28.595  28.857  1.00  0.00     0.167 HD
ATOM     54  C   UNL A   1      45.689  27.994  26.909  1.00  0.00     0.037 A 
ATOM     55  C   UNL A   1      39.878  30.074  30.209  1.00  0.00     0.037 A 
ATOM     56  C   UNL A   1      45.699  29.365  27.358  1.00  0.00     0.049 A 
ATOM     57  C   UNL A   1      41.070  30.976  30.057  1.00  0.00     0.074 A 
ATOM     58  C   UNL A   1      46.695  30.317  27.209  1.00  0.00     0.029 A 
ATOM     59  N   UNL A   1      44.675  29.975  28.069  1.00  0.00    -0.354 N 
ATOM     60  N   UNL A   1      42.206  30.753  29.441  1.00  0.00    -0.248 NA
ATOM     61  C   UNL A   1      40.966  32.307  30.666  1.00  0.00     0.031 C 
ATOM     62  C   UNL A   1      46.297  31.480  27.882  1.00  0.00     0.029 A 
ATOM     63  C   UNL A   1      45.028  31.276  28.396  1.00  0.00     0.049 A 
ATOM     64  H   UNL A   1      43.821  29.545  28.307  1.00  0.00     0.167 HD
ATOM     65  C   UNL A   1      42.942  31.923  29.570  1.00  0.00     0.074 A 
ATOM     66  C   UNL A   1      42.109  32.862  30.294  1.00  0.00     0.031 C 
ATOM     67  C   UNL A   1      44.196  32.197  29.132  1.00  0.00     0.037 A 
BRANCH  54  68
ATOM     68  C   UNL A   1      46.915  27.458  26.222  1.00  0.00     0.057 A 
ATOM     69  C   UNL A   1      47.070  27.571  24.834  1.00  0.00     0.134 A 
ATOM     70  C   UNL A   1      47.928  26.798  26.930  1.00  0.00     0.134 A 
ATOM     71  F   UNL A   1      46.135  28.180  24.090  1.00  0.00    -0.206 F 
ATOM     72  C   UNL A   1      48.189  27.051  24.179  1.00  0.00     0.040 A 
ATOM     73  C   UNL A   1      49.064  26.299  26.291  1.00  0.00     0.040 A 
ATOM     74  F   UNL A   1      47.846  26.658  28.263  1.00  0.00    -0.206 F 
ATOM     75  C   UNL A   1      49.194  26.420  24.909  1.00  0.00     0.006 A 
ENDBRANCH  54  68
BRANCH  55  76
ATOM     76  C   UNL A   1      38.653  30.548  30.900  1.00  0.00     0.057 A 
ATOM     77  C   UNL A   1      37.615  31.171  30.198  1.00  0.00     0.134 A 
ATOM     78  C   UNL A   1      38.478  30.359  32.276  1.00  0.00     0.134 A 
ATOM     79  F   UNL A   1      37.726  31.393  28.879  1.00  0.00    -0.206 F 
ATOM     80  C   UNL A   1      36.445  31.585  30.836  1.00  0.00     0.040 A 
ATOM     81  C   UNL A   1      37.300  30.739  32.922  1.00  0.00     0.040 A 
ATOM     82  F   UNL A   1      39.430  29.755  33.001  1.00  0.00    -0.206 F 
ATOM     83  C   UNL A   1      36.280  31.357  32.200  1.00  0.00     0.006 A 
ENDBRANCH  55  76
BRANCH  67  84
ATOM     84  C   UNL A   1      44.724  33.576  29.411  1.00  0.00     0.057 A 
ATOM     85  C   UNL A   1      44.477  34.630  28.522  1.00  0.00     0.134 A 
ATOM     86  C   UNL A   1      45.462  33.869  30.567  1.00  0.00     0.134 A 
ATOM     87  F   UNL A   1      43.784  34.422  27.391  1.00  0.00    -0.206 F 
ATOM     88  C   UNL A   1      44.935  35.924  28.775  1.00  0.00     0.040 A 
ATOM     89  C   UNL A   1      45.896  35.167  30.847  1.00  0.00     0.040 A 
ATOM     90  F   UNL A   1      45.720  32.912  31.469  1.00  0.00    -0.206 F 
ATOM     91  C   UNL A   1      45.635  36.197  29.947  1.00  0.00     0.006 A 
ENDBRANCH  67  84
ENDBRANCH  41  42
ENDBRANCH  34  36
ENDBRANCH  33  34
ENDBRANCH  32  33
ENDBRANCH  31  32
ENDBRANCH  30  31
ENDBRANCH   1  30
TORSDOF 18
ENDMDL
MODEL 3
REMARK VINA RESULT:     -11.5      4.313      7.940
REMARK SMILES C[C@H]1Oc2ccccc2C=C1/C=C/C(=O)N[C@H](C(=O)OCCOCCOC(=O)c1ccc(-c2c3nc(c(-c4c(F)cccc4F)c4ccc([nH]4)c(-c4c(F)cccc4F)c4nc(c(-c5c(F)cccc5F)c5ccc2[nH]5)C=C4)C=C3)cc1)c1ccccc1
REMARK SMILES IDX 22 1 21 2 20 3 18 4 19 5 17 6 16 7 14 8 15 9 13 11 12 12
REMARK SMILES IDX 11 13 1 14 2 15 3 16 4 17 10 18 5 19 9 20 6 21 8 22 7 23
REMARK SMILES IDX 83 24 84 25 88 26 85 27 87 28 86 29 23 30 24 31 25 32 26 33
REMARK SMILES IDX 27 34 28 35 29 36 30 37 82 38 31 39 81 40 32 41 33 42 34 43
REMARK SMILES IDX 75 44 35 45 80 46 74 47 76 48 36 49 79 50 73 51 72 52 37 54
REMARK SMILES IDX 63 55 46 56 62 57 47 58 50 59 61 60 77 61 48 62 49 63 60 65
REMARK SMILES IDX 78 66 51 67 38 68 39 69 44 70 40 71 41 72 43 73 45 74 42 75
REMARK SMILES IDX 64 76 65 77 70 78 66 79 67 80 69 81 71 82 68 83 52 84 53 85
REMARK SMILES IDX 58 86 54 87 55 88 57 89 59 90 56 91
REMARK H PARENT 16 10 76 53 50 64
REMARK Flexibility Score: inf
ROOT
ATOM      1  C   UNL A   1      34.070  28.984  27.084  1.00  0.00     0.202 C 
ENDROOT
BRANCH   1   2
ATOM      2  C   UNL A   1      33.574  27.912  26.099  1.00  0.00     0.261 C 
BRANCH   2   3
ATOM      3  O   UNL A   1      32.343  28.224  25.402  1.00  0.00    -0.461 OA
BRANCH   3   4
ATOM      4  C   UNL A   1      32.173  27.492  24.270  1.00  0.00     0.333 C 
ATOM      5  O   UNL A   1      33.140  27.126  23.600  1.00  0.00    -0.249 OA
BRANCH   4   6
ATOM      6  C   UNL A   1      30.699  27.236  23.832  1.00  0.00     0.223 C 
BRANCH   6   7
ATOM      7  N   UNL A   1      30.085  26.569  24.991  1.00  0.00    -0.335 N 
ATOM      8  C   UNL A   1      30.405  25.435  25.672  1.00  0.00     0.244 C 
ATOM      9  O   UNL A   1      29.613  25.069  26.545  1.00  0.00    -0.270 OA
ATOM     10  H   UNL A   1      29.290  27.032  25.339  1.00  0.00     0.165 HD
BRANCH   8  11
ATOM     11  C   UNL A   1      31.677  24.642  25.514  1.00  0.00     0.071 C 
ATOM     12  C   UNL A   1      32.272  23.725  26.301  1.00  0.00     0.013 C 
BRANCH  12  13
ATOM     13  C   UNL A   1      33.422  22.872  26.000  1.00  0.00    -0.007 C 
ATOM     14  C   UNL A   1      32.418  21.413  24.138  1.00  0.00     0.058 C 
ATOM     15  C   UNL A   1      33.113  21.451  25.502  1.00  0.00     0.200 C 
ATOM     16  O   UNL A   1      34.230  20.546  25.395  1.00  0.00    -0.485 OA
ATOM     17  C   UNL A   1      35.482  21.080  25.379  1.00  0.00     0.127 A 
ATOM     18  C   UNL A   1      34.687  23.286  26.145  1.00  0.00     0.019 C 
ATOM     19  C   UNL A   1      36.511  20.223  24.989  1.00  0.00     0.047 A 
ATOM     20  C   UNL A   1      35.764  22.389  25.762  1.00  0.00     0.017 A 
ATOM     21  C   UNL A   1      37.831  20.674  24.986  1.00  0.00     0.004 A 
ATOM     22  C   UNL A   1      37.090  22.835  25.773  1.00  0.00     0.012 A 
ATOM     23  C   UNL A   1      38.120  21.977  25.386  1.00  0.00     0.001 A 
ENDBRANCH  12  13
ENDBRANCH   8  11
ENDBRANCH   6   7
BRANCH   6  24
ATOM     24  C   UNL A   1      29.772  28.295  23.202  1.00  0.00    -0.014 A 
ATOM     25  C   UNL A   1      30.275  29.321  22.383  1.00  0.00     0.006 A 
ATOM     26  C   UNL A   1      28.362  28.210  23.266  1.00  0.00     0.006 A 
ATOM     27  C   UNL A   1      29.413  30.227  21.728  1.00  0.00     0.000 A 
ATOM     28  C   UNL A   1      27.504  29.140  22.670  1.00  0.00     0.000 A 
ATOM     29  C   UNL A   1      28.031  30.153  21.894  1.00  0.00     0.000 A 
ENDBRANCH   6  24
ENDBRANCH   4   6
ENDBRANCH   3   4
ENDBRANCH   2   3
ENDBRANCH   1   2
BRANCH   1  30
ATOM     30  O   UNL A   1      33.176  29.999  27.505  1.00  0.00    -0.374 OA
BRANCH  30  31
ATOM     31  C   UNL A   1      33.523  31.360  27.278  1.00  0.00     0.202 C 
BRANCH  31  32
ATOM     32  C   UNL A   1      34.401  32.113  28.289  1.00  0.00     0.261 C 
BRANCH  32  33
ATOM     33  O   UNL A   1      35.785  31.719  28.277  1.00  0.00    -0.460 OA
BRANCH  33  34
ATOM     34  C   UNL A   1      36.274  31.273  29.462  1.00  0.00     0.338 C 
ATOM     35  O   UNL A   1      35.739  31.347  30.559  1.00  0.00    -0.246 OA
BRANCH  34  36
ATOM     36  C   UNL A   1      37.492  30.475  29.223  1.00  0.00     0.060 A 
ATOM     37  C   UNL A   1      37.896  30.157  27.927  1.00  0.00     0.016 A 
ATOM     38  C   UNL A   1      38.264  30.084  30.327  1.00  0.00     0.016 A 
ATOM     39  C   UNL A   1      39.098  29.474  27.737  1.00  0.00     0.010 A 
ATOM     40  C   UNL A   1      39.462  29.394  30.136  1.00  0.00     0.010 A 
ATOM     41  C   UNL A   1      39.902  29.110  28.835  1.00  0.00    -0.014 A 
BRANCH  41  42
ATOM     42  C   UNL A   1      41.273  28.597  28.602  1.00  0.00     0.031 A 
ATOM     43  C   UNL A   1      41.542  27.157  28.289  1.00  0.00     0.074 A 
ATOM     44  C   UNL A   1      42.293  29.473  28.687  1.00  0.00     0.049 A 
ATOM     45  N   UNL A   1      42.670  26.590  27.943  1.00  0.00    -0.248 NA
ATOM     46  C   UNL A   1      40.404  26.234  28.385  1.00  0.00     0.031 C 
ATOM     47  C   UNL A   1      42.157  30.887  29.044  1.00  0.00     0.029 A 
ATOM     48  N   UNL A   1      43.636  29.312  28.466  1.00  0.00    -0.354 N 
ATOM     49  C   UNL A   1      42.377  25.246  27.752  1.00  0.00     0.074 A 
ATOM     50  C   UNL A   1      40.975  25.075  28.077  1.00  0.00     0.031 C 
ATOM     51  C   UNL A   1      43.361  31.473  28.976  1.00  0.00     0.029 A 
ATOM     52  C   UNL A   1      44.355  30.475  28.601  1.00  0.00     0.049 A 
ATOM     53  H   UNL A   1      44.045  28.448  28.232  1.00  0.00     0.167 HD
ATOM     54  C   UNL A   1      43.200  24.255  27.328  1.00  0.00     0.037 A 
ATOM     55  C   UNL A   1      45.668  30.710  28.433  1.00  0.00     0.037 A 
ATOM     56  C   UNL A   1      44.604  24.428  27.045  1.00  0.00     0.049 A 
ATOM     57  C   UNL A   1      46.563  29.581  28.009  1.00  0.00     0.074 A 
ATOM     58  C   UNL A   1      45.514  23.496  26.574  1.00  0.00     0.029 A 
ATOM     59  N   UNL A   1      45.311  25.608  27.232  1.00  0.00    -0.354 N 
ATOM     60  N   UNL A   1      46.254  28.337  27.728  1.00  0.00    -0.248 NA
ATOM     61  C   UNL A   1      47.991  29.893  27.869  1.00  0.00     0.031 C 
ATOM     62  C   UNL A   1      46.780  24.095  26.535  1.00  0.00     0.029 A 
ATOM     63  C   UNL A   1      46.649  25.418  26.921  1.00  0.00     0.049 A 
ATOM     64  H   UNL A   1      44.919  26.457  27.541  1.00  0.00     0.167 HD
ATOM     65  C   UNL A   1      47.445  27.725  27.357  1.00  0.00     0.074 A 
ATOM     66  C   UNL A   1      48.473  28.744  27.418  1.00  0.00     0.031 C 
ATOM     67  C   UNL A   1      47.668  26.436  27.002  1.00  0.00     0.037 A 
BRANCH  54  68
ATOM     68  C   UNL A   1      42.599  22.888  27.150  1.00  0.00     0.057 A 
ATOM     69  C   UNL A   1      42.336  22.377  25.872  1.00  0.00     0.134 A 
ATOM     70  C   UNL A   1      42.248  22.088  28.246  1.00  0.00     0.134 A 
ATOM     71  F   UNL A   1      42.635  23.091  24.776  1.00  0.00    -0.206 F 
ATOM     72  C   UNL A   1      41.750  21.122  25.693  1.00  0.00     0.040 A 
ATOM     73  C   UNL A   1      41.687  20.821  28.079  1.00  0.00     0.040 A 
ATOM     74  F   UNL A   1      42.476  22.514  29.499  1.00  0.00    -0.206 F 
ATOM     75  C   UNL A   1      41.432  20.336  26.799  1.00  0.00     0.006 A 
ENDBRANCH  54  68
BRANCH  55  76
ATOM     76  C   UNL A   1      46.218  32.072  28.645  1.00  0.00     0.057 A 
ATOM     77  C   UNL A   1      46.666  32.490  29.904  1.00  0.00     0.134 A 
ATOM     78  C   UNL A   1      46.339  32.978  27.585  1.00  0.00     0.134 A 
ATOM     79  F   UNL A   1      46.567  31.673  30.964  1.00  0.00    -0.206 F 
ATOM     80  C   UNL A   1      47.218  33.756  30.101  1.00  0.00     0.040 A 
ATOM     81  C   UNL A   1      46.919  34.236  27.760  1.00  0.00     0.040 A 
ATOM     82  F   UNL A   1      45.941  32.631  26.352  1.00  0.00    -0.206 F 
ATOM     83  C   UNL A   1      47.358  34.628  29.023  1.00  0.00     0.006 A 
ENDBRANCH  55  76
BRANCH  67  84
ATOM     84  C   UNL A   1      49.079  26.072  26.632  1.00  0.00     0.057 A 
ATOM     85  C   UNL A   1      49.570  26.326  25.345  1.00  0.00     0.134 A 
ATOM     86  C   UNL A   1      49.960  25.486  27.552  1.00  0.00     0.134 A 
ATOM     87  F   UNL A   1      48.781  26.878  24.410  1.00  0.00    -0.206 F 
ATOM     88  C   UNL A   1      50.884  26.020  24.989  1.00  0.00     0.040 A 
ATOM     89  C   UNL A   1      51.288  25.207  27.218  1.00  0.00     0.040 A 
ATOM     90  F   UNL A   1      49.562  25.232  28.808  1.00  0.00    -0.206 F 
ATOM     91  C   UNL A   1      51.751  25.471  25.931  1.00  0.00     0.006 A 
ENDBRANCH  67  84
ENDBRANCH  41  42
ENDBRANCH  34  36
ENDBRANCH  33  34
ENDBRANCH  32  33
ENDBRANCH  31  32
ENDBRANCH  30  31
ENDBRANCH   1  30
TORSDOF 18
ENDMDL
