MODEL 1
REMARK VINA RESULT:      -9.7      0.000      0.000
REMARK SMILES CC(=O)Oc1ccccc1SCCCCCC(=O)OCCOCCOC(=O)c1ccc(-c2c3nc(c(-c4c(F)cccc4F)c4ccc([nH]4)c(-c4c(F)cccc4F)c4nc(c(-c5c(F)cccc5F)c5ccc2[nH]5)C=C4)C=C3)cc1
REMARK SMILES IDX 19 1 17 2 18 3 16 4 15 5 14 6 13 7 12 8 11 9 10 10 5 11 6 12
REMARK SMILES IDX 7 13 9 14 8 15 4 16 2 17 1 18 3 19 20 20 21 21 22 22 23 23
REMARK SMILES IDX 24 24 25 25 26 26 27 27 28 28 29 29 81 30 30 31 80 32 31 33
REMARK SMILES IDX 32 34 33 35 74 36 34 37 79 38 73 39 75 40 35 41 78 42 72 43
REMARK SMILES IDX 71 44 36 46 62 47 45 48 61 49 46 50 49 51 60 52 76 53 47 54
REMARK SMILES IDX 48 55 59 57 77 58 50 59 37 60 38 61 43 62 39 63 40 64 42 65
REMARK SMILES IDX 44 66 41 67 63 68 64 69 69 70 65 71 66 72 68 73 70 74 67 75
REMARK SMILES IDX 51 76 52 77 57 78 53 79 54 80 56 81 58 82 55 83
REMARK H PARENT 75 45 49 56
REMARK Flexibility Score: inf
ROOT
ATOM      1  O   UNL A   1      41.455  19.232  25.672  1.00  0.00    -0.463 OA
ENDROOT
BRANCH   1   2
ATOM      2  C   UNL A   1      40.742  19.952  26.570  1.00  0.00     0.305 C 
ATOM      3  O   UNL A   1      40.991  20.043  27.764  1.00  0.00    -0.252 OA
BRANCH   2   4
ATOM      4  C   UNL A   1      39.630  20.700  25.869  1.00  0.00     0.123 C 
BRANCH   4   5
ATOM      5  C   UNL A   1      39.304  22.045  26.552  1.00  0.00     0.012 C 
BRANCH   5   6
ATOM      6  C   UNL A   1      38.436  23.125  25.865  1.00  0.00     0.001 C 
BRANCH   6   7
ATOM      7  C   UNL A   1      36.904  23.254  25.923  1.00  0.00     0.011 C 
BRANCH   7   8
ATOM      8  C   UNL A   1      35.833  22.145  25.747  1.00  0.00     0.075 C 
BRANCH   8   9
ATOM      9  S   UNL A   1      34.050  22.300  25.288  1.00  0.00    -0.122 SA
BRANCH   9  10
ATOM     10  C   UNL A   1      33.568  24.013  25.351  1.00  0.00     0.050 A 
ATOM     11  C   UNL A   1      32.775  24.674  26.301  1.00  0.00     0.144 A 
ATOM     12  C   UNL A   1      32.653  26.076  26.277  1.00  0.00     0.048 A 
ATOM     13  C   UNL A   1      33.219  26.812  25.233  1.00  0.00     0.004 A 
ATOM     14  C   UNL A   1      33.990  24.763  24.236  1.00  0.00     0.019 A 
ATOM     15  C   UNL A   1      33.823  26.147  24.175  1.00  0.00     0.001 A 
BRANCH  11  16
ATOM     16  O   UNL A   1      31.957  23.978  27.219  1.00  0.00    -0.426 OA
BRANCH  16  17
ATOM     17  C   UNL A   1      30.719  23.772  26.696  1.00  0.00     0.308 C 
ATOM     18  C   UNL A   1      30.538  22.539  25.897  1.00  0.00     0.139 C 
ATOM     19  O   UNL A   1      29.766  24.515  26.859  1.00  0.00    -0.252 OA
ENDBRANCH  16  17
ENDBRANCH  11  16
ENDBRANCH   9  10
ENDBRANCH   8   9
ENDBRANCH   7   8
ENDBRANCH   6   7
ENDBRANCH   5   6
ENDBRANCH   4   5
ENDBRANCH   2   4
ENDBRANCH   1   2
BRANCH   1  20
ATOM     20  C   UNL A   1      42.862  19.099  25.931  1.00  0.00     0.261 C 
BRANCH  20  21
ATOM     21  C   UNL A   1      43.533  20.455  25.688  1.00  0.00     0.202 C 
BRANCH  21  22
ATOM     22  O   UNL A   1      44.809  20.425  25.048  1.00  0.00    -0.374 OA
BRANCH  22  23
ATOM     23  C   UNL A   1      45.775  21.404  25.430  1.00  0.00     0.202 C 
BRANCH  23  24
ATOM     24  C   UNL A   1      45.828  22.711  24.606  1.00  0.00     0.261 C 
BRANCH  24  25
ATOM     25  O   UNL A   1      45.137  23.826  25.205  1.00  0.00    -0.460 OA
BRANCH  25  26
ATOM     26  C   UNL A   1      43.820  23.916  24.898  1.00  0.00     0.338 C 
ATOM     27  O   UNL A   1      43.207  23.251  24.079  1.00  0.00    -0.246 OA
BRANCH  26  28
ATOM     28  C   UNL A   1      43.131  24.818  25.846  1.00  0.00     0.060 A 
ATOM     29  C   UNL A   1      43.628  26.123  25.959  1.00  0.00     0.016 A 
ATOM     30  C   UNL A   1      42.090  24.387  26.670  1.00  0.00     0.016 A 
ATOM     31  C   UNL A   1      43.110  26.993  26.917  1.00  0.00     0.010 A 
ATOM     32  C   UNL A   1      41.581  25.258  27.644  1.00  0.00     0.010 A 
ATOM     33  C   UNL A   1      42.108  26.556  27.792  1.00  0.00    -0.014 A 
BRANCH  33  34
ATOM     34  C   UNL A   1      41.708  27.422  28.930  1.00  0.00     0.031 A 
ATOM     35  C   UNL A   1      42.483  27.355  30.218  1.00  0.00     0.074 A 
ATOM     36  C   UNL A   1      40.692  28.295  28.806  1.00  0.00     0.049 A 
ATOM     37  N   UNL A   1      42.284  27.993  31.343  1.00  0.00    -0.248 NA
ATOM     38  C   UNL A   1      43.642  26.448  30.238  1.00  0.00     0.031 C 
ATOM     39  C   UNL A   1      39.897  28.497  27.596  1.00  0.00     0.029 A 
ATOM     40  N   UNL A   1      40.152  29.172  29.715  1.00  0.00    -0.354 N 
ATOM     41  C   UNL A   1      43.282  27.559  32.207  1.00  0.00     0.074 A 
ATOM     42  C   UNL A   1      44.071  26.585  31.484  1.00  0.00     0.031 C 
ATOM     43  C   UNL A   1      38.960  29.428  27.841  1.00  0.00     0.029 A 
ATOM     44  C   UNL A   1      39.064  29.858  29.235  1.00  0.00     0.049 A 
ATOM     45  H   UNL A   1      40.510  29.295  30.623  1.00  0.00     0.167 HD
ATOM     46  C   UNL A   1      43.522  27.944  33.484  1.00  0.00     0.037 A 
ATOM     47  C   UNL A   1      38.227  30.712  29.857  1.00  0.00     0.037 A 
ATOM     48  C   UNL A   1      42.736  28.915  34.201  1.00  0.00     0.049 A 
ATOM     49  C   UNL A   1      38.460  31.054  31.306  1.00  0.00     0.074 A 
ATOM     50  C   UNL A   1      42.915  29.386  35.491  1.00  0.00     0.029 A 
ATOM     51  N   UNL A   1      41.613  29.553  33.696  1.00  0.00    -0.354 N 
ATOM     52  N   UNL A   1      39.419  30.659  32.106  1.00  0.00    -0.248 NA
ATOM     53  C   UNL A   1      37.490  31.962  31.938  1.00  0.00     0.031 C 
ATOM     54  C   UNL A   1      41.865  30.261  35.787  1.00  0.00     0.029 A 
ATOM     55  C   UNL A   1      41.068  30.385  34.660  1.00  0.00     0.049 A 
ATOM     56  H   UNL A   1      41.256  29.433  32.786  1.00  0.00     0.167 HD
ATOM     57  C   UNL A   1      39.186  31.287  33.324  1.00  0.00     0.074 A 
ATOM     58  C   UNL A   1      38.002  32.101  33.154  1.00  0.00     0.031 C 
ATOM     59  C   UNL A   1      39.890  31.196  34.479  1.00  0.00     0.037 A 
BRANCH  46  60
ATOM     60  C   UNL A   1      44.663  27.285  34.206  1.00  0.00     0.057 A 
ATOM     61  C   UNL A   1      45.952  27.834  34.219  1.00  0.00     0.134 A 
ATOM     62  C   UNL A   1      44.458  26.104  34.932  1.00  0.00     0.134 A 
ATOM     63  F   UNL A   1      46.220  28.957  33.537  1.00  0.00    -0.206 F 
ATOM     64  C   UNL A   1      47.000  27.219  34.907  1.00  0.00     0.040 A 
ATOM     65  C   UNL A   1      45.491  25.496  35.647  1.00  0.00     0.040 A 
ATOM     66  F   UNL A   1      43.246  25.529  34.968  1.00  0.00    -0.206 F 
ATOM     67  C   UNL A   1      46.769  26.050  35.630  1.00  0.00     0.006 A 
ENDBRANCH  46  60
BRANCH  47  68
ATOM     68  C   UNL A   1      37.067  31.281  29.124  1.00  0.00     0.057 A 
ATOM     69  C   UNL A   1      35.929  30.513  28.851  1.00  0.00     0.134 A 
ATOM     70  C   UNL A   1      37.079  32.603  28.660  1.00  0.00     0.134 A 
ATOM     71  F   UNL A   1      35.867  29.234  29.246  1.00  0.00    -0.206 F 
ATOM     72  C   UNL A   1      34.853  31.034  28.128  1.00  0.00     0.040 A 
ATOM     73  C   UNL A   1      35.999  33.145  27.962  1.00  0.00     0.040 A 
ATOM     74  F   UNL A   1      38.139  33.392  28.887  1.00  0.00    -0.206 F 
ATOM     75  C   UNL A   1      34.884  32.355  27.687  1.00  0.00     0.006 A 
ENDBRANCH  47  68
BRANCH  59  76
ATOM     76  C   UNL A   1      39.423  32.022  35.644  1.00  0.00     0.057 A 
ATOM     77  C   UNL A   1      39.841  33.346  35.829  1.00  0.00     0.134 A 
ATOM     78  C   UNL A   1      38.501  31.503  36.563  1.00  0.00     0.134 A 
ATOM     79  F   UNL A   1      40.732  33.902  34.993  1.00  0.00    -0.206 F 
ATOM     80  C   UNL A   1      39.374  34.117  36.895  1.00  0.00     0.040 A 
ATOM     81  C   UNL A   1      38.005  32.273  37.616  1.00  0.00     0.040 A 
ATOM     82  F   UNL A   1      38.051  30.245  36.439  1.00  0.00    -0.206 F 
ATOM     83  C   UNL A   1      38.446  33.583  37.788  1.00  0.00     0.006 A 
ENDBRANCH  59  76
ENDBRANCH  33  34
ENDBRANCH  26  28
ENDBRANCH  25  26
ENDBRANCH  24  25
ENDBRANCH  23  24
ENDBRANCH  22  23
ENDBRANCH  21  22
ENDBRANCH  20  21
ENDBRANCH   1  20
TORSDOF 22
ENDMDL
MODEL 2
REMARK VINA RESULT:      -9.1      3.632      8.625
REMARK SMILES CC(=O)Oc1ccccc1SCCCCCC(=O)OCCOCCOC(=O)c1ccc(-c2c3nc(c(-c4c(F)cccc4F)c4ccc([nH]4)c(-c4c(F)cccc4F)c4nc(c(-c5c(F)cccc5F)c5ccc2[nH]5)C=C4)C=C3)cc1
REMARK SMILES IDX 19 1 17 2 18 3 16 4 15 5 14 6 13 7 12 8 11 9 10 10 5 11 6 12
REMARK SMILES IDX 7 13 9 14 8 15 4 16 2 17 1 18 3 19 20 20 21 21 22 22 23 23
REMARK SMILES IDX 24 24 25 25 26 26 27 27 28 28 29 29 81 30 30 31 80 32 31 33
REMARK SMILES IDX 32 34 33 35 74 36 34 37 79 38 73 39 75 40 35 41 78 42 72 43
REMARK SMILES IDX 71 44 36 46 62 47 45 48 61 49 46 50 49 51 60 52 76 53 47 54
REMARK SMILES IDX 48 55 59 57 77 58 50 59 37 60 38 61 43 62 39 63 40 64 42 65
REMARK SMILES IDX 44 66 41 67 63 68 64 69 69 70 65 71 66 72 68 73 70 74 67 75
REMARK SMILES IDX 51 76 52 77 57 78 53 79 54 80 56 81 58 82 55 83
REMARK H PARENT 75 45 49 56
REMARK Flexibility Score: inf
ROOT
ATOM      1  O   UNL A   1      31.452  27.609  23.963  1.00  0.00    -0.463 OA
ENDROOT
BRANCH   1   2
ATOM      2  C   UNL A   1      31.245  27.403  22.641  1.00  0.00     0.305 C 
ATOM      3  O   UNL A   1      30.385  27.952  21.964  1.00  0.00    -0.252 OA
BRANCH   2   4
ATOM      4  C   UNL A   1      32.285  26.451  22.094  1.00  0.00     0.123 C 
BRANCH   4   5
ATOM      5  C   UNL A   1      33.489  26.286  23.047  1.00  0.00     0.012 C 
BRANCH   5   6
ATOM      6  C   UNL A   1      34.080  24.897  23.387  1.00  0.00     0.001 C 
BRANCH   6   7
ATOM      7  C   UNL A   1      34.009  23.626  22.523  1.00  0.00     0.011 C 
BRANCH   7   8
ATOM      8  C   UNL A   1      32.843  22.610  22.390  1.00  0.00     0.075 C 
BRANCH   8   9
ATOM      9  S   UNL A   1      32.106  21.499  23.669  1.00  0.00    -0.122 SA
BRANCH   9  10
ATOM     10  C   UNL A   1      32.755  21.926  25.271  1.00  0.00     0.050 A 
ATOM     11  C   UNL A   1      32.104  22.537  26.354  1.00  0.00     0.144 A 
ATOM     12  C   UNL A   1      32.739  22.630  27.607  1.00  0.00     0.048 A 
ATOM     13  C   UNL A   1      34.069  22.228  27.752  1.00  0.00     0.004 A 
ATOM     14  C   UNL A   1      34.133  21.676  25.410  1.00  0.00     0.019 A 
ATOM     15  C   UNL A   1      34.787  21.821  26.634  1.00  0.00     0.001 A 
BRANCH  11  16
ATOM     16  O   UNL A   1      30.869  23.208  26.213  1.00  0.00    -0.426 OA
BRANCH  16  17
ATOM     17  C   UNL A   1      31.063  24.549  26.101  1.00  0.00     0.308 C 
ATOM     18  C   UNL A   1      29.845  25.388  26.040  1.00  0.00     0.139 C 
ATOM     19  O   UNL A   1      32.155  25.090  26.070  1.00  0.00    -0.252 OA
ENDBRANCH  16  17
ENDBRANCH  11  16
ENDBRANCH   9  10
ENDBRANCH   8   9
ENDBRANCH   7   8
ENDBRANCH   6   7
ENDBRANCH   5   6
ENDBRANCH   4   5
ENDBRANCH   2   4
ENDBRANCH   1   2
BRANCH   1  20
ATOM     20  C   UNL A   1      31.214  28.940  24.448  1.00  0.00     0.261 C 
BRANCH  20  21
ATOM     21  C   UNL A   1      31.781  29.052  25.867  1.00  0.00     0.202 C 
BRANCH  21  22
ATOM     22  O   UNL A   1      32.230  30.346  26.270  1.00  0.00    -0.374 OA
BRANCH  22  23
ATOM     23  C   UNL A   1      31.336  31.447  26.109  1.00  0.00     0.202 C 
BRANCH  23  24
ATOM     24  C   UNL A   1      31.499  32.643  27.076  1.00  0.00     0.261 C 
BRANCH  24  25
ATOM     25  O   UNL A   1      32.720  33.391  26.903  1.00  0.00    -0.460 OA
BRANCH  25  26
ATOM     26  C   UNL A   1      33.247  33.899  28.043  1.00  0.00     0.338 C 
ATOM     27  O   UNL A   1      32.730  34.706  28.798  1.00  0.00    -0.246 OA
BRANCH  26  28
ATOM     28  C   UNL A   1      34.498  33.192  28.391  1.00  0.00     0.060 A 
ATOM     29  C   UNL A   1      34.385  31.851  28.781  1.00  0.00     0.016 A 
ATOM     30  C   UNL A   1      35.738  33.833  28.426  1.00  0.00     0.016 A 
ATOM     31  C   UNL A   1      35.502  31.154  29.239  1.00  0.00     0.010 A 
ATOM     32  C   UNL A   1      36.857  33.136  28.902  1.00  0.00     0.010 A 
ATOM     33  C   UNL A   1      36.740  31.802  29.338  1.00  0.00    -0.014 A 
BRANCH  33  34
ATOM     34  C   UNL A   1      37.869  31.112  30.011  1.00  0.00     0.031 A 
ATOM     35  C   UNL A   1      38.152  31.398  31.462  1.00  0.00     0.074 A 
ATOM     36  C   UNL A   1      38.611  30.204  29.352  1.00  0.00     0.049 A 
ATOM     37  N   UNL A   1      39.105  30.936  32.230  1.00  0.00    -0.248 NA
ATOM     38  C   UNL A   1      37.231  32.327  32.137  1.00  0.00     0.031 C 
ATOM     39  C   UNL A   1      38.407  29.797  27.963  1.00  0.00     0.029 A 
ATOM     40  N   UNL A   1      39.693  29.464  29.765  1.00  0.00    -0.354 N 
ATOM     41  C   UNL A   1      38.908  31.524  33.474  1.00  0.00     0.074 A 
ATOM     42  C   UNL A   1      37.759  32.395  33.351  1.00  0.00     0.031 C 
ATOM     43  C   UNL A   1      39.343  28.890  27.634  1.00  0.00     0.029 A 
ATOM     44  C   UNL A   1      40.234  28.683  28.775  1.00  0.00     0.049 A 
ATOM     45  H   UNL A   1      40.045  29.492  30.684  1.00  0.00     0.167 HD
ATOM     46  C   UNL A   1      39.617  31.348  34.615  1.00  0.00     0.037 A 
ATOM     47  C   UNL A   1      41.341  27.914  28.777  1.00  0.00     0.037 A 
ATOM     48  C   UNL A   1      40.759  30.479  34.735  1.00  0.00     0.049 A 
ATOM     49  C   UNL A   1      42.166  27.806  30.032  1.00  0.00     0.074 A 
ATOM     50  C   UNL A   1      41.528  30.218  35.857  1.00  0.00     0.029 A 
ATOM     51  N   UNL A   1      41.305  29.741  33.697  1.00  0.00    -0.354 N 
ATOM     52  N   UNL A   1      41.958  28.346  31.209  1.00  0.00    -0.248 NA
ATOM     53  C   UNL A   1      43.382  26.982  29.959  1.00  0.00     0.031 C 
ATOM     54  C   UNL A   1      42.577  29.371  35.481  1.00  0.00     0.029 A 
ATOM     55  C   UNL A   1      42.423  29.053  34.141  1.00  0.00     0.049 A 
ATOM     56  H   UNL A   1      40.951  29.709  32.778  1.00  0.00     0.167 HD
ATOM     57  C   UNL A   1      42.998  27.907  32.021  1.00  0.00     0.074 A 
ATOM     58  C   UNL A   1      43.828  27.046  31.206  1.00  0.00     0.031 C 
ATOM     59  C   UNL A   1      43.242  28.194  33.323  1.00  0.00     0.037 A 
BRANCH  46  60
ATOM     60  C   UNL A   1      39.200  32.139  35.822  1.00  0.00     0.057 A 
ATOM     61  C   UNL A   1      38.314  31.628  36.779  1.00  0.00     0.134 A 
ATOM     62  C   UNL A   1      39.725  33.419  36.049  1.00  0.00     0.134 A 
ATOM     63  F   UNL A   1      37.766  30.414  36.619  1.00  0.00    -0.206 F 
ATOM     64  C   UNL A   1      37.947  32.369  37.904  1.00  0.00     0.040 A 
ATOM     65  C   UNL A   1      39.388  34.157  37.184  1.00  0.00     0.040 A 
ATOM     66  F   UNL A   1      40.585  33.966  35.177  1.00  0.00    -0.206 F 
ATOM     67  C   UNL A   1      38.491  33.635  38.112  1.00  0.00     0.006 A 
ENDBRANCH  46  60
BRANCH  47  68
ATOM     68  C   UNL A   1      41.756  27.208  27.537  1.00  0.00     0.057 A 
ATOM     69  C   UNL A   1      41.468  25.853  27.338  1.00  0.00     0.134 A 
ATOM     70  C   UNL A   1      42.472  27.869  26.531  1.00  0.00     0.134 A 
ATOM     71  F   UNL A   1      40.809  25.158  28.276  1.00  0.00    -0.206 F 
ATOM     72  C   UNL A   1      41.892  25.177  26.192  1.00  0.00     0.040 A 
ATOM     73  C   UNL A   1      42.875  27.214  25.367  1.00  0.00     0.040 A 
ATOM     74  F   UNL A   1      42.781  29.168  26.659  1.00  0.00    -0.206 F 
ATOM     75  C   UNL A   1      42.592  25.860  25.199  1.00  0.00     0.006 A 
ENDBRANCH  47  68
BRANCH  59  76
ATOM     76  C   UNL A   1      44.435  27.545  33.965  1.00  0.00     0.057 A 
ATOM     77  C   UNL A   1      45.702  28.142  33.948  1.00  0.00     0.134 A 
ATOM     78  C   UNL A   1      44.303  26.333  34.656  1.00  0.00     0.134 A 
ATOM     79  F   UNL A   1      45.902  29.296  33.294  1.00  0.00    -0.206 F 
ATOM     80  C   UNL A   1      46.798  27.548  34.578  1.00  0.00     0.040 A 
ATOM     81  C   UNL A   1      45.384  25.744  35.314  1.00  0.00     0.040 A 
ATOM     82  F   UNL A   1      43.115  25.712  34.721  1.00  0.00    -0.206 F 
ATOM     83  C   UNL A   1      46.638  26.349  35.272  1.00  0.00     0.006 A 
ENDBRANCH  59  76
ENDBRANCH  33  34
ENDBRANCH  26  28
ENDBRANCH  25  26
ENDBRANCH  24  25
ENDBRANCH  23  24
ENDBRANCH  22  23
ENDBRANCH  21  22
ENDBRANCH  20  21
ENDBRANCH   1  20
TORSDOF 22
ENDMDL
MODEL 3
REMARK VINA RESULT:      -9.0      1.401      2.367
REMARK SMILES CC(=O)Oc1ccccc1SCCCCCC(=O)OCCOCCOC(=O)c1ccc(-c2c3nc(c(-c4c(F)cccc4F)c4ccc([nH]4)c(-c4c(F)cccc4F)c4nc(c(-c5c(F)cccc5F)c5ccc2[nH]5)C=C4)C=C3)cc1
REMARK SMILES IDX 19 1 17 2 18 3 16 4 15 5 14 6 13 7 12 8 11 9 10 10 5 11 6 12
REMARK SMILES IDX 7 13 9 14 8 15 4 16 2 17 1 18 3 19 20 20 21 21 22 22 23 23
REMARK SMILES IDX 24 24 25 25 26 26 27 27 28 28 29 29 81 30 30 31 80 32 31 33
REMARK SMILES IDX 32 34 33 35 74 36 34 37 79 38 73 39 75 40 35 41 78 42 72 43
REMARK SMILES IDX 71 44 36 46 62 47 45 48 61 49 46 50 49 51 60 52 76 53 47 54
REMARK SMILES IDX 48 55 59 57 77 58 50 59 37 60 38 61 43 62 39 63 40 64 42 65
REMARK SMILES IDX 44 66 41 67 63 68 64 69 69 70 65 71 66 72 68 73 70 74 67 75
REMARK SMILES IDX 51 76 52 77 57 78 53 79 54 80 56 81 58 82 55 83
REMARK H PARENT 75 45 49 56
REMARK Flexibility Score: inf
ROOT
ATOM      1  O   UNL A   1      41.119  20.219  26.045  1.00  0.00    -0.463 OA
ENDROOT
BRANCH   1   2
ATOM      2  C   UNL A   1      40.520  21.063  26.918  1.00  0.00     0.305 C 
ATOM      3  O   UNL A   1      40.774  21.145  28.112  1.00  0.00    -0.252 OA
BRANCH   2   4
ATOM      4  C   UNL A   1      39.540  21.954  26.189  1.00  0.00     0.123 C 
BRANCH   4   5
ATOM      5  C   UNL A   1      38.477  21.147  25.412  1.00  0.00     0.012 C 
BRANCH   5   6
ATOM      6  C   UNL A   1      37.467  21.827  24.458  1.00  0.00     0.001 C 
BRANCH   6   7
ATOM      7  C   UNL A   1      36.210  22.620  24.855  1.00  0.00     0.011 C 
BRANCH   7   8
ATOM      8  C   UNL A   1      35.349  22.488  26.140  1.00  0.00     0.075 C 
BRANCH   8   9
ATOM      9  S   UNL A   1      33.526  22.237  26.307  1.00  0.00    -0.122 SA
BRANCH   9  10
ATOM     10  C   UNL A   1      32.893  21.478  24.826  1.00  0.00     0.050 A 
ATOM     11  C   UNL A   1      32.472  22.084  23.633  1.00  0.00     0.144 A 
ATOM     12  C   UNL A   1      32.171  21.301  22.503  1.00  0.00     0.048 A 
ATOM     13  C   UNL A   1      32.167  19.907  22.595  1.00  0.00     0.004 A 
ATOM     14  C   UNL A   1      32.729  20.083  24.928  1.00  0.00     0.019 A 
ATOM     15  C   UNL A   1      32.373  19.302  23.828  1.00  0.00     0.001 A 
BRANCH  11  16
ATOM     16  O   UNL A   1      32.192  23.466  23.545  1.00  0.00    -0.426 OA
BRANCH  16  17
ATOM     17  C   UNL A   1      33.037  24.070  22.667  1.00  0.00     0.308 C 
ATOM     18  C   UNL A   1      32.553  25.318  22.038  1.00  0.00     0.139 C 
ATOM     19  O   UNL A   1      34.153  23.663  22.390  1.00  0.00    -0.252 OA
ENDBRANCH  16  17
ENDBRANCH  11  16
ENDBRANCH   9  10
ENDBRANCH   8   9
ENDBRANCH   7   8
ENDBRANCH   6   7
ENDBRANCH   5   6
ENDBRANCH   4   5
ENDBRANCH   2   4
ENDBRANCH   1   2
BRANCH   1  20
ATOM     20  C   UNL A   1      42.510  19.942  26.276  1.00  0.00     0.261 C 
BRANCH  20  21
ATOM     21  C   UNL A   1      43.342  21.062  25.644  1.00  0.00     0.202 C 
BRANCH  21  22
ATOM     22  O   UNL A   1      44.760  20.902  25.692  1.00  0.00    -0.374 OA
BRANCH  22  23
ATOM     23  C   UNL A   1      45.553  22.037  26.039  1.00  0.00     0.202 C 
BRANCH  23  24
ATOM     24  C   UNL A   1      45.807  23.092  24.937  1.00  0.00     0.261 C 
BRANCH  24  25
ATOM     25  O   UNL A   1      45.142  24.354  25.150  1.00  0.00    -0.460 OA
BRANCH  25  26
ATOM     26  C   UNL A   1      43.806  24.343  24.926  1.00  0.00     0.338 C 
ATOM     27  O   UNL A   1      43.188  23.590  24.190  1.00  0.00    -0.246 OA
BRANCH  26  28
ATOM     28  C   UNL A   1      43.120  25.261  25.859  1.00  0.00     0.060 A 
ATOM     29  C   UNL A   1      43.794  26.439  26.205  1.00  0.00     0.016 A 
ATOM     30  C   UNL A   1      41.896  24.950  26.454  1.00  0.00     0.016 A 
ATOM     31  C   UNL A   1      43.267  27.295  27.170  1.00  0.00     0.010 A 
ATOM     32  C   UNL A   1      41.375  25.803  27.438  1.00  0.00     0.010 A 
ATOM     33  C   UNL A   1      42.072  26.966  27.822  1.00  0.00    -0.014 A 
BRANCH  33  34
ATOM     34  C   UNL A   1      41.628  27.779  28.982  1.00  0.00     0.031 A 
ATOM     35  C   UNL A   1      42.368  27.671  30.288  1.00  0.00     0.074 A 
ATOM     36  C   UNL A   1      40.602  28.642  28.864  1.00  0.00     0.049 A 
ATOM     37  N   UNL A   1      42.127  28.260  31.431  1.00  0.00    -0.248 NA
ATOM     38  C   UNL A   1      43.539  26.780  30.304  1.00  0.00     0.031 C 
ATOM     39  C   UNL A   1      39.838  28.882  27.641  1.00  0.00     0.029 A 
ATOM     40  N   UNL A   1      40.024  29.474  29.791  1.00  0.00    -0.354 N 
ATOM     41  C   UNL A   1      43.108  27.806  32.305  1.00  0.00     0.074 A 
ATOM     42  C   UNL A   1      43.931  26.873  31.566  1.00  0.00     0.031 C 
ATOM     43  C   UNL A   1      38.881  29.789  27.897  1.00  0.00     0.029 A 
ATOM     44  C   UNL A   1      38.940  30.164  29.309  1.00  0.00     0.049 A 
ATOM     45  H   UNL A   1      40.355  29.565  30.714  1.00  0.00     0.167 HD
ATOM     46  C   UNL A   1      43.306  28.142  33.603  1.00  0.00     0.037 A 
ATOM     47  C   UNL A   1      38.073  30.980  29.941  1.00  0.00     0.037 A 
ATOM     48  C   UNL A   1      42.486  29.072  34.335  1.00  0.00     0.049 A 
ATOM     49  C   UNL A   1      38.260  31.267  31.408  1.00  0.00     0.074 A 
ATOM     50  C   UNL A   1      42.623  29.493  35.647  1.00  0.00     0.029 A 
ATOM     51  N   UNL A   1      41.369  29.714  33.825  1.00  0.00    -0.354 N 
ATOM     52  N   UNL A   1      39.203  30.852  32.219  1.00  0.00    -0.248 NA
ATOM     53  C   UNL A   1      37.260  32.134  32.048  1.00  0.00     0.031 C 
ATOM     54  C   UNL A   1      41.552  30.341  35.949  1.00  0.00     0.029 A 
ATOM     55  C   UNL A   1      40.785  30.499  34.805  1.00  0.00     0.049 A 
ATOM     56  H   UNL A   1      41.039  29.626  32.901  1.00  0.00     0.167 HD
ATOM     57  C   UNL A   1      38.927  31.428  33.454  1.00  0.00     0.074 A 
ATOM     58  C   UNL A   1      37.735  32.231  33.283  1.00  0.00     0.031 C 
ATOM     59  C   UNL A   1      39.599  31.300  34.624  1.00  0.00     0.037 A 
BRANCH  46  60
ATOM     60  C   UNL A   1      44.437  27.471  34.329  1.00  0.00     0.057 A 
ATOM     61  C   UNL A   1      45.672  28.102  34.532  1.00  0.00     0.134 A 
ATOM     62  C   UNL A   1      44.273  26.188  34.869  1.00  0.00     0.134 A 
ATOM     63  F   UNL A   1      45.900  29.326  34.033  1.00  0.00    -0.206 F 
ATOM     64  C   UNL A   1      46.708  27.472  35.223  1.00  0.00     0.040 A 
ATOM     65  C   UNL A   1      45.292  25.560  35.587  1.00  0.00     0.040 A 
ATOM     66  F   UNL A   1      43.113  25.530  34.720  1.00  0.00    -0.206 F 
ATOM     67  C   UNL A   1      46.517  26.200  35.759  1.00  0.00     0.006 A 
ENDBRANCH  46  60
BRANCH  47  68
ATOM     68  C   UNL A   1      36.925  31.562  29.199  1.00  0.00     0.057 A 
ATOM     69  C   UNL A   1      37.003  32.832  28.614  1.00  0.00     0.134 A 
ATOM     70  C   UNL A   1      35.714  30.870  29.075  1.00  0.00     0.134 A 
ATOM     71  F   UNL A   1      38.127  33.556  28.719  1.00  0.00    -0.206 F 
ATOM     72  C   UNL A   1      35.913  33.398  27.949  1.00  0.00     0.040 A 
ATOM     73  C   UNL A   1      34.627  31.411  28.389  1.00  0.00     0.040 A 
ATOM     74  F   UNL A   1      35.573  29.649  29.614  1.00  0.00    -0.206 F 
ATOM     75  C   UNL A   1      34.723  32.683  27.829  1.00  0.00     0.006 A 
ENDBRANCH  47  68
BRANCH  59  76
ATOM     76  C   UNL A   1      39.088  32.072  35.807  1.00  0.00     0.057 A 
ATOM     77  C   UNL A   1      38.232  31.497  36.754  1.00  0.00     0.134 A 
ATOM     78  C   UNL A   1      39.502  33.392  36.030  1.00  0.00     0.134 A 
ATOM     79  F   UNL A   1      37.787  30.241  36.595  1.00  0.00    -0.206 F 
ATOM     80  C   UNL A   1      37.790  32.212  37.869  1.00  0.00     0.040 A 
ATOM     81  C   UNL A   1      39.090  34.108  37.156  1.00  0.00     0.040 A 
ATOM     82  F   UNL A   1      40.330  34.002  35.168  1.00  0.00    -0.206 F 
ATOM     83  C   UNL A   1      38.227  33.519  38.077  1.00  0.00     0.006 A 
ENDBRANCH  59  76
ENDBRANCH  33  34
ENDBRANCH  26  28
ENDBRANCH  25  26
ENDBRANCH  24  25
ENDBRANCH  23  24
ENDBRANCH  22  23
ENDBRANCH  21  22
ENDBRANCH  20  21
ENDBRANCH   1  20
TORSDOF 22
ENDMDL
