MODEL 1
REMARK VINA RESULT:     -11.8      0.000      0.000
REMARK SMILES Cc1c(C[NH2+]Cc2cccc(F)c2)c(C(=O)OCCOCCOC(=O)c2ccc(-c3c4nc(c(-c5c(F)cccc5F)c5ccc([nH]5)c(-c5c(F)cccc5F)c5nc(c(-c6c(F)cccc6F)c6ccc3[nH]6)C=C5)C=C4)cc2)c(C)n1Cc1c(F)cccc1Cl
REMARK SMILES IDX 19 1 18 2 17 3 15 4 16 5 14 6 1 7 2 8 3 9 82 10 80 11 81 12
REMARK SMILES IDX 4 13 5 14 6 17 7 18 8 19 13 20 9 21 11 22 10 23 12 24 83 25
REMARK SMILES IDX 84 26 85 27 90 28 86 29 87 30 89 31 91 32 88 33 20 34 21 35
REMARK SMILES IDX 22 36 23 37 24 38 25 39 26 40 27 41 79 42 28 43 78 44 29 45
REMARK SMILES IDX 30 46 31 47 72 48 32 49 77 50 71 51 73 52 33 53 76 54 70 55
REMARK SMILES IDX 69 56 34 58 60 59 43 60 59 61 44 62 47 63 58 64 74 65 45 66
REMARK SMILES IDX 46 67 57 69 75 70 48 71 35 72 36 73 41 74 37 75 38 76 40 77
REMARK SMILES IDX 42 78 39 79 61 80 62 81 67 82 63 83 64 84 66 85 68 86 65 87
REMARK SMILES IDX 49 88 50 89 55 90 51 91 52 92 54 93 56 94 53 95
REMARK H PARENT 5 15 5 16 73 57 47 68
REMARK Flexibility Score: inf
ROOT
ATOM      1  C   UNL A   1      37.525  21.185  24.595  1.00  0.00     0.202 C 
ENDROOT
BRANCH   1   2
ATOM      2  C   UNL A   1      37.011  22.449  23.881  1.00  0.00     0.261 C 
BRANCH   2   3
ATOM      3  O   UNL A   1      35.653  22.716  24.227  1.00  0.00    -0.460 OA
BRANCH   3   4
ATOM      4  C   UNL A   1      35.418  23.633  25.203  1.00  0.00     0.340 C 
ATOM      5  O   UNL A   1      36.318  24.266  25.776  1.00  0.00    -0.246 OA
BRANCH   4   6
ATOM      6  C   UNL A   1      33.982  23.825  25.434  1.00  0.00     0.089 A 
ATOM      7  C   UNL A   1      30.579  23.262  26.870  1.00  0.00     0.065 C 
ATOM      8  C   UNL A   1      31.851  23.711  26.225  1.00  0.00     0.025 A 
ATOM      9  C   UNL A   1      33.129  23.170  26.383  1.00  0.00     0.042 A 
ATOM     10  N   UNL A   1      31.929  24.767  25.317  1.00  0.00    -0.343 N 
ATOM     11  C   UNL A   1      33.182  24.724  24.726  1.00  0.00     0.030 A 
ATOM     12  C   UNL A   1      33.594  25.526  23.536  1.00  0.00     0.065 C 
BRANCH   9  13
ATOM     13  C   UNL A   1      33.561  22.115  27.374  1.00  0.00     0.300 C 
BRANCH  13  14
ATOM     14  N   UNL A   1      33.216  20.799  26.862  1.00  0.00    -0.339 N 
ATOM     15  H   UNL A   1      32.274  20.844  26.474  1.00  0.00     0.346 HD
ATOM     16  H   UNL A   1      33.288  20.149  27.644  1.00  0.00     0.346 HD
BRANCH  14  17
ATOM     17  C   UNL A   1      34.117  20.314  25.824  1.00  0.00     0.297 C 
BRANCH  17  18
ATOM     18  C   UNL A   1      33.462  19.653  24.626  1.00  0.00     0.009 A 
ATOM     19  C   UNL A   1      33.503  18.267  24.392  1.00  0.00     0.010 A 
ATOM     20  C   UNL A   1      32.754  20.456  23.717  1.00  0.00     0.048 A 
ATOM     21  C   UNL A   1      32.909  17.707  23.258  1.00  0.00     0.004 A 
ATOM     22  C   UNL A   1      32.153  19.886  22.597  1.00  0.00     0.123 A 
ATOM     23  C   UNL A   1      32.236  18.521  22.353  1.00  0.00     0.039 A 
ATOM     24  F   UNL A   1      31.487  20.668  21.738  1.00  0.00    -0.207 F 
ENDBRANCH  17  18
ENDBRANCH  14  17
ENDBRANCH  13  14
ENDBRANCH   9  13
BRANCH  10  25
ATOM     25  C   UNL A   1      30.812  25.648  24.903  1.00  0.00     0.162 C 
BRANCH  25  26
ATOM     26  C   UNL A   1      31.049  27.139  25.078  1.00  0.00     0.026 A 
ATOM     27  C   UNL A   1      31.532  27.646  26.294  1.00  0.00     0.129 A 
ATOM     28  C   UNL A   1      30.920  28.079  24.042  1.00  0.00     0.048 A 
ATOM     29  F   UNL A   1      31.908  26.822  27.273  1.00  0.00    -0.207 F 
ATOM     30  C   UNL A   1      31.762  29.003  26.525  1.00  0.00     0.040 A 
ATOM     31  C   UNL A   1      31.176  29.449  24.256  1.00  0.00     0.021 A 
ATOM     32  Cl  UNL A   1      30.549  27.629  22.415  1.00  0.00    -0.084 Cl
ATOM     33  C   UNL A   1      31.571  29.916  25.504  1.00  0.00     0.005 A 
ENDBRANCH  25  26
ENDBRANCH  10  25
ENDBRANCH   4   6
ENDBRANCH   3   4
ENDBRANCH   2   3
ENDBRANCH   1   2
BRANCH   1  34
ATOM     34  O   UNL A   1      37.962  21.361  25.943  1.00  0.00    -0.374 OA
BRANCH  34  35
ATOM     35  C   UNL A   1      39.245  21.986  26.135  1.00  0.00     0.202 C 
BRANCH  35  36
ATOM     36  C   UNL A   1      40.463  21.034  26.375  1.00  0.00     0.261 C 
BRANCH  36  37
ATOM     37  O   UNL A   1      41.662  21.110  25.489  1.00  0.00    -0.460 OA
BRANCH  37  38
ATOM     38  C   UNL A   1      42.738  21.829  25.963  1.00  0.00     0.338 C 
ATOM     39  O   UNL A   1      43.833  21.298  26.140  1.00  0.00    -0.246 OA
BRANCH  38  40
ATOM     40  C   UNL A   1      42.600  23.361  26.241  1.00  0.00     0.060 A 
ATOM     41  C   UNL A   1      42.164  23.716  27.506  1.00  0.00     0.016 A 
ATOM     42  C   UNL A   1      42.659  24.477  25.372  1.00  0.00     0.016 A 
ATOM     43  C   UNL A   1      41.851  25.083  27.865  1.00  0.00     0.010 A 
ATOM     44  C   UNL A   1      42.245  25.898  25.746  1.00  0.00     0.010 A 
ATOM     45  C   UNL A   1      41.789  26.274  27.027  1.00  0.00    -0.014 A 
BRANCH  45  46
ATOM     46  C   UNL A   1      41.025  27.693  27.679  1.00  0.00     0.031 A 
ATOM     47  C   UNL A   1      42.166  28.645  27.673  1.00  0.00     0.074 A 
ATOM     48  C   UNL A   1      39.922  28.312  28.354  1.00  0.00     0.049 A 
ATOM     49  N   UNL A   1      43.191  28.304  28.394  1.00  0.00    -0.248 NA
ATOM     50  C   UNL A   1      42.452  29.651  26.650  1.00  0.00     0.031 C 
ATOM     51  C   UNL A   1      38.675  27.704  28.870  1.00  0.00     0.029 A 
ATOM     52  N   UNL A   1      39.659  29.692  28.811  1.00  0.00    -0.354 N 
ATOM     53  C   UNL A   1      44.199  29.179  28.121  1.00  0.00     0.074 A 
ATOM     54  C   UNL A   1      43.744  29.893  26.929  1.00  0.00     0.031 C 
ATOM     55  C   UNL A   1      37.786  28.627  29.370  1.00  0.00     0.029 A 
ATOM     56  C   UNL A   1      38.320  29.995  29.348  1.00  0.00     0.049 A 
ATOM     57  H   UNL A   1      40.355  30.386  28.760  1.00  0.00     0.167 HD
ATOM     58  C   UNL A   1      44.864  29.607  29.227  1.00  0.00     0.037 A 
ATOM     59  C   UNL A   1      37.719  31.183  29.845  1.00  0.00     0.037 A 
ATOM     60  C   UNL A   1      44.355  30.884  29.646  1.00  0.00     0.049 A 
ATOM     61  C   UNL A   1      38.813  31.948  30.448  1.00  0.00     0.074 A 
ATOM     62  C   UNL A   1      43.912  31.991  28.946  1.00  0.00     0.029 A 
ATOM     63  N   UNL A   1      43.737  30.921  30.872  1.00  0.00    -0.354 N 
ATOM     64  N   UNL A   1      39.301  31.617  31.603  1.00  0.00    -0.248 NA
ATOM     65  C   UNL A   1      39.288  33.211  29.895  1.00  0.00     0.031 C 
ATOM     66  C   UNL A   1      42.648  32.257  29.511  1.00  0.00     0.029 A 
ATOM     67  C   UNL A   1      42.583  31.655  30.762  1.00  0.00     0.049 A 
ATOM     68  H   UNL A   1      44.066  30.492  31.695  1.00  0.00     0.167 HD
ATOM     69  C   UNL A   1      40.477  32.290  31.627  1.00  0.00     0.074 A 
ATOM     70  C   UNL A   1      40.298  33.428  30.740  1.00  0.00     0.031 C 
ATOM     71  C   UNL A   1      41.568  31.505  31.769  1.00  0.00     0.037 A 
BRANCH  58  72
ATOM     72  C   UNL A   1      45.195  28.478  30.191  1.00  0.00     0.057 A 
ATOM     73  C   UNL A   1      44.226  27.655  30.812  1.00  0.00     0.134 A 
ATOM     74  C   UNL A   1      46.528  28.127  30.398  1.00  0.00     0.134 A 
ATOM     75  F   UNL A   1      42.924  27.987  30.813  1.00  0.00    -0.206 F 
ATOM     76  C   UNL A   1      44.558  26.466  31.461  1.00  0.00     0.040 A 
ATOM     77  C   UNL A   1      46.878  26.979  31.121  1.00  0.00     0.040 A 
ATOM     78  F   UNL A   1      47.512  28.892  29.906  1.00  0.00    -0.206 F 
ATOM     79  C   UNL A   1      45.893  26.122  31.615  1.00  0.00     0.006 A 
ENDBRANCH  58  72
BRANCH  59  80
ATOM     80  C   UNL A   1      36.384  31.971  30.288  1.00  0.00     0.057 A 
ATOM     81  C   UNL A   1      35.893  33.086  29.592  1.00  0.00     0.134 A 
ATOM     82  C   UNL A   1      35.881  31.942  31.649  1.00  0.00     0.134 A 
ATOM     83  F   UNL A   1      36.247  33.289  28.318  1.00  0.00    -0.206 F 
ATOM     84  C   UNL A   1      35.077  34.099  30.199  1.00  0.00     0.040 A 
ATOM     85  C   UNL A   1      35.110  32.960  32.269  1.00  0.00     0.040 A 
ATOM     86  F   UNL A   1      36.171  30.937  32.488  1.00  0.00    -0.206 F 
ATOM     87  C   UNL A   1      34.720  34.064  31.546  1.00  0.00     0.006 A 
ENDBRANCH  59  80
BRANCH  71  88
ATOM     88  C   UNL A   1      41.521  30.411  32.818  1.00  0.00     0.057 A 
ATOM     89  C   UNL A   1      42.159  30.681  34.035  1.00  0.00     0.134 A 
ATOM     90  C   UNL A   1      40.878  29.156  32.734  1.00  0.00     0.134 A 
ATOM     91  F   UNL A   1      42.816  31.839  34.204  1.00  0.00    -0.206 F 
ATOM     92  C   UNL A   1      42.177  29.777  35.099  1.00  0.00     0.040 A 
ATOM     93  C   UNL A   1      40.846  28.261  33.814  1.00  0.00     0.040 A 
ATOM     94  F   UNL A   1      40.282  28.721  31.616  1.00  0.00    -0.206 F 
ATOM     95  C   UNL A   1      41.503  28.566  34.997  1.00  0.00     0.006 A 
ENDBRANCH  71  88
ENDBRANCH  45  46
ENDBRANCH  38  40
ENDBRANCH  37  38
ENDBRANCH  36  37
ENDBRANCH  35  36
ENDBRANCH  34  35
ENDBRANCH   1  34
TORSDOF 20
ENDMDL
MODEL 2
REMARK VINA RESULT:     -11.7      1.438      4.410
REMARK SMILES Cc1c(C[NH2+]Cc2cccc(F)c2)c(C(=O)OCCOCCOC(=O)c2ccc(-c3c4nc(c(-c5c(F)cccc5F)c5ccc([nH]5)c(-c5c(F)cccc5F)c5nc(c(-c6c(F)cccc6F)c6ccc3[nH]6)C=C5)C=C4)cc2)c(C)n1Cc1c(F)cccc1Cl
REMARK SMILES IDX 19 1 18 2 17 3 15 4 16 5 14 6 1 7 2 8 3 9 82 10 80 11 81 12
REMARK SMILES IDX 4 13 5 14 6 17 7 18 8 19 13 20 9 21 11 22 10 23 12 24 83 25
REMARK SMILES IDX 84 26 85 27 90 28 86 29 87 30 89 31 91 32 88 33 20 34 21 35
REMARK SMILES IDX 22 36 23 37 24 38 25 39 26 40 27 41 79 42 28 43 78 44 29 45
REMARK SMILES IDX 30 46 31 47 72 48 32 49 77 50 71 51 73 52 33 53 76 54 70 55
REMARK SMILES IDX 69 56 34 58 60 59 43 60 59 61 44 62 47 63 58 64 74 65 45 66
REMARK SMILES IDX 46 67 57 69 75 70 48 71 35 72 36 73 41 74 37 75 38 76 40 77
REMARK SMILES IDX 42 78 39 79 61 80 62 81 67 82 63 83 64 84 66 85 68 86 65 87
REMARK SMILES IDX 49 88 50 89 55 90 51 91 52 92 54 93 56 94 53 95
REMARK H PARENT 5 15 5 16 73 57 47 68
REMARK Flexibility Score: inf
ROOT
ATOM      1  C   UNL A   1      39.503  22.626  26.510  1.00  0.00     0.202 C 
ENDROOT
BRANCH   1   2
ATOM      2  C   UNL A   1      38.282  22.180  25.685  1.00  0.00     0.261 C 
BRANCH   2   3
ATOM      3  O   UNL A   1      37.427  23.286  25.397  1.00  0.00    -0.460 OA
BRANCH   3   4
ATOM      4  C   UNL A   1      36.614  23.190  24.311  1.00  0.00     0.340 C 
ATOM      5  O   UNL A   1      37.030  23.212  23.143  1.00  0.00    -0.246 OA
BRANCH   4   6
ATOM      6  C   UNL A   1      35.214  22.985  24.699  1.00  0.00     0.089 A 
ATOM      7  C   UNL A   1      31.720  23.836  25.714  1.00  0.00     0.065 C 
ATOM      8  C   UNL A   1      33.024  23.270  25.250  1.00  0.00     0.025 A 
ATOM      9  C   UNL A   1      34.189  23.964  24.915  1.00  0.00     0.042 A 
ATOM     10  N   UNL A   1      33.268  21.904  25.105  1.00  0.00    -0.343 N 
ATOM     11  C   UNL A   1      34.633  21.736  24.929  1.00  0.00     0.030 A 
ATOM     12  C   UNL A   1      35.344  20.424  24.969  1.00  0.00     0.065 C 
BRANCH   9  13
ATOM     13  C   UNL A   1      34.356  25.460  24.776  1.00  0.00     0.300 C 
BRANCH  13  14
ATOM     14  N   UNL A   1      33.712  25.907  23.552  1.00  0.00    -0.339 N 
ATOM     15  H   UNL A   1      33.059  25.184  23.251  1.00  0.00     0.346 HD
ATOM     16  H   UNL A   1      34.454  26.074  22.872  1.00  0.00     0.346 HD
BRANCH  14  17
ATOM     17  C   UNL A   1      32.979  27.159  23.692  1.00  0.00     0.297 C 
BRANCH  17  18
ATOM     18  C   UNL A   1      32.828  27.689  25.105  1.00  0.00     0.009 A 
ATOM     19  C   UNL A   1      31.685  27.470  25.893  1.00  0.00     0.010 A 
ATOM     20  C   UNL A   1      33.891  28.413  25.670  1.00  0.00     0.048 A 
ATOM     21  C   UNL A   1      31.580  28.004  27.180  1.00  0.00     0.004 A 
ATOM     22  C   UNL A   1      33.782  28.930  26.959  1.00  0.00     0.123 A 
ATOM     23  C   UNL A   1      32.631  28.742  27.713  1.00  0.00     0.039 A 
ATOM     24  F   UNL A   1      34.804  29.623  27.479  1.00  0.00    -0.207 F 
ENDBRANCH  17  18
ENDBRANCH  14  17
ENDBRANCH  13  14
ENDBRANCH   9  13
BRANCH  10  25
ATOM     25  C   UNL A   1      32.286  20.814  25.307  1.00  0.00     0.162 C 
BRANCH  25  26
ATOM     26  C   UNL A   1      32.504  19.565  24.469  1.00  0.00     0.026 A 
ATOM     27  C   UNL A   1      32.743  18.327  25.083  1.00  0.00     0.129 A 
ATOM     28  C   UNL A   1      32.373  19.529  23.070  1.00  0.00     0.048 A 
ATOM     29  F   UNL A   1      32.662  18.199  26.409  1.00  0.00    -0.207 F 
ATOM     30  C   UNL A   1      32.961  17.145  24.374  1.00  0.00     0.040 A 
ATOM     31  C   UNL A   1      32.564  18.335  22.345  1.00  0.00     0.021 A 
ATOM     32  Cl  UNL A   1      31.868  20.897  22.144  1.00  0.00    -0.084 Cl
ATOM     33  C   UNL A   1      32.884  17.147  22.994  1.00  0.00     0.005 A 
ENDBRANCH  25  26
ENDBRANCH  10  25
ENDBRANCH   4   6
ENDBRANCH   3   4
ENDBRANCH   2   3
ENDBRANCH   1   2
BRANCH   1  34
ATOM     34  O   UNL A   1      40.061  21.646  27.384  1.00  0.00    -0.374 OA
BRANCH  34  35
ATOM     35  C   UNL A   1      40.708  20.516  26.768  1.00  0.00     0.202 C 
BRANCH  35  36
ATOM     36  C   UNL A   1      42.259  20.607  26.583  1.00  0.00     0.261 C 
BRANCH  36  37
ATOM     37  O   UNL A   1      42.833  21.199  25.339  1.00  0.00    -0.460 OA
BRANCH  37  38
ATOM     38  C   UNL A   1      43.882  22.078  25.499  1.00  0.00     0.338 C 
ATOM     39  O   UNL A   1      45.046  21.723  25.320  1.00  0.00    -0.246 OA
BRANCH  38  40
ATOM     40  C   UNL A   1      43.609  23.572  25.867  1.00  0.00     0.060 A 
ATOM     41  C   UNL A   1      43.060  23.803  27.117  1.00  0.00     0.016 A 
ATOM     42  C   UNL A   1      43.641  24.749  25.081  1.00  0.00     0.016 A 
ATOM     43  C   UNL A   1      42.619  25.115  27.541  1.00  0.00     0.010 A 
ATOM     44  C   UNL A   1      43.094  26.106  25.517  1.00  0.00     0.010 A 
ATOM     45  C   UNL A   1      42.524  26.355  26.782  1.00  0.00    -0.014 A 
BRANCH  45  46
ATOM     46  C   UNL A   1      41.609  27.665  27.468  1.00  0.00     0.031 A 
ATOM     47  C   UNL A   1      42.667  28.702  27.591  1.00  0.00     0.074 A 
ATOM     48  C   UNL A   1      40.423  28.151  28.109  1.00  0.00     0.049 A 
ATOM     49  N   UNL A   1      43.674  28.396  28.353  1.00  0.00    -0.248 NA
ATOM     50  C   UNL A   1      42.928  29.791  26.649  1.00  0.00     0.031 C 
ATOM     51  C   UNL A   1      39.201  27.416  28.508  1.00  0.00     0.029 A 
ATOM     52  N   UNL A   1      40.022  29.474  28.629  1.00  0.00    -0.354 N 
ATOM     53  C   UNL A   1      44.621  29.363  28.196  1.00  0.00     0.074 A 
ATOM     54  C   UNL A   1      44.178  30.115  27.023  1.00  0.00     0.031 C 
ATOM     55  C   UNL A   1      38.212  28.232  29.005  1.00  0.00     0.029 A 
ATOM     56  C   UNL A   1      38.633  29.637  29.098  1.00  0.00     0.049 A 
ATOM     57  H   UNL A   1      40.660  30.222  28.664  1.00  0.00     0.167 HD
ATOM     58  C   UNL A   1      45.183  29.770  29.365  1.00  0.00     0.037 A 
ATOM     59  C   UNL A   1      37.909  30.739  29.627  1.00  0.00     0.037 A 
ATOM     60  C   UNL A   1      44.548  30.973  29.827  1.00  0.00     0.049 A 
ATOM     61  C   UNL A   1      38.900  31.547  30.341  1.00  0.00     0.074 A 
ATOM     62  C   UNL A   1      44.057  32.085  29.167  1.00  0.00     0.029 A 
ATOM     63  N   UNL A   1      43.859  30.883  31.012  1.00  0.00    -0.354 N 
ATOM     64  N   UNL A   1      39.347  31.182  31.503  1.00  0.00    -0.248 NA
ATOM     65  C   UNL A   1      39.301  32.877  29.896  1.00  0.00     0.031 C 
ATOM     66  C   UNL A   1      42.744  32.215  29.667  1.00  0.00     0.029 A 
ATOM     67  C   UNL A   1      42.657  31.530  30.873  1.00  0.00     0.049 A 
ATOM     68  H   UNL A   1      44.174  30.429  31.827  1.00  0.00     0.167 HD
ATOM     69  C   UNL A   1      40.459  31.942  31.641  1.00  0.00     0.074 A 
ATOM     70  C   UNL A   1      40.239  33.117  30.814  1.00  0.00     0.031 C 
ATOM     71  C   UNL A   1      41.601  31.236  31.803  1.00  0.00     0.037 A 
BRANCH  58  72
ATOM     72  C   UNL A   1      45.549  28.610  30.279  1.00  0.00     0.057 A 
ATOM     73  C   UNL A   1      44.607  27.721  30.850  1.00  0.00     0.134 A 
ATOM     74  C   UNL A   1      46.893  28.303  30.486  1.00  0.00     0.134 A 
ATOM     75  F   UNL A   1      43.293  28.002  30.851  1.00  0.00    -0.206 F 
ATOM     76  C   UNL A   1      44.980  26.517  31.446  1.00  0.00     0.040 A 
ATOM     77  C   UNL A   1      47.281  27.136  31.158  1.00  0.00     0.040 A 
ATOM     78  F   UNL A   1      47.851  29.128  30.042  1.00  0.00    -0.206 F 
ATOM     79  C   UNL A   1      46.326  26.219  31.600  1.00  0.00     0.006 A 
ENDBRANCH  58  72
BRANCH  59  80
ATOM     80  C   UNL A   1      36.491  31.391  30.031  1.00  0.00     0.057 A 
ATOM     81  C   UNL A   1      35.875  32.400  29.276  1.00  0.00     0.134 A 
ATOM     82  C   UNL A   1      35.992  31.380  31.394  1.00  0.00     0.134 A 
ATOM     83  F   UNL A   1      36.205  32.571  27.991  1.00  0.00    -0.206 F 
ATOM     84  C   UNL A   1      34.946  33.344  29.829  1.00  0.00     0.040 A 
ATOM     85  C   UNL A   1      35.107  32.335  31.959  1.00  0.00     0.040 A 
ATOM     86  F   UNL A   1      36.395  30.464  32.286  1.00  0.00    -0.206 F 
ATOM     87  C   UNL A   1      34.592  33.344  31.178  1.00  0.00     0.006 A 
ENDBRANCH  59  80
BRANCH  71  88
ATOM     88  C   UNL A   1      41.584  30.077  32.781  1.00  0.00     0.057 A 
ATOM     89  C   UNL A   1      42.125  30.318  34.050  1.00  0.00     0.134 A 
ATOM     90  C   UNL A   1      41.052  28.784  32.582  1.00  0.00     0.134 A 
ATOM     91  F   UNL A   1      42.674  31.511  34.328  1.00  0.00    -0.206 F 
ATOM     92  C   UNL A   1      42.155  29.351  35.057  1.00  0.00     0.040 A 
ATOM     93  C   UNL A   1      41.031  27.821  33.603  1.00  0.00     0.040 A 
ATOM     94  F   UNL A   1      40.560  28.376  31.405  1.00  0.00    -0.206 F 
ATOM     95  C   UNL A   1      41.591  28.100  34.841  1.00  0.00     0.006 A 
ENDBRANCH  71  88
ENDBRANCH  45  46
ENDBRANCH  38  40
ENDBRANCH  37  38
ENDBRANCH  36  37
ENDBRANCH  35  36
ENDBRANCH  34  35
ENDBRANCH   1  34
TORSDOF 20
ENDMDL
MODEL 3
REMARK VINA RESULT:     -11.7      3.173      7.849
REMARK SMILES Cc1c(C[NH2+]Cc2cccc(F)c2)c(C(=O)OCCOCCOC(=O)c2ccc(-c3c4nc(c(-c5c(F)cccc5F)c5ccc([nH]5)c(-c5c(F)cccc5F)c5nc(c(-c6c(F)cccc6F)c6ccc3[nH]6)C=C5)C=C4)cc2)c(C)n1Cc1c(F)cccc1Cl
REMARK SMILES IDX 19 1 18 2 17 3 15 4 16 5 14 6 1 7 2 8 3 9 82 10 80 11 81 12
REMARK SMILES IDX 4 13 5 14 6 17 7 18 8 19 13 20 9 21 11 22 10 23 12 24 83 25
REMARK SMILES IDX 84 26 85 27 90 28 86 29 87 30 89 31 91 32 88 33 20 34 21 35
REMARK SMILES IDX 22 36 23 37 24 38 25 39 26 40 27 41 79 42 28 43 78 44 29 45
REMARK SMILES IDX 30 46 31 47 72 48 32 49 77 50 71 51 73 52 33 53 76 54 70 55
REMARK SMILES IDX 69 56 34 58 60 59 43 60 59 61 44 62 47 63 58 64 74 65 45 66
REMARK SMILES IDX 46 67 57 69 75 70 48 71 35 72 36 73 41 74 37 75 38 76 40 77
REMARK SMILES IDX 42 78 39 79 61 80 62 81 67 82 63 83 64 84 66 85 68 86 65 87
REMARK SMILES IDX 49 88 50 89 55 90 51 91 52 92 54 93 56 94 53 95
REMARK H PARENT 5 15 5 16 73 57 47 68
REMARK Flexibility Score: inf
ROOT
ATOM      1  C   UNL A   1      33.770  30.363  26.836  1.00  0.00     0.202 C 
ENDROOT
BRANCH   1   2
ATOM      2  C   UNL A   1      34.244  29.174  27.690  1.00  0.00     0.261 C 
BRANCH   2   3
ATOM      3  O   UNL A   1      33.824  27.934  27.120  1.00  0.00    -0.460 OA
BRANCH   3   4
ATOM      4  C   UNL A   1      32.492  27.664  27.105  1.00  0.00     0.340 C 
ATOM      5  O   UNL A   1      31.741  27.884  28.068  1.00  0.00    -0.246 OA
BRANCH   4   6
ATOM      6  C   UNL A   1      32.055  27.159  25.799  1.00  0.00     0.089 A 
ATOM      7  C   UNL A   1      31.296  24.695  23.095  1.00  0.00     0.065 C 
ATOM      8  C   UNL A   1      31.455  25.838  24.045  1.00  0.00     0.025 A 
ATOM      9  C   UNL A   1      31.920  25.800  25.362  1.00  0.00     0.042 A 
ATOM     10  N   UNL A   1      31.167  27.163  23.719  1.00  0.00    -0.343 N 
ATOM     11  C   UNL A   1      31.683  27.967  24.723  1.00  0.00     0.030 A 
ATOM     12  C   UNL A   1      31.799  29.454  24.654  1.00  0.00     0.065 C 
BRANCH   9  13
ATOM     13  C   UNL A   1      32.209  24.573  26.195  1.00  0.00     0.300 C 
BRANCH  13  14
ATOM     14  N   UNL A   1      33.631  24.275  26.141  1.00  0.00    -0.339 N 
ATOM     15  H   UNL A   1      34.027  24.434  27.067  1.00  0.00     0.346 HD
ATOM     16  H   UNL A   1      34.034  24.887  25.431  1.00  0.00     0.346 HD
BRANCH  14  17
ATOM     17  C   UNL A   1      33.933  22.906  25.740  1.00  0.00     0.297 C 
BRANCH  17  18
ATOM     18  C   UNL A   1      35.403  22.556  25.619  1.00  0.00     0.009 A 
ATOM     19  C   UNL A   1      35.864  21.324  25.122  1.00  0.00     0.010 A 
ATOM     20  C   UNL A   1      36.358  23.516  25.992  1.00  0.00     0.048 A 
ATOM     21  C   UNL A   1      37.230  21.035  25.056  1.00  0.00     0.004 A 
ATOM     22  C   UNL A   1      37.718  23.224  25.909  1.00  0.00     0.123 A 
ATOM     23  C   UNL A   1      38.161  21.988  25.457  1.00  0.00     0.039 A 
ATOM     24  F   UNL A   1      38.614  24.150  26.276  1.00  0.00    -0.207 F 
ENDBRANCH  17  18
ENDBRANCH  14  17
ENDBRANCH  13  14
ENDBRANCH   9  13
BRANCH  10  25
ATOM     25  C   UNL A   1      30.601  27.645  22.437  1.00  0.00     0.162 C 
BRANCH  25  26
ATOM     26  C   UNL A   1      29.453  28.634  22.554  1.00  0.00     0.026 A 
ATOM     27  C   UNL A   1      29.528  29.889  21.931  1.00  0.00     0.129 A 
ATOM     28  C   UNL A   1      28.225  28.340  23.172  1.00  0.00     0.048 A 
ATOM     29  F   UNL A   1      30.549  30.189  21.126  1.00  0.00    -0.207 F 
ATOM     30  C   UNL A   1      28.516  30.848  22.006  1.00  0.00     0.040 A 
ATOM     31  C   UNL A   1      27.185  29.290  23.229  1.00  0.00     0.021 A 
ATOM     32  Cl  UNL A   1      27.851  26.777  23.806  1.00  0.00    -0.084 Cl
ATOM     33  C   UNL A   1      27.339  30.554  22.670  1.00  0.00     0.005 A 
ENDBRANCH  25  26
ENDBRANCH  10  25
ENDBRANCH   4   6
ENDBRANCH   3   4
ENDBRANCH   2   3
ENDBRANCH   1   2
BRANCH   1  34
ATOM     34  O   UNL A   1      33.364  31.529  27.554  1.00  0.00    -0.374 OA
BRANCH  34  35
ATOM     35  C   UNL A   1      34.397  32.468  27.909  1.00  0.00     0.202 C 
BRANCH  35  36
ATOM     36  C   UNL A   1      33.965  33.695  28.776  1.00  0.00     0.261 C 
BRANCH  36  37
ATOM     37  O   UNL A   1      33.815  33.556  30.255  1.00  0.00    -0.460 OA
BRANCH  37  38
ATOM     38  C   UNL A   1      34.952  33.740  31.012  1.00  0.00     0.338 C 
ATOM     39  O   UNL A   1      35.167  34.801  31.594  1.00  0.00    -0.246 OA
BRANCH  38  40
ATOM     40  C   UNL A   1      35.979  32.574  31.187  1.00  0.00     0.060 A 
ATOM     41  C   UNL A   1      37.049  32.565  30.309  1.00  0.00     0.016 A 
ATOM     42  C   UNL A   1      35.928  31.394  31.967  1.00  0.00     0.016 A 
ATOM     43  C   UNL A   1      38.000  31.474  30.254  1.00  0.00     0.010 A 
ATOM     44  C   UNL A   1      36.892  30.217  31.835  1.00  0.00     0.010 A 
ATOM     45  C   UNL A   1      37.980  30.189  30.940  1.00  0.00    -0.014 A 
BRANCH  45  46
ATOM     46  C   UNL A   1      39.065  28.949  30.382  1.00  0.00     0.031 A 
ATOM     47  C   UNL A   1      40.001  28.866  31.534  1.00  0.00     0.074 A 
ATOM     48  C   UNL A   1      39.578  28.130  29.324  1.00  0.00     0.049 A 
ATOM     49  N   UNL A   1      40.652  29.955  31.814  1.00  0.00    -0.248 NA
ATOM     50  C   UNL A   1      39.949  27.893  32.625  1.00  0.00     0.031 C 
ATOM     51  C   UNL A   1      39.189  28.086  27.896  1.00  0.00     0.029 A 
ATOM     52  N   UNL A   1      40.657  27.124  29.252  1.00  0.00    -0.354 N 
ATOM     53  C   UNL A   1      41.303  29.757  32.995  1.00  0.00     0.074 A 
ATOM     54  C   UNL A   1      40.714  28.529  33.529  1.00  0.00     0.031 C 
ATOM     55  C   UNL A   1      39.824  27.093  27.188  1.00  0.00     0.029 A 
ATOM     56  C   UNL A   1      40.802  26.357  28.001  1.00  0.00     0.049 A 
ATOM     57  H   UNL A   1      41.261  26.971  30.014  1.00  0.00     0.167 HD
ATOM     58  C   UNL A   1      42.583  30.214  32.996  1.00  0.00     0.037 A 
ATOM     59  C   UNL A   1      41.687  25.324  27.592  1.00  0.00     0.037 A 
ATOM     60  C   UNL A   1      43.493  29.136  32.727  1.00  0.00     0.049 A 
ATOM     61  C   UNL A   1      42.939  25.581  28.307  1.00  0.00     0.074 A 
ATOM     62  C   UNL A   1      43.505  27.805  33.102  1.00  0.00     0.029 A 
ATOM     63  N   UNL A   1      44.214  29.223  31.561  1.00  0.00    -0.354 N 
ATOM     64  N   UNL A   1      43.743  26.526  27.928  1.00  0.00    -0.248 NA
ATOM     65  C   UNL A   1      43.448  24.694  29.348  1.00  0.00     0.031 C 
ATOM     66  C   UNL A   1      43.673  27.118  31.881  1.00  0.00     0.029 A 
ATOM     67  C   UNL A   1      44.204  27.997  30.945  1.00  0.00     0.049 A 
ATOM     68  H   UNL A   1      44.664  30.030  31.222  1.00  0.00     0.167 HD
ATOM     69  C   UNL A   1      44.543  26.681  29.010  1.00  0.00     0.074 A 
ATOM     70  C   UNL A   1      44.521  25.403  29.703  1.00  0.00     0.031 C 
ATOM     71  C   UNL A   1      44.524  27.923  29.546  1.00  0.00     0.037 A 
BRANCH  58  72
ATOM     72  C   UNL A   1      42.715  31.598  32.378  1.00  0.00     0.057 A 
ATOM     73  C   UNL A   1      42.425  31.895  31.024  1.00  0.00     0.134 A 
ATOM     74  C   UNL A   1      43.017  32.685  33.197  1.00  0.00     0.134 A 
ATOM     75  F   UNL A   1      42.277  30.920  30.112  1.00  0.00    -0.206 F 
ATOM     76  C   UNL A   1      42.285  33.201  30.558  1.00  0.00     0.040 A 
ATOM     77  C   UNL A   1      42.962  34.000  32.717  1.00  0.00     0.040 A 
ATOM     78  F   UNL A   1      43.373  32.490  34.474  1.00  0.00    -0.206 F 
ATOM     79  C   UNL A   1      42.552  34.263  31.409  1.00  0.00     0.006 A 
ENDBRANCH  58  72
BRANCH  59  80
ATOM     80  C   UNL A   1      42.056  24.163  26.536  1.00  0.00     0.057 A 
ATOM     81  C   UNL A   1      41.979  22.798  26.849  1.00  0.00     0.134 A 
ATOM     82  C   UNL A   1      42.944  24.392  25.410  1.00  0.00     0.134 A 
ATOM     83  F   UNL A   1      41.209  22.386  27.863  1.00  0.00    -0.206 F 
ATOM     84  C   UNL A   1      42.759  21.791  26.187  1.00  0.00     0.040 A 
ATOM     85  C   UNL A   1      43.749  23.408  24.778  1.00  0.00     0.040 A 
ATOM     86  F   UNL A   1      43.131  25.615  24.895  1.00  0.00    -0.206 F 
ATOM     87  C   UNL A   1      43.677  22.095  25.182  1.00  0.00     0.006 A 
ENDBRANCH  59  80
BRANCH  71  88
ATOM     88  C   UNL A   1      44.619  29.103  28.598  1.00  0.00     0.057 A 
ATOM     89  C   UNL A   1      45.880  29.696  28.458  1.00  0.00     0.134 A 
ATOM     90  C   UNL A   1      43.593  29.663  27.806  1.00  0.00     0.134 A 
ATOM     91  F   UNL A   1      46.915  29.247  29.185  1.00  0.00    -0.206 F 
ATOM     92  C   UNL A   1      46.120  30.774  27.604  1.00  0.00     0.040 A 
ATOM     93  C   UNL A   1      43.833  30.713  26.907  1.00  0.00     0.040 A 
ATOM     94  F   UNL A   1      42.319  29.254  27.876  1.00  0.00    -0.206 F 
ATOM     95  C   UNL A   1      45.097  31.277  26.811  1.00  0.00     0.006 A 
ENDBRANCH  71  88
ENDBRANCH  45  46
ENDBRANCH  38  40
ENDBRANCH  37  38
ENDBRANCH  36  37
ENDBRANCH  35  36
ENDBRANCH  34  35
ENDBRANCH   1  34
TORSDOF 20
ENDMDL
