MODEL 1
REMARK VINA RESULT:     -12.6      0.000      0.000
REMARK SMILES O=C(OCCOCCOC(=O)c1ccccc1-c1ccccc1C(=O)N1CC[NH+](Cc2ccc3c(c2)OCO3)CC1)c1ccc(-c2c3nc(c(-c4c(F)cccc4F)c4ccc([nH]4)c(-c4c(F)cccc4F)c4nc(c(-c5c(F)cccc5F)c5ccc2[nH]5)C=C4)C=C3)cc1
REMARK SMILES IDX 7 1 6 2 5 3 4 4 3 5 2 6 1 7 42 8 43 9 95 10 44 11 94 12
REMARK SMILES IDX 45 13 46 14 47 15 88 16 48 17 93 18 87 19 89 20 49 21 92 22
REMARK SMILES IDX 86 23 85 24 50 26 76 27 59 28 75 29 60 30 63 31 74 32 90 33
REMARK SMILES IDX 61 34 62 35 73 37 91 38 64 39 51 40 52 41 57 42 53 43 54 44
REMARK SMILES IDX 56 45 58 46 55 47 77 48 78 49 83 50 79 51 80 52 82 53 84 54
REMARK SMILES IDX 81 55 65 56 66 57 71 58 67 59 68 60 70 61 72 62 69 63 8 64
REMARK SMILES IDX 9 65 10 66 11 67 12 68 13 69 17 70 14 71 16 72 15 73 18 74
REMARK SMILES IDX 19 75 23 76 20 77 22 78 21 79 24 80 25 81 26 82 27 83 41 84
REMARK SMILES IDX 28 85 40 86 29 87 30 89 31 90 32 91 36 92 33 93 35 94 34 95
REMARK SMILES IDX 37 96 39 97 38 98
REMARK H PARENT 89 25 63 36 29 88
REMARK Flexibility Score: inf
ROOT
ATOM      1  C   UNL A   1      34.058  22.728  23.120  1.00  0.00     0.202 C 
ENDROOT
BRANCH   1   2
ATOM      2  O   UNL A   1      34.490  21.657  23.962  1.00  0.00    -0.374 OA
BRANCH   2   3
ATOM      3  C   UNL A   1      35.433  22.016  24.975  1.00  0.00     0.202 C 
BRANCH   3   4
ATOM      4  C   UNL A   1      36.827  21.456  24.694  1.00  0.00     0.261 C 
BRANCH   4   5
ATOM      5  O   UNL A   1      37.517  21.171  25.921  1.00  0.00    -0.460 OA
BRANCH   5   6
ATOM      6  C   UNL A   1      38.859  21.282  26.098  1.00  0.00     0.338 C 
ATOM      7  O   UNL A   1      39.597  20.365  25.745  1.00  0.00    -0.246 OA
BRANCH   6   8
ATOM      8  C   UNL A   1      39.477  22.565  26.538  1.00  0.00     0.060 A 
ATOM      9  C   UNL A   1      39.049  23.839  26.154  1.00  0.00     0.016 A 
ATOM     10  C   UNL A   1      40.537  22.460  27.451  1.00  0.00     0.016 A 
ATOM     11  C   UNL A   1      39.718  24.977  26.572  1.00  0.00     0.010 A 
ATOM     12  C   UNL A   1      41.187  23.603  27.915  1.00  0.00     0.010 A 
ATOM     13  C   UNL A   1      40.794  24.862  27.447  1.00  0.00    -0.014 A 
BRANCH  13  14
ATOM     14  C   UNL A   1      41.567  26.071  27.757  1.00  0.00     0.031 A 
ATOM     15  C   UNL A   1      40.973  27.063  28.705  1.00  0.00     0.074 A 
ATOM     16  C   UNL A   1      42.819  26.200  27.285  1.00  0.00     0.049 A 
ATOM     17  N   UNL A   1      41.391  28.255  29.024  1.00  0.00    -0.248 NA
ATOM     18  C   UNL A   1      39.737  26.648  29.392  1.00  0.00     0.031 C 
ATOM     19  C   UNL A   1      43.521  25.202  26.476  1.00  0.00     0.029 A 
ATOM     20  N   UNL A   1      43.730  27.207  27.443  1.00  0.00    -0.354 N 
ATOM     21  C   UNL A   1      40.445  28.755  29.908  1.00  0.00     0.074 A 
ATOM     22  C   UNL A   1      39.442  27.731  30.095  1.00  0.00     0.031 C 
ATOM     23  C   UNL A   1      44.766  25.638  26.228  1.00  0.00     0.029 A 
ATOM     24  C   UNL A   1      44.914  26.976  26.787  1.00  0.00     0.049 A 
ATOM     25  H   UNL A   1      43.555  28.017  27.974  1.00  0.00     0.167 HD
ATOM     26  C   UNL A   1      40.416  29.977  30.485  1.00  0.00     0.037 A 
ATOM     27  C   UNL A   1      45.974  27.788  26.626  1.00  0.00     0.037 A 
ATOM     28  C   UNL A   1      41.441  30.962  30.275  1.00  0.00     0.049 A 
ATOM     29  C   UNL A   1      45.893  29.165  27.224  1.00  0.00     0.074 A 
ATOM     30  C   UNL A   1      41.498  32.271  30.712  1.00  0.00     0.029 A 
ATOM     31  N   UNL A   1      42.611  30.721  29.563  1.00  0.00    -0.354 N 
ATOM     32  N   UNL A   1      44.937  29.693  27.952  1.00  0.00    -0.248 NA
ATOM     33  C   UNL A   1      47.016  30.071  26.954  1.00  0.00     0.031 C 
ATOM     34  C   UNL A   1      42.693  32.830  30.242  1.00  0.00     0.029 A 
ATOM     35  C   UNL A   1      43.397  31.858  29.543  1.00  0.00     0.049 A 
ATOM     36  H   UNL A   1      42.845  29.867  29.134  1.00  0.00     0.167 HD
ATOM     37  C   UNL A   1      45.336  30.992  28.227  1.00  0.00     0.074 A 
ATOM     38  C   UNL A   1      46.638  31.161  27.609  1.00  0.00     0.031 C 
ATOM     39  C   UNL A   1      44.689  31.966  28.913  1.00  0.00     0.037 A 
BRANCH  26  40
ATOM     40  C   UNL A   1      39.204  30.312  31.298  1.00  0.00     0.057 A 
ATOM     41  C   UNL A   1      38.092  30.966  30.752  1.00  0.00     0.134 A 
ATOM     42  C   UNL A   1      39.180  30.036  32.671  1.00  0.00     0.134 A 
ATOM     43  F   UNL A   1      38.066  31.293  29.450  1.00  0.00    -0.206 F 
ATOM     44  C   UNL A   1      37.012  31.357  31.547  1.00  0.00     0.040 A 
ATOM     45  C   UNL A   1      38.098  30.405  33.473  1.00  0.00     0.040 A 
ATOM     46  F   UNL A   1      40.219  29.426  33.260  1.00  0.00    -0.206 F 
ATOM     47  C   UNL A   1      37.014  31.076  32.912  1.00  0.00     0.006 A 
ENDBRANCH  26  40
BRANCH  27  48
ATOM     48  C   UNL A   1      47.141  27.347  25.821  1.00  0.00     0.057 A 
ATOM     49  C   UNL A   1      48.216  26.669  26.405  1.00  0.00     0.134 A 
ATOM     50  C   UNL A   1      47.204  27.580  24.440  1.00  0.00     0.134 A 
ATOM     51  F   UNL A   1      48.228  26.432  27.725  1.00  0.00    -0.206 F 
ATOM     52  C   UNL A   1      49.311  26.244  25.650  1.00  0.00     0.040 A 
ATOM     53  C   UNL A   1      48.280  27.137  23.667  1.00  0.00     0.040 A 
ATOM     54  F   UNL A   1      46.208  28.225  23.815  1.00  0.00    -0.206 F 
ATOM     55  C   UNL A   1      49.341  26.470  24.274  1.00  0.00     0.006 A 
ENDBRANCH  27  48
BRANCH  39  56
ATOM     56  C   UNL A   1      45.396  33.277  29.033  1.00  0.00     0.057 A 
ATOM     57  C   UNL A   1      46.319  33.518  30.058  1.00  0.00     0.134 A 
ATOM     58  C   UNL A   1      45.182  34.289  28.090  1.00  0.00     0.134 A 
ATOM     59  F   UNL A   1      46.552  32.588  30.995  1.00  0.00    -0.206 F 
ATOM     60  C   UNL A   1      46.997  34.732  30.148  1.00  0.00     0.040 A 
ATOM     61  C   UNL A   1      45.869  35.499  28.160  1.00  0.00     0.040 A 
ATOM     62  F   UNL A   1      44.312  34.110  27.085  1.00  0.00    -0.206 F 
ATOM     63  C   UNL A   1      46.777  35.724  29.193  1.00  0.00     0.006 A 
ENDBRANCH  39  56
ENDBRANCH  13  14
ENDBRANCH   6   8
ENDBRANCH   5   6
ENDBRANCH   4   5
ENDBRANCH   3   4
ENDBRANCH   2   3
ENDBRANCH   1   2
BRANCH   1  64
ATOM     64  C   UNL A   1      34.705  24.066  23.487  1.00  0.00     0.261 C 
BRANCH  64  65
ATOM     65  O   UNL A   1      33.724  25.098  23.704  1.00  0.00    -0.460 OA
BRANCH  65  66
ATOM     66  C   UNL A   1      33.622  25.428  25.012  1.00  0.00     0.338 C 
ATOM     67  O   UNL A   1      34.416  26.092  25.646  1.00  0.00    -0.246 OA
BRANCH  66  68
ATOM     68  C   UNL A   1      32.427  24.846  25.632  1.00  0.00     0.067 A 
ATOM     69  C   UNL A   1      32.543  23.689  26.405  1.00  0.00     0.016 A 
ATOM     70  C   UNL A   1      31.177  25.416  25.333  1.00  0.00    -0.003 A 
ATOM     71  C   UNL A   1      31.394  23.098  26.925  1.00  0.00     0.001 A 
ATOM     72  C   UNL A   1      30.033  24.815  25.881  1.00  0.00     0.009 A 
ATOM     73  C   UNL A   1      30.142  23.661  26.665  1.00  0.00     0.001 A 
BRANCH  70  74
ATOM     74  C   UNL A   1      31.111  26.691  24.608  1.00  0.00    -0.005 A 
ATOM     75  C   UNL A   1      30.645  26.585  23.270  1.00  0.00     0.009 A 
ATOM     76  C   UNL A   1      31.281  27.979  25.169  1.00  0.00     0.047 A 
ATOM     77  C   UNL A   1      30.288  27.700  22.520  1.00  0.00     0.001 A 
ATOM     78  C   UNL A   1      30.914  29.094  24.378  1.00  0.00     0.014 A 
ATOM     79  C   UNL A   1      30.408  28.959  23.082  1.00  0.00     0.001 A 
BRANCH  76  80
ATOM     80  C   UNL A   1      31.748  28.336  26.564  1.00  0.00     0.254 C 
ATOM     81  O   UNL A   1      31.448  27.596  27.503  1.00  0.00    -0.269 OA
ATOM     82  N   UNL A   1      32.585  29.431  26.770  1.00  0.00    -0.327 N 
ATOM     83  C   UNL A   1      33.819  29.135  27.497  1.00  0.00     0.181 C 
ATOM     84  C   UNL A   1      31.992  30.677  27.232  1.00  0.00     0.181 C 
ATOM     85  C   UNL A   1      34.853  30.272  27.344  1.00  0.00     0.284 C 
ATOM     86  C   UNL A   1      32.997  31.859  27.256  1.00  0.00     0.284 C 
ATOM     87  N   UNL A   1      34.372  31.613  27.729  1.00  0.00    -0.328 N 
ATOM     88  H   UNL A   1      34.947  32.279  27.214  1.00  0.00     0.348 HD
BRANCH  87  89
ATOM     89  C   UNL A   1      34.681  32.027  29.106  1.00  0.00     0.299 C 
BRANCH  89  90
ATOM     90  C   UNL A   1      34.402  33.480  29.411  1.00  0.00     0.010 A 
ATOM     91  C   UNL A   1      33.810  34.309  28.431  1.00  0.00     0.013 A 
ATOM     92  C   UNL A   1      34.524  33.937  30.737  1.00  0.00     0.060 A 
ATOM     93  C   UNL A   1      33.193  35.509  28.794  1.00  0.00     0.051 A 
ATOM     94  C   UNL A   1      33.847  35.084  31.073  1.00  0.00     0.166 A 
ATOM     95  C   UNL A   1      33.177  35.834  30.132  1.00  0.00     0.165 A 
ATOM     96  O   UNL A   1      33.607  35.513  32.343  1.00  0.00    -0.454 OA
ATOM     97  O   UNL A   1      32.442  36.826  30.705  1.00  0.00    -0.454 OA
ATOM     98  C   UNL A   1      32.512  36.416  32.088  1.00  0.00     0.468 C 
ENDBRANCH  89  90
ENDBRANCH  87  89
ENDBRANCH  76  80
ENDBRANCH  70  74
ENDBRANCH  66  68
ENDBRANCH  65  66
ENDBRANCH  64  65
ENDBRANCH   1  64
TORSDOF 18
ENDMDL
MODEL 2
REMARK VINA RESULT:     -12.6      3.742     10.176
REMARK SMILES O=C(OCCOCCOC(=O)c1ccccc1-c1ccccc1C(=O)N1CC[NH+](Cc2ccc3c(c2)OCO3)CC1)c1ccc(-c2c3nc(c(-c4c(F)cccc4F)c4ccc([nH]4)c(-c4c(F)cccc4F)c4nc(c(-c5c(F)cccc5F)c5ccc2[nH]5)C=C4)C=C3)cc1
REMARK SMILES IDX 7 1 6 2 5 3 4 4 3 5 2 6 1 7 42 8 43 9 95 10 44 11 94 12
REMARK SMILES IDX 45 13 46 14 47 15 88 16 48 17 93 18 87 19 89 20 49 21 92 22
REMARK SMILES IDX 86 23 85 24 50 26 76 27 59 28 75 29 60 30 63 31 74 32 90 33
REMARK SMILES IDX 61 34 62 35 73 37 91 38 64 39 51 40 52 41 57 42 53 43 54 44
REMARK SMILES IDX 56 45 58 46 55 47 77 48 78 49 83 50 79 51 80 52 82 53 84 54
REMARK SMILES IDX 81 55 65 56 66 57 71 58 67 59 68 60 70 61 72 62 69 63 8 64
REMARK SMILES IDX 9 65 10 66 11 67 12 68 13 69 17 70 14 71 16 72 15 73 18 74
REMARK SMILES IDX 19 75 23 76 20 77 22 78 21 79 24 80 25 81 26 82 27 83 41 84
REMARK SMILES IDX 28 85 40 86 29 87 30 89 31 90 32 91 36 92 33 93 35 94 34 95
REMARK SMILES IDX 37 96 39 97 38 98
REMARK H PARENT 89 25 63 36 29 88
REMARK Flexibility Score: inf
ROOT
ATOM      1  C   UNL A   1      33.122  30.256  26.975  1.00  0.00     0.202 C 
ENDROOT
BRANCH   1   2
ATOM      2  O   UNL A   1      31.830  30.541  26.434  1.00  0.00    -0.374 OA
BRANCH   2   3
ATOM      3  C   UNL A   1      31.327  31.851  26.703  1.00  0.00     0.202 C 
BRANCH   3   4
ATOM      4  C   UNL A   1      32.445  32.887  26.825  1.00  0.00     0.261 C 
BRANCH   4   5
ATOM      5  O   UNL A   1      32.102  33.892  27.792  1.00  0.00    -0.460 OA
BRANCH   5   6
ATOM      6  C   UNL A   1      32.998  34.563  28.561  1.00  0.00     0.338 C 
ATOM      7  O   UNL A   1      32.741  35.703  28.942  1.00  0.00    -0.246 OA
BRANCH   6   8
ATOM      8  C   UNL A   1      34.205  33.884  29.113  1.00  0.00     0.060 A 
ATOM      9  C   UNL A   1      34.187  32.781  29.972  1.00  0.00     0.016 A 
ATOM     10  C   UNL A   1      35.445  34.376  28.679  1.00  0.00     0.016 A 
ATOM     11  C   UNL A   1      35.360  32.246  30.478  1.00  0.00     0.010 A 
ATOM     12  C   UNL A   1      36.632  33.813  29.146  1.00  0.00     0.010 A 
ATOM     13  C   UNL A   1      36.585  32.766  30.073  1.00  0.00    -0.014 A 
BRANCH  13  14
ATOM     14  C   UNL A   1      37.800  32.272  30.734  1.00  0.00     0.031 A 
ATOM     15  C   UNL A   1      38.573  31.182  30.064  1.00  0.00     0.074 A 
ATOM     16  C   UNL A   1      38.247  32.880  31.845  1.00  0.00     0.049 A 
ATOM     17  N   UNL A   1      39.585  30.492  30.507  1.00  0.00    -0.248 NA
ATOM     18  C   UNL A   1      38.146  30.825  28.698  1.00  0.00     0.031 C 
ATOM     19  C   UNL A   1      37.627  34.048  32.474  1.00  0.00     0.029 A 
ATOM     20  N   UNL A   1      39.341  32.622  32.623  1.00  0.00    -0.354 N 
ATOM     21  C   UNL A   1      39.885  29.584  29.501  1.00  0.00     0.074 A 
ATOM     22  C   UNL A   1      38.965  29.825  28.412  1.00  0.00     0.031 C 
ATOM     23  C   UNL A   1      38.366  34.420  33.531  1.00  0.00     0.029 A 
ATOM     24  C   UNL A   1      39.457  33.467  33.698  1.00  0.00     0.049 A 
ATOM     25  H   UNL A   1      39.983  31.900  32.431  1.00  0.00     0.167 HD
ATOM     26  C   UNL A   1      40.833  28.621  29.511  1.00  0.00     0.037 A 
ATOM     27  C   UNL A   1      40.327  33.433  34.723  1.00  0.00     0.037 A 
ATOM     28  C   UNL A   1      41.732  28.425  30.615  1.00  0.00     0.049 A 
ATOM     29  C   UNL A   1      41.333  32.316  34.745  1.00  0.00     0.074 A 
ATOM     30  C   UNL A   1      42.675  27.434  30.808  1.00  0.00     0.029 A 
ATOM     31  N   UNL A   1      41.796  29.267  31.719  1.00  0.00    -0.354 N 
ATOM     32  N   UNL A   1      41.535  31.371  33.856  1.00  0.00    -0.248 NA
ATOM     33  C   UNL A   1      42.209  32.237  35.919  1.00  0.00     0.031 C 
ATOM     34  C   UNL A   1      43.293  27.663  32.044  1.00  0.00     0.029 A 
ATOM     35  C   UNL A   1      42.760  28.818  32.602  1.00  0.00     0.049 A 
ATOM     36  H   UNL A   1      41.237  30.065  31.853  1.00  0.00     0.167 HD
ATOM     37  C   UNL A   1      42.556  30.581  34.361  1.00  0.00     0.074 A 
ATOM     38  C   UNL A   1      42.952  31.178  35.624  1.00  0.00     0.031 C 
ATOM     39  C   UNL A   1      43.113  29.457  33.845  1.00  0.00     0.037 A 
BRANCH  26  40
ATOM     40  C   UNL A   1      40.857  27.685  28.343  1.00  0.00     0.057 A 
ATOM     41  C   UNL A   1      41.621  27.936  27.196  1.00  0.00     0.134 A 
ATOM     42  C   UNL A   1      40.045  26.543  28.340  1.00  0.00     0.134 A 
ATOM     43  F   UNL A   1      42.392  29.031  27.119  1.00  0.00    -0.206 F 
ATOM     44  C   UNL A   1      41.555  27.101  26.078  1.00  0.00     0.040 A 
ATOM     45  C   UNL A   1      39.986  25.690  27.236  1.00  0.00     0.040 A 
ATOM     46  F   UNL A   1      39.278  26.252  29.400  1.00  0.00    -0.206 F 
ATOM     47  C   UNL A   1      40.735  25.974  26.097  1.00  0.00     0.006 A 
ENDBRANCH  26  40
BRANCH  27  48
ATOM     48  C   UNL A   1      40.233  34.429  35.820  1.00  0.00     0.057 A 
ATOM     49  C   UNL A   1      39.427  34.207  36.940  1.00  0.00     0.134 A 
ATOM     50  C   UNL A   1      40.960  35.627  35.781  1.00  0.00     0.134 A 
ATOM     51  F   UNL A   1      38.689  33.091  37.029  1.00  0.00    -0.206 F 
ATOM     52  C   UNL A   1      39.342  35.137  37.979  1.00  0.00     0.040 A 
ATOM     53  C   UNL A   1      40.907  36.554  36.824  1.00  0.00     0.040 A 
ATOM     54  F   UNL A   1      41.754  35.906  34.736  1.00  0.00    -0.206 F 
ATOM     55  C   UNL A   1      40.091  36.312  37.926  1.00  0.00     0.006 A 
ENDBRANCH  27  48
BRANCH  39  56
ATOM     56  C   UNL A   1      44.209  28.831  34.644  1.00  0.00     0.057 A 
ATOM     57  C   UNL A   1      45.547  29.204  34.469  1.00  0.00     0.134 A 
ATOM     58  C   UNL A   1      43.917  27.878  35.628  1.00  0.00     0.134 A 
ATOM     59  F   UNL A   1      45.885  30.102  33.531  1.00  0.00    -0.206 F 
ATOM     60  C   UNL A   1      46.562  28.637  35.237  1.00  0.00     0.040 A 
ATOM     61  C   UNL A   1      44.921  27.320  36.415  1.00  0.00     0.040 A 
ATOM     62  F   UNL A   1      42.651  27.488  35.843  1.00  0.00    -0.206 F 
ATOM     63  C   UNL A   1      46.249  27.697  36.219  1.00  0.00     0.006 A 
ENDBRANCH  39  56
ENDBRANCH  13  14
ENDBRANCH   6   8
ENDBRANCH   5   6
ENDBRANCH   4   5
ENDBRANCH   3   4
ENDBRANCH   2   3
ENDBRANCH   1   2
BRANCH   1  64
ATOM     64  C   UNL A   1      33.214  28.852  27.576  1.00  0.00     0.261 C 
BRANCH  64  65
ATOM     65  O   UNL A   1      32.300  27.934  26.945  1.00  0.00    -0.460 OA
BRANCH  65  66
ATOM     66  C   UNL A   1      32.915  27.181  26.004  1.00  0.00     0.338 C 
ATOM     67  O   UNL A   1      33.925  26.525  26.160  1.00  0.00    -0.246 OA
BRANCH  66  68
ATOM     68  C   UNL A   1      32.238  27.266  24.706  1.00  0.00     0.067 A 
ATOM     69  C   UNL A   1      32.563  28.299  23.824  1.00  0.00     0.016 A 
ATOM     70  C   UNL A   1      31.196  26.361  24.437  1.00  0.00    -0.003 A 
ATOM     71  C   UNL A   1      31.861  28.420  22.627  1.00  0.00     0.001 A 
ATOM     72  C   UNL A   1      30.513  26.489  23.218  1.00  0.00     0.009 A 
ATOM     73  C   UNL A   1      30.840  27.516  22.324  1.00  0.00     0.001 A 
BRANCH  70  74
ATOM     74  C   UNL A   1      30.962  25.228  25.341  1.00  0.00    -0.005 A 
ATOM     75  C   UNL A   1      29.837  25.379  26.195  1.00  0.00     0.009 A 
ATOM     76  C   UNL A   1      31.619  23.976  25.296  1.00  0.00     0.047 A 
ATOM     77  C   UNL A   1      29.323  24.320  26.936  1.00  0.00     0.001 A 
ATOM     78  C   UNL A   1      31.075  22.919  26.065  1.00  0.00     0.014 A 
ATOM     79  C   UNL A   1      29.935  23.081  26.858  1.00  0.00     0.001 A 
BRANCH  76  80
ATOM     80  C   UNL A   1      32.818  23.579  24.461  1.00  0.00     0.254 C 
ATOM     81  O   UNL A   1      32.774  23.739  23.239  1.00  0.00    -0.269 OA
ATOM     82  N   UNL A   1      33.988  23.130  25.070  1.00  0.00    -0.327 N 
ATOM     83  C   UNL A   1      35.199  23.854  24.687  1.00  0.00     0.181 C 
ATOM     84  C   UNL A   1      34.231  21.696  25.129  1.00  0.00     0.181 C 
ATOM     85  C   UNL A   1      36.358  23.579  25.671  1.00  0.00     0.284 C 
ATOM     86  C   UNL A   1      35.473  21.322  25.980  1.00  0.00     0.284 C 
ATOM     87  N   UNL A   1      36.686  22.155  25.872  1.00  0.00    -0.328 N 
ATOM     88  H   UNL A   1      37.128  22.091  26.788  1.00  0.00     0.348 HD
BRANCH  87  89
ATOM     89  C   UNL A   1      37.773  21.629  25.032  1.00  0.00     0.299 C 
BRANCH  89  90
ATOM     90  C   UNL A   1      39.025  21.240  25.783  1.00  0.00     0.010 A 
ATOM     91  C   UNL A   1      39.497  19.909  25.733  1.00  0.00     0.013 A 
ATOM     92  C   UNL A   1      39.833  22.252  26.336  1.00  0.00     0.060 A 
ATOM     93  C   UNL A   1      40.818  19.610  26.073  1.00  0.00     0.051 A 
ATOM     94  C   UNL A   1      41.146  21.939  26.592  1.00  0.00     0.166 A 
ATOM     95  C   UNL A   1      41.631  20.660  26.439  1.00  0.00     0.165 A 
ATOM     96  O   UNL A   1      42.135  22.840  26.845  1.00  0.00    -0.454 OA
ATOM     97  O   UNL A   1      42.985  20.610  26.583  1.00  0.00    -0.454 OA
ATOM     98  C   UNL A   1      43.286  22.022  26.553  1.00  0.00     0.468 C 
ENDBRANCH  89  90
ENDBRANCH  87  89
ENDBRANCH  76  80
ENDBRANCH  70  74
ENDBRANCH  66  68
ENDBRANCH  65  66
ENDBRANCH  64  65
ENDBRANCH   1  64
TORSDOF 18
ENDMDL
MODEL 3
REMARK VINA RESULT:     -12.5      3.539      8.796
REMARK SMILES O=C(OCCOCCOC(=O)c1ccccc1-c1ccccc1C(=O)N1CC[NH+](Cc2ccc3c(c2)OCO3)CC1)c1ccc(-c2c3nc(c(-c4c(F)cccc4F)c4ccc([nH]4)c(-c4c(F)cccc4F)c4nc(c(-c5c(F)cccc5F)c5ccc2[nH]5)C=C4)C=C3)cc1
REMARK SMILES IDX 7 1 6 2 5 3 4 4 3 5 2 6 1 7 42 8 43 9 95 10 44 11 94 12
REMARK SMILES IDX 45 13 46 14 47 15 88 16 48 17 93 18 87 19 89 20 49 21 92 22
REMARK SMILES IDX 86 23 85 24 50 26 76 27 59 28 75 29 60 30 63 31 74 32 90 33
REMARK SMILES IDX 61 34 62 35 73 37 91 38 64 39 51 40 52 41 57 42 53 43 54 44
REMARK SMILES IDX 56 45 58 46 55 47 77 48 78 49 83 50 79 51 80 52 82 53 84 54
REMARK SMILES IDX 81 55 65 56 66 57 71 58 67 59 68 60 70 61 72 62 69 63 8 64
REMARK SMILES IDX 9 65 10 66 11 67 12 68 13 69 17 70 14 71 16 72 15 73 18 74
REMARK SMILES IDX 19 75 23 76 20 77 22 78 21 79 24 80 25 81 26 82 27 83 41 84
REMARK SMILES IDX 28 85 40 86 29 87 30 89 31 90 32 91 36 92 33 93 35 94 34 95
REMARK SMILES IDX 37 96 39 97 38 98
REMARK H PARENT 89 25 63 36 29 88
REMARK Flexibility Score: inf
ROOT
ATOM      1  C   UNL A   1      33.015  30.293  26.759  1.00  0.00     0.202 C 
ENDROOT
BRANCH   1   2
ATOM      2  O   UNL A   1      31.782  30.788  26.233  1.00  0.00    -0.374 OA
BRANCH   2   3
ATOM      3  C   UNL A   1      31.215  31.896  26.936  1.00  0.00     0.202 C 
BRANCH   3   4
ATOM      4  C   UNL A   1      32.005  33.186  26.716  1.00  0.00     0.261 C 
BRANCH   4   5
ATOM      5  O   UNL A   1      32.171  33.897  27.953  1.00  0.00    -0.460 OA
BRANCH   5   6
ATOM      6  C   UNL A   1      33.340  34.434  28.385  1.00  0.00     0.338 C 
ATOM      7  O   UNL A   1      33.425  35.647  28.561  1.00  0.00    -0.246 OA
BRANCH   6   8
ATOM      8  C   UNL A   1      34.470  33.570  28.833  1.00  0.00     0.060 A 
ATOM      9  C   UNL A   1      34.363  32.220  29.182  1.00  0.00     0.016 A 
ATOM     10  C   UNL A   1      35.739  34.167  28.845  1.00  0.00     0.016 A 
ATOM     11  C   UNL A   1      35.459  31.508  29.637  1.00  0.00     0.010 A 
ATOM     12  C   UNL A   1      36.858  33.443  29.256  1.00  0.00     0.010 A 
ATOM     13  C   UNL A   1      36.708  32.119  29.683  1.00  0.00    -0.014 A 
BRANCH  13  14
ATOM     14  C   UNL A   1      37.817  31.383  30.303  1.00  0.00     0.031 A 
ATOM     15  C   UNL A   1      38.027  31.533  31.775  1.00  0.00     0.074 A 
ATOM     16  C   UNL A   1      38.531  30.513  29.568  1.00  0.00     0.049 A 
ATOM     17  N   UNL A   1      39.006  31.103  32.519  1.00  0.00    -0.248 NA
ATOM     18  C   UNL A   1      36.982  32.267  32.511  1.00  0.00     0.031 C 
ATOM     19  C   UNL A   1      38.287  30.202  28.158  1.00  0.00     0.029 A 
ATOM     20  N   UNL A   1      39.584  29.712  29.911  1.00  0.00    -0.354 N 
ATOM     21  C   UNL A   1      38.725  31.558  33.800  1.00  0.00     0.074 A 
ATOM     22  C   UNL A   1      37.473  32.276  33.740  1.00  0.00     0.031 C 
ATOM     23  C   UNL A   1      39.153  29.256  27.763  1.00  0.00     0.029 A 
ATOM     24  C   UNL A   1      40.061  28.962  28.865  1.00  0.00     0.049 A 
ATOM     25  H   UNL A   1      39.963  29.676  30.820  1.00  0.00     0.167 HD
ATOM     26  C   UNL A   1      39.473  31.403  34.915  1.00  0.00     0.037 A 
ATOM     27  C   UNL A   1      41.143  28.165  28.808  1.00  0.00     0.037 A 
ATOM     28  C   UNL A   1      40.711  30.672  34.928  1.00  0.00     0.049 A 
ATOM     29  C   UNL A   1      41.994  28.058  30.042  1.00  0.00     0.074 A 
ATOM     30  C   UNL A   1      41.621  30.514  35.955  1.00  0.00     0.029 A 
ATOM     31  N   UNL A   1      41.200  29.960  33.839  1.00  0.00    -0.354 N 
ATOM     32  N   UNL A   1      41.803  28.596  31.225  1.00  0.00    -0.248 NA
ATOM     33  C   UNL A   1      43.223  27.264  29.931  1.00  0.00     0.031 C 
ATOM     34  C   UNL A   1      42.675  29.725  35.477  1.00  0.00     0.029 A 
ATOM     35  C   UNL A   1      42.402  29.363  34.164  1.00  0.00     0.049 A 
ATOM     36  H   UNL A   1      40.756  29.893  32.964  1.00  0.00     0.167 HD
ATOM     37  C   UNL A   1      42.886  28.211  32.000  1.00  0.00     0.074 A 
ATOM     38  C   UNL A   1      43.716  27.369  31.159  1.00  0.00     0.031 C 
ATOM     39  C   UNL A   1      43.184  28.530  33.284  1.00  0.00     0.037 A 
BRANCH  26  40
ATOM     40  C   UNL A   1      39.003  32.111  36.148  1.00  0.00     0.057 A 
ATOM     41  C   UNL A   1      38.112  31.526  37.057  1.00  0.00     0.134 A 
ATOM     42  C   UNL A   1      39.397  33.433  36.392  1.00  0.00     0.134 A 
ATOM     43  F   UNL A   1      37.667  30.275  36.861  1.00  0.00    -0.206 F 
ATOM     44  C   UNL A   1      37.609  32.237  38.148  1.00  0.00     0.040 A 
ATOM     45  C   UNL A   1      38.917  34.149  37.490  1.00  0.00     0.040 A 
ATOM     46  F   UNL A   1      40.237  34.059  35.554  1.00  0.00    -0.206 F 
ATOM     47  C   UNL A   1      38.012  33.554  38.367  1.00  0.00     0.006 A 
ENDBRANCH  26  40
BRANCH  27  48
ATOM     48  C   UNL A   1      41.506  27.484  27.539  1.00  0.00     0.057 A 
ATOM     49  C   UNL A   1      42.414  28.052  26.641  1.00  0.00     0.134 A 
ATOM     50  C   UNL A   1      40.961  26.238  27.199  1.00  0.00     0.134 A 
ATOM     51  F   UNL A   1      42.955  29.253  26.895  1.00  0.00    -0.206 F 
ATOM     52  C   UNL A   1      42.765  27.411  25.450  1.00  0.00     0.040 A 
ATOM     53  C   UNL A   1      41.324  25.572  26.027  1.00  0.00     0.040 A 
ATOM     54  F   UNL A   1      40.084  25.635  28.015  1.00  0.00    -0.206 F 
ATOM     55  C   UNL A   1      42.226  26.162  25.144  1.00  0.00     0.006 A 
ENDBRANCH  27  48
BRANCH  39  56
ATOM     56  C   UNL A   1      44.444  27.949  33.839  1.00  0.00     0.057 A 
ATOM     57  C   UNL A   1      44.468  26.673  34.416  1.00  0.00     0.134 A 
ATOM     58  C   UNL A   1      45.650  28.655  33.756  1.00  0.00     0.134 A 
ATOM     59  F   UNL A   1      43.338  25.959  34.533  1.00  0.00    -0.206 F 
ATOM     60  C   UNL A   1      45.651  26.124  34.905  1.00  0.00     0.040 A 
ATOM     61  C   UNL A   1      46.842  28.107  34.224  1.00  0.00     0.040 A 
ATOM     62  F   UNL A   1      45.685  29.879  33.207  1.00  0.00    -0.206 F 
ATOM     63  C   UNL A   1      46.844  26.840  34.804  1.00  0.00     0.006 A 
ENDBRANCH  39  56
ENDBRANCH  13  14
ENDBRANCH   6   8
ENDBRANCH   5   6
ENDBRANCH   4   5
ENDBRANCH   3   4
ENDBRANCH   2   3
ENDBRANCH   1   2
BRANCH   1  64
ATOM     64  C   UNL A   1      32.835  29.014  27.580  1.00  0.00     0.261 C 
BRANCH  64  65
ATOM     65  O   UNL A   1      32.020  28.043  26.894  1.00  0.00    -0.460 OA
BRANCH  65  66
ATOM     66  C   UNL A   1      32.730  27.355  25.971  1.00  0.00     0.338 C 
ATOM     67  O   UNL A   1      33.789  26.792  26.156  1.00  0.00    -0.246 OA
BRANCH  66  68
ATOM     68  C   UNL A   1      32.088  27.387  24.652  1.00  0.00     0.067 A 
ATOM     69  C   UNL A   1      32.390  28.421  23.763  1.00  0.00     0.016 A 
ATOM     70  C   UNL A   1      31.099  26.429  24.368  1.00  0.00    -0.003 A 
ATOM     71  C   UNL A   1      31.718  28.490  22.544  1.00  0.00     0.001 A 
ATOM     72  C   UNL A   1      30.447  26.506  23.128  1.00  0.00     0.009 A 
ATOM     73  C   UNL A   1      30.751  27.533  22.227  1.00  0.00     0.001 A 
BRANCH  70  74
ATOM     74  C   UNL A   1      30.893  25.300  25.284  1.00  0.00    -0.005 A 
ATOM     75  C   UNL A   1      29.759  25.428  26.130  1.00  0.00     0.009 A 
ATOM     76  C   UNL A   1      31.586  24.067  25.257  1.00  0.00     0.047 A 
ATOM     77  C   UNL A   1      29.271  24.363  26.880  1.00  0.00     0.001 A 
ATOM     78  C   UNL A   1      31.068  23.004  26.035  1.00  0.00     0.014 A 
ATOM     79  C   UNL A   1      29.919  23.141  26.820  1.00  0.00     0.001 A 
BRANCH  76  80
ATOM     80  C   UNL A   1      32.801  23.696  24.433  1.00  0.00     0.254 C 
ATOM     81  O   UNL A   1      32.761  23.844  23.209  1.00  0.00    -0.269 OA
ATOM     82  N   UNL A   1      33.978  23.284  25.054  1.00  0.00    -0.327 N 
ATOM     83  C   UNL A   1      35.172  24.037  24.672  1.00  0.00     0.181 C 
ATOM     84  C   UNL A   1      34.260  21.858  25.126  1.00  0.00     0.181 C 
ATOM     85  C   UNL A   1      36.331  23.802  25.665  1.00  0.00     0.284 C 
ATOM     86  C   UNL A   1      35.505  21.525  25.989  1.00  0.00     0.284 C 
ATOM     87  N   UNL A   1      36.696  22.389  25.881  1.00  0.00    -0.328 N 
ATOM     88  H   UNL A   1      37.134  22.345  26.800  1.00  0.00     0.348 HD
BRANCH  87  89
ATOM     89  C   UNL A   1      37.803  21.886  25.053  1.00  0.00     0.299 C 
BRANCH  89  90
ATOM     90  C   UNL A   1      38.984  21.349  25.827  1.00  0.00     0.010 A 
ATOM     91  C   UNL A   1      39.343  19.987  25.719  1.00  0.00     0.013 A 
ATOM     92  C   UNL A   1      39.850  22.255  26.469  1.00  0.00     0.060 A 
ATOM     93  C   UNL A   1      40.619  19.556  26.091  1.00  0.00     0.051 A 
ATOM     94  C   UNL A   1      41.119  21.816  26.757  1.00  0.00     0.166 A 
ATOM     95  C   UNL A   1      41.501  20.510  26.548  1.00  0.00     0.165 A 
ATOM     96  O   UNL A   1      42.168  22.614  27.100  1.00  0.00    -0.454 OA
ATOM     97  O   UNL A   1      42.837  20.336  26.741  1.00  0.00    -0.454 OA
ATOM     98  C   UNL A   1      43.258  21.716  26.805  1.00  0.00     0.468 C 
ENDBRANCH  89  90
ENDBRANCH  87  89
ENDBRANCH  76  80
ENDBRANCH  70  74
ENDBRANCH  66  68
ENDBRANCH  65  66
ENDBRANCH  64  65
ENDBRANCH   1  64
TORSDOF 18
ENDMDL
