MODEL 1
REMARK VINA RESULT:     -11.4      0.000      0.000
REMARK SMILES CC[C@@](C)(NS(=O)(=O)Cc1ccccc1)C(=O)OCCOCCOC(=O)c1ccc(-c2c3nc(c(-c4c(F)cccc4F)c4ccc([nH]4)c(-c4c(F)cccc4F)c4nc(c(-c5c(F)cccc5F)c5ccc2[nH]5)C=C4)C=C3)cc1
REMARK SMILES IDX 20 1 19 2 18 3 16 4 17 5 3 6 4 7 2 8 1 9 5 10 6 12 7 13 8 14
REMARK SMILES IDX 9 15 10 16 11 17 15 18 12 19 14 20 13 21 21 22 22 23 23 24
REMARK SMILES IDX 24 25 25 26 26 27 27 28 28 29 80 30 29 31 79 32 30 33 31 34
REMARK SMILES IDX 32 35 73 36 33 37 78 38 72 39 74 40 34 41 77 42 71 43 70 44
REMARK SMILES IDX 35 46 61 47 44 48 60 49 45 50 48 51 59 52 75 53 46 54 47 55
REMARK SMILES IDX 58 57 76 58 49 59 36 60 37 61 42 62 38 63 39 64 41 65 43 66
REMARK SMILES IDX 40 67 62 68 63 69 68 70 64 71 65 72 67 73 69 74 66 75 50 76
REMARK SMILES IDX 51 77 56 78 52 79 53 80 55 81 57 82 54 83
REMARK H PARENT 5 11 74 45 48 56
REMARK Flexibility Score: inf
ROOT
ATOM      1  C   UNL A   1      37.768  20.136  24.819  1.00  0.00     0.202 C 
ENDROOT
BRANCH   1   2
ATOM      2  C   UNL A   1      37.543  21.658  24.969  1.00  0.00     0.261 C 
BRANCH   2   3
ATOM      3  O   UNL A   1      36.149  22.009  24.986  1.00  0.00    -0.462 OA
BRANCH   3   4
ATOM      4  C   UNL A   1      35.661  22.672  23.908  1.00  0.00     0.327 C 
ATOM      5  O   UNL A   1      36.347  22.979  22.939  1.00  0.00    -0.250 OA
BRANCH   4   6
ATOM      6  C   UNL A   1      34.134  22.875  23.987  1.00  0.00     0.127 C 
ATOM      7  C   UNL A   1      33.464  21.494  23.949  1.00  0.00     0.042 C 
BRANCH   6   8
ATOM      8  C   UNL A   1      33.768  23.564  25.348  1.00  0.00     0.032 C 
ATOM      9  C   UNL A   1      32.573  23.018  26.117  1.00  0.00     0.006 C 
ENDBRANCH   6   8
BRANCH   6  10
ATOM     10  N   UNL A   1      33.554  23.801  22.953  1.00  0.00    -0.198 NA
ATOM     11  H   UNL A   1      32.590  23.489  22.832  1.00  0.00     0.142 HD
BRANCH  10  12
ATOM     12  S   UNL A   1      33.462  25.458  23.045  1.00  0.00     0.216 S 
ATOM     13  O   UNL A   1      34.364  25.921  24.084  1.00  0.00    -0.212 OA
ATOM     14  O   UNL A   1      33.653  25.894  21.682  1.00  0.00    -0.212 OA
BRANCH  12  15
ATOM     15  C   UNL A   1      31.798  25.890  23.546  1.00  0.00     0.189 C 
BRANCH  15  16
ATOM     16  C   UNL A   1      31.714  27.024  24.530  1.00  0.00    -0.032 A 
ATOM     17  C   UNL A   1      31.641  26.604  26.312  1.00  0.00     0.005 A 
ATOM     18  C   UNL A   1      31.835  28.771  24.034  1.00  0.00     0.005 A 
ATOM     19  C   UNL A   1      31.643  27.925  27.578  1.00  0.00     0.000 A 
ATOM     20  C   UNL A   1      31.788  30.096  25.285  1.00  0.00     0.000 A 
ATOM     21  C   UNL A   1      31.679  29.678  27.069  1.00  0.00     0.000 A 
ENDBRANCH  15  16
ENDBRANCH  12  15
ENDBRANCH  10  12
ENDBRANCH   6  10
ENDBRANCH   4   6
ENDBRANCH   3   4
ENDBRANCH   2   3
ENDBRANCH   1   2
BRANCH   1  22
ATOM     22  O   UNL A   1      38.937  19.582  25.432  1.00  0.00    -0.374 OA
BRANCH  22  23
ATOM     23  C   UNL A   1      39.837  20.514  26.035  1.00  0.00     0.202 C 
BRANCH  23  24
ATOM     24  C   UNL A   1      41.314  20.072  26.021  1.00  0.00     0.261 C 
BRANCH  24  25
ATOM     25  O   UNL A   1      42.322  21.398  25.702  1.00  0.00    -0.460 OA
BRANCH  25  26
ATOM     26  C   UNL A   1      42.862  23.155  25.445  1.00  0.00     0.338 C 
ATOM     27  O   UNL A   1      43.693  23.592  24.608  1.00  0.00    -0.246 OA
BRANCH  26  28
ATOM     28  C   UNL A   1      42.368  24.403  26.199  1.00  0.00     0.060 A 
ATOM     29  C   UNL A   1      42.996  25.658  26.059  1.00  0.00     0.016 A 
ATOM     30  C   UNL A   1      41.416  24.222  27.209  1.00  0.00     0.016 A 
ATOM     31  C   UNL A   1      42.577  26.754  26.804  1.00  0.00     0.010 A 
ATOM     32  C   UNL A   1      41.025  25.306  27.990  1.00  0.00     0.010 A 
ATOM     33  C   UNL A   1      41.609  26.569  27.791  1.00  0.00    -0.014 A 
BRANCH  33  34
ATOM     34  C   UNL A   1      41.388  27.611  28.809  1.00  0.00     0.031 A 
ATOM     35  C   UNL A   1      42.220  27.533  30.051  1.00  0.00     0.074 A 
ATOM     36  C   UNL A   1      40.431  28.538  28.657  1.00  0.00     0.049 A 
ATOM     37  N   UNL A   1      42.038  28.108  31.208  1.00  0.00    -0.248 NA
ATOM     38  C   UNL A   1      43.397  26.651  29.985  1.00  0.00     0.031 C 
ATOM     39  C   UNL A   1      39.612  28.725  27.461  1.00  0.00     0.029 A 
ATOM     40  N   UNL A   1      39.961  29.469  29.544  1.00  0.00    -0.354 N 
ATOM     41  C   UNL A   1      43.039  27.603  32.028  1.00  0.00     0.074 A 
ATOM     42  C   UNL A   1      43.827  26.687  31.235  1.00  0.00     0.031 C 
ATOM     43  C   UNL A   1      38.703  29.685  27.706  1.00  0.00     0.029 A 
ATOM     44  C   UNL A   1      38.851  30.136  29.088  1.00  0.00     0.049 A 
ATOM     45  H   UNL A   1      40.377  29.643  30.419  1.00  0.00     0.167 HD
ATOM     46  C   UNL A   1      43.259  27.874  33.334  1.00  0.00     0.037 A 
ATOM     47  C   UNL A   1      38.021  30.969  29.743  1.00  0.00     0.037 A 
ATOM     48  C   UNL A   1      42.479  28.817  34.084  1.00  0.00     0.049 A 
ATOM     49  C   UNL A   1      38.287  31.267  31.194  1.00  0.00     0.074 A 
ATOM     50  C   UNL A   1      42.632  29.213  35.400  1.00  0.00     0.029 A 
ATOM     51  N   UNL A   1      41.394  29.517  33.572  1.00  0.00    -0.354 N 
ATOM     52  N   UNL A   1      39.224  30.786  31.977  1.00  0.00    -0.248 NA
ATOM     53  C   UNL A   1      37.381  32.214  31.856  1.00  0.00     0.031 C 
ATOM     54  C   UNL A   1      41.620  30.134  35.692  1.00  0.00     0.029 A 
ATOM     55  C   UNL A   1      40.863  30.340  34.547  1.00  0.00     0.049 A 
ATOM     56  H   UNL A   1      41.055  29.438  32.651  1.00  0.00     0.167 HD
ATOM     57  C   UNL A   1      39.036  31.385  33.214  1.00  0.00     0.074 A 
ATOM     58  C   UNL A   1      37.897  32.271  33.076  1.00  0.00     0.031 C 
ATOM     59  C   UNL A   1      39.737  31.221  34.364  1.00  0.00     0.037 A 
BRANCH  46  60
ATOM     60  C   UNL A   1      44.346  27.102  34.019  1.00  0.00     0.057 A 
ATOM     61  C   UNL A   1      44.112  25.865  34.635  1.00  0.00     0.134 A 
ATOM     62  C   UNL A   1      45.644  27.622  34.086  1.00  0.00     0.134 A 
ATOM     63  F   UNL A   1      42.884  25.325  34.629  1.00  0.00    -0.206 F 
ATOM     64  C   UNL A   1      45.122  25.190  35.323  1.00  0.00     0.040 A 
ATOM     65  C   UNL A   1      46.670  26.943  34.745  1.00  0.00     0.040 A 
ATOM     66  F   UNL A   1      45.937  28.803  33.520  1.00  0.00    -0.206 F 
ATOM     67  C   UNL A   1      46.407  25.728  35.375  1.00  0.00     0.006 A 
ENDBRANCH  46  60
BRANCH  47  68
ATOM     68  C   UNL A   1      36.848  31.543  29.040  1.00  0.00     0.057 A 
ATOM     69  C   UNL A   1      35.689  30.789  28.833  1.00  0.00     0.134 A 
ATOM     70  C   UNL A   1      36.847  32.867  28.582  1.00  0.00     0.134 A 
ATOM     71  F   UNL A   1      35.637  29.510  29.232  1.00  0.00    -0.206 F 
ATOM     72  C   UNL A   1      34.573  31.325  28.189  1.00  0.00     0.040 A 
ATOM     73  C   UNL A   1      35.731  33.424  27.955  1.00  0.00     0.040 A 
ATOM     74  F   UNL A   1      37.926  33.644  28.755  1.00  0.00    -0.206 F 
ATOM     75  C   UNL A   1      34.589  32.650  27.755  1.00  0.00     0.006 A 
ENDBRANCH  47  68
BRANCH  59  76
ATOM     76  C   UNL A   1      39.322  32.045  35.544  1.00  0.00     0.057 A 
ATOM     77  C   UNL A   1      38.457  31.547  36.523  1.00  0.00     0.134 A 
ATOM     78  C   UNL A   1      39.866  33.321  35.740  1.00  0.00     0.134 A 
ATOM     79  F   UNL A   1      37.899  30.335  36.384  1.00  0.00    -0.206 F 
ATOM     80  C   UNL A   1      38.137  32.295  37.657  1.00  0.00     0.040 A 
ATOM     81  C   UNL A   1      39.571  34.070  36.880  1.00  0.00     0.040 A 
ATOM     82  F   UNL A   1      40.711  33.849  34.841  1.00  0.00    -0.206 F 
ATOM     83  C   UNL A   1      38.704  33.556  37.841  1.00  0.00     0.006 A 
ENDBRANCH  59  76
ENDBRANCH  33  34
ENDBRANCH  26  28
ENDBRANCH  25  26
ENDBRANCH  24  25
ENDBRANCH  23  24
ENDBRANCH  22  23
ENDBRANCH   1  22
TORSDOF 19
ENDMDL
MODEL 2
REMARK VINA RESULT:     -11.2      1.251      2.101
REMARK SMILES CC[C@@](C)(NS(=O)(=O)Cc1ccccc1)C(=O)OCCOCCOC(=O)c1ccc(-c2c3nc(c(-c4c(F)cccc4F)c4ccc([nH]4)c(-c4c(F)cccc4F)c4nc(c(-c5c(F)cccc5F)c5ccc2[nH]5)C=C4)C=C3)cc1
REMARK SMILES IDX 20 1 19 2 18 3 16 4 17 5 3 6 4 7 2 8 1 9 5 10 6 12 7 13 8 14
REMARK SMILES IDX 9 15 10 16 11 17 15 18 12 19 14 20 13 21 21 22 22 23 23 24
REMARK SMILES IDX 24 25 25 26 26 27 27 28 28 29 80 30 29 31 79 32 30 33 31 34
REMARK SMILES IDX 32 35 73 36 33 37 78 38 72 39 74 40 34 41 77 42 71 43 70 44
REMARK SMILES IDX 35 46 61 47 44 48 60 49 45 50 48 51 59 52 75 53 46 54 47 55
REMARK SMILES IDX 58 57 76 58 49 59 36 60 37 61 42 62 38 63 39 64 41 65 43 66
REMARK SMILES IDX 40 67 62 68 63 69 68 70 64 71 65 72 67 73 69 74 66 75 50 76
REMARK SMILES IDX 51 77 56 78 52 79 53 80 55 81 57 82 54 83
REMARK H PARENT 5 11 74 45 48 56
REMARK Flexibility Score: inf
ROOT
ATOM      1  C   UNL A   1      38.221  21.386  25.688  1.00  0.00     0.202 C 
ENDROOT
BRANCH   1   2
ATOM      2  C   UNL A   1      37.092  21.244  24.643  1.00  0.00     0.261 C 
BRANCH   2   3
ATOM      3  O   UNL A   1      35.784  21.238  25.241  1.00  0.00    -0.462 OA
BRANCH   3   4
ATOM      4  C   UNL A   1      34.779  21.828  24.548  1.00  0.00     0.327 C 
ATOM      5  O   UNL A   1      34.949  22.786  23.801  1.00  0.00    -0.250 OA
BRANCH   4   6
ATOM      6  C   UNL A   1      33.440  21.080  24.706  1.00  0.00     0.127 C 
ATOM      7  C   UNL A   1      32.622  21.284  23.422  1.00  0.00     0.042 C 
BRANCH   6   8
ATOM      8  C   UNL A   1      33.716  19.544  24.875  1.00  0.00     0.032 C 
ATOM      9  C   UNL A   1      32.629  18.699  25.524  1.00  0.00     0.006 C 
ENDBRANCH   6   8
BRANCH   6  10
ATOM     10  N   UNL A   1      32.645  21.434  25.932  1.00  0.00    -0.198 NA
ATOM     11  H   UNL A   1      33.079  20.906  26.689  1.00  0.00     0.142 HD
BRANCH  10  12
ATOM     12  S   UNL A   1      32.403  22.957  26.552  1.00  0.00     0.216 S 
ATOM     13  O   UNL A   1      31.350  22.896  27.550  1.00  0.00    -0.212 OA
ATOM     14  O   UNL A   1      33.726  23.395  26.929  1.00  0.00    -0.212 OA
BRANCH  12  15
ATOM     15  C   UNL A   1      31.822  24.006  25.222  1.00  0.00     0.189 C 
BRANCH  15  16
ATOM     16  C   UNL A   1      32.331  25.420  25.271  1.00  0.00    -0.032 A 
ATOM     17  C   UNL A   1      33.191  26.070  23.789  1.00  0.00     0.005 A 
ATOM     18  C   UNL A   1      31.998  26.541  26.666  1.00  0.00     0.005 A 
ATOM     19  C   UNL A   1      33.748  27.811  23.727  1.00  0.00     0.000 A 
ATOM     20  C   UNL A   1      32.592  28.264  26.634  1.00  0.00     0.000 A 
ATOM     21  C   UNL A   1      33.484  28.906  25.164  1.00  0.00     0.000 A 
ENDBRANCH  15  16
ENDBRANCH  12  15
ENDBRANCH  10  12
ENDBRANCH   6  10
ENDBRANCH   4   6
ENDBRANCH   3   4
ENDBRANCH   2   3
ENDBRANCH   1   2
BRANCH   1  22
ATOM     22  O   UNL A   1      39.374  20.553  25.526  1.00  0.00    -0.374 OA
BRANCH  22  23
ATOM     23  C   UNL A   1      40.342  20.601  26.576  1.00  0.00     0.202 C 
BRANCH  23  24
ATOM     24  C   UNL A   1      41.782  20.281  26.128  1.00  0.00     0.261 C 
BRANCH  24  25
ATOM     25  O   UNL A   1      42.535  21.676  25.525  1.00  0.00    -0.460 OA
BRANCH  25  26
ATOM     26  C   UNL A   1      43.061  23.450  25.385  1.00  0.00     0.338 C 
ATOM     27  O   UNL A   1      43.941  23.935  24.628  1.00  0.00    -0.246 OA
BRANCH  26  28
ATOM     28  C   UNL A   1      42.495  24.655  26.157  1.00  0.00     0.060 A 
ATOM     29  C   UNL A   1      43.024  25.954  26.006  1.00  0.00     0.016 A 
ATOM     30  C   UNL A   1      41.587  24.401  27.191  1.00  0.00     0.016 A 
ATOM     31  C   UNL A   1      42.543  27.014  26.766  1.00  0.00     0.010 A 
ATOM     32  C   UNL A   1      41.136  25.450  27.986  1.00  0.00     0.010 A 
ATOM     33  C   UNL A   1      41.618  26.754  27.777  1.00  0.00    -0.014 A 
BRANCH  33  34
ATOM     34  C   UNL A   1      41.347  27.774  28.805  1.00  0.00     0.031 A 
ATOM     35  C   UNL A   1      42.165  27.710  30.058  1.00  0.00     0.074 A 
ATOM     36  C   UNL A   1      40.359  28.668  28.652  1.00  0.00     0.049 A 
ATOM     37  N   UNL A   1      41.948  28.263  31.219  1.00  0.00    -0.248 NA
ATOM     38  C   UNL A   1      43.374  26.872  29.996  1.00  0.00     0.031 C 
ATOM     39  C   UNL A   1      39.550  28.842  27.448  1.00  0.00     0.029 A 
ATOM     40  N   UNL A   1      39.845  29.571  29.545  1.00  0.00    -0.354 N 
ATOM     41  C   UNL A   1      42.955  27.783  32.046  1.00  0.00     0.074 A 
ATOM     42  C   UNL A   1      43.786  26.906  31.253  1.00  0.00     0.031 C 
ATOM     43  C   UNL A   1      38.604  29.765  27.693  1.00  0.00     0.029 A 
ATOM     44  C   UNL A   1      38.717  30.203  29.082  1.00  0.00     0.049 A 
ATOM     45  H   UNL A   1      40.243  29.748  30.427  1.00  0.00     0.167 HD
ATOM     46  C   UNL A   1      43.149  28.045  33.358  1.00  0.00     0.037 A 
ATOM     47  C   UNL A   1      37.849  30.998  29.736  1.00  0.00     0.037 A 
ATOM     48  C   UNL A   1      42.325  28.950  34.110  1.00  0.00     0.049 A 
ATOM     49  C   UNL A   1      38.086  31.285  31.195  1.00  0.00     0.074 A 
ATOM     50  C   UNL A   1      42.447  29.334  35.432  1.00  0.00     0.029 A 
ATOM     51  N   UNL A   1      41.223  29.617  33.592  1.00  0.00    -0.354 N 
ATOM     52  N   UNL A   1      39.030  30.828  31.984  1.00  0.00    -0.248 NA
ATOM     53  C   UNL A   1      37.138  32.191  31.856  1.00  0.00     0.031 C 
ATOM     54  C   UNL A   1      41.399  30.215  35.722  1.00  0.00     0.029 A 
ATOM     55  C   UNL A   1      40.650  30.408  34.570  1.00  0.00     0.049 A 
ATOM     56  H   UNL A   1      40.899  29.538  32.666  1.00  0.00     0.167 HD
ATOM     57  C   UNL A   1      38.804  31.404  33.226  1.00  0.00     0.074 A 
ATOM     58  C   UNL A   1      37.636  32.251  33.084  1.00  0.00     0.031 C 
ATOM     59  C   UNL A   1      39.495  31.251  34.383  1.00  0.00     0.037 A 
BRANCH  46  60
ATOM     60  C   UNL A   1      44.254  27.304  34.048  1.00  0.00     0.057 A 
ATOM     61  C   UNL A   1      45.587  27.732  33.999  1.00  0.00     0.134 A 
ATOM     62  C   UNL A   1      43.979  26.125  34.752  1.00  0.00     0.134 A 
ATOM     63  F   UNL A   1      45.920  28.840  33.320  1.00  0.00    -0.206 F 
ATOM     64  C   UNL A   1      46.612  26.995  34.596  1.00  0.00     0.040 A 
ATOM     65  C   UNL A   1      44.991  25.395  35.377  1.00  0.00     0.040 A 
ATOM     66  F   UNL A   1      42.725  25.657  34.836  1.00  0.00    -0.206 F 
ATOM     67  C   UNL A   1      46.314  25.825  35.291  1.00  0.00     0.006 A 
ENDBRANCH  46  60
BRANCH  47  68
ATOM     68  C   UNL A   1      36.666  31.538  29.025  1.00  0.00     0.057 A 
ATOM     69  C   UNL A   1      36.610  32.878  28.630  1.00  0.00     0.134 A 
ATOM     70  C   UNL A   1      35.574  30.723  28.700  1.00  0.00     0.134 A 
ATOM     71  F   UNL A   1      37.617  33.712  28.929  1.00  0.00    -0.206 F 
ATOM     72  C   UNL A   1      35.509  33.393  27.943  1.00  0.00     0.040 A 
ATOM     73  C   UNL A   1      34.476  31.218  27.995  1.00  0.00     0.040 A 
ATOM     74  F   UNL A   1      35.570  29.428  29.046  1.00  0.00    -0.206 F 
ATOM     75  C   UNL A   1      34.440  32.559  27.617  1.00  0.00     0.006 A 
ENDBRANCH  47  68
BRANCH  59  76
ATOM     76  C   UNL A   1      39.036  32.044  35.567  1.00  0.00     0.057 A 
ATOM     77  C   UNL A   1      38.297  31.462  36.602  1.00  0.00     0.134 A 
ATOM     78  C   UNL A   1      39.414  33.386  35.709  1.00  0.00     0.134 A 
ATOM     79  F   UNL A   1      37.899  30.184  36.518  1.00  0.00    -0.206 F 
ATOM     80  C   UNL A   1      37.940  32.191  37.737  1.00  0.00     0.040 A 
ATOM     81  C   UNL A   1      39.082  34.119  36.848  1.00  0.00     0.040 A 
ATOM     82  F   UNL A   1      40.133  33.996  34.754  1.00  0.00    -0.206 F 
ATOM     83  C   UNL A   1      38.341  33.520  37.865  1.00  0.00     0.006 A 
ENDBRANCH  59  76
ENDBRANCH  33  34
ENDBRANCH  26  28
ENDBRANCH  25  26
ENDBRANCH  24  25
ENDBRANCH  23  24
ENDBRANCH  22  23
ENDBRANCH   1  22
TORSDOF 19
ENDMDL
MODEL 3
REMARK VINA RESULT:     -11.1      2.942      7.774
REMARK SMILES CC[C@@](C)(NS(=O)(=O)Cc1ccccc1)C(=O)OCCOCCOC(=O)c1ccc(-c2c3nc(c(-c4c(F)cccc4F)c4ccc([nH]4)c(-c4c(F)cccc4F)c4nc(c(-c5c(F)cccc5F)c5ccc2[nH]5)C=C4)C=C3)cc1
REMARK SMILES IDX 20 1 19 2 18 3 16 4 17 5 3 6 4 7 2 8 1 9 5 10 6 12 7 13 8 14
REMARK SMILES IDX 9 15 10 16 11 17 15 18 12 19 14 20 13 21 21 22 22 23 23 24
REMARK SMILES IDX 24 25 25 26 26 27 27 28 28 29 80 30 29 31 79 32 30 33 31 34
REMARK SMILES IDX 32 35 73 36 33 37 78 38 72 39 74 40 34 41 77 42 71 43 70 44
REMARK SMILES IDX 35 46 61 47 44 48 60 49 45 50 48 51 59 52 75 53 46 54 47 55
REMARK SMILES IDX 58 57 76 58 49 59 36 60 37 61 42 62 38 63 39 64 41 65 43 66
REMARK SMILES IDX 40 67 62 68 63 69 68 70 64 71 65 72 67 73 69 74 66 75 50 76
REMARK SMILES IDX 51 77 56 78 52 79 53 80 55 81 57 82 54 83
REMARK H PARENT 5 11 74 45 48 56
REMARK Flexibility Score: inf
ROOT
ATOM      1  C   UNL A   1      34.059  28.075  26.279  1.00  0.00     0.202 C 
ENDROOT
BRANCH   1   2
ATOM      2  C   UNL A   1      32.917  27.035  26.358  1.00  0.00     0.261 C 
BRANCH   2   3
ATOM      3  O   UNL A   1      33.350  25.713  25.994  1.00  0.00    -0.462 OA
BRANCH   3   4
ATOM      4  C   UNL A   1      32.429  24.887  25.438  1.00  0.00     0.327 C 
ATOM      5  O   UNL A   1      31.296  24.743  25.887  1.00  0.00    -0.250 OA
BRANCH   4   6
ATOM      6  C   UNL A   1      32.924  24.261  24.118  1.00  0.00     0.127 C 
ATOM      7  C   UNL A   1      34.435  24.509  24.006  1.00  0.00     0.042 C 
BRANCH   6   8
ATOM      8  C   UNL A   1      32.679  22.712  24.151  1.00  0.00     0.032 C 
ATOM      9  C   UNL A   1      32.326  22.025  22.839  1.00  0.00     0.006 C 
ENDBRANCH   6   8
BRANCH   6  10
ATOM     10  N   UNL A   1      32.195  24.709  22.881  1.00  0.00    -0.198 NA
ATOM     11  H   UNL A   1      31.219  24.792  23.166  1.00  0.00     0.142 HD
BRANCH  10  12
ATOM     12  S   UNL A   1      32.502  26.077  21.988  1.00  0.00     0.216 S 
ATOM     13  O   UNL A   1      33.929  26.164  21.740  1.00  0.00    -0.212 OA
ATOM     14  O   UNL A   1      31.583  25.983  20.879  1.00  0.00    -0.212 OA
BRANCH  12  15
ATOM     15  C   UNL A   1      32.041  27.495  22.981  1.00  0.00     0.189 C 
BRANCH  15  16
ATOM     16  C   UNL A   1      30.575  27.829  22.954  1.00  0.00    -0.032 A 
ATOM     17  C   UNL A   1      29.419  26.666  23.773  1.00  0.00     0.005 A 
ATOM     18  C   UNL A   1      29.932  29.394  22.284  1.00  0.00     0.005 A 
ATOM     19  C   UNL A   1      27.634  27.051  23.877  1.00  0.00     0.000 A 
ATOM     20  C   UNL A   1      28.148  29.764  22.339  1.00  0.00     0.000 A 
ATOM     21  C   UNL A   1      26.985  28.584  23.128  1.00  0.00     0.000 A 
ENDBRANCH  15  16
ENDBRANCH  12  15
ENDBRANCH  10  12
ENDBRANCH   6  10
ENDBRANCH   4   6
ENDBRANCH   3   4
ENDBRANCH   2   3
ENDBRANCH   1   2
BRANCH   1  22
ATOM     22  O   UNL A   1      33.725  29.438  26.561  1.00  0.00    -0.374 OA
BRANCH  22  23
ATOM     23  C   UNL A   1      32.725  30.029  25.729  1.00  0.00     0.202 C 
BRANCH  23  24
ATOM     24  C   UNL A   1      31.625  30.788  26.499  1.00  0.00     0.261 C 
BRANCH  24  25
ATOM     25  O   UNL A   1      32.182  32.321  26.962  1.00  0.00    -0.460 OA
BRANCH  25  26
ATOM     26  C   UNL A   1      32.940  33.659  28.001  1.00  0.00     0.338 C 
ATOM     27  O   UNL A   1      32.526  34.836  28.164  1.00  0.00    -0.246 OA
BRANCH  26  28
ATOM     28  C   UNL A   1      34.204  33.561  28.874  1.00  0.00     0.060 A 
ATOM     29  C   UNL A   1      35.418  34.176  28.502  1.00  0.00     0.016 A 
ATOM     30  C   UNL A   1      34.193  32.655  29.940  1.00  0.00     0.016 A 
ATOM     31  C   UNL A   1      36.565  34.014  29.271  1.00  0.00     0.010 A 
ATOM     32  C   UNL A   1      35.351  32.453  30.685  1.00  0.00     0.010 A 
ATOM     33  C   UNL A   1      36.537  33.128  30.347  1.00  0.00    -0.014 A 
BRANCH  33  34
ATOM     34  C   UNL A   1      37.797  32.681  30.965  1.00  0.00     0.031 A 
ATOM     35  C   UNL A   1      38.499  31.527  30.318  1.00  0.00     0.074 A 
ATOM     36  C   UNL A   1      38.249  33.236  32.099  1.00  0.00     0.049 A 
ATOM     37  N   UNL A   1      39.429  30.749  30.796  1.00  0.00    -0.248 NA
ATOM     38  C   UNL A   1      38.056  31.186  28.956  1.00  0.00     0.031 C 
ATOM     39  C   UNL A   1      37.666  34.396  32.768  1.00  0.00     0.029 A 
ATOM     40  N   UNL A   1      39.288  32.858  32.909  1.00  0.00    -0.354 N 
ATOM     41  C   UNL A   1      39.634  29.782  29.820  1.00  0.00     0.074 A 
ATOM     42  C   UNL A   1      38.742  30.079  28.722  1.00  0.00     0.031 C 
ATOM     43  C   UNL A   1      38.328  34.610  33.919  1.00  0.00     0.029 A 
ATOM     44  C   UNL A   1      39.343  33.572  34.081  1.00  0.00     0.049 A 
ATOM     45  H   UNL A   1      39.928  32.149  32.674  1.00  0.00     0.167 HD
ATOM     46  C   UNL A   1      40.483  28.731  29.856  1.00  0.00     0.037 A 
ATOM     47  C   UNL A   1      40.094  33.361  35.179  1.00  0.00     0.037 A 
ATOM     48  C   UNL A   1      41.383  28.484  30.947  1.00  0.00     0.049 A 
ATOM     49  C   UNL A   1      41.041  32.191  35.197  1.00  0.00     0.074 A 
ATOM     50  C   UNL A   1      42.325  27.480  31.081  1.00  0.00     0.029 A 
ATOM     51  N   UNL A   1      41.451  29.261  32.096  1.00  0.00    -0.354 N 
ATOM     52  N   UNL A   1      41.233  31.270  34.283  1.00  0.00    -0.248 NA
ATOM     53  C   UNL A   1      41.870  32.027  36.398  1.00  0.00     0.031 C 
ATOM     54  C   UNL A   1      42.944  27.636  32.326  1.00  0.00     0.029 A 
ATOM     55  C   UNL A   1      42.416  28.758  32.948  1.00  0.00     0.049 A 
ATOM     56  H   UNL A   1      40.895  30.054  32.275  1.00  0.00     0.167 HD
ATOM     57  C   UNL A   1      42.216  30.430  34.785  1.00  0.00     0.074 A 
ATOM     58  C   UNL A   1      42.586  30.955  36.084  1.00  0.00     0.031 C 
ATOM     59  C   UNL A   1      42.766  29.322  34.228  1.00  0.00     0.037 A 
BRANCH  46  60
ATOM     60  C   UNL A   1      40.428  27.766  28.711  1.00  0.00     0.057 A 
ATOM     61  C   UNL A   1      39.642  26.607  28.746  1.00  0.00     0.134 A 
ATOM     62  C   UNL A   1      41.198  27.991  27.563  1.00  0.00     0.134 A 
ATOM     63  F   UNL A   1      38.901  26.321  29.827  1.00  0.00    -0.206 F 
ATOM     64  C   UNL A   1      39.651  25.688  27.695  1.00  0.00     0.040 A 
ATOM     65  C   UNL A   1      41.193  27.095  26.493  1.00  0.00     0.040 A 
ATOM     66  F   UNL A   1      41.975  29.080  27.465  1.00  0.00    -0.206 F 
ATOM     67  C   UNL A   1      40.425  25.933  26.562  1.00  0.00     0.006 A 
ENDBRANCH  46  60
BRANCH  47  68
ATOM     68  C   UNL A   1      39.947  34.254  36.353  1.00  0.00     0.057 A 
ATOM     69  C   UNL A   1      40.659  35.455  36.441  1.00  0.00     0.134 A 
ATOM     70  C   UNL A   1      39.073  33.943  37.402  1.00  0.00     0.134 A 
ATOM     71  F   UNL A   1      41.525  35.798  35.476  1.00  0.00    -0.206 F 
ATOM     72  C   UNL A   1      40.514  36.312  37.534  1.00  0.00     0.040 A 
ATOM     73  C   UNL A   1      38.902  34.800  38.491  1.00  0.00     0.040 A 
ATOM     74  F   UNL A   1      38.358  32.809  37.374  1.00  0.00    -0.206 F 
ATOM     75  C   UNL A   1      39.626  35.989  38.559  1.00  0.00     0.006 A 
ENDBRANCH  47  68
BRANCH  59  76
ATOM     76  C   UNL A   1      43.852  28.634  34.997  1.00  0.00     0.057 A 
ATOM     77  C   UNL A   1      45.194  29.012  34.875  1.00  0.00     0.134 A 
ATOM     78  C   UNL A   1      43.535  27.640  35.932  1.00  0.00     0.134 A 
ATOM     79  F   UNL A   1      45.558  29.952  33.990  1.00  0.00    -0.206 F 
ATOM     80  C   UNL A   1      46.188  28.416  35.652  1.00  0.00     0.040 A 
ATOM     81  C   UNL A   1      44.517  27.053  36.729  1.00  0.00     0.040 A 
ATOM     82  F   UNL A   1      42.264  27.244  36.101  1.00  0.00    -0.206 F 
ATOM     83  C   UNL A   1      45.848  27.440  36.589  1.00  0.00     0.006 A 
ENDBRANCH  59  76
ENDBRANCH  33  34
ENDBRANCH  26  28
ENDBRANCH  25  26
ENDBRANCH  24  25
ENDBRANCH  23  24
ENDBRANCH  22  23
ENDBRANCH   1  22
TORSDOF 19
ENDMDL
