MODEL 1
REMARK VINA RESULT:     -11.6      0.000      0.000
REMARK SMILES O=C(OCCOCCOC(=O)[C@H](NC(=O)[C@H]1CC[C@@H](CNC(=O)[C@@H]2Cc3ccccc3C[NH2+]2)CC1)c1ccccc1)c1ccc(-c2c3nc(c(-c4c(F)cccc4F)c4ccc([nH]4)c(-c4c(F)cccc4F)c4nc(c(-c5c(F)cccc5F)c5ccc2[nH]5)C=C4)C=C3)cc1
REMARK SMILES IDX 7 1 6 2 5 3 4 4 3 5 2 6 1 7 42 8 43 9 95 10 44 11 94 12
REMARK SMILES IDX 45 13 46 14 47 15 88 16 48 17 93 18 87 19 89 20 49 21 92 22
REMARK SMILES IDX 86 23 85 24 50 26 76 27 59 28 75 29 60 30 63 31 74 32 90 33
REMARK SMILES IDX 61 34 62 35 73 37 91 38 64 39 51 40 52 41 57 42 53 43 54 44
REMARK SMILES IDX 56 45 58 46 55 47 77 48 78 49 83 50 79 51 80 52 82 53 84 54
REMARK SMILES IDX 81 55 65 56 66 57 71 58 67 59 68 60 70 61 72 62 69 63 8 64
REMARK SMILES IDX 9 65 10 66 11 67 12 68 36 69 37 70 41 71 38 72 40 73 39 74
REMARK SMILES IDX 13 75 14 76 15 78 16 79 35 80 17 81 34 82 18 83 19 84 20 85
REMARK SMILES IDX 21 86 22 87 23 89 24 90 25 91 33 92 26 93 32 94 27 97 31 98
REMARK SMILES IDX 28 99 30 100 29 101
REMARK H PARENT 89 25 63 36 13 77 21 88 33 95 33 96
REMARK Flexibility Score: inf
ROOT
ATOM      1  C   UNL A   1      37.187  22.804  25.014  1.00  0.00     0.202 C 
ENDROOT
BRANCH   1   2
ATOM      2  O   UNL A   1      36.777  21.509  25.448  1.00  0.00    -0.374 OA
BRANCH   2   3
ATOM      3  C   UNL A   1      37.071  20.302  24.751  1.00  0.00     0.202 C 
BRANCH   3   4
ATOM      4  C   UNL A   1      38.261  19.408  25.116  1.00  0.00     0.261 C 
BRANCH   4   5
ATOM      5  O   UNL A   1      39.234  20.101  25.924  1.00  0.00    -0.460 OA
BRANCH   5   6
ATOM      6  C   UNL A   1      40.563  19.888  26.050  1.00  0.00     0.338 C 
ATOM      7  O   UNL A   1      41.097  18.834  25.748  1.00  0.00    -0.246 OA
BRANCH   6   8
ATOM      8  C   UNL A   1      41.351  21.006  26.540  1.00  0.00     0.060 A 
ATOM      9  C   UNL A   1      41.534  22.094  25.693  1.00  0.00     0.016 A 
ATOM     10  C   UNL A   1      41.845  20.990  27.844  1.00  0.00     0.016 A 
ATOM     11  C   UNL A   1      42.345  23.109  26.058  1.00  0.00     0.010 A 
ATOM     12  C   UNL A   1      42.482  22.126  28.303  1.00  0.00     0.010 A 
ATOM     13  C   UNL A   1      42.680  23.176  27.400  1.00  0.00    -0.014 A 
BRANCH  13  14
ATOM     14  C   UNL A   1      43.101  24.501  27.799  1.00  0.00     0.031 A 
ATOM     15  C   UNL A   1      44.509  24.858  27.565  1.00  0.00     0.074 A 
ATOM     16  C   UNL A   1      42.096  25.347  28.097  1.00  0.00     0.049 A 
ATOM     17  N   UNL A   1      45.095  25.993  27.772  1.00  0.00    -0.248 NA
ATOM     18  C   UNL A   1      45.374  23.801  27.009  1.00  0.00     0.031 C 
ATOM     19  C   UNL A   1      40.665  24.980  28.140  1.00  0.00     0.029 A 
ATOM     20  N   UNL A   1      42.092  26.684  28.324  1.00  0.00    -0.354 N 
ATOM     21  C   UNL A   1      46.417  25.780  27.429  1.00  0.00     0.074 A 
ATOM     22  C   UNL A   1      46.544  24.417  26.971  1.00  0.00     0.031 C 
ATOM     23  C   UNL A   1      39.929  26.082  28.318  1.00  0.00     0.029 A 
ATOM     24  C   UNL A   1      40.834  27.192  28.536  1.00  0.00     0.049 A 
ATOM     25  H   UNL A   1      42.908  27.234  28.335  1.00  0.00     0.167 HD
ATOM     26  C   UNL A   1      47.418  26.675  27.549  1.00  0.00     0.037 A 
ATOM     27  C   UNL A   1      40.486  28.422  28.940  1.00  0.00     0.037 A 
ATOM     28  C   UNL A   1      47.175  27.996  28.061  1.00  0.00     0.049 A 
ATOM     29  C   UNL A   1      41.628  29.367  29.155  1.00  0.00     0.074 A 
ATOM     30  C   UNL A   1      48.072  28.998  28.354  1.00  0.00     0.029 A 
ATOM     31  N   UNL A   1      45.902  28.484  28.372  1.00  0.00    -0.354 N 
ATOM     32  N   UNL A   1      42.909  29.157  28.939  1.00  0.00    -0.248 NA
ATOM     33  C   UNL A   1      41.309  30.688  29.689  1.00  0.00     0.031 C 
ATOM     34  C   UNL A   1      47.348  30.068  28.895  1.00  0.00     0.029 A 
ATOM     35  C   UNL A   1      45.989  29.766  28.873  1.00  0.00     0.049 A 
ATOM     36  H   UNL A   1      45.063  27.984  28.250  1.00  0.00     0.167 HD
ATOM     37  C   UNL A   1      43.559  30.320  29.298  1.00  0.00     0.074 A 
ATOM     38  C   UNL A   1      42.517  31.238  29.737  1.00  0.00     0.031 C 
ATOM     39  C   UNL A   1      44.883  30.613  29.274  1.00  0.00     0.037 A 
BRANCH  26  40
ATOM     40  C   UNL A   1      48.797  26.161  27.273  1.00  0.00     0.057 A 
ATOM     41  C   UNL A   1      49.619  25.625  28.275  1.00  0.00     0.134 A 
ATOM     42  C   UNL A   1      49.370  26.349  26.008  1.00  0.00     0.134 A 
ATOM     43  F   UNL A   1      49.153  25.467  29.524  1.00  0.00    -0.206 F 
ATOM     44  C   UNL A   1      50.968  25.342  28.042  1.00  0.00     0.040 A 
ATOM     45  C   UNL A   1      50.707  26.042  25.755  1.00  0.00     0.040 A 
ATOM     46  F   UNL A   1      48.650  26.881  25.008  1.00  0.00    -0.206 F 
ATOM     47  C   UNL A   1      51.514  25.552  26.778  1.00  0.00     0.006 A 
ENDBRANCH  26  40
BRANCH  27  48
ATOM     48  C   UNL A   1      39.066  28.736  29.233  1.00  0.00     0.057 A 
ATOM     49  C   UNL A   1      38.516  28.547  30.503  1.00  0.00     0.134 A 
ATOM     50  C   UNL A   1      38.237  29.318  28.258  1.00  0.00     0.134 A 
ATOM     51  F   UNL A   1      39.251  28.002  31.482  1.00  0.00    -0.206 F 
ATOM     52  C   UNL A   1      37.199  28.920  30.794  1.00  0.00     0.040 A 
ATOM     53  C   UNL A   1      36.930  29.721  28.543  1.00  0.00     0.040 A 
ATOM     54  F   UNL A   1      38.702  29.548  27.021  1.00  0.00    -0.206 F 
ATOM     55  C   UNL A   1      36.406  29.517  29.815  1.00  0.00     0.006 A 
ENDBRANCH  27  48
BRANCH  39  56
ATOM     56  C   UNL A   1      45.248  32.003  29.677  1.00  0.00     0.057 A 
ATOM     57  C   UNL A   1      45.242  33.061  28.764  1.00  0.00     0.134 A 
ATOM     58  C   UNL A   1      45.509  32.285  31.023  1.00  0.00     0.134 A 
ATOM     59  F   UNL A   1      45.015  32.837  27.462  1.00  0.00    -0.206 F 
ATOM     60  C   UNL A   1      45.489  34.367  29.182  1.00  0.00     0.040 A 
ATOM     61  C   UNL A   1      45.725  33.588  31.455  1.00  0.00     0.040 A 
ATOM     62  F   UNL A   1      45.518  31.302  31.936  1.00  0.00    -0.206 F 
ATOM     63  C   UNL A   1      45.716  34.633  30.532  1.00  0.00     0.006 A 
ENDBRANCH  39  56
ENDBRANCH  13  14
ENDBRANCH   6   8
ENDBRANCH   5   6
ENDBRANCH   4   5
ENDBRANCH   3   4
ENDBRANCH   2   3
ENDBRANCH   1   2
BRANCH   1  64
ATOM     64  C   UNL A   1      36.245  24.018  25.024  1.00  0.00     0.261 C 
BRANCH  64  65
ATOM     65  O   UNL A   1      34.855  23.677  25.055  1.00  0.00    -0.461 OA
BRANCH  65  66
ATOM     66  C   UNL A   1      34.244  23.884  23.874  1.00  0.00     0.333 C 
ATOM     67  O   UNL A   1      34.881  24.105  22.846  1.00  0.00    -0.249 OA
BRANCH  66  68
ATOM     68  C   UNL A   1      32.668  23.889  23.939  1.00  0.00     0.223 C 
BRANCH  68  69
ATOM     69  C   UNL A   1      32.301  22.378  24.028  1.00  0.00    -0.014 A 
ATOM     70  C   UNL A   1      32.410  21.650  25.230  1.00  0.00     0.006 A 
ATOM     71  C   UNL A   1      32.144  21.656  22.829  1.00  0.00     0.006 A 
ATOM     72  C   UNL A   1      32.454  20.254  25.216  1.00  0.00     0.000 A 
ATOM     73  C   UNL A   1      32.241  20.264  22.816  1.00  0.00     0.000 A 
ATOM     74  C   UNL A   1      32.408  19.565  24.008  1.00  0.00     0.000 A 
ENDBRANCH  68  69
BRANCH  68  75
ATOM     75  N   UNL A   1      31.800  24.633  24.900  1.00  0.00    -0.339 N 
ATOM     76  C   UNL A   1      31.446  25.917  25.156  1.00  0.00     0.224 C 
ATOM     77  H   UNL A   1      31.360  24.015  25.526  1.00  0.00     0.164 HD
ATOM     78  O   UNL A   1      30.290  26.073  25.569  1.00  0.00    -0.275 OA
BRANCH  76  79
ATOM     79  C   UNL A   1      32.403  27.094  25.131  1.00  0.00     0.078 C 
ATOM     80  C   UNL A   1      31.728  28.453  25.002  1.00  0.00     0.014 C 
ATOM     81  C   UNL A   1      33.216  27.087  26.446  1.00  0.00     0.014 C 
ATOM     82  C   UNL A   1      32.788  29.560  24.972  1.00  0.00     0.006 C 
ATOM     83  C   UNL A   1      34.301  28.149  26.475  1.00  0.00     0.006 C 
ATOM     84  C   UNL A   1      33.787  29.548  26.147  1.00  0.00     0.008 C 
BRANCH  84  85
ATOM     85  C   UNL A   1      33.285  30.164  27.456  1.00  0.00     0.119 C 
BRANCH  85  86
ATOM     86  N   UNL A   1      32.925  31.558  27.166  1.00  0.00    -0.351 N 
ATOM     87  C   UNL A   1      33.200  32.658  27.940  1.00  0.00     0.278 C 
ATOM     88  H   UNL A   1      32.436  31.721  26.327  1.00  0.00     0.163 HD
ATOM     89  O   UNL A   1      32.528  33.679  27.819  1.00  0.00    -0.268 OA
BRANCH  87  90
ATOM     90  C   UNL A   1      34.479  32.576  28.763  1.00  0.00     0.277 C 
ATOM     91  C   UNL A   1      34.474  33.427  30.043  1.00  0.00     0.111 C 
ATOM     92  N   UNL A   1      35.605  32.825  27.807  1.00  0.00    -0.332 N 
ATOM     93  C   UNL A   1      35.823  33.153  30.679  1.00  0.00    -0.033 A 
ATOM     94  C   UNL A   1      36.664  33.644  28.391  1.00  0.00     0.298 C 
ATOM     95  H   UNL A   1      35.237  33.305  26.985  1.00  0.00     0.347 HD
ATOM     96  H   UNL A   1      36.012  31.922  27.563  1.00  0.00     0.347 HD
ATOM     97  C   UNL A   1      35.978  32.668  31.975  1.00  0.00     0.004 A 
ATOM     98  C   UNL A   1      36.933  33.215  29.808  1.00  0.00     0.010 A 
ATOM     99  C   UNL A   1      37.234  32.223  32.389  1.00  0.00     0.000 A 
ATOM    100  C   UNL A   1      38.185  32.778  30.231  1.00  0.00     0.010 A 
ATOM    101  C   UNL A   1      38.331  32.273  31.521  1.00  0.00     0.001 A 
ENDBRANCH  87  90
ENDBRANCH  85  86
ENDBRANCH  84  85
ENDBRANCH  76  79
ENDBRANCH  68  75
ENDBRANCH  66  68
ENDBRANCH  65  66
ENDBRANCH  64  65
ENDBRANCH   1  64
TORSDOF 20
ENDMDL
MODEL 2
REMARK VINA RESULT:     -11.2      3.839      8.466
REMARK SMILES O=C(OCCOCCOC(=O)[C@H](NC(=O)[C@H]1CC[C@@H](CNC(=O)[C@@H]2Cc3ccccc3C[NH2+]2)CC1)c1ccccc1)c1ccc(-c2c3nc(c(-c4c(F)cccc4F)c4ccc([nH]4)c(-c4c(F)cccc4F)c4nc(c(-c5c(F)cccc5F)c5ccc2[nH]5)C=C4)C=C3)cc1
REMARK SMILES IDX 7 1 6 2 5 3 4 4 3 5 2 6 1 7 42 8 43 9 95 10 44 11 94 12
REMARK SMILES IDX 45 13 46 14 47 15 88 16 48 17 93 18 87 19 89 20 49 21 92 22
REMARK SMILES IDX 86 23 85 24 50 26 76 27 59 28 75 29 60 30 63 31 74 32 90 33
REMARK SMILES IDX 61 34 62 35 73 37 91 38 64 39 51 40 52 41 57 42 53 43 54 44
REMARK SMILES IDX 56 45 58 46 55 47 77 48 78 49 83 50 79 51 80 52 82 53 84 54
REMARK SMILES IDX 81 55 65 56 66 57 71 58 67 59 68 60 70 61 72 62 69 63 8 64
REMARK SMILES IDX 9 65 10 66 11 67 12 68 36 69 37 70 41 71 38 72 40 73 39 74
REMARK SMILES IDX 13 75 14 76 15 78 16 79 35 80 17 81 34 82 18 83 19 84 20 85
REMARK SMILES IDX 21 86 22 87 23 89 24 90 25 91 33 92 26 93 32 94 27 97 31 98
REMARK SMILES IDX 28 99 30 100 29 101
REMARK H PARENT 89 25 63 36 13 77 21 88 33 95 33 96
REMARK Flexibility Score: inf
ROOT
ATOM      1  C   UNL A   1      40.114  20.997  26.479  1.00  0.00     0.202 C 
ENDROOT
BRANCH   1   2
ATOM      2  O   UNL A   1      41.391  20.452  26.157  1.00  0.00    -0.374 OA
BRANCH   2   3
ATOM      3  C   UNL A   1      42.616  21.173  26.254  1.00  0.00     0.202 C 
BRANCH   3   4
ATOM      4  C   UNL A   1      43.071  22.175  25.186  1.00  0.00     0.261 C 
BRANCH   4   5
ATOM      5  O   UNL A   1      42.584  23.506  25.448  1.00  0.00    -0.460 OA
BRANCH   5   6
ATOM      6  C   UNL A   1      43.253  24.681  25.477  1.00  0.00     0.338 C 
ATOM      7  O   UNL A   1      44.248  24.895  24.805  1.00  0.00    -0.246 OA
BRANCH   6   8
ATOM      8  C   UNL A   1      42.703  25.714  26.337  1.00  0.00     0.060 A 
ATOM      9  C   UNL A   1      41.767  25.335  27.294  1.00  0.00     0.016 A 
ATOM     10  C   UNL A   1      43.160  27.027  26.228  1.00  0.00     0.016 A 
ATOM     11  C   UNL A   1      41.145  26.268  28.044  1.00  0.00     0.010 A 
ATOM     12  C   UNL A   1      42.696  27.947  27.148  1.00  0.00     0.010 A 
ATOM     13  C   UNL A   1      41.724  27.528  28.062  1.00  0.00    -0.014 A 
BRANCH  13  14
ATOM     14  C   UNL A   1      41.336  28.297  29.223  1.00  0.00     0.031 A 
ATOM     15  C   UNL A   1      40.084  29.065  29.132  1.00  0.00     0.074 A 
ATOM     16  C   UNL A   1      42.028  28.017  30.343  1.00  0.00     0.049 A 
ATOM     17  N   UNL A   1      39.503  29.765  30.053  1.00  0.00    -0.248 NA
ATOM     18  C   UNL A   1      39.379  29.029  27.837  1.00  0.00     0.031 C 
ATOM     19  C   UNL A   1      43.175  27.089  30.420  1.00  0.00     0.029 A 
ATOM     20  N   UNL A   1      41.830  28.390  31.632  1.00  0.00    -0.354 N 
ATOM     21  C   UNL A   1      38.390  30.308  29.439  1.00  0.00     0.074 A 
ATOM     22  C   UNL A   1      38.358  29.833  28.075  1.00  0.00     0.031 C 
ATOM     23  C   UNL A   1      43.531  26.926  31.699  1.00  0.00     0.029 A 
ATOM     24  C   UNL A   1      42.734  27.833  32.502  1.00  0.00     0.049 A 
ATOM     25  H   UNL A   1      41.109  28.998  31.915  1.00  0.00     0.167 HD
ATOM     26  C   UNL A   1      37.518  31.168  30.001  1.00  0.00     0.037 A 
ATOM     27  C   UNL A   1      42.925  28.107  33.800  1.00  0.00     0.037 A 
ATOM     28  C   UNL A   1      37.679  31.604  31.362  1.00  0.00     0.049 A 
ATOM     29  C   UNL A   1      42.001  29.136  34.374  1.00  0.00     0.074 A 
ATOM     30  C   UNL A   1      36.966  32.546  32.068  1.00  0.00     0.029 A 
ATOM     31  N   UNL A   1      38.665  31.109  32.222  1.00  0.00    -0.354 N 
ATOM     32  N   UNL A   1      40.998  29.750  33.782  1.00  0.00    -0.248 NA
ATOM     33  C   UNL A   1      42.231  29.540  35.758  1.00  0.00     0.031 C 
ATOM     34  C   UNL A   1      37.556  32.662  33.332  1.00  0.00     0.029 A 
ATOM     35  C   UNL A   1      38.593  31.740  33.446  1.00  0.00     0.049 A 
ATOM     36  H   UNL A   1      39.317  30.410  31.987  1.00  0.00     0.167 HD
ATOM     37  C   UNL A   1      40.463  30.610  34.718  1.00  0.00     0.074 A 
ATOM     38  C   UNL A   1      41.254  30.424  35.928  1.00  0.00     0.031 C 
ATOM     39  C   UNL A   1      39.423  31.474  34.604  1.00  0.00     0.037 A 
BRANCH  26  40
ATOM     40  C   UNL A   1      36.485  31.752  29.087  1.00  0.00     0.057 A 
ATOM     41  C   UNL A   1      36.507  33.096  28.683  1.00  0.00     0.134 A 
ATOM     42  C   UNL A   1      35.363  30.994  28.729  1.00  0.00     0.134 A 
ATOM     43  F   UNL A   1      37.525  33.896  29.036  1.00  0.00    -0.206 F 
ATOM     44  C   UNL A   1      35.431  33.672  28.001  1.00  0.00     0.040 A 
ATOM     45  C   UNL A   1      34.296  31.551  28.022  1.00  0.00     0.040 A 
ATOM     46  F   UNL A   1      35.263  29.709  29.104  1.00  0.00    -0.206 F 
ATOM     47  C   UNL A   1      34.322  32.898  27.671  1.00  0.00     0.006 A 
ENDBRANCH  26  40
BRANCH  27  48
ATOM     48  C   UNL A   1      44.049  27.479  34.537  1.00  0.00     0.057 A 
ATOM     49  C   UNL A   1      43.922  26.230  35.149  1.00  0.00     0.134 A 
ATOM     50  C   UNL A   1      45.317  28.083  34.577  1.00  0.00     0.134 A 
ATOM     51  F   UNL A   1      42.742  25.593  35.147  1.00  0.00    -0.206 F 
ATOM     52  C   UNL A   1      45.007  25.606  35.775  1.00  0.00     0.040 A 
ATOM     53  C   UNL A   1      46.416  27.460  35.172  1.00  0.00     0.040 A 
ATOM     54  F   UNL A   1      45.519  29.274  33.994  1.00  0.00    -0.206 F 
ATOM     55  C   UNL A   1      46.261  26.217  35.778  1.00  0.00     0.006 A 
ENDBRANCH  27  48
BRANCH  39  56
ATOM     56  C   UNL A   1      39.061  32.222  35.843  1.00  0.00     0.057 A 
ATOM     57  C   UNL A   1      39.475  33.540  36.056  1.00  0.00     0.134 A 
ATOM     58  C   UNL A   1      38.205  31.633  36.781  1.00  0.00     0.134 A 
ATOM     59  F   UNL A   1      40.309  34.141  35.196  1.00  0.00    -0.206 F 
ATOM     60  C   UNL A   1      39.045  34.253  37.173  1.00  0.00     0.040 A 
ATOM     61  C   UNL A   1      37.745  32.346  37.881  1.00  0.00     0.040 A 
ATOM     62  F   UNL A   1      37.777  30.372  36.614  1.00  0.00    -0.206 F 
ATOM     63  C   UNL A   1      38.166  33.660  38.080  1.00  0.00     0.006 A 
ENDBRANCH  39  56
ENDBRANCH  13  14
ENDBRANCH   6   8
ENDBRANCH   5   6
ENDBRANCH   4   5
ENDBRANCH   3   4
ENDBRANCH   2   3
ENDBRANCH   1   2
BRANCH   1  64
ATOM     64  C   UNL A   1      38.946  21.017  25.479  1.00  0.00     0.261 C 
BRANCH  64  65
ATOM     65  O   UNL A   1      37.905  21.940  25.818  1.00  0.00    -0.461 OA
BRANCH  65  66
ATOM     66  C   UNL A   1      36.983  22.062  24.846  1.00  0.00     0.333 C 
ATOM     67  O   UNL A   1      37.229  21.759  23.680  1.00  0.00    -0.249 OA
BRANCH  66  68
ATOM     68  C   UNL A   1      35.610  22.682  25.313  1.00  0.00     0.223 C 
BRANCH  68  69
ATOM     69  C   UNL A   1      34.623  22.280  24.177  1.00  0.00    -0.014 A 
ATOM     70  C   UNL A   1      34.199  23.197  23.194  1.00  0.00     0.006 A 
ATOM     71  C   UNL A   1      33.913  21.071  24.303  1.00  0.00     0.006 A 
ATOM     72  C   UNL A   1      33.052  22.950  22.436  1.00  0.00     0.000 A 
ATOM     73  C   UNL A   1      32.740  20.852  23.580  1.00  0.00     0.000 A 
ATOM     74  C   UNL A   1      32.304  21.797  22.656  1.00  0.00     0.000 A 
ENDBRANCH  68  69
BRANCH  68  75
ATOM     75  N   UNL A   1      34.918  22.477  26.621  1.00  0.00    -0.339 N 
ATOM     76  C   UNL A   1      33.688  22.679  27.154  1.00  0.00     0.224 C 
ATOM     77  H   UNL A   1      35.529  22.085  27.284  1.00  0.00     0.164 HD
ATOM     78  O   UNL A   1      33.335  21.844  27.997  1.00  0.00    -0.275 OA
BRANCH  76  79
ATOM     79  C   UNL A   1      32.838  23.913  26.913  1.00  0.00     0.078 C 
ATOM     80  C   UNL A   1      33.592  25.090  26.310  1.00  0.00     0.014 C 
ATOM     81  C   UNL A   1      31.694  23.533  25.945  1.00  0.00     0.014 C 
ATOM     82  C   UNL A   1      32.641  26.278  26.126  1.00  0.00     0.006 C 
ATOM     83  C   UNL A   1      30.700  24.661  25.733  1.00  0.00     0.006 C 
ATOM     84  C   UNL A   1      31.357  25.977  25.327  1.00  0.00     0.008 C 
BRANCH  84  85
ATOM     85  C   UNL A   1      31.508  25.955  23.803  1.00  0.00     0.119 C 
BRANCH  85  86
ATOM     86  N   UNL A   1      32.690  26.764  23.476  1.00  0.00    -0.351 N 
ATOM     87  C   UNL A   1      32.722  27.899  22.704  1.00  0.00     0.278 C 
ATOM     88  H   UNL A   1      33.548  26.461  23.850  1.00  0.00     0.163 HD
ATOM     89  O   UNL A   1      33.773  28.254  22.175  1.00  0.00    -0.268 OA
BRANCH  87  90
ATOM     90  C   UNL A   1      31.460  28.751  22.738  1.00  0.00     0.277 C 
ATOM     91  C   UNL A   1      31.118  29.338  24.117  1.00  0.00     0.111 C 
ATOM     92  N   UNL A   1      30.389  27.933  22.083  1.00  0.00    -0.332 N 
ATOM     93  C   UNL A   1      29.860  30.148  23.876  1.00  0.00    -0.033 A 
ATOM     94  C   UNL A   1      29.097  28.067  22.750  1.00  0.00     0.298 C 
ATOM     95  H   UNL A   1      30.667  26.951  22.103  1.00  0.00     0.347 HD
ATOM     96  H   UNL A   1      30.280  28.272  21.126  1.00  0.00     0.347 HD
ATOM     97  C   UNL A   1      29.749  31.503  24.176  1.00  0.00     0.004 A 
ATOM     98  C   UNL A   1      28.851  29.503  23.127  1.00  0.00     0.010 A 
ATOM     99  C   UNL A   1      28.645  32.216  23.704  1.00  0.00     0.000 A 
ATOM    100  C   UNL A   1      27.749  30.218  22.669  1.00  0.00     0.010 A 
ATOM    101  C   UNL A   1      27.653  31.579  22.951  1.00  0.00     0.001 A 
ENDBRANCH  87  90
ENDBRANCH  85  86
ENDBRANCH  84  85
ENDBRANCH  76  79
ENDBRANCH  68  75
ENDBRANCH  66  68
ENDBRANCH  65  66
ENDBRANCH  64  65
ENDBRANCH   1  64
TORSDOF 20
ENDMDL
MODEL 3
REMARK VINA RESULT:     -10.4      4.811     12.589
REMARK SMILES O=C(OCCOCCOC(=O)[C@H](NC(=O)[C@H]1CC[C@@H](CNC(=O)[C@@H]2Cc3ccccc3C[NH2+]2)CC1)c1ccccc1)c1ccc(-c2c3nc(c(-c4c(F)cccc4F)c4ccc([nH]4)c(-c4c(F)cccc4F)c4nc(c(-c5c(F)cccc5F)c5ccc2[nH]5)C=C4)C=C3)cc1
REMARK SMILES IDX 7 1 6 2 5 3 4 4 3 5 2 6 1 7 42 8 43 9 95 10 44 11 94 12
REMARK SMILES IDX 45 13 46 14 47 15 88 16 48 17 93 18 87 19 89 20 49 21 92 22
REMARK SMILES IDX 86 23 85 24 50 26 76 27 59 28 75 29 60 30 63 31 74 32 90 33
REMARK SMILES IDX 61 34 62 35 73 37 91 38 64 39 51 40 52 41 57 42 53 43 54 44
REMARK SMILES IDX 56 45 58 46 55 47 77 48 78 49 83 50 79 51 80 52 82 53 84 54
REMARK SMILES IDX 81 55 65 56 66 57 71 58 67 59 68 60 70 61 72 62 69 63 8 64
REMARK SMILES IDX 9 65 10 66 11 67 12 68 36 69 37 70 41 71 38 72 40 73 39 74
REMARK SMILES IDX 13 75 14 76 15 78 16 79 35 80 17 81 34 82 18 83 19 84 20 85
REMARK SMILES IDX 21 86 22 87 23 89 24 90 25 91 33 92 26 93 32 94 27 97 31 98
REMARK SMILES IDX 28 99 30 100 29 101
REMARK H PARENT 89 25 63 36 13 77 21 88 33 95 33 96
REMARK Flexibility Score: inf
ROOT
ATOM      1  C   UNL A   1      33.894  30.854  27.708  1.00  0.00     0.202 C 
ENDROOT
BRANCH   1   2
ATOM      2  O   UNL A   1      32.963  31.630  26.957  1.00  0.00    -0.374 OA
BRANCH   2   3
ATOM      3  C   UNL A   1      32.410  32.865  27.401  1.00  0.00     0.202 C 
BRANCH   3   4
ATOM      4  C   UNL A   1      33.261  33.968  28.042  1.00  0.00     0.261 C 
BRANCH   4   5
ATOM      5  O   UNL A   1      32.866  34.236  29.403  1.00  0.00    -0.460 OA
BRANCH   5   6
ATOM      6  C   UNL A   1      33.171  35.284  30.201  1.00  0.00     0.338 C 
ATOM      7  O   UNL A   1      32.609  36.364  30.120  1.00  0.00    -0.246 OA
BRANCH   6   8
ATOM      8  C   UNL A   1      34.194  35.053  31.205  1.00  0.00     0.060 A 
ATOM      9  C   UNL A   1      35.055  33.977  31.022  1.00  0.00     0.016 A 
ATOM     10  C   UNL A   1      34.326  35.934  32.279  1.00  0.00     0.016 A 
ATOM     11  C   UNL A   1      35.953  33.654  31.977  1.00  0.00     0.010 A 
ATOM     12  C   UNL A   1      35.389  35.741  33.140  1.00  0.00     0.010 A 
ATOM     13  C   UNL A   1      36.201  34.620  32.939  1.00  0.00    -0.014 A 
BRANCH  13  14
ATOM     14  C   UNL A   1      37.476  34.432  33.595  1.00  0.00     0.031 A 
ATOM     15  C   UNL A   1      37.450  33.968  34.991  1.00  0.00     0.074 A 
ATOM     16  C   UNL A   1      38.542  34.450  32.773  1.00  0.00     0.049 A 
ATOM     17  N   UNL A   1      38.449  33.665  35.755  1.00  0.00    -0.248 NA
ATOM     18  C   UNL A   1      36.121  33.806  35.609  1.00  0.00     0.031 C 
ATOM     19  C   UNL A   1      38.491  34.745  31.326  1.00  0.00     0.029 A 
ATOM     20  N   UNL A   1      39.843  34.133  32.991  1.00  0.00    -0.354 N 
ATOM     21  C   UNL A   1      37.882  33.331  36.970  1.00  0.00     0.074 A 
ATOM     22  C   UNL A   1      36.448  33.439  36.836  1.00  0.00     0.031 C 
ATOM     23  C   UNL A   1      39.696  34.532  30.786  1.00  0.00     0.029 A 
ATOM     24  C   UNL A   1      40.618  34.225  31.862  1.00  0.00     0.049 A 
ATOM     25  H   UNL A   1      40.194  33.863  33.870  1.00  0.00     0.167 HD
ATOM     26  C   UNL A   1      38.553  33.011  38.095  1.00  0.00     0.037 A 
ATOM     27  C   UNL A   1      41.951  34.138  31.753  1.00  0.00     0.037 A 
ATOM     28  C   UNL A   1      39.990  32.979  38.117  1.00  0.00     0.049 A 
ATOM     29  C   UNL A   1      42.677  33.875  33.036  1.00  0.00     0.074 A 
ATOM     30  C   UNL A   1      40.843  32.783  39.180  1.00  0.00     0.029 A 
ATOM     31  N   UNL A   1      40.786  33.171  36.984  1.00  0.00    -0.354 N 
ATOM     32  N   UNL A   1      42.167  33.659  34.230  1.00  0.00    -0.248 NA
ATOM     33  C   UNL A   1      44.137  33.868  32.987  1.00  0.00     0.031 C 
ATOM     34  C   UNL A   1      42.152  32.915  38.700  1.00  0.00     0.029 A 
ATOM     35  C   UNL A   1      42.122  33.119  37.323  1.00  0.00     0.049 A 
ATOM     36  H   UNL A   1      40.443  33.322  36.074  1.00  0.00     0.167 HD
ATOM     37  C   UNL A   1      43.237  33.480  35.082  1.00  0.00     0.074 A 
ATOM     38  C   UNL A   1      44.430  33.602  34.255  1.00  0.00     0.031 C 
ATOM     39  C   UNL A   1      43.248  33.239  36.417  1.00  0.00     0.037 A 
BRANCH  26  40
ATOM     40  C   UNL A   1      37.725  32.853  39.333  1.00  0.00     0.057 A 
ATOM     41  C   UNL A   1      37.709  33.810  40.359  1.00  0.00     0.134 A 
ATOM     42  C   UNL A   1      37.053  31.647  39.572  1.00  0.00     0.134 A 
ATOM     43  F   UNL A   1      38.377  34.966  40.220  1.00  0.00    -0.206 F 
ATOM     44  C   UNL A   1      37.098  33.554  41.589  1.00  0.00     0.040 A 
ATOM     45  C   UNL A   1      36.413  31.392  40.785  1.00  0.00     0.040 A 
ATOM     46  F   UNL A   1      37.049  30.676  38.646  1.00  0.00    -0.206 F 
ATOM     47  C   UNL A   1      36.448  32.341  41.804  1.00  0.00     0.006 A 
ENDBRANCH  26  40
BRANCH  27  48
ATOM     48  C   UNL A   1      42.611  34.393  30.449  1.00  0.00     0.057 A 
ATOM     49  C   UNL A   1      43.150  35.641  30.127  1.00  0.00     0.134 A 
ATOM     50  C   UNL A   1      42.793  33.359  29.514  1.00  0.00     0.134 A 
ATOM     51  F   UNL A   1      43.018  36.672  30.973  1.00  0.00    -0.206 F 
ATOM     52  C   UNL A   1      43.841  35.854  28.929  1.00  0.00     0.040 A 
ATOM     53  C   UNL A   1      43.504  33.550  28.328  1.00  0.00     0.040 A 
ATOM     54  F   UNL A   1      42.319  32.129  29.763  1.00  0.00    -0.206 F 
ATOM     55  C   UNL A   1      44.028  34.804  28.031  1.00  0.00     0.006 A 
ENDBRANCH  27  48
BRANCH  39  56
ATOM     56  C   UNL A   1      44.593  33.034  37.029  1.00  0.00     0.057 A 
ATOM     57  C   UNL A   1      45.296  34.079  37.634  1.00  0.00     0.134 A 
ATOM     58  C   UNL A   1      45.134  31.744  37.091  1.00  0.00     0.134 A 
ATOM     59  F   UNL A   1      44.826  35.334  37.586  1.00  0.00    -0.206 F 
ATOM     60  C   UNL A   1      46.505  33.846  38.285  1.00  0.00     0.040 A 
ATOM     61  C   UNL A   1      46.323  31.495  37.765  1.00  0.00     0.040 A 
ATOM     62  F   UNL A   1      44.491  30.708  36.530  1.00  0.00    -0.206 F 
ATOM     63  C   UNL A   1      47.012  32.549  38.364  1.00  0.00     0.006 A 
ENDBRANCH  39  56
ENDBRANCH  13  14
ENDBRANCH   6   8
ENDBRANCH   5   6
ENDBRANCH   4   5
ENDBRANCH   3   4
ENDBRANCH   2   3
ENDBRANCH   1   2
BRANCH   1  64
ATOM     64  C   UNL A   1      35.402  31.154  27.723  1.00  0.00     0.261 C 
BRANCH  64  65
ATOM     65  O   UNL A   1      36.002  31.058  29.019  1.00  0.00    -0.461 OA
BRANCH  65  66
ATOM     66  C   UNL A   1      37.243  31.576  29.056  1.00  0.00     0.333 C 
ATOM     67  O   UNL A   1      37.463  32.748  28.756  1.00  0.00    -0.249 OA
BRANCH  66  68
ATOM     68  C   UNL A   1      38.376  30.549  29.440  1.00  0.00     0.223 C 
BRANCH  68  69
ATOM     69  C   UNL A   1      38.644  30.848  30.945  1.00  0.00    -0.014 A 
ATOM     70  C   UNL A   1      39.945  30.846  31.489  1.00  0.00     0.006 A 
ATOM     71  C   UNL A   1      37.554  30.827  31.837  1.00  0.00     0.006 A 
ATOM     72  C   UNL A   1      40.141  30.732  32.867  1.00  0.00     0.000 A 
ATOM     73  C   UNL A   1      37.756  30.661  33.207  1.00  0.00     0.000 A 
ATOM     74  C   UNL A   1      39.048  30.601  33.720  1.00  0.00     0.000 A 
ENDBRANCH  68  69
BRANCH  68  75
ATOM     75  N   UNL A   1      38.358  29.066  29.259  1.00  0.00    -0.339 N 
ATOM     76  C   UNL A   1      39.242  28.038  29.266  1.00  0.00     0.224 C 
ATOM     77  H   UNL A   1      37.445  28.744  29.085  1.00  0.00     0.164 HD
ATOM     78  O   UNL A   1      38.801  26.966  29.702  1.00  0.00    -0.275 OA
BRANCH  76  79
ATOM     79  C   UNL A   1      40.621  28.085  28.635  1.00  0.00     0.078 C 
ATOM     80  C   UNL A   1      41.349  26.748  28.610  1.00  0.00     0.014 C 
ATOM     81  C   UNL A   1      40.470  28.574  27.176  1.00  0.00     0.014 C 
ATOM     82  C   UNL A   1      42.730  26.918  27.967  1.00  0.00     0.006 C 
ATOM     83  C   UNL A   1      41.805  28.784  26.483  1.00  0.00     0.006 C 
ATOM     84  C   UNL A   1      42.730  27.574  26.571  1.00  0.00     0.008 C 
BRANCH  84  85
ATOM     85  C   UNL A   1      42.379  26.652  25.400  1.00  0.00     0.119 C 
BRANCH  85  86
ATOM     86  N   UNL A   1      43.644  26.269  24.759  1.00  0.00    -0.351 N 
ATOM     87  C   UNL A   1      44.388  25.144  25.013  1.00  0.00     0.278 C 
ATOM     88  H   UNL A   1      43.995  26.884  24.075  1.00  0.00     0.163 HD
ATOM     89  O   UNL A   1      45.584  25.121  24.732  1.00  0.00    -0.268 OA
BRANCH  87  90
ATOM     90  C   UNL A   1      43.595  23.918  25.447  1.00  0.00     0.277 C 
ATOM     91  C   UNL A   1      43.758  23.540  26.928  1.00  0.00     0.111 C 
ATOM     92  N   UNL A   1      43.910  22.844  24.451  1.00  0.00    -0.332 N 
ATOM     93  C   UNL A   1      42.864  22.329  27.105  1.00  0.00    -0.033 A 
ATOM     94  C   UNL A   1      44.052  21.530  25.072  1.00  0.00     0.298 C 
ATOM     95  H   UNL A   1      44.785  23.080  23.981  1.00  0.00     0.347 HD
ATOM     96  H   UNL A   1      43.133  22.793  23.792  1.00  0.00     0.347 HD
ATOM     97  C   UNL A   1      41.836  22.262  28.042  1.00  0.00     0.004 A 
ATOM     98  C   UNL A   1      42.987  21.328  26.115  1.00  0.00     0.010 A 
ATOM     99  C   UNL A   1      40.920  21.211  27.973  1.00  0.00     0.000 A 
ATOM    100  C   UNL A   1      42.074  20.279  26.059  1.00  0.00     0.010 A 
ATOM    101  C   UNL A   1      41.035  20.228  26.985  1.00  0.00     0.001 A 
ENDBRANCH  87  90
ENDBRANCH  85  86
ENDBRANCH  84  85
ENDBRANCH  76  79
ENDBRANCH  68  75
ENDBRANCH  66  68
ENDBRANCH  65  66
ENDBRANCH  64  65
ENDBRANCH   1  64
TORSDOF 20
ENDMDL
