MODEL 1
REMARK VINA RESULT:     -10.4      0.000      0.000
REMARK SMILES CC(C)[C@@](C)(CC(=O)N[C@H]1CCCC1(C)C)C(=O)OCCOCCOC(=O)c1ccc(-c2c3nc(c(-c4c(F)cccc4F)c4ccc([nH]4)c(-c4c(F)cccc4F)c4nc(c(-c5c(F)cccc5F)c5ccc2[nH]5)C=C4)C=C3)cc1
REMARK SMILES IDX 21 1 20 2 19 3 17 4 18 5 4 6 5 7 2 8 1 9 3 10 6 11 7 12 8 13
REMARK SMILES IDX 9 14 10 16 11 17 14 18 12 19 13 20 15 21 16 22 22 23 23 24
REMARK SMILES IDX 24 25 25 26 26 27 27 28 28 29 29 30 81 31 30 32 80 33 31 34
REMARK SMILES IDX 32 35 33 36 74 37 34 38 79 39 73 40 75 41 35 42 78 43 72 44
REMARK SMILES IDX 71 45 36 47 62 48 45 49 61 50 46 51 49 52 60 53 76 54 47 55
REMARK SMILES IDX 48 56 59 58 77 59 50 60 37 61 38 62 43 63 39 64 40 65 42 66
REMARK SMILES IDX 44 67 41 68 63 69 64 70 69 71 65 72 66 73 68 74 70 75 67 76
REMARK SMILES IDX 51 77 52 78 57 79 53 80 54 81 56 82 58 83 55 84
REMARK H PARENT 9 15 75 46 49 57
REMARK Flexibility Score: inf
ROOT
ATOM      1  C   UNL A   1      36.121  21.396  25.492  1.00  0.00     0.202 C 
ENDROOT
BRANCH   1   2
ATOM      2  C   UNL A   1      34.967  20.477  25.079  1.00  0.00     0.261 C 
BRANCH   2   3
ATOM      3  O   UNL A   1      33.864  21.167  24.436  1.00  0.00    -0.463 OA
BRANCH   3   4
ATOM      4  C   UNL A   1      33.103  21.844  25.337  1.00  0.00     0.312 C 
ATOM      5  O   UNL A   1      32.787  21.360  26.423  1.00  0.00    -0.252 OA
BRANCH   4   6
ATOM      6  C   UNL A   1      32.841  23.331  24.998  1.00  0.00     0.076 C 
ATOM      7  C   UNL A   1      33.604  24.095  26.126  1.00  0.00     0.024 C 
BRANCH   6   8
ATOM      8  C   UNL A   1      33.435  23.629  23.615  1.00  0.00     0.000 C 
ATOM      9  C   UNL A   1      32.560  24.304  22.565  1.00  0.00     0.008 C 
ATOM     10  C   UNL A   1      34.725  24.438  23.707  1.00  0.00     0.008 C 
ENDBRANCH   6   8
BRANCH   6  11
ATOM     11  C   UNL A   1      31.385  23.891  25.086  1.00  0.00     0.118 C 
BRANCH  11  12
ATOM     12  C   UNL A   1      30.774  24.729  26.217  1.00  0.00     0.221 C 
ATOM     13  O   UNL A   1      30.169  24.071  27.090  1.00  0.00    -0.275 OA
ATOM     14  N   UNL A   1      30.800  26.031  26.552  1.00  0.00    -0.353 N 
ATOM     15  H   UNL A   1      30.049  26.118  27.183  1.00  0.00     0.163 HD
BRANCH  14  16
ATOM     16  C   UNL A   1      31.361  27.434  26.483  1.00  0.00     0.087 C 
ATOM     17  C   UNL A   1      32.806  27.809  26.889  1.00  0.00     0.025 C 
ATOM     18  C   UNL A   1      31.370  27.934  24.969  1.00  0.00    -0.015 C 
ATOM     19  C   UNL A   1      33.682  27.827  25.625  1.00  0.00     0.003 C 
ATOM     20  C   UNL A   1      32.748  27.445  24.487  1.00  0.00     0.008 C 
ATOM     21  C   UNL A   1      30.261  27.389  24.059  1.00  0.00     0.013 C 
ATOM     22  C   UNL A   1      31.315  29.479  24.869  1.00  0.00     0.013 C 
ENDBRANCH  14  16
ENDBRANCH  11  12
ENDBRANCH   6  11
ENDBRANCH   4   6
ENDBRANCH   3   4
ENDBRANCH   2   3
ENDBRANCH   1   2
BRANCH   1  23
ATOM     23  O   UNL A   1      37.417  21.162  24.938  1.00  0.00    -0.374 OA
BRANCH  23  24
ATOM     24  C   UNL A   1      37.764  19.806  24.684  1.00  0.00     0.202 C 
BRANCH  24  25
ATOM     25  C   UNL A   1      38.968  19.212  25.419  1.00  0.00     0.261 C 
BRANCH  25  26
ATOM     26  O   UNL A   1      39.397  20.030  26.513  1.00  0.00    -0.460 OA
BRANCH  26  27
ATOM     27  C   UNL A   1      40.713  20.323  26.499  1.00  0.00     0.338 C 
ATOM     28  O   UNL A   1      41.618  19.694  25.953  1.00  0.00    -0.246 OA
BRANCH  27  29
ATOM     29  C   UNL A   1      40.920  21.663  27.059  1.00  0.00     0.060 A 
ATOM     30  C   UNL A   1      40.285  22.726  26.404  1.00  0.00     0.016 A 
ATOM     31  C   UNL A   1      41.733  21.886  28.172  1.00  0.00     0.016 A 
ATOM     32  C   UNL A   1      40.494  24.028  26.831  1.00  0.00     0.010 A 
ATOM     33  C   UNL A   1      41.969  23.200  28.583  1.00  0.00     0.010 A 
ATOM     34  C   UNL A   1      41.382  24.272  27.886  1.00  0.00    -0.014 A 
BRANCH  34  35
ATOM     35  C   UNL A   1      41.844  25.660  28.094  1.00  0.00     0.031 A 
ATOM     36  C   UNL A   1      43.178  26.052  27.526  1.00  0.00     0.074 A 
ATOM     37  C   UNL A   1      41.051  26.566  28.689  1.00  0.00     0.049 A 
ATOM     38  N   UNL A   1      43.783  27.210  27.549  1.00  0.00    -0.248 NA
ATOM     39  C   UNL A   1      43.927  24.995  26.826  1.00  0.00     0.031 C 
ATOM     40  C   UNL A   1      39.714  26.302  29.215  1.00  0.00     0.029 A 
ATOM     41  N   UNL A   1      41.259  27.897  28.940  1.00  0.00    -0.354 N 
ATOM     42  C   UNL A   1      44.979  27.021  26.870  1.00  0.00     0.074 A 
ATOM     43  C   UNL A   1      45.032  25.632  26.474  1.00  0.00     0.031 C 
ATOM     44  C   UNL A   1      39.221  27.438  29.738  1.00  0.00     0.029 A 
ATOM     45  C   UNL A   1      40.221  28.497  29.607  1.00  0.00     0.049 A 
ATOM     46  H   UNL A   1      42.075  28.376  28.669  1.00  0.00     0.167 HD
ATOM     47  C   UNL A   1      45.943  27.931  26.593  1.00  0.00     0.037 A 
ATOM     48  C   UNL A   1      40.106  29.755  30.074  1.00  0.00     0.037 A 
ATOM     49  C   UNL A   1      45.883  29.308  27.003  1.00  0.00     0.049 A 
ATOM     50  C   UNL A   1      41.231  30.727  29.829  1.00  0.00     0.074 A 
ATOM     51  C   UNL A   1      46.805  30.314  26.786  1.00  0.00     0.029 A 
ATOM     52  N   UNL A   1      44.837  29.868  27.724  1.00  0.00    -0.354 N 
ATOM     53  N   UNL A   1      42.356  30.544  29.182  1.00  0.00    -0.248 NA
ATOM     54  C   UNL A   1      41.067  32.080  30.378  1.00  0.00     0.031 C 
ATOM     55  C   UNL A   1      46.343  31.472  27.421  1.00  0.00     0.029 A 
ATOM     56  C   UNL A   1      45.105  31.201  27.984  1.00  0.00     0.049 A 
ATOM     57  H   UNL A   1      44.026  29.388  28.010  1.00  0.00     0.167 HD
ATOM     58  C   UNL A   1      43.023  31.762  29.221  1.00  0.00     0.074 A 
ATOM     59  C   UNL A   1      42.167  32.680  29.945  1.00  0.00     0.031 C 
ATOM     60  C   UNL A   1      44.232  32.094  28.705  1.00  0.00     0.037 A 
BRANCH  47  61
ATOM     61  C   UNL A   1      47.152  27.449  25.847  1.00  0.00     0.057 A 
ATOM     62  C   UNL A   1      47.262  27.565  24.455  1.00  0.00     0.134 A 
ATOM     63  C   UNL A   1      48.228  26.870  26.532  1.00  0.00     0.134 A 
ATOM     64  F   UNL A   1      46.258  28.092  23.735  1.00  0.00    -0.206 F 
ATOM     65  C   UNL A   1      48.386  27.103  23.769  1.00  0.00     0.040 A 
ATOM     66  C   UNL A   1      49.369  26.430  25.862  1.00  0.00     0.040 A 
ATOM     67  F   UNL A   1      48.189  26.728  27.866  1.00  0.00    -0.206 F 
ATOM     68  C   UNL A   1      49.449  26.540  24.474  1.00  0.00     0.006 A 
ENDBRANCH  47  61
BRANCH  48  69
ATOM     69  C   UNL A   1      38.895  30.158  30.832  1.00  0.00     0.057 A 
ATOM     70  C   UNL A   1      38.763  29.887  32.198  1.00  0.00     0.134 A 
ATOM     71  C   UNL A   1      37.831  30.816  30.201  1.00  0.00     0.134 A 
ATOM     72  F   UNL A   1      39.736  29.240  32.856  1.00  0.00    -0.206 F 
ATOM     73  C   UNL A   1      37.613  30.241  32.907  1.00  0.00     0.040 A 
ATOM     74  C   UNL A   1      36.688  31.200  30.902  1.00  0.00     0.040 A 
ATOM     75  F   UNL A   1      37.895  31.107  28.894  1.00  0.00    -0.206 F 
ATOM     76  C   UNL A   1      36.573  30.906  32.259  1.00  0.00     0.006 A 
ENDBRANCH  48  69
BRANCH  60  77
ATOM     77  C   UNL A   1      44.684  33.516  28.875  1.00  0.00     0.057 A 
ATOM     78  C   UNL A   1      45.466  33.919  29.963  1.00  0.00     0.134 A 
ATOM     79  C   UNL A   1      44.366  34.482  27.912  1.00  0.00     0.134 A 
ATOM     80  F   UNL A   1      45.797  33.044  30.926  1.00  0.00    -0.206 F 
ATOM     81  C   UNL A   1      45.897  35.240  30.102  1.00  0.00     0.040 A 
ATOM     82  C   UNL A   1      44.815  35.799  28.024  1.00  0.00     0.040 A 
ATOM     83  F   UNL A   1      43.629  34.160  26.838  1.00  0.00    -0.206 F 
ATOM     84  C   UNL A   1      45.578  36.182  29.125  1.00  0.00     0.006 A 
ENDBRANCH  60  77
ENDBRANCH  34  35
ENDBRANCH  27  29
ENDBRANCH  26  27
ENDBRANCH  25  26
ENDBRANCH  24  25
ENDBRANCH  23  24
ENDBRANCH   1  23
TORSDOF 18
ENDMDL
MODEL 2
REMARK VINA RESULT:     -10.1      5.597     10.736
REMARK SMILES CC(C)[C@@](C)(CC(=O)N[C@H]1CCCC1(C)C)C(=O)OCCOCCOC(=O)c1ccc(-c2c3nc(c(-c4c(F)cccc4F)c4ccc([nH]4)c(-c4c(F)cccc4F)c4nc(c(-c5c(F)cccc5F)c5ccc2[nH]5)C=C4)C=C3)cc1
REMARK SMILES IDX 21 1 20 2 19 3 17 4 18 5 4 6 5 7 2 8 1 9 3 10 6 11 7 12 8 13
REMARK SMILES IDX 9 14 10 16 11 17 14 18 12 19 13 20 15 21 16 22 22 23 23 24
REMARK SMILES IDX 24 25 25 26 26 27 27 28 28 29 29 30 81 31 30 32 80 33 31 34
REMARK SMILES IDX 32 35 33 36 74 37 34 38 79 39 73 40 75 41 35 42 78 43 72 44
REMARK SMILES IDX 71 45 36 47 62 48 45 49 61 50 46 51 49 52 60 53 76 54 47 55
REMARK SMILES IDX 48 56 59 58 77 59 50 60 37 61 38 62 43 63 39 64 40 65 42 66
REMARK SMILES IDX 44 67 41 68 63 69 64 70 69 71 65 72 66 73 68 74 70 75 67 76
REMARK SMILES IDX 51 77 52 78 57 79 53 80 54 81 56 82 58 83 55 84
REMARK H PARENT 9 15 75 46 49 57
REMARK Flexibility Score: inf
ROOT
ATOM      1  C   UNL A   1      34.498  32.364  29.236  1.00  0.00     0.202 C 
ENDROOT
BRANCH   1   2
ATOM      2  C   UNL A   1      34.819  31.459  28.042  1.00  0.00     0.261 C 
BRANCH   2   3
ATOM      3  O   UNL A   1      33.721  30.602  27.639  1.00  0.00    -0.463 OA
BRANCH   3   4
ATOM      4  C   UNL A   1      34.163  29.487  26.998  1.00  0.00     0.312 C 
ATOM      5  O   UNL A   1      35.268  28.995  27.227  1.00  0.00    -0.252 OA
BRANCH   4   6
ATOM      6  C   UNL A   1      33.113  28.764  26.123  1.00  0.00     0.076 C 
ATOM      7  C   UNL A   1      33.585  29.072  24.667  1.00  0.00     0.024 C 
BRANCH   6   8
ATOM      8  C   UNL A   1      33.175  27.262  26.428  1.00  0.00     0.000 C 
ATOM      9  C   UNL A   1      31.872  26.492  26.619  1.00  0.00     0.008 C 
ATOM     10  C   UNL A   1      33.995  26.499  25.393  1.00  0.00     0.008 C 
ENDBRANCH   6   8
BRANCH   6  11
ATOM     11  C   UNL A   1      31.628  29.253  26.146  1.00  0.00     0.118 C 
BRANCH  11  12
ATOM     12  C   UNL A   1      31.028  30.449  25.394  1.00  0.00     0.221 C 
ATOM     13  O   UNL A   1      31.340  31.568  25.854  1.00  0.00    -0.275 OA
ATOM     14  N   UNL A   1      30.292  30.594  24.278  1.00  0.00    -0.353 N 
ATOM     15  H   UNL A   1      29.933  31.507  24.361  1.00  0.00     0.163 HD
BRANCH  14  16
ATOM     16  C   UNL A   1      29.718  30.112  22.965  1.00  0.00     0.087 C 
ATOM     17  C   UNL A   1      29.119  28.702  22.748  1.00  0.00     0.025 C 
ATOM     18  C   UNL A   1      28.455  31.002  22.572  1.00  0.00    -0.015 C 
ATOM     19  C   UNL A   1      27.593  28.785  22.926  1.00  0.00     0.003 C 
ATOM     20  C   UNL A   1      27.309  30.240  23.262  1.00  0.00     0.008 C 
ATOM     21  C   UNL A   1      28.477  32.466  23.034  1.00  0.00     0.013 C 
ATOM     22  C   UNL A   1      28.209  31.017  21.043  1.00  0.00     0.013 C 
ENDBRANCH  14  16
ENDBRANCH  11  12
ENDBRANCH   6  11
ENDBRANCH   4   6
ENDBRANCH   3   4
ENDBRANCH   2   3
ENDBRANCH   1   2
BRANCH   1  23
ATOM     23  O   UNL A   1      34.909  33.733  29.189  1.00  0.00    -0.374 OA
BRANCH  23  24
ATOM     24  C   UNL A   1      34.053  34.629  28.493  1.00  0.00     0.202 C 
BRANCH  24  25
ATOM     25  C   UNL A   1      33.139  35.547  29.308  1.00  0.00     0.261 C 
BRANCH  25  26
ATOM     26  O   UNL A   1      32.610  34.898  30.470  1.00  0.00    -0.460 OA
BRANCH  26  27
ATOM     27  C   UNL A   1      32.883  35.530  31.628  1.00  0.00     0.338 C 
ATOM     28  O   UNL A   1      32.216  36.399  32.186  1.00  0.00    -0.246 OA
BRANCH  27  29
ATOM     29  C   UNL A   1      34.017  34.871  32.287  1.00  0.00     0.060 A 
ATOM     30  C   UNL A   1      35.254  35.526  32.220  1.00  0.00     0.016 A 
ATOM     31  C   UNL A   1      33.888  33.638  32.929  1.00  0.00     0.016 A 
ATOM     32  C   UNL A   1      36.384  34.929  32.756  1.00  0.00     0.010 A 
ATOM     33  C   UNL A   1      35.033  33.021  33.440  1.00  0.00     0.010 A 
ATOM     34  C   UNL A   1      36.286  33.649  33.317  1.00  0.00    -0.014 A 
BRANCH  34  35
ATOM     35  C   UNL A   1      37.538  32.905  33.565  1.00  0.00     0.031 A 
ATOM     36  C   UNL A   1      38.277  33.174  34.846  1.00  0.00     0.074 A 
ATOM     37  C   UNL A   1      37.949  31.949  32.717  1.00  0.00     0.049 A 
ATOM     38  N   UNL A   1      39.373  32.630  35.303  1.00  0.00    -0.248 NA
ATOM     39  C   UNL A   1      37.691  34.189  35.738  1.00  0.00     0.031 C 
ATOM     40  C   UNL A   1      37.268  31.567  31.482  1.00  0.00     0.029 A 
ATOM     41  N   UNL A   1      39.039  31.120  32.776  1.00  0.00    -0.354 N 
ATOM     42  C   UNL A   1      39.608  33.234  36.531  1.00  0.00     0.074 A 
ATOM     43  C   UNL A   1      38.560  34.209  36.736  1.00  0.00     0.031 C 
ATOM     44  C   UNL A   1      37.964  30.580  30.891  1.00  0.00     0.029 A 
ATOM     45  C   UNL A   1      39.149  30.284  31.693  1.00  0.00     0.049 A 
ATOM     46  H   UNL A   1      39.680  31.124  33.522  1.00  0.00     0.167 HD
ATOM     47  C   UNL A   1      40.604  32.988  37.413  1.00  0.00     0.037 A 
ATOM     48  C   UNL A   1      40.114  29.398  31.382  1.00  0.00     0.037 A 
ATOM     49  C   UNL A   1      41.647  32.023  37.192  1.00  0.00     0.049 A 
ATOM     50  C   UNL A   1      41.261  29.204  32.339  1.00  0.00     0.074 A 
ATOM     51  C   UNL A   1      42.711  31.698  38.013  1.00  0.00     0.029 A 
ATOM     52  N   UNL A   1      41.756  31.231  36.057  1.00  0.00    -0.354 N 
ATOM     53  N   UNL A   1      41.474  29.774  33.501  1.00  0.00    -0.248 NA
ATOM     54  C   UNL A   1      42.298  28.243  31.943  1.00  0.00     0.031 C 
ATOM     55  C   UNL A   1      43.494  30.746  37.351  1.00  0.00     0.029 A 
ATOM     56  C   UNL A   1      42.886  30.436  36.144  1.00  0.00     0.049 A 
ATOM     57  H   UNL A   1      41.124  31.235  35.302  1.00  0.00     0.167 HD
ATOM     58  C   UNL A   1      42.653  29.223  33.987  1.00  0.00     0.074 A 
ATOM     59  C   UNL A   1      43.100  28.262  32.999  1.00  0.00     0.031 C 
ATOM     60  C   UNL A   1      43.307  29.484  35.146  1.00  0.00     0.037 A 
BRANCH  47  61
ATOM     61  C   UNL A   1      40.627  33.804  38.672  1.00  0.00     0.057 A 
ATOM     62  C   UNL A   1      39.874  33.452  39.800  1.00  0.00     0.134 A 
ATOM     63  C   UNL A   1      41.424  34.952  38.762  1.00  0.00     0.134 A 
ATOM     64  F   UNL A   1      39.073  32.375  39.775  1.00  0.00    -0.206 F 
ATOM     65  C   UNL A   1      39.894  34.225  40.962  1.00  0.00     0.040 A 
ATOM     66  C   UNL A   1      41.474  35.718  39.928  1.00  0.00     0.040 A 
ATOM     67  F   UNL A   1      42.170  35.347  37.719  1.00  0.00    -0.206 F 
ATOM     68  C   UNL A   1      40.703  35.358  41.031  1.00  0.00     0.006 A 
ENDBRANCH  47  61
BRANCH  48  69
ATOM     69  C   UNL A   1      40.047  28.645  30.104  1.00  0.00     0.057 A 
ATOM     70  C   UNL A   1      40.684  29.108  28.947  1.00  0.00     0.134 A 
ATOM     71  C   UNL A   1      39.328  27.446  30.006  1.00  0.00     0.134 A 
ATOM     72  F   UNL A   1      41.370  30.261  28.968  1.00  0.00    -0.206 F 
ATOM     73  C   UNL A   1      40.599  28.415  27.738  1.00  0.00     0.040 A 
ATOM     74  C   UNL A   1      39.257  26.730  28.812  1.00  0.00     0.040 A 
ATOM     75  F   UNL A   1      38.695  26.948  31.078  1.00  0.00    -0.206 F 
ATOM     76  C   UNL A   1      39.887  27.218  27.670  1.00  0.00     0.006 A 
ENDBRANCH  48  69
BRANCH  60  77
ATOM     77  C   UNL A   1      44.554  28.697  35.422  1.00  0.00     0.057 A 
ATOM     78  C   UNL A   1      45.811  29.117  34.970  1.00  0.00     0.134 A 
ATOM     79  C   UNL A   1      44.501  27.526  36.189  1.00  0.00     0.134 A 
ATOM     80  F   UNL A   1      45.930  30.225  34.222  1.00  0.00    -0.206 F 
ATOM     81  C   UNL A   1      46.968  28.387  35.249  1.00  0.00     0.040 A 
ATOM     82  C   UNL A   1      45.653  26.803  36.499  1.00  0.00     0.040 A 
ATOM     83  F   UNL A   1      43.330  27.073  36.663  1.00  0.00    -0.206 F 
ATOM     84  C   UNL A   1      46.891  27.230  36.023  1.00  0.00     0.006 A 
ENDBRANCH  60  77
ENDBRANCH  34  35
ENDBRANCH  27  29
ENDBRANCH  26  27
ENDBRANCH  25  26
ENDBRANCH  24  25
ENDBRANCH  23  24
ENDBRANCH   1  23
TORSDOF 18
ENDMDL
MODEL 3
REMARK VINA RESULT:     -10.1      4.056      7.719
REMARK SMILES CC(C)[C@@](C)(CC(=O)N[C@H]1CCCC1(C)C)C(=O)OCCOCCOC(=O)c1ccc(-c2c3nc(c(-c4c(F)cccc4F)c4ccc([nH]4)c(-c4c(F)cccc4F)c4nc(c(-c5c(F)cccc5F)c5ccc2[nH]5)C=C4)C=C3)cc1
REMARK SMILES IDX 21 1 20 2 19 3 17 4 18 5 4 6 5 7 2 8 1 9 3 10 6 11 7 12 8 13
REMARK SMILES IDX 9 14 10 16 11 17 14 18 12 19 13 20 15 21 16 22 22 23 23 24
REMARK SMILES IDX 24 25 25 26 26 27 27 28 28 29 29 30 81 31 30 32 80 33 31 34
REMARK SMILES IDX 32 35 33 36 74 37 34 38 79 39 73 40 75 41 35 42 78 43 72 44
REMARK SMILES IDX 71 45 36 47 62 48 45 49 61 50 46 51 49 52 60 53 76 54 47 55
REMARK SMILES IDX 48 56 59 58 77 59 50 60 37 61 38 62 43 63 39 64 40 65 42 66
REMARK SMILES IDX 44 67 41 68 63 69 64 70 69 71 65 72 66 73 68 74 70 75 67 76
REMARK SMILES IDX 51 77 52 78 57 79 53 80 54 81 56 82 58 83 55 84
REMARK H PARENT 9 15 75 46 49 57
REMARK Flexibility Score: inf
ROOT
ATOM      1  C   UNL A   1      37.464  21.347  24.764  1.00  0.00     0.202 C 
ENDROOT
BRANCH   1   2
ATOM      2  C   UNL A   1      36.183  20.576  25.097  1.00  0.00     0.261 C 
BRANCH   2   3
ATOM      3  O   UNL A   1      35.314  21.253  26.041  1.00  0.00    -0.463 OA
BRANCH   3   4
ATOM      4  C   UNL A   1      34.015  21.221  25.639  1.00  0.00     0.312 C 
ATOM      5  O   UNL A   1      33.298  20.237  25.816  1.00  0.00    -0.252 OA
BRANCH   4   6
ATOM      6  C   UNL A   1      33.443  22.569  25.139  1.00  0.00     0.076 C 
ATOM      7  C   UNL A   1      34.276  23.627  25.929  1.00  0.00     0.024 C 
BRANCH   6   8
ATOM      8  C   UNL A   1      33.687  22.673  23.628  1.00  0.00     0.000 C 
ATOM      9  C   UNL A   1      32.516  23.011  22.712  1.00  0.00     0.008 C 
ATOM     10  C   UNL A   1      34.811  23.650  23.295  1.00  0.00     0.008 C 
ENDBRANCH   6   8
BRANCH   6  11
ATOM     11  C   UNL A   1      31.960  22.940  25.468  1.00  0.00     0.118 C 
BRANCH  11  12
ATOM     12  C   UNL A   1      31.457  23.889  26.564  1.00  0.00     0.221 C 
ATOM     13  O   UNL A   1      31.114  23.328  27.627  1.00  0.00    -0.275 OA
ATOM     14  N   UNL A   1      31.367  25.224  26.694  1.00  0.00    -0.353 N 
ATOM     15  H   UNL A   1      30.738  25.338  27.443  1.00  0.00     0.163 HD
BRANCH  14  16
ATOM     16  C   UNL A   1      31.712  26.646  26.311  1.00  0.00     0.087 C 
ATOM     17  C   UNL A   1      33.154  27.200  26.248  1.00  0.00     0.025 C 
ATOM     18  C   UNL A   1      31.254  26.922  24.809  1.00  0.00    -0.015 C 
ATOM     19  C   UNL A   1      33.652  27.112  24.795  1.00  0.00     0.003 C 
ATOM     20  C   UNL A   1      32.502  26.490  24.017  1.00  0.00     0.008 C 
ATOM     21  C   UNL A   1      30.018  26.157  24.315  1.00  0.00     0.013 C 
ATOM     22  C   UNL A   1      30.984  28.426  24.552  1.00  0.00     0.013 C 
ENDBRANCH  14  16
ENDBRANCH  11  12
ENDBRANCH   6  11
ENDBRANCH   4   6
ENDBRANCH   3   4
ENDBRANCH   2   3
ENDBRANCH   1   2
BRANCH   1  23
ATOM     23  O   UNL A   1      38.687  20.947  25.386  1.00  0.00    -0.374 OA
BRANCH  23  24
ATOM     24  C   UNL A   1      39.194  21.806  26.400  1.00  0.00     0.202 C 
BRANCH  24  25
ATOM     25  C   UNL A   1      40.570  22.443  26.194  1.00  0.00     0.261 C 
BRANCH  25  26
ATOM     26  O   UNL A   1      40.519  23.874  26.222  1.00  0.00    -0.460 OA
BRANCH  26  27
ATOM     27  C   UNL A   1      41.613  24.455  26.751  1.00  0.00     0.338 C 
ATOM     28  O   UNL A   1      42.790  24.243  26.464  1.00  0.00    -0.246 OA
BRANCH  27  29
ATOM     29  C   UNL A   1      41.207  25.584  27.596  1.00  0.00     0.060 A 
ATOM     30  C   UNL A   1      42.075  26.682  27.645  1.00  0.00     0.016 A 
ATOM     31  C   UNL A   1      40.027  25.564  28.344  1.00  0.00     0.016 A 
ATOM     32  C   UNL A   1      41.793  27.752  28.479  1.00  0.00     0.010 A 
ATOM     33  C   UNL A   1      39.759  26.628  29.208  1.00  0.00     0.010 A 
ATOM     34  C   UNL A   1      40.663  27.702  29.305  1.00  0.00    -0.014 A 
BRANCH  34  35
ATOM     35  C   UNL A   1      40.571  28.678  30.411  1.00  0.00     0.031 A 
ATOM     36  C   UNL A   1      39.523  29.751  30.320  1.00  0.00     0.074 A 
ATOM     37  C   UNL A   1      41.336  28.548  31.507  1.00  0.00     0.049 A 
ATOM     38  N   UNL A   1      39.227  30.697  31.171  1.00  0.00    -0.248 NA
ATOM     39  C   UNL A   1      38.689  29.749  29.106  1.00  0.00     0.031 C 
ATOM     40  C   UNL A   1      42.335  27.503  31.720  1.00  0.00     0.029 A 
ATOM     41  N   UNL A   1      41.382  29.302  32.650  1.00  0.00    -0.354 N 
ATOM     42  C   UNL A   1      38.176  31.400  30.598  1.00  0.00     0.074 A 
ATOM     43  C   UNL A   1      37.906  30.795  29.313  1.00  0.00     0.031 C 
ATOM     44  C   UNL A   1      42.905  27.688  32.924  1.00  0.00     0.029 A 
ATOM     45  C   UNL A   1      42.330  28.878  33.548  1.00  0.00     0.049 A 
ATOM     46  H   UNL A   1      40.792  30.073  32.812  1.00  0.00     0.167 HD
ATOM     47  C   UNL A   1      37.491  32.451  31.105  1.00  0.00     0.037 A 
ATOM     48  C   UNL A   1      42.699  29.409  34.729  1.00  0.00     0.037 A 
ATOM     49  C   UNL A   1      37.778  33.051  32.380  1.00  0.00     0.049 A 
ATOM     50  C   UNL A   1      41.980  30.632  35.233  1.00  0.00     0.074 A 
ATOM     51  C   UNL A   1      37.155  34.124  32.989  1.00  0.00     0.029 A 
ATOM     52  N   UNL A   1      38.782  32.627  33.240  1.00  0.00    -0.354 N 
ATOM     53  N   UNL A   1      40.983  31.289  34.690  1.00  0.00    -0.248 NA
ATOM     54  C   UNL A   1      42.435  31.186  36.515  1.00  0.00     0.031 C 
ATOM     55  C   UNL A   1      37.816  34.384  34.195  1.00  0.00     0.029 A 
ATOM     56  C   UNL A   1      38.813  33.435  34.363  1.00  0.00     0.049 A 
ATOM     57  H   UNL A   1      39.384  31.865  33.075  1.00  0.00     0.167 HD
ATOM     58  C   UNL A   1      40.674  32.316  35.573  1.00  0.00     0.074 A 
ATOM     59  C   UNL A   1      41.581  32.184  36.695  1.00  0.00     0.031 C 
ATOM     60  C   UNL A   1      39.726  33.279  35.469  1.00  0.00     0.037 A 
BRANCH  47  61
ATOM     61  C   UNL A   1      36.397  33.034  30.260  1.00  0.00     0.057 A 
ATOM     62  C   UNL A   1      36.666  33.871  29.169  1.00  0.00     0.134 A 
ATOM     63  C   UNL A   1      35.054  32.745  30.534  1.00  0.00     0.134 A 
ATOM     64  F   UNL A   1      37.931  34.205  28.863  1.00  0.00    -0.206 F 
ATOM     65  C   UNL A   1      35.641  34.417  28.396  1.00  0.00     0.040 A 
ATOM     66  C   UNL A   1      34.021  33.262  29.752  1.00  0.00     0.040 A 
ATOM     67  F   UNL A   1      34.726  31.951  31.565  1.00  0.00    -0.206 F 
ATOM     68  C   UNL A   1      34.312  34.107  28.682  1.00  0.00     0.006 A 
ENDBRANCH  47  61
BRANCH  48  69
ATOM     69  C   UNL A   1      43.811  28.800  35.501  1.00  0.00     0.057 A 
ATOM     70  C   UNL A   1      45.143  29.172  35.284  1.00  0.00     0.134 A 
ATOM     71  C   UNL A   1      43.567  27.818  36.470  1.00  0.00     0.134 A 
ATOM     72  F   UNL A   1      45.445  30.090  34.355  1.00  0.00    -0.206 F 
ATOM     73  C   UNL A   1      46.192  28.580  35.990  1.00  0.00     0.040 A 
ATOM     74  C   UNL A   1      44.603  27.238  37.202  1.00  0.00     0.040 A 
ATOM     75  F   UNL A   1      42.314  27.417  36.727  1.00  0.00    -0.206 F 
ATOM     76  C   UNL A   1      45.922  27.613  36.958  1.00  0.00     0.006 A 
ENDBRANCH  48  69
BRANCH  60  77
ATOM     77  C   UNL A   1      39.600  34.244  36.612  1.00  0.00     0.057 A 
ATOM     78  C   UNL A   1      40.208  35.505  36.589  1.00  0.00     0.134 A 
ATOM     79  C   UNL A   1      38.822  33.922  37.731  1.00  0.00     0.134 A 
ATOM     80  F   UNL A   1      40.976  35.871  35.550  1.00  0.00    -0.206 F 
ATOM     81  C   UNL A   1      40.069  36.401  37.650  1.00  0.00     0.040 A 
ATOM     82  C   UNL A   1      38.650  34.820  38.785  1.00  0.00     0.040 A 
ATOM     83  F   UNL A   1      38.201  32.734  37.813  1.00  0.00    -0.206 F 
ATOM     84  C   UNL A   1      39.280  36.063  38.748  1.00  0.00     0.006 A 
ENDBRANCH  60  77
ENDBRANCH  34  35
ENDBRANCH  27  29
ENDBRANCH  26  27
ENDBRANCH  25  26
ENDBRANCH  24  25
ENDBRANCH  23  24
ENDBRANCH   1  23
TORSDOF 18
ENDMDL
