MODEL 1
REMARK VINA RESULT:     -11.9      0.000      0.000
REMARK SMILES Cc1cc([N+](=O)[O-])ccc1-c1ccc(/C=C/C(=O)Nc2ccc(O)c(C(=O)OCCOCCOC(=O)c3ccc(-c4c5nc(c(-c6c(F)cccc6F)c6ccc([nH]6)c(-c6c(F)cccc6F)c6nc(c(-c7c(F)cccc7F)c7ccc4[nH]7)C=C6)C=C5)cc3)c2)o1
REMARK SMILES IDX 29 1 28 2 26 3 27 4 25 5 20 6 21 7 91 8 22 9 23 10 19 11
REMARK SMILES IDX 17 12 18 13 16 15 15 16 14 17 11 18 12 19 92 20 13 21 10 22
REMARK SMILES IDX 1 23 2 24 3 25 4 26 9 27 8 28 5 29 6 30 7 31 24 32 30 34
REMARK SMILES IDX 31 35 32 36 33 37 34 38 35 39 36 40 37 41 38 42 90 43 39 44
REMARK SMILES IDX 89 45 40 46 41 47 42 48 83 49 43 50 88 51 82 52 84 53 44 54
REMARK SMILES IDX 87 55 81 56 80 57 45 59 71 60 54 61 70 62 55 63 58 64 69 65
REMARK SMILES IDX 85 66 56 67 57 68 68 70 86 71 59 72 46 73 47 74 52 75 48 76
REMARK SMILES IDX 49 77 51 78 53 79 50 80 72 81 73 82 78 83 74 84 75 85 77 86
REMARK SMILES IDX 79 87 76 88 60 89 61 90 66 91 62 92 63 93 65 94 67 95 64 96
REMARK H PARENT 19 14 24 33 84 58 58 69
REMARK Flexibility Score: inf
ROOT
ATOM      1  C   UNL A   1      33.759  28.244  22.457  1.00  0.00     0.261 C 
ENDROOT
BRANCH   1   2
ATOM      2  O   UNL A   1      33.301  27.014  21.861  1.00  0.00    -0.460 OA
BRANCH   2   3
ATOM      3  C   UNL A   1      32.008  26.663  22.111  1.00  0.00     0.342 C 
ATOM      4  O   UNL A   1      31.020  27.343  21.949  1.00  0.00    -0.246 OA
BRANCH   3   5
ATOM      5  C   UNL A   1      31.973  25.247  22.545  1.00  0.00     0.103 A 
ATOM      6  C   UNL A   1      31.423  23.693  24.298  1.00  0.00     0.042 A 
ATOM      7  C   UNL A   1      31.908  22.637  23.520  1.00  0.00     0.030 A 
ATOM      8  C   UNL A   1      31.363  24.984  23.779  1.00  0.00     0.045 A 
ATOM      9  C   UNL A   1      32.441  22.886  22.260  1.00  0.00     0.049 A 
ATOM     10  C   UNL A   1      32.521  24.192  21.798  1.00  0.00     0.130 A 
BRANCH   6  11
ATOM     11  N   UNL A   1      31.189  23.528  25.671  1.00  0.00    -0.322 N 
ATOM     12  C   UNL A   1      32.157  23.402  26.647  1.00  0.00     0.248 C 
ATOM     13  O   UNL A   1      31.854  23.127  27.804  1.00  0.00    -0.270 OA
ATOM     14  H   UNL A   1      30.250  23.500  25.966  1.00  0.00     0.170 HD
BRANCH  12  15
ATOM     15  C   UNL A   1      33.583  23.650  26.287  1.00  0.00     0.075 C 
ATOM     16  C   UNL A   1      34.439  22.626  26.140  1.00  0.00     0.053 C 
BRANCH  16  17
ATOM     17  C   UNL A   1      35.834  22.826  26.008  1.00  0.00     0.127 A 
ATOM     18  C   UNL A   1      37.997  22.391  25.900  1.00  0.00     0.135 A 
ATOM     19  C   UNL A   1      37.895  23.761  25.889  1.00  0.00     0.051 A 
ATOM     20  O   UNL A   1      36.763  21.820  25.900  1.00  0.00    -0.457 OA
ATOM     21  C   UNL A   1      36.517  24.039  25.992  1.00  0.00     0.051 A 
BRANCH  18  22
ATOM     22  C   UNL A   1      39.119  21.480  25.996  1.00  0.00     0.021 A 
ATOM     23  C   UNL A   1      37.765  19.573  24.929  1.00  0.00     0.045 C 
ATOM     24  C   UNL A   1      39.011  20.140  25.559  1.00  0.00    -0.033 A 
ATOM     25  C   UNL A   1      40.109  19.279  25.724  1.00  0.00     0.089 A 
ATOM     26  C   UNL A   1      41.301  19.753  26.288  1.00  0.00     0.269 A 
ATOM     27  C   UNL A   1      40.327  21.944  26.540  1.00  0.00     0.019 A 
ATOM     28  C   UNL A   1      41.418  21.087  26.690  1.00  0.00     0.086 A 
BRANCH  26  29
ATOM     29  N   UNL A   1      42.434  18.836  26.462  1.00  0.00     0.062 N 
ATOM     30  O   UNL A   1      43.008  18.427  25.442  1.00  0.00    -0.258 OA
ATOM     31  O   UNL A   1      42.746  18.519  27.618  1.00  0.00    -0.258 OA
ENDBRANCH  26  29
ENDBRANCH  18  22
ENDBRANCH  16  17
ENDBRANCH  12  15
ENDBRANCH   6  11
BRANCH  10  32
ATOM     32  O   UNL A   1      33.205  24.345  20.622  1.00  0.00    -0.507 OA
ATOM     33  H   UNL A   1      33.657  25.146  20.444  1.00  0.00     0.293 HD
ENDBRANCH  10  32
ENDBRANCH   3   5
ENDBRANCH   2   3
ENDBRANCH   1   2
BRANCH   1  34
ATOM     34  C   UNL A   1      33.663  28.220  23.967  1.00  0.00     0.202 C 
BRANCH  34  35
ATOM     35  O   UNL A   1      33.290  29.530  24.366  1.00  0.00    -0.374 OA
BRANCH  35  36
ATOM     36  C   UNL A   1      32.240  29.637  25.309  1.00  0.00     0.202 C 
BRANCH  36  37
ATOM     37  C   UNL A   1      32.625  30.472  26.535  1.00  0.00     0.261 C 
BRANCH  37  38
ATOM     38  O   UNL A   1      34.054  30.422  26.742  1.00  0.00    -0.460 OA
BRANCH  38  39
ATOM     39  C   UNL A   1      34.510  29.414  27.538  1.00  0.00     0.338 C 
ATOM     40  O   UNL A   1      33.834  28.495  27.970  1.00  0.00    -0.246 OA
BRANCH  39  41
ATOM     41  C   UNL A   1      35.874  29.748  28.049  1.00  0.00     0.060 A 
ATOM     42  C   UNL A   1      36.948  29.918  27.152  1.00  0.00     0.016 A 
ATOM     43  C   UNL A   1      36.131  29.534  29.397  1.00  0.00     0.016 A 
ATOM     44  C   UNL A   1      38.271  29.697  27.578  1.00  0.00     0.010 A 
ATOM     45  C   UNL A   1      37.408  29.177  29.768  1.00  0.00     0.010 A 
ATOM     46  C   UNL A   1      38.491  29.232  28.870  1.00  0.00    -0.014 A 
BRANCH  46  47
ATOM     47  C   UNL A   1      39.742  28.719  29.449  1.00  0.00     0.031 A 
ATOM     48  C   UNL A   1      40.188  27.371  28.997  1.00  0.00     0.074 A 
ATOM     49  C   UNL A   1      40.671  29.562  29.975  1.00  0.00     0.049 A 
ATOM     50  N   UNL A   1      41.326  26.852  29.294  1.00  0.00    -0.248 NA
ATOM     51  C   UNL A   1      39.370  26.474  28.177  1.00  0.00     0.031 C 
ATOM     52  C   UNL A   1      42.126  29.464  29.813  1.00  0.00     0.029 A 
ATOM     53  N   UNL A   1      40.531  30.713  30.764  1.00  0.00    -0.354 N 
ATOM     54  C   UNL A   1      41.543  25.799  28.441  1.00  0.00     0.074 A 
ATOM     55  C   UNL A   1      40.250  25.511  27.877  1.00  0.00     0.031 C 
ATOM     56  C   UNL A   1      42.739  30.310  30.653  1.00  0.00     0.029 A 
ATOM     57  C   UNL A   1      41.719  30.840  31.528  1.00  0.00     0.049 A 
ATOM     58  H   UNL A   1      39.755  31.318  30.784  1.00  0.00     0.167 HD
ATOM     59  C   UNL A   1      42.828  25.389  28.246  1.00  0.00     0.037 A 
ATOM     60  C   UNL A   1      41.701  30.793  32.891  1.00  0.00     0.037 A 
ATOM     61  C   UNL A   1      43.738  26.072  29.174  1.00  0.00     0.049 A 
ATOM     62  C   UNL A   1      42.494  29.627  33.429  1.00  0.00     0.074 A 
ATOM     63  C   UNL A   1      44.716  27.045  29.079  1.00  0.00     0.029 A 
ATOM     64  N   UNL A   1      43.506  25.904  30.524  1.00  0.00    -0.354 N 
ATOM     65  N   UNL A   1      43.169  28.817  32.662  1.00  0.00    -0.248 NA
ATOM     66  C   UNL A   1      42.536  29.210  34.828  1.00  0.00     0.031 C 
ATOM     67  C   UNL A   1      45.045  27.461  30.411  1.00  0.00     0.029 A 
ATOM     68  C   UNL A   1      44.298  26.712  31.305  1.00  0.00     0.049 A 
ATOM     69  H   UNL A   1      42.845  25.273  30.889  1.00  0.00     0.167 HD
ATOM     70  C   UNL A   1      43.574  27.729  33.370  1.00  0.00     0.074 A 
ATOM     71  C   UNL A   1      43.189  28.036  34.737  1.00  0.00     0.031 C 
ATOM     72  C   UNL A   1      44.127  26.644  32.753  1.00  0.00     0.037 A 
BRANCH  59  73
ATOM     73  C   UNL A   1      43.333  24.437  27.187  1.00  0.00     0.057 A 
ATOM     74  C   UNL A   1      44.217  23.401  27.553  1.00  0.00     0.134 A 
ATOM     75  C   UNL A   1      43.074  24.511  25.805  1.00  0.00     0.134 A 
ATOM     76  F   UNL A   1      44.551  23.183  28.834  1.00  0.00    -0.206 F 
ATOM     77  C   UNL A   1      44.811  22.535  26.627  1.00  0.00     0.040 A 
ATOM     78  C   UNL A   1      43.626  23.619  24.873  1.00  0.00     0.040 A 
ATOM     79  F   UNL A   1      42.314  25.467  25.265  1.00  0.00    -0.206 F 
ATOM     80  C   UNL A   1      44.512  22.637  25.279  1.00  0.00     0.006 A 
ENDBRANCH  59  73
BRANCH  60  81
ATOM     81  C   UNL A   1      40.425  31.358  33.419  1.00  0.00     0.057 A 
ATOM     82  C   UNL A   1      39.458  30.427  33.851  1.00  0.00     0.134 A 
ATOM     83  C   UNL A   1      40.442  32.603  34.059  1.00  0.00     0.134 A 
ATOM     84  F   UNL A   1      39.380  29.218  33.269  1.00  0.00    -0.206 F 
ATOM     85  C   UNL A   1      38.698  30.641  35.004  1.00  0.00     0.040 A 
ATOM     86  C   UNL A   1      39.684  32.826  35.216  1.00  0.00     0.040 A 
ATOM     87  F   UNL A   1      41.332  33.539  33.699  1.00  0.00    -0.206 F 
ATOM     88  C   UNL A   1      38.857  31.823  35.723  1.00  0.00     0.006 A 
ENDBRANCH  60  81
BRANCH  72  89
ATOM     89  C   UNL A   1      44.492  25.389  33.491  1.00  0.00     0.057 A 
ATOM     90  C   UNL A   1      45.776  24.838  33.421  1.00  0.00     0.134 A 
ATOM     91  C   UNL A   1      43.545  24.641  34.222  1.00  0.00     0.134 A 
ATOM     92  F   UNL A   1      46.738  25.424  32.692  1.00  0.00    -0.206 F 
ATOM     93  C   UNL A   1      46.112  23.655  34.087  1.00  0.00     0.040 A 
ATOM     94  C   UNL A   1      43.851  23.426  34.833  1.00  0.00     0.040 A 
ATOM     95  F   UNL A   1      42.288  25.067  34.410  1.00  0.00    -0.206 F 
ATOM     96  C   UNL A   1      45.147  22.939  34.786  1.00  0.00     0.006 A 
ENDBRANCH  72  89
ENDBRANCH  46  47
ENDBRANCH  39  41
ENDBRANCH  38  39
ENDBRANCH  37  38
ENDBRANCH  36  37
ENDBRANCH  35  36
ENDBRANCH  34  35
ENDBRANCH   1  34
TORSDOF 20
ENDMDL
MODEL 2
REMARK VINA RESULT:     -11.9      2.251      5.852
REMARK SMILES Cc1cc([N+](=O)[O-])ccc1-c1ccc(/C=C/C(=O)Nc2ccc(O)c(C(=O)OCCOCCOC(=O)c3ccc(-c4c5nc(c(-c6c(F)cccc6F)c6ccc([nH]6)c(-c6c(F)cccc6F)c6nc(c(-c7c(F)cccc7F)c7ccc4[nH]7)C=C6)C=C5)cc3)c2)o1
REMARK SMILES IDX 29 1 28 2 26 3 27 4 25 5 20 6 21 7 91 8 22 9 23 10 19 11
REMARK SMILES IDX 17 12 18 13 16 15 15 16 14 17 11 18 12 19 92 20 13 21 10 22
REMARK SMILES IDX 1 23 2 24 3 25 4 26 9 27 8 28 5 29 6 30 7 31 24 32 30 34
REMARK SMILES IDX 31 35 32 36 33 37 34 38 35 39 36 40 37 41 38 42 90 43 39 44
REMARK SMILES IDX 89 45 40 46 41 47 42 48 83 49 43 50 88 51 82 52 84 53 44 54
REMARK SMILES IDX 87 55 81 56 80 57 45 59 71 60 54 61 70 62 55 63 58 64 69 65
REMARK SMILES IDX 85 66 56 67 57 68 68 70 86 71 59 72 46 73 47 74 52 75 48 76
REMARK SMILES IDX 49 77 51 78 53 79 50 80 72 81 73 82 78 83 74 84 75 85 77 86
REMARK SMILES IDX 79 87 76 88 60 89 61 90 66 91 62 92 63 93 65 94 67 95 64 96
REMARK H PARENT 19 14 24 33 84 58 58 69
REMARK Flexibility Score: inf
ROOT
ATOM      1  C   UNL A   1      31.052  26.503  26.593  1.00  0.00     0.261 C 
ENDROOT
BRANCH   1   2
ATOM      2  O   UNL A   1      31.890  25.356  26.836  1.00  0.00    -0.460 OA
BRANCH   2   3
ATOM      3  C   UNL A   1      31.265  24.145  26.877  1.00  0.00     0.342 C 
ATOM      4  O   UNL A   1      30.082  23.936  27.026  1.00  0.00    -0.246 OA
BRANCH   3   5
ATOM      5  C   UNL A   1      32.265  23.084  26.618  1.00  0.00     0.103 A 
ATOM      6  C   UNL A   1      34.595  22.482  26.572  1.00  0.00     0.042 A 
ATOM      7  C   UNL A   1      34.261  21.206  26.107  1.00  0.00     0.030 A 
ATOM      8  C   UNL A   1      33.599  23.390  26.921  1.00  0.00     0.045 A 
ATOM      9  C   UNL A   1      32.930  20.872  25.882  1.00  0.00     0.049 A 
ATOM     10  C   UNL A   1      31.943  21.824  26.086  1.00  0.00     0.130 A 
BRANCH   6  11
ATOM     11  N   UNL A   1      35.913  22.954  26.496  1.00  0.00    -0.322 N 
ATOM     12  C   UNL A   1      36.464  23.649  25.438  1.00  0.00     0.248 C 
ATOM     13  O   UNL A   1      37.665  23.903  25.406  1.00  0.00    -0.270 OA
ATOM     14  H   UNL A   1      36.500  22.773  27.266  1.00  0.00     0.170 HD
BRANCH  12  15
ATOM     15  C   UNL A   1      35.570  24.133  24.347  1.00  0.00     0.075 C 
ATOM     16  C   UNL A   1      34.696  25.127  24.569  1.00  0.00     0.053 C 
BRANCH  16  17
ATOM     17  C   UNL A   1      33.693  25.471  23.631  1.00  0.00     0.127 A 
ATOM     18  C   UNL A   1      31.995  26.528  22.694  1.00  0.00     0.135 A 
ATOM     19  C   UNL A   1      32.241  25.440  21.891  1.00  0.00     0.051 A 
ATOM     20  O   UNL A   1      32.907  26.594  23.701  1.00  0.00    -0.457 OA
ATOM     21  C   UNL A   1      33.302  24.747  22.508  1.00  0.00     0.051 A 
BRANCH  18  22
ATOM     22  C   UNL A   1      30.945  27.524  22.721  1.00  0.00     0.021 A 
ATOM     23  C   UNL A   1      29.298  25.876  23.806  1.00  0.00     0.045 C 
ATOM     24  C   UNL A   1      29.660  27.219  23.224  1.00  0.00    -0.033 A 
ATOM     25  C   UNL A   1      28.658  28.202  23.179  1.00  0.00     0.089 A 
ATOM     26  C   UNL A   1      28.939  29.476  22.665  1.00  0.00     0.269 A 
ATOM     27  C   UNL A   1      31.216  28.811  22.228  1.00  0.00     0.019 A 
ATOM     28  C   UNL A   1      30.219  29.788  22.197  1.00  0.00     0.086 A 
BRANCH  26  29
ATOM     29  N   UNL A   1      27.877  30.487  22.615  1.00  0.00     0.062 N 
ATOM     30  O   UNL A   1      27.168  30.629  23.622  1.00  0.00    -0.258 OA
ATOM     31  O   UNL A   1      27.747  31.135  21.568  1.00  0.00    -0.258 OA
ENDBRANCH  26  29
ENDBRANCH  18  22
ENDBRANCH  16  17
ENDBRANCH  12  15
ENDBRANCH   6  11
BRANCH  10  32
ATOM     32  O   UNL A   1      30.689  21.449  25.685  1.00  0.00    -0.507 OA
ATOM     33  H   UNL A   1      30.174  20.882  26.226  1.00  0.00     0.293 HD
ENDBRANCH  10  32
ENDBRANCH   3   5
ENDBRANCH   2   3
ENDBRANCH   1   2
BRANCH   1  34
ATOM     34  C   UNL A   1      31.737  27.801  26.963  1.00  0.00     0.202 C 
BRANCH  34  35
ATOM     35  O   UNL A   1      31.547  28.681  25.866  1.00  0.00    -0.374 OA
BRANCH  35  36
ATOM     36  C   UNL A   1      31.761  30.060  26.106  1.00  0.00     0.202 C 
BRANCH  36  37
ATOM     37  C   UNL A   1      32.685  30.318  27.301  1.00  0.00     0.261 C 
BRANCH  37  38
ATOM     38  O   UNL A   1      33.958  30.827  26.845  1.00  0.00    -0.460 OA
BRANCH  38  39
ATOM     39  C   UNL A   1      34.794  31.305  27.810  1.00  0.00     0.338 C 
ATOM     40  O   UNL A   1      34.904  32.477  28.130  1.00  0.00    -0.246 OA
BRANCH  39  41
ATOM     41  C   UNL A   1      35.765  30.243  28.213  1.00  0.00     0.060 A 
ATOM     42  C   UNL A   1      35.931  29.909  29.572  1.00  0.00     0.016 A 
ATOM     43  C   UNL A   1      36.728  29.863  27.288  1.00  0.00     0.016 A 
ATOM     44  C   UNL A   1      37.142  29.354  30.024  1.00  0.00     0.010 A 
ATOM     45  C   UNL A   1      37.958  29.460  27.757  1.00  0.00     0.010 A 
ATOM     46  C   UNL A   1      38.194  29.217  29.124  1.00  0.00    -0.014 A 
BRANCH  46  47
ATOM     47  C   UNL A   1      39.598  28.886  29.414  1.00  0.00     0.031 A 
ATOM     48  C   UNL A   1      40.041  27.500  29.095  1.00  0.00     0.074 A 
ATOM     49  C   UNL A   1      40.544  29.858  29.509  1.00  0.00     0.049 A 
ATOM     50  N   UNL A   1      41.262  27.103  29.150  1.00  0.00    -0.248 NA
ATOM     51  C   UNL A   1      39.130  26.422  28.701  1.00  0.00     0.031 C 
ATOM     52  C   UNL A   1      41.908  29.802  28.970  1.00  0.00     0.029 A 
ATOM     53  N   UNL A   1      40.503  31.132  30.095  1.00  0.00    -0.354 N 
ATOM     54  C   UNL A   1      41.351  25.917  28.465  1.00  0.00     0.074 A 
ATOM     55  C   UNL A   1      39.990  25.464  28.339  1.00  0.00     0.031 C 
ATOM     56  C   UNL A   1      42.632  30.823  29.449  1.00  0.00     0.029 A 
ATOM     57  C   UNL A   1      41.831  31.461  30.467  1.00  0.00     0.049 A 
ATOM     58  H   UNL A   1      39.703  31.691  30.225  1.00  0.00     0.167 HD
ATOM     59  C   UNL A   1      42.574  25.541  27.996  1.00  0.00     0.037 A 
ATOM     60  C   UNL A   1      42.177  31.677  31.769  1.00  0.00     0.037 A 
ATOM     61  C   UNL A   1      43.623  26.433  28.504  1.00  0.00     0.049 A 
ATOM     62  C   UNL A   1      43.195  30.677  32.259  1.00  0.00     0.074 A 
ATOM     63  C   UNL A   1      44.441  27.416  27.976  1.00  0.00     0.029 A 
ATOM     64  N   UNL A   1      43.772  26.517  29.873  1.00  0.00    -0.354 N 
ATOM     65  N   UNL A   1      43.722  29.769  31.486  1.00  0.00    -0.248 NA
ATOM     66  C   UNL A   1      43.644  30.540  33.642  1.00  0.00     0.031 C 
ATOM     67  C   UNL A   1      45.065  28.097  29.072  1.00  0.00     0.029 A 
ATOM     68  C   UNL A   1      44.658  27.498  30.253  1.00  0.00     0.049 A 
ATOM     69  H   UNL A   1      43.297  25.937  30.510  1.00  0.00     0.167 HD
ATOM     70  C   UNL A   1      44.405  28.858  32.231  1.00  0.00     0.074 A 
ATOM     71  C   UNL A   1      44.364  29.403  33.577  1.00  0.00     0.031 C 
ATOM     72  C   UNL A   1      44.880  27.702  31.681  1.00  0.00     0.037 A 
BRANCH  59  73
ATOM     73  C   UNL A   1      42.875  24.428  27.019  1.00  0.00     0.057 A 
ATOM     74  C   UNL A   1      42.803  23.088  27.453  1.00  0.00     0.134 A 
ATOM     75  C   UNL A   1      43.310  24.580  25.689  1.00  0.00     0.134 A 
ATOM     76  F   UNL A   1      42.388  22.771  28.688  1.00  0.00    -0.206 F 
ATOM     77  C   UNL A   1      43.159  22.000  26.647  1.00  0.00     0.040 A 
ATOM     78  C   UNL A   1      43.624  23.495  24.856  1.00  0.00     0.040 A 
ATOM     79  F   UNL A   1      43.502  25.776  25.126  1.00  0.00    -0.206 F 
ATOM     80  C   UNL A   1      43.566  22.199  25.339  1.00  0.00     0.006 A 
ENDBRANCH  59  73
BRANCH  60  81
ATOM     81  C   UNL A   1      41.035  32.271  32.523  1.00  0.00     0.057 A 
ATOM     82  C   UNL A   1      40.327  31.400  33.376  1.00  0.00     0.134 A 
ATOM     83  C   UNL A   1      41.086  33.621  32.891  1.00  0.00     0.134 A 
ATOM     84  F   UNL A   1      40.228  30.094  33.074  1.00  0.00    -0.206 F 
ATOM     85  C   UNL A   1      39.884  31.808  34.638  1.00  0.00     0.040 A 
ATOM     86  C   UNL A   1      40.646  34.038  34.153  1.00  0.00     0.040 A 
ATOM     87  F   UNL A   1      41.740  34.507  32.126  1.00  0.00    -0.206 F 
ATOM     88  C   UNL A   1      40.099  33.120  35.051  1.00  0.00     0.006 A 
ENDBRANCH  60  81
BRANCH  72  89
ATOM     89  C   UNL A   1      45.550  26.633  32.494  1.00  0.00     0.057 A 
ATOM     90  C   UNL A   1      46.928  26.403  32.422  1.00  0.00     0.134 A 
ATOM     91  C   UNL A   1      44.823  25.737  33.306  1.00  0.00     0.134 A 
ATOM     92  F   UNL A   1      47.709  27.146  31.622  1.00  0.00    -0.206 F 
ATOM     93  C   UNL A   1      47.550  25.390  33.158  1.00  0.00     0.040 A 
ATOM     94  C   UNL A   1      45.424  24.681  33.991  1.00  0.00     0.040 A 
ATOM     95  F   UNL A   1      43.503  25.861  33.504  1.00  0.00    -0.206 F 
ATOM     96  C   UNL A   1      46.798  24.518  33.937  1.00  0.00     0.006 A 
ENDBRANCH  72  89
ENDBRANCH  46  47
ENDBRANCH  39  41
ENDBRANCH  38  39
ENDBRANCH  37  38
ENDBRANCH  36  37
ENDBRANCH  35  36
ENDBRANCH  34  35
ENDBRANCH   1  34
TORSDOF 20
ENDMDL
MODEL 3
REMARK VINA RESULT:     -11.9      3.466      8.810
REMARK SMILES Cc1cc([N+](=O)[O-])ccc1-c1ccc(/C=C/C(=O)Nc2ccc(O)c(C(=O)OCCOCCOC(=O)c3ccc(-c4c5nc(c(-c6c(F)cccc6F)c6ccc([nH]6)c(-c6c(F)cccc6F)c6nc(c(-c7c(F)cccc7F)c7ccc4[nH]7)C=C6)C=C5)cc3)c2)o1
REMARK SMILES IDX 29 1 28 2 26 3 27 4 25 5 20 6 21 7 91 8 22 9 23 10 19 11
REMARK SMILES IDX 17 12 18 13 16 15 15 16 14 17 11 18 12 19 92 20 13 21 10 22
REMARK SMILES IDX 1 23 2 24 3 25 4 26 9 27 8 28 5 29 6 30 7 31 24 32 30 34
REMARK SMILES IDX 31 35 32 36 33 37 34 38 35 39 36 40 37 41 38 42 90 43 39 44
REMARK SMILES IDX 89 45 40 46 41 47 42 48 83 49 43 50 88 51 82 52 84 53 44 54
REMARK SMILES IDX 87 55 81 56 80 57 45 59 71 60 54 61 70 62 55 63 58 64 69 65
REMARK SMILES IDX 85 66 56 67 57 68 68 70 86 71 59 72 46 73 47 74 52 75 48 76
REMARK SMILES IDX 49 77 51 78 53 79 50 80 72 81 73 82 78 83 74 84 75 85 77 86
REMARK SMILES IDX 79 87 76 88 60 89 61 90 66 91 62 92 63 93 65 94 67 95 64 96
REMARK H PARENT 19 14 24 33 84 58 58 69
REMARK Flexibility Score: inf
ROOT
ATOM      1  C   UNL A   1      31.031  26.348  26.530  1.00  0.00     0.261 C 
ENDROOT
BRANCH   1   2
ATOM      2  O   UNL A   1      31.901  25.235  26.821  1.00  0.00    -0.460 OA
BRANCH   2   3
ATOM      3  C   UNL A   1      31.305  24.016  26.947  1.00  0.00     0.342 C 
ATOM      4  O   UNL A   1      30.146  23.791  27.216  1.00  0.00    -0.246 OA
BRANCH   3   5
ATOM      5  C   UNL A   1      32.293  22.966  26.610  1.00  0.00     0.103 A 
ATOM      6  C   UNL A   1      34.618  22.350  26.502  1.00  0.00     0.042 A 
ATOM      7  C   UNL A   1      34.268  21.109  25.960  1.00  0.00     0.030 A 
ATOM      8  C   UNL A   1      33.633  23.242  26.919  1.00  0.00     0.045 A 
ATOM      9  C   UNL A   1      32.933  20.800  25.727  1.00  0.00     0.049 A 
ATOM     10  C   UNL A   1      31.955  21.746  26.003  1.00  0.00     0.130 A 
BRANCH   6  11
ATOM     11  N   UNL A   1      35.939  22.816  26.443  1.00  0.00    -0.322 N 
ATOM     12  C   UNL A   1      36.502  23.522  25.400  1.00  0.00     0.248 C 
ATOM     13  O   UNL A   1      37.704  23.770  25.381  1.00  0.00    -0.270 OA
ATOM     14  H   UNL A   1      36.518  22.621  27.215  1.00  0.00     0.170 HD
BRANCH  12  15
ATOM     15  C   UNL A   1      35.620  24.026  24.307  1.00  0.00     0.075 C 
ATOM     16  C   UNL A   1      34.811  25.077  24.512  1.00  0.00     0.053 C 
BRANCH  16  17
ATOM     17  C   UNL A   1      33.815  25.453  23.579  1.00  0.00     0.127 A 
ATOM     18  C   UNL A   1      32.107  26.525  22.677  1.00  0.00     0.135 A 
ATOM     19  C   UNL A   1      32.388  25.489  21.818  1.00  0.00     0.051 A 
ATOM     20  O   UNL A   1      33.003  26.553  23.700  1.00  0.00    -0.457 OA
ATOM     21  C   UNL A   1      33.455  24.785  22.412  1.00  0.00     0.051 A 
BRANCH  18  22
ATOM     22  C   UNL A   1      31.035  27.496  22.744  1.00  0.00     0.021 A 
ATOM     23  C   UNL A   1      29.408  25.754  23.705  1.00  0.00     0.045 C 
ATOM     24  C   UNL A   1      29.750  27.135  23.208  1.00  0.00    -0.033 A 
ATOM     25  C   UNL A   1      28.727  28.099  23.202  1.00  0.00     0.089 A 
ATOM     26  C   UNL A   1      28.988  29.405  22.767  1.00  0.00     0.269 A 
ATOM     27  C   UNL A   1      31.286  28.814  22.330  1.00  0.00     0.019 A 
ATOM     28  C   UNL A   1      30.269  29.770  22.338  1.00  0.00     0.086 A 
BRANCH  26  29
ATOM     29  N   UNL A   1      27.905  30.395  22.757  1.00  0.00     0.062 N 
ATOM     30  O   UNL A   1      28.020  31.369  21.998  1.00  0.00    -0.258 OA
ATOM     31  O   UNL A   1      26.943  30.204  23.513  1.00  0.00    -0.258 OA
ENDBRANCH  26  29
ENDBRANCH  18  22
ENDBRANCH  16  17
ENDBRANCH  12  15
ENDBRANCH   6  11
BRANCH  10  32
ATOM     32  O   UNL A   1      30.694  21.406  25.591  1.00  0.00    -0.507 OA
ATOM     33  H   UNL A   1      30.266  20.660  25.962  1.00  0.00     0.293 HD
ENDBRANCH  10  32
ENDBRANCH   3   5
ENDBRANCH   2   3
ENDBRANCH   1   2
BRANCH   1  34
ATOM     34  C   UNL A   1      31.583  27.658  27.050  1.00  0.00     0.202 C 
BRANCH  34  35
ATOM     35  O   UNL A   1      31.561  28.564  25.959  1.00  0.00    -0.374 OA
BRANCH  35  36
ATOM     36  C   UNL A   1      32.561  29.565  25.937  1.00  0.00     0.202 C 
BRANCH  36  37
ATOM     37  C   UNL A   1      32.257  30.729  26.886  1.00  0.00     0.261 C 
BRANCH  37  38
ATOM     38  O   UNL A   1      33.487  31.356  27.314  1.00  0.00    -0.460 OA
BRANCH  38  39
ATOM     39  C   UNL A   1      33.367  32.592  27.878  1.00  0.00     0.338 C 
ATOM     40  O   UNL A   1      32.500  33.408  27.610  1.00  0.00    -0.246 OA
BRANCH  39  41
ATOM     41  C   UNL A   1      34.605  32.922  28.646  1.00  0.00     0.060 A 
ATOM     42  C   UNL A   1      35.864  32.892  28.013  1.00  0.00     0.016 A 
ATOM     43  C   UNL A   1      34.531  32.903  30.032  1.00  0.00     0.016 A 
ATOM     44  C   UNL A   1      37.032  32.664  28.764  1.00  0.00     0.010 A 
ATOM     45  C   UNL A   1      35.654  32.534  30.739  1.00  0.00     0.010 A 
ATOM     46  C   UNL A   1      36.913  32.391  30.123  1.00  0.00    -0.014 A 
BRANCH  46  47
ATOM     47  C   UNL A   1      37.950  31.902  31.044  1.00  0.00     0.031 A 
ATOM     48  C   UNL A   1      38.499  32.886  32.019  1.00  0.00     0.074 A 
ATOM     49  C   UNL A   1      38.071  30.578  31.328  1.00  0.00     0.049 A 
ATOM     50  N   UNL A   1      39.296  32.579  32.980  1.00  0.00    -0.248 NA
ATOM     51  C   UNL A   1      38.209  34.322  31.982  1.00  0.00     0.031 C 
ATOM     52  C   UNL A   1      38.336  29.991  32.646  1.00  0.00     0.029 A 
ATOM     53  N   UNL A   1      37.968  29.445  30.507  1.00  0.00    -0.354 N 
ATOM     54  C   UNL A   1      39.309  33.627  33.866  1.00  0.00     0.074 A 
ATOM     55  C   UNL A   1      38.747  34.733  33.135  1.00  0.00     0.031 C 
ATOM     56  C   UNL A   1      38.625  28.688  32.518  1.00  0.00     0.029 A 
ATOM     57  C   UNL A   1      38.756  28.428  31.103  1.00  0.00     0.049 A 
ATOM     58  H   UNL A   1      37.449  29.371  29.675  1.00  0.00     0.167 HD
ATOM     59  C   UNL A   1      39.694  33.374  35.149  1.00  0.00     0.037 A 
ATOM     60  C   UNL A   1      39.834  27.890  30.463  1.00  0.00     0.037 A 
ATOM     61  C   UNL A   1      40.216  32.008  35.275  1.00  0.00     0.049 A 
ATOM     62  C   UNL A   1      41.120  28.140  31.210  1.00  0.00     0.074 A 
ATOM     63  C   UNL A   1      39.791  30.825  35.853  1.00  0.00     0.029 A 
ATOM     64  N   UNL A   1      41.307  31.674  34.497  1.00  0.00    -0.354 N 
ATOM     65  N   UNL A   1      41.160  28.737  32.368  1.00  0.00    -0.248 NA
ATOM     66  C   UNL A   1      42.458  27.835  30.711  1.00  0.00     0.031 C 
ATOM     67  C   UNL A   1      40.650  29.778  35.383  1.00  0.00     0.029 A 
ATOM     68  C   UNL A   1      41.614  30.335  34.558  1.00  0.00     0.049 A 
ATOM     69  H   UNL A   1      41.811  32.324  33.958  1.00  0.00     0.167 HD
ATOM     70  C   UNL A   1      42.444  29.051  32.691  1.00  0.00     0.074 A 
ATOM     71  C   UNL A   1      43.232  28.430  31.640  1.00  0.00     0.031 C 
ATOM     72  C   UNL A   1      42.735  29.854  33.756  1.00  0.00     0.037 A 
BRANCH  59  73
ATOM     73  C   UNL A   1      39.554  34.289  36.343  1.00  0.00     0.057 A 
ATOM     74  C   UNL A   1      40.276  35.500  36.375  1.00  0.00     0.134 A 
ATOM     75  C   UNL A   1      38.813  34.028  37.511  1.00  0.00     0.134 A 
ATOM     76  F   UNL A   1      41.016  35.904  35.332  1.00  0.00    -0.206 F 
ATOM     77  C   UNL A   1      40.283  36.361  37.480  1.00  0.00     0.040 A 
ATOM     78  C   UNL A   1      38.775  34.907  38.606  1.00  0.00     0.040 A 
ATOM     79  F   UNL A   1      38.121  32.901  37.689  1.00  0.00    -0.206 F 
ATOM     80  C   UNL A   1      39.525  36.069  38.601  1.00  0.00     0.006 A 
ENDBRANCH  59  73
BRANCH  60  81
ATOM     81  C   UNL A   1      39.615  27.880  28.987  1.00  0.00     0.057 A 
ATOM     82  C   UNL A   1      40.161  28.961  28.265  1.00  0.00     0.134 A 
ATOM     83  C   UNL A   1      39.515  26.653  28.319  1.00  0.00     0.134 A 
ATOM     84  F   UNL A   1      40.273  30.169  28.843  1.00  0.00    -0.206 F 
ATOM     85  C   UNL A   1      40.777  28.777  27.024  1.00  0.00     0.040 A 
ATOM     86  C   UNL A   1      40.131  26.460  27.076  1.00  0.00     0.040 A 
ATOM     87  F   UNL A   1      39.004  25.581  28.943  1.00  0.00    -0.206 F 
ATOM     88  C   UNL A   1      40.814  27.507  26.455  1.00  0.00     0.006 A 
ENDBRANCH  60  81
BRANCH  72  89
ATOM     89  C   UNL A   1      44.131  30.299  34.079  1.00  0.00     0.057 A 
ATOM     90  C   UNL A   1      44.827  29.804  35.187  1.00  0.00     0.134 A 
ATOM     91  C   UNL A   1      44.790  31.307  33.345  1.00  0.00     0.134 A 
ATOM     92  F   UNL A   1      44.268  28.897  36.002  1.00  0.00    -0.206 F 
ATOM     93  C   UNL A   1      46.118  30.237  35.506  1.00  0.00     0.040 A 
ATOM     94  C   UNL A   1      46.049  31.795  33.693  1.00  0.00     0.040 A 
ATOM     95  F   UNL A   1      44.263  31.844  32.235  1.00  0.00    -0.206 F 
ATOM     96  C   UNL A   1      46.729  31.243  34.765  1.00  0.00     0.006 A 
ENDBRANCH  72  89
ENDBRANCH  46  47
ENDBRANCH  39  41
ENDBRANCH  38  39
ENDBRANCH  37  38
ENDBRANCH  36  37
ENDBRANCH  35  36
ENDBRANCH  34  35
ENDBRANCH   1  34
TORSDOF 20
ENDMDL
