MODEL 1
REMARK VINA RESULT:      -9.9      0.000      0.000
REMARK SMILES CC(C)[C@@H]([NH3+])C(=O)N[C@@H](Cc1ccccc1)C(=O)OCCOCCOC(=O)c1ccc(-c2c3nc(c(-c4c(F)cccc4F)c4ccc([nH]4)c(-c4c(F)cccc4F)c4nc(c(-c5c(F)cccc5F)c5ccc2[nH]5)C=C4)C=C3)cc1
REMARK SMILES IDX 21 1 20 2 19 3 17 4 18 5 9 6 8 7 6 8 7 9 4 11 2 12 1 13 3 14
REMARK SMILES IDX 5 15 10 19 11 20 12 21 16 22 13 23 15 24 14 25 22 26 23 27
REMARK SMILES IDX 24 28 25 29 26 30 27 31 28 32 29 33 81 34 30 35 80 36 31 37
REMARK SMILES IDX 32 38 33 39 74 40 34 41 79 42 73 43 75 44 35 45 78 46 72 47
REMARK SMILES IDX 71 48 36 50 62 51 45 52 61 53 46 54 49 55 60 56 76 57 47 58
REMARK SMILES IDX 48 59 59 61 77 62 50 63 37 64 38 65 43 66 39 67 40 68 42 69
REMARK SMILES IDX 44 70 41 71 63 72 64 73 69 74 65 75 66 76 68 77 70 78 67 79
REMARK SMILES IDX 51 80 52 81 57 82 53 83 54 84 56 85 58 86 55 87
REMARK H PARENT 8 10 5 16 5 17 5 18 75 49 49 60
REMARK Flexibility Score: inf
ROOT
ATOM      1  C   UNL A   1      33.607  23.496  24.311  1.00  0.00     0.202 C 
ENDROOT
BRANCH   1   2
ATOM      2  C   UNL A   1      32.357  22.798  24.848  1.00  0.00     0.261 C 
BRANCH   2   3
ATOM      3  O   UNL A   1      31.272  23.727  24.975  1.00  0.00    -0.462 OA
BRANCH   3   4
ATOM      4  C   UNL A   1      31.333  24.528  26.074  1.00  0.00     0.329 C 
ATOM      5  O   UNL A   1      31.420  24.122  27.229  1.00  0.00    -0.250 OA
BRANCH   4   6
ATOM      6  C   UNL A   1      31.268  26.020  25.720  1.00  0.00     0.196 C 
BRANCH   6   7
ATOM      7  N   UNL A   1      30.114  26.455  24.919  1.00  0.00    -0.337 N 
ATOM      8  C   UNL A   1      30.046  26.928  23.644  1.00  0.00     0.279 C 
ATOM      9  O   UNL A   1      28.966  27.396  23.270  1.00  0.00    -0.268 OA
ATOM     10  H   UNL A   1      29.246  26.392  25.382  1.00  0.00     0.164 HD
BRANCH   8  11
ATOM     11  C   UNL A   1      31.218  26.775  22.630  1.00  0.00     0.273 C 
BRANCH  11  12
ATOM     12  C   UNL A   1      32.567  27.428  23.016  1.00  0.00     0.051 C 
ATOM     13  C   UNL A   1      33.647  27.217  21.945  1.00  0.00     0.014 C 
ATOM     14  C   UNL A   1      32.398  28.931  23.261  1.00  0.00     0.014 C 
ENDBRANCH  11  12
BRANCH  11  15
ATOM     15  N   UNL A   1      31.333  25.331  22.317  1.00  0.00    -0.347 N 
ATOM     16  H   UNL A   1      30.997  24.782  23.109  1.00  0.00     0.345 HD
ATOM     17  H   UNL A   1      32.310  25.099  22.134  1.00  0.00     0.345 HD
ATOM     18  H   UNL A   1      30.773  25.116  21.493  1.00  0.00     0.345 HD
ENDBRANCH  11  15
ENDBRANCH   8  11
ENDBRANCH   6   7
BRANCH   6  19
ATOM     19  C   UNL A   1      31.343  26.839  27.026  1.00  0.00     0.072 C 
BRANCH  19  20
ATOM     20  C   UNL A   1      32.240  28.058  26.920  1.00  0.00    -0.045 A 
ATOM     21  C   UNL A   1      31.727  29.352  27.081  1.00  0.00     0.004 A 
ATOM     22  C   UNL A   1      33.620  27.897  26.724  1.00  0.00     0.004 A 
ATOM     23  C   UNL A   1      32.581  30.457  27.084  1.00  0.00     0.000 A 
ATOM     24  C   UNL A   1      34.469  29.004  26.712  1.00  0.00     0.000 A 
ATOM     25  C   UNL A   1      33.951  30.283  26.901  1.00  0.00     0.000 A 
ENDBRANCH  19  20
ENDBRANCH   6  19
ENDBRANCH   4   6
ENDBRANCH   3   4
ENDBRANCH   2   3
ENDBRANCH   1   2
BRANCH   1  26
ATOM     26  O   UNL A   1      34.840  22.792  24.461  1.00  0.00    -0.374 OA
BRANCH  26  27
ATOM     27  C   UNL A   1      34.845  21.629  25.290  1.00  0.00     0.202 C 
BRANCH  27  28
ATOM     28  C   UNL A   1      36.096  20.740  25.234  1.00  0.00     0.261 C 
BRANCH  28  29
ATOM     29  O   UNL A   1      37.284  21.453  24.849  1.00  0.00    -0.460 OA
BRANCH  29  30
ATOM     30  C   UNL A   1      38.402  21.091  25.525  1.00  0.00     0.338 C 
ATOM     31  O   UNL A   1      38.973  20.010  25.497  1.00  0.00    -0.246 OA
BRANCH  30  32
ATOM     32  C   UNL A   1      38.982  22.251  26.223  1.00  0.00     0.060 A 
ATOM     33  C   UNL A   1      38.453  23.514  25.930  1.00  0.00     0.016 A 
ATOM     34  C   UNL A   1      40.102  22.120  27.044  1.00  0.00     0.016 A 
ATOM     35  C   UNL A   1      39.072  24.661  26.424  1.00  0.00     0.010 A 
ATOM     36  C   UNL A   1      40.730  23.275  27.530  1.00  0.00     0.010 A 
ATOM     37  C   UNL A   1      40.238  24.548  27.193  1.00  0.00    -0.014 A 
BRANCH  37  38
ATOM     38  C   UNL A   1      41.016  25.770  27.509  1.00  0.00     0.031 A 
ATOM     39  C   UNL A   1      40.362  26.870  28.299  1.00  0.00     0.074 A 
ATOM     40  C   UNL A   1      42.304  25.880  27.139  1.00  0.00     0.049 A 
ATOM     41  N   UNL A   1      40.854  28.020  28.687  1.00  0.00    -0.248 NA
ATOM     42  C   UNL A   1      38.968  26.643  28.709  1.00  0.00     0.031 C 
ATOM     43  C   UNL A   1      43.062  24.867  26.409  1.00  0.00     0.029 A 
ATOM     44  N   UNL A   1      43.201  26.901  27.332  1.00  0.00    -0.354 N 
ATOM     45  C   UNL A   1      39.833  28.652  29.384  1.00  0.00     0.074 A 
ATOM     46  C   UNL A   1      38.685  27.772  29.344  1.00  0.00     0.031 C 
ATOM     47  C   UNL A   1      44.312  25.320  26.207  1.00  0.00     0.029 A 
ATOM     48  C   UNL A   1      44.431  26.663  26.772  1.00  0.00     0.049 A 
ATOM     49  H   UNL A   1      42.981  27.725  27.824  1.00  0.00     0.167 HD
ATOM     50  C   UNL A   1      39.852  29.853  30.009  1.00  0.00     0.037 A 
ATOM     51  C   UNL A   1      45.524  27.449  26.712  1.00  0.00     0.037 A 
ATOM     52  C   UNL A   1      40.991  30.730  30.052  1.00  0.00     0.049 A 
ATOM     53  C   UNL A   1      45.497  28.811  27.352  1.00  0.00     0.074 A 
ATOM     54  C   UNL A   1      41.111  31.960  30.676  1.00  0.00     0.029 A 
ATOM     55  N   UNL A   1      42.206  30.473  29.436  1.00  0.00    -0.354 N 
ATOM     56  N   UNL A   1      44.534  29.388  28.029  1.00  0.00    -0.248 NA
ATOM     57  C   UNL A   1      46.710  29.631  27.220  1.00  0.00     0.031 C 
ATOM     58  C   UNL A   1      42.387  32.465  30.402  1.00  0.00     0.029 A 
ATOM     59  C   UNL A   1      43.074  31.532  29.642  1.00  0.00     0.049 A 
ATOM     60  H   UNL A   1      42.420  29.658  28.927  1.00  0.00     0.167 HD
ATOM     61  C   UNL A   1      45.031  30.625  28.421  1.00  0.00     0.074 A 
ATOM     62  C   UNL A   1      46.386  30.711  27.917  1.00  0.00     0.031 C 
ATOM     63  C   UNL A   1      44.421  31.601  29.136  1.00  0.00     0.037 A 
BRANCH  50  64
ATOM     64  C   UNL A   1      38.588  30.297  30.684  1.00  0.00     0.057 A 
ATOM     65  C   UNL A   1      37.574  30.964  29.987  1.00  0.00     0.134 A 
ATOM     66  C   UNL A   1      38.373  30.029  32.041  1.00  0.00     0.134 A 
ATOM     67  F   UNL A   1      37.725  31.263  28.687  1.00  0.00    -0.206 F 
ATOM     68  C   UNL A   1      36.397  31.368  30.621  1.00  0.00     0.040 A 
ATOM     69  C   UNL A   1      37.192  30.408  32.681  1.00  0.00     0.040 A 
ATOM     70  F   UNL A   1      39.304  29.389  32.766  1.00  0.00    -0.206 F 
ATOM     71  C   UNL A   1      36.202  31.084  31.972  1.00  0.00     0.006 A 
ENDBRANCH  50  64
BRANCH  51  72
ATOM     72  C   UNL A   1      46.738  26.975  26.003  1.00  0.00     0.057 A 
ATOM     73  C   UNL A   1      46.961  27.285  24.657  1.00  0.00     0.134 A 
ATOM     74  C   UNL A   1      47.695  26.184  26.651  1.00  0.00     0.134 A 
ATOM     75  F   UNL A   1      46.068  28.018  23.977  1.00  0.00    -0.206 F 
ATOM     76  C   UNL A   1      48.084  26.813  23.976  1.00  0.00     0.040 A 
ATOM     77  C   UNL A   1      48.834  25.725  25.989  1.00  0.00     0.040 A 
ATOM     78  F   UNL A   1      47.538  25.852  27.942  1.00  0.00    -0.206 F 
ATOM     79  C   UNL A   1      49.027  26.035  24.645  1.00  0.00     0.006 A 
ENDBRANCH  51  72
BRANCH  63  80
ATOM     80  C   UNL A   1      45.218  32.835  29.436  1.00  0.00     0.057 A 
ATOM     81  C   UNL A   1      45.215  33.941  28.578  1.00  0.00     0.134 A 
ATOM     82  C   UNL A   1      45.964  32.934  30.617  1.00  0.00     0.134 A 
ATOM     83  F   UNL A   1      44.531  33.905  27.424  1.00  0.00    -0.206 F 
ATOM     84  C   UNL A   1      45.940  35.097  28.875  1.00  0.00     0.040 A 
ATOM     85  C   UNL A   1      46.674  34.092  30.937  1.00  0.00     0.040 A 
ATOM     86  F   UNL A   1      46.002  31.913  31.487  1.00  0.00    -0.206 F 
ATOM     87  C   UNL A   1      46.667  35.176  30.061  1.00  0.00     0.006 A 
ENDBRANCH  63  80
ENDBRANCH  37  38
ENDBRANCH  30  32
ENDBRANCH  29  30
ENDBRANCH  28  29
ENDBRANCH  27  28
ENDBRANCH  26  27
ENDBRANCH   1  26
TORSDOF 20
ENDMDL
MODEL 2
REMARK VINA RESULT:      -9.7      4.376      7.736
REMARK SMILES CC(C)[C@@H]([NH3+])C(=O)N[C@@H](Cc1ccccc1)C(=O)OCCOCCOC(=O)c1ccc(-c2c3nc(c(-c4c(F)cccc4F)c4ccc([nH]4)c(-c4c(F)cccc4F)c4nc(c(-c5c(F)cccc5F)c5ccc2[nH]5)C=C4)C=C3)cc1
REMARK SMILES IDX 21 1 20 2 19 3 17 4 18 5 9 6 8 7 6 8 7 9 4 11 2 12 1 13 3 14
REMARK SMILES IDX 5 15 10 19 11 20 12 21 16 22 13 23 15 24 14 25 22 26 23 27
REMARK SMILES IDX 24 28 25 29 26 30 27 31 28 32 29 33 81 34 30 35 80 36 31 37
REMARK SMILES IDX 32 38 33 39 74 40 34 41 79 42 73 43 75 44 35 45 78 46 72 47
REMARK SMILES IDX 71 48 36 50 62 51 45 52 61 53 46 54 49 55 60 56 76 57 47 58
REMARK SMILES IDX 48 59 59 61 77 62 50 63 37 64 38 65 43 66 39 67 40 68 42 69
REMARK SMILES IDX 44 70 41 71 63 72 64 73 69 74 65 75 66 76 68 77 70 78 67 79
REMARK SMILES IDX 51 80 52 81 57 82 53 83 54 84 56 85 58 86 55 87
REMARK H PARENT 8 10 5 16 5 17 5 18 75 49 49 60
REMARK Flexibility Score: inf
ROOT
ATOM      1  C   UNL A   1      33.246  28.837  27.195  1.00  0.00     0.202 C 
ENDROOT
BRANCH   1   2
ATOM      2  C   UNL A   1      33.440  27.686  26.208  1.00  0.00     0.261 C 
BRANCH   2   3
ATOM      3  O   UNL A   1      32.481  27.762  25.145  1.00  0.00    -0.462 OA
BRANCH   3   4
ATOM      4  C   UNL A   1      33.002  28.092  23.930  1.00  0.00     0.329 C 
ATOM      5  O   UNL A   1      34.157  28.463  23.744  1.00  0.00    -0.250 OA
BRANCH   4   6
ATOM      6  C   UNL A   1      31.976  27.964  22.796  1.00  0.00     0.196 C 
BRANCH   6   7
ATOM      7  N   UNL A   1      32.336  27.073  21.682  1.00  0.00    -0.337 N 
ATOM      8  C   UNL A   1      32.844  25.809  21.686  1.00  0.00     0.279 C 
ATOM      9  O   UNL A   1      33.230  25.351  20.606  1.00  0.00    -0.268 OA
ATOM     10  H   UNL A   1      32.185  27.454  20.787  1.00  0.00     0.164 HD
BRANCH   8  11
ATOM     11  C   UNL A   1      32.824  24.902  22.950  1.00  0.00     0.273 C 
BRANCH  11  12
ATOM     12  C   UNL A   1      31.937  23.635  22.887  1.00  0.00     0.051 C 
ATOM     13  C   UNL A   1      32.763  22.340  22.922  1.00  0.00     0.014 C 
ATOM     14  C   UNL A   1      30.931  23.612  24.043  1.00  0.00     0.014 C 
ENDBRANCH  11  12
BRANCH  11  15
ATOM     15  N   UNL A   1      34.235  24.613  23.299  1.00  0.00    -0.347 N 
ATOM     16  H   UNL A   1      34.402  23.608  23.240  1.00  0.00     0.345 HD
ATOM     17  H   UNL A   1      34.423  24.933  24.250  1.00  0.00     0.345 HD
ATOM     18  H   UNL A   1      34.852  25.099  22.650  1.00  0.00     0.345 HD
ENDBRANCH  11  15
ENDBRANCH   8  11
ENDBRANCH   6   7
BRANCH   6  19
ATOM     19  C   UNL A   1      30.624  27.530  23.402  1.00  0.00     0.072 C 
BRANCH  19  20
ATOM     20  C   UNL A   1      29.587  28.637  23.412  1.00  0.00    -0.045 A 
ATOM     21  C   UNL A   1      29.951  29.970  23.643  1.00  0.00     0.004 A 
ATOM     22  C   UNL A   1      28.246  28.343  23.122  1.00  0.00     0.004 A 
ATOM     23  C   UNL A   1      29.002  30.991  23.547  1.00  0.00     0.000 A 
ATOM     24  C   UNL A   1      27.297  29.362  23.042  1.00  0.00     0.000 A 
ATOM     25  C   UNL A   1      27.677  30.687  23.245  1.00  0.00     0.000 A 
ENDBRANCH  19  20
ENDBRANCH   6  19
ENDBRANCH   4   6
ENDBRANCH   3   4
ENDBRANCH   2   3
ENDBRANCH   1   2
BRANCH   1  26
ATOM     26  O   UNL A   1      33.533  30.148  26.707  1.00  0.00    -0.374 OA
BRANCH  26  27
ATOM     27  C   UNL A   1      32.722  31.224  27.178  1.00  0.00     0.202 C 
BRANCH  27  28
ATOM     28  C   UNL A   1      33.448  32.408  27.833  1.00  0.00     0.261 C 
BRANCH  28  29
ATOM     29  O   UNL A   1      32.766  33.662  27.659  1.00  0.00    -0.460 OA
BRANCH  29  30
ATOM     30  C   UNL A   1      33.121  34.624  28.545  1.00  0.00     0.338 C 
ATOM     31  O   UNL A   1      32.535  35.672  28.781  1.00  0.00    -0.246 OA
BRANCH  30  32
ATOM     32  C   UNL A   1      34.271  34.186  29.353  1.00  0.00     0.060 A 
ATOM     33  C   UNL A   1      35.551  34.386  28.820  1.00  0.00     0.016 A 
ATOM     34  C   UNL A   1      34.097  33.478  30.543  1.00  0.00     0.016 A 
ATOM     35  C   UNL A   1      36.664  33.838  29.455  1.00  0.00     0.010 A 
ATOM     36  C   UNL A   1      35.215  32.917  31.173  1.00  0.00     0.010 A 
ATOM     37  C   UNL A   1      36.497  33.065  30.613  1.00  0.00    -0.014 A 
BRANCH  37  38
ATOM     38  C   UNL A   1      37.649  32.295  31.140  1.00  0.00     0.031 A 
ATOM     39  C   UNL A   1      38.168  32.605  32.518  1.00  0.00     0.074 A 
ATOM     40  C   UNL A   1      38.197  31.300  30.421  1.00  0.00     0.049 A 
ATOM     41  N   UNL A   1      39.159  32.058  33.174  1.00  0.00    -0.248 NA
ATOM     42  C   UNL A   1      37.474  33.673  33.254  1.00  0.00     0.031 C 
ATOM     43  C   UNL A   1      37.757  30.875  29.094  1.00  0.00     0.029 A 
ATOM     44  N   UNL A   1      39.246  30.465  30.714  1.00  0.00    -0.354 N 
ATOM     45  C   UNL A   1      39.209  32.712  34.397  1.00  0.00     0.074 A 
ATOM     46  C   UNL A   1      38.167  33.717  34.384  1.00  0.00     0.031 C 
ATOM     47  C   UNL A   1      38.537  29.861  28.682  1.00  0.00     0.029 A 
ATOM     48  C   UNL A   1      39.544  29.584  29.705  1.00  0.00     0.049 A 
ATOM     49  H   UNL A   1      39.738  30.496  31.567  1.00  0.00     0.167 HD
ATOM     50  C   UNL A   1      40.043  32.493  35.442  1.00  0.00     0.037 A 
ATOM     51  C   UNL A   1      40.528  28.669  29.614  1.00  0.00     0.037 A 
ATOM     52  C   UNL A   1      41.080  31.496  35.460  1.00  0.00     0.049 A 
ATOM     53  C   UNL A   1      41.488  28.492  30.760  1.00  0.00     0.074 A 
ATOM     54  C   UNL A   1      41.963  31.186  36.479  1.00  0.00     0.029 A 
ATOM     55  N   UNL A   1      41.378  30.652  34.401  1.00  0.00    -0.354 N 
ATOM     56  N   UNL A   1      41.511  29.100  31.922  1.00  0.00    -0.248 NA
ATOM     57  C   UNL A   1      42.559  27.500  30.583  1.00  0.00     0.031 C 
ATOM     58  C   UNL A   1      42.823  30.182  36.022  1.00  0.00     0.029 A 
ATOM     59  C   UNL A   1      42.449  29.839  34.733  1.00  0.00     0.049 A 
ATOM     60  H   UNL A   1      40.900  30.633  33.541  1.00  0.00     0.167 HD
ATOM     61  C   UNL A   1      42.580  28.551  32.619  1.00  0.00     0.074 A 
ATOM     62  C   UNL A   1      43.174  27.552  31.755  1.00  0.00     0.031 C 
ATOM     63  C   UNL A   1      43.028  28.847  33.863  1.00  0.00     0.037 A 
BRANCH  50  64
ATOM     64  C   UNL A   1      39.876  33.365  36.651  1.00  0.00     0.057 A 
ATOM     65  C   UNL A   1      40.588  34.562  36.801  1.00  0.00     0.134 A 
ATOM     66  C   UNL A   1      38.972  33.017  37.662  1.00  0.00     0.134 A 
ATOM     67  F   UNL A   1      41.479  34.944  35.874  1.00  0.00    -0.206 F 
ATOM     68  C   UNL A   1      40.422  35.372  37.926  1.00  0.00     0.040 A 
ATOM     69  C   UNL A   1      38.782  33.830  38.780  1.00  0.00     0.040 A 
ATOM     70  F   UNL A   1      38.256  31.886  37.577  1.00  0.00    -0.206 F 
ATOM     71  C   UNL A   1      39.511  35.009  38.917  1.00  0.00     0.006 A 
ENDBRANCH  50  64
BRANCH  51  72
ATOM     72  C   UNL A   1      40.669  27.853  28.382  1.00  0.00     0.057 A 
ATOM     73  C   UNL A   1      41.409  28.313  27.288  1.00  0.00     0.134 A 
ATOM     74  C   UNL A   1      40.051  26.603  28.265  1.00  0.00     0.134 A 
ATOM     75  F   UNL A   1      42.004  29.515  27.333  1.00  0.00    -0.206 F 
ATOM     76  C   UNL A   1      41.517  27.566  26.114  1.00  0.00     0.040 A 
ATOM     77  C   UNL A   1      40.169  25.835  27.106  1.00  0.00     0.040 A 
ATOM     78  F   UNL A   1      39.327  26.106  29.280  1.00  0.00    -0.206 F 
ATOM     79  C   UNL A   1      40.900  26.320  26.024  1.00  0.00     0.006 A 
ENDBRANCH  51  72
BRANCH  63  80
ATOM     80  C   UNL A   1      44.202  28.067  34.376  1.00  0.00     0.057 A 
ATOM     81  C   UNL A   1      45.513  28.543  34.254  1.00  0.00     0.134 A 
ATOM     82  C   UNL A   1      44.015  26.845  35.035  1.00  0.00     0.134 A 
ATOM     83  F   UNL A   1      45.760  29.701  33.621  1.00  0.00    -0.206 F 
ATOM     84  C   UNL A   1      46.599  27.824  34.755  1.00  0.00     0.040 A 
ATOM     85  C   UNL A   1      45.091  26.129  35.561  1.00  0.00     0.040 A 
ATOM     86  F   UNL A   1      42.783  26.338  35.193  1.00  0.00    -0.206 F 
ATOM     87  C   UNL A   1      46.388  26.615  35.416  1.00  0.00     0.006 A 
ENDBRANCH  63  80
ENDBRANCH  37  38
ENDBRANCH  30  32
ENDBRANCH  29  30
ENDBRANCH  28  29
ENDBRANCH  27  28
ENDBRANCH  26  27
ENDBRANCH   1  26
TORSDOF 20
ENDMDL
MODEL 3
REMARK VINA RESULT:      -9.7      0.920      6.316
REMARK SMILES CC(C)[C@@H]([NH3+])C(=O)N[C@@H](Cc1ccccc1)C(=O)OCCOCCOC(=O)c1ccc(-c2c3nc(c(-c4c(F)cccc4F)c4ccc([nH]4)c(-c4c(F)cccc4F)c4nc(c(-c5c(F)cccc5F)c5ccc2[nH]5)C=C4)C=C3)cc1
REMARK SMILES IDX 21 1 20 2 19 3 17 4 18 5 9 6 8 7 6 8 7 9 4 11 2 12 1 13 3 14
REMARK SMILES IDX 5 15 10 19 11 20 12 21 16 22 13 23 15 24 14 25 22 26 23 27
REMARK SMILES IDX 24 28 25 29 26 30 27 31 28 32 29 33 81 34 30 35 80 36 31 37
REMARK SMILES IDX 32 38 33 39 74 40 34 41 79 42 73 43 75 44 35 45 78 46 72 47
REMARK SMILES IDX 71 48 36 50 62 51 45 52 61 53 46 54 49 55 60 56 76 57 47 58
REMARK SMILES IDX 48 59 59 61 77 62 50 63 37 64 38 65 43 66 39 67 40 68 42 69
REMARK SMILES IDX 44 70 41 71 63 72 64 73 69 74 65 75 66 76 68 77 70 78 67 79
REMARK SMILES IDX 51 80 52 81 57 82 53 83 54 84 56 85 58 86 55 87
REMARK H PARENT 8 10 5 16 5 17 5 18 75 49 49 60
REMARK Flexibility Score: inf
ROOT
ATOM      1  C   UNL A   1      33.876  22.323  25.218  1.00  0.00     0.202 C 
ENDROOT
BRANCH   1   2
ATOM      2  C   UNL A   1      33.532  23.208  26.416  1.00  0.00     0.261 C 
BRANCH   2   3
ATOM      3  O   UNL A   1      33.385  24.576  26.010  1.00  0.00    -0.462 OA
BRANCH   3   4
ATOM      4  C   UNL A   1      32.233  25.172  26.424  1.00  0.00     0.329 C 
ATOM      5  O   UNL A   1      31.357  24.616  27.080  1.00  0.00    -0.250 OA
BRANCH   4   6
ATOM      6  C   UNL A   1      32.129  26.633  25.967  1.00  0.00     0.196 C 
BRANCH   6   7
ATOM      7  N   UNL A   1      31.140  26.925  24.918  1.00  0.00    -0.337 N 
ATOM      8  C   UNL A   1      31.306  27.195  23.593  1.00  0.00     0.279 C 
ATOM      9  O   UNL A   1      30.316  27.585  22.966  1.00  0.00    -0.268 OA
ATOM     10  H   UNL A   1      30.204  26.923  25.224  1.00  0.00     0.164 HD
BRANCH   8  11
ATOM     11  C   UNL A   1      32.635  26.901  22.838  1.00  0.00     0.273 C 
BRANCH  11  12
ATOM     12  C   UNL A   1      32.801  25.482  22.241  1.00  0.00     0.051 C 
ATOM     13  C   UNL A   1      31.801  24.478  22.833  1.00  0.00     0.014 C 
ATOM     14  C   UNL A   1      32.636  25.506  20.718  1.00  0.00     0.014 C 
ENDBRANCH  11  12
BRANCH  11  15
ATOM     15  N   UNL A   1      32.815  27.982  21.840  1.00  0.00    -0.347 N 
ATOM     16  H   UNL A   1      32.312  28.815  22.147  1.00  0.00     0.345 HD
ATOM     17  H   UNL A   1      32.448  27.677  20.938  1.00  0.00     0.345 HD
ATOM     18  H   UNL A   1      33.807  28.199  21.748  1.00  0.00     0.345 HD
ENDBRANCH  11  15
ENDBRANCH   8  11
ENDBRANCH   6   7
BRANCH   6  19
ATOM     19  C   UNL A   1      31.862  27.517  27.204  1.00  0.00     0.072 C 
BRANCH  19  20
ATOM     20  C   UNL A   1      32.685  28.791  27.221  1.00  0.00    -0.045 A 
ATOM     21  C   UNL A   1      32.093  30.041  26.997  1.00  0.00     0.004 A 
ATOM     22  C   UNL A   1      34.052  28.737  27.532  1.00  0.00     0.004 A 
ATOM     23  C   UNL A   1      32.843  31.213  27.119  1.00  0.00     0.000 A 
ATOM     24  C   UNL A   1      34.803  29.908  27.637  1.00  0.00     0.000 A 
ATOM     25  C   UNL A   1      34.197  31.146  27.440  1.00  0.00     0.000 A 
ENDBRANCH  19  20
ENDBRANCH   6  19
ENDBRANCH   4   6
ENDBRANCH   3   4
ENDBRANCH   2   3
ENDBRANCH   1   2
BRANCH   1  26
ATOM     26  O   UNL A   1      35.251  21.973  25.061  1.00  0.00    -0.374 OA
BRANCH  26  27
ATOM     27  C   UNL A   1      35.589  20.586  25.072  1.00  0.00     0.202 C 
BRANCH  27  28
ATOM     28  C   UNL A   1      37.083  20.233  25.026  1.00  0.00     0.261 C 
BRANCH  28  29
ATOM     29  O   UNL A   1      37.943  21.377  25.168  1.00  0.00    -0.460 OA
BRANCH  29  30
ATOM     30  C   UNL A   1      39.058  21.155  25.905  1.00  0.00     0.338 C 
ATOM     31  O   UNL A   1      39.735  20.137  25.945  1.00  0.00    -0.246 OA
BRANCH  30  32
ATOM     32  C   UNL A   1      39.486  22.392  26.580  1.00  0.00     0.060 A 
ATOM     33  C   UNL A   1      38.893  23.593  26.168  1.00  0.00     0.016 A 
ATOM     34  C   UNL A   1      40.534  22.395  27.501  1.00  0.00     0.016 A 
ATOM     35  C   UNL A   1      39.379  24.810  26.644  1.00  0.00     0.010 A 
ATOM     36  C   UNL A   1      41.029  23.619  27.969  1.00  0.00     0.010 A 
ATOM     37  C   UNL A   1      40.476  24.830  27.515  1.00  0.00    -0.014 A 
BRANCH  37  38
ATOM     38  C   UNL A   1      41.130  26.125  27.824  1.00  0.00     0.031 A 
ATOM     39  C   UNL A   1      42.552  26.350  27.386  1.00  0.00     0.074 A 
ATOM     40  C   UNL A   1      40.452  27.106  28.444  1.00  0.00     0.049 A 
ATOM     41  N   UNL A   1      43.314  27.401  27.550  1.00  0.00    -0.248 NA
ATOM     42  C   UNL A   1      43.199  25.242  26.668  1.00  0.00     0.031 C 
ATOM     43  C   UNL A   1      39.059  27.027  28.878  1.00  0.00     0.029 A 
ATOM     44  N   UNL A   1      40.851  28.366  28.813  1.00  0.00    -0.354 N 
ATOM     45  C   UNL A   1      44.527  27.084  26.955  1.00  0.00     0.074 A 
ATOM     46  C   UNL A   1      44.412  25.731  26.452  1.00  0.00     0.031 C 
ATOM     47  C   UNL A   1      38.719  28.188  29.464  1.00  0.00     0.029 A 
ATOM     48  C   UNL A   1      39.877  29.080  29.467  1.00  0.00     0.049 A 
ATOM     49  H   UNL A   1      41.749  28.723  28.628  1.00  0.00     0.167 HD
ATOM     50  C   UNL A   1      45.637  27.850  26.832  1.00  0.00     0.037 A 
ATOM     51  C   UNL A   1      39.924  30.309  30.017  1.00  0.00     0.037 A 
ATOM     52  C   UNL A   1      45.756  29.194  27.331  1.00  0.00     0.049 A 
ATOM     53  C   UNL A   1      41.192  31.115  29.931  1.00  0.00     0.074 A 
ATOM     54  C   UNL A   1      46.834  30.057  27.239  1.00  0.00     0.029 A 
ATOM     55  N   UNL A   1      44.763  29.867  28.026  1.00  0.00    -0.354 N 
ATOM     56  N   UNL A   1      42.326  30.814  29.346  1.00  0.00    -0.248 NA
ATOM     57  C   UNL A   1      41.187  32.434  30.582  1.00  0.00     0.031 C 
ATOM     58  C   UNL A   1      46.507  31.239  27.914  1.00  0.00     0.029 A 
ATOM     59  C   UNL A   1      45.211  31.125  28.392  1.00  0.00     0.049 A 
ATOM     60  H   UNL A   1      43.871  29.504  28.229  1.00  0.00     0.167 HD
ATOM     61  C   UNL A   1      43.158  31.910  29.538  1.00  0.00     0.074 A 
ATOM     62  C   UNL A   1      42.395  32.889  30.284  1.00  0.00     0.031 C 
ATOM     63  C   UNL A   1      44.439  32.090  29.132  1.00  0.00     0.037 A 
BRANCH  50  64
ATOM     64  C   UNL A   1      46.822  27.241  26.143  1.00  0.00     0.057 A 
ATOM     65  C   UNL A   1      47.800  26.529  26.848  1.00  0.00     0.134 A 
ATOM     66  C   UNL A   1      46.970  27.345  24.755  1.00  0.00     0.134 A 
ATOM     67  F   UNL A   1      47.722  26.406  28.182  1.00  0.00    -0.206 F 
ATOM     68  C   UNL A   1      48.896  25.959  26.198  1.00  0.00     0.040 A 
ATOM     69  C   UNL A   1      48.050  26.761  24.092  1.00  0.00     0.040 A 
ATOM     70  F   UNL A   1      46.066  28.011  24.021  1.00  0.00    -0.206 F 
ATOM     71  C   UNL A   1      49.020  26.069  24.814  1.00  0.00     0.006 A 
ENDBRANCH  50  64
BRANCH  51  72
ATOM     72  C   UNL A   1      38.733  30.852  30.717  1.00  0.00     0.057 A 
ATOM     73  C   UNL A   1      38.559  30.681  32.094  1.00  0.00     0.134 A 
ATOM     74  C   UNL A   1      37.732  31.539  30.019  1.00  0.00     0.134 A 
ATOM     75  F   UNL A   1      39.473  30.010  32.811  1.00  0.00    -0.206 F 
ATOM     76  C   UNL A   1      37.425  31.160  32.751  1.00  0.00     0.040 A 
ATOM     77  C   UNL A   1      36.604  32.043  30.667  1.00  0.00     0.040 A 
ATOM     78  F   UNL A   1      37.841  31.735  28.696  1.00  0.00    -0.206 F 
ATOM     79  C   UNL A   1      36.446  31.848  32.037  1.00  0.00     0.006 A 
ENDBRANCH  51  72
BRANCH  63  80
ATOM     80  C   UNL A   1      45.088  33.400  29.463  1.00  0.00     0.057 A 
ATOM     81  C   UNL A   1      44.978  34.511  28.618  1.00  0.00     0.134 A 
ATOM     82  C   UNL A   1      45.796  33.564  30.660  1.00  0.00     0.134 A 
ATOM     83  F   UNL A   1      44.323  34.416  27.451  1.00  0.00    -0.206 F 
ATOM     84  C   UNL A   1      45.563  35.736  28.945  1.00  0.00     0.040 A 
ATOM     85  C   UNL A   1      46.366  34.789  31.008  1.00  0.00     0.040 A 
ATOM     86  F   UNL A   1      45.931  32.541  31.517  1.00  0.00    -0.206 F 
ATOM     87  C   UNL A   1      46.255  35.878  30.146  1.00  0.00     0.006 A 
ENDBRANCH  63  80
ENDBRANCH  37  38
ENDBRANCH  30  32
ENDBRANCH  29  30
ENDBRANCH  28  29
ENDBRANCH  27  28
ENDBRANCH  26  27
ENDBRANCH   1  26
TORSDOF 20
ENDMDL
