MODEL 1
REMARK VINA RESULT:     -12.4      0.000      0.000
REMARK SMILES O=C(OCCOCCOC(=O)[C@@H]1CCCC[C@H]1C(=O)Nc1cccc(-c2nnc(-c3ccccc3)o2)c1)c1ccc(-c2c3nc(c(-c4c(F)cccc4F)c4ccc([nH]4)c(-c4c(F)cccc4F)c4nc(c(-c5c(F)cccc5F)c5ccc2[nH]5)C=C4)C=C3)cc1
REMARK SMILES IDX 7 1 6 2 5 3 4 4 3 5 2 6 1 7 38 8 39 9 91 10 40 11 90 12
REMARK SMILES IDX 41 13 42 14 43 15 84 16 44 17 89 18 83 19 85 20 45 21 88 22
REMARK SMILES IDX 82 23 81 24 46 26 72 27 55 28 71 29 56 30 59 31 70 32 86 33
REMARK SMILES IDX 57 34 58 35 69 37 87 38 60 39 47 40 48 41 53 42 49 43 50 44
REMARK SMILES IDX 52 45 54 46 51 47 73 48 74 49 79 50 75 51 76 52 78 53 80 54
REMARK SMILES IDX 77 55 61 56 62 57 67 58 63 59 64 60 66 61 68 62 65 63 8 64
REMARK SMILES IDX 9 65 10 66 11 67 12 68 13 69 17 70 14 71 16 72 15 73 18 74
REMARK SMILES IDX 19 75 20 76 21 78 22 79 37 80 23 81 25 82 24 83 26 84 27 85
REMARK SMILES IDX 36 86 28 87 29 88 30 89 31 90 35 91 32 92 34 93 33 94
REMARK H PARENT 85 25 59 36 20 77
REMARK Flexibility Score: inf
ROOT
ATOM      1  C   UNL A   1      32.953  28.677  26.972  1.00  0.00     0.202 C 
ENDROOT
BRANCH   1   2
ATOM      2  O   UNL A   1      31.828  29.559  26.994  1.00  0.00    -0.374 OA
BRANCH   2   3
ATOM      3  C   UNL A   1      31.870  30.783  26.260  1.00  0.00     0.202 C 
BRANCH   3   4
ATOM      4  C   UNL A   1      31.470  32.132  26.898  1.00  0.00     0.261 C 
BRANCH   4   5
ATOM      5  O   UNL A   1      32.491  33.149  26.878  1.00  0.00    -0.460 OA
BRANCH   5   6
ATOM      6  C   UNL A   1      33.019  33.736  27.990  1.00  0.00     0.338 C 
ATOM      7  O   UNL A   1      32.469  34.696  28.515  1.00  0.00    -0.246 OA
BRANCH   6   8
ATOM      8  C   UNL A   1      34.311  33.238  28.535  1.00  0.00     0.060 A 
ATOM      9  C   UNL A   1      34.417  31.954  29.041  1.00  0.00     0.016 A 
ATOM     10  C   UNL A   1      35.465  34.023  28.502  1.00  0.00     0.016 A 
ATOM     11  C   UNL A   1      35.525  31.504  29.699  1.00  0.00     0.010 A 
ATOM     12  C   UNL A   1      36.669  33.508  29.008  1.00  0.00     0.010 A 
ATOM     13  C   UNL A   1      36.687  32.247  29.621  1.00  0.00    -0.014 A 
BRANCH  13  14
ATOM     14  C   UNL A   1      37.852  31.622  30.261  1.00  0.00     0.031 A 
ATOM     15  C   UNL A   1      38.031  31.805  31.728  1.00  0.00     0.074 A 
ATOM     16  C   UNL A   1      38.550  30.706  29.556  1.00  0.00     0.049 A 
ATOM     17  N   UNL A   1      38.967  31.336  32.504  1.00  0.00    -0.248 NA
ATOM     18  C   UNL A   1      37.011  32.609  32.424  1.00  0.00     0.031 C 
ATOM     19  C   UNL A   1      38.296  30.344  28.152  1.00  0.00     0.029 A 
ATOM     20  N   UNL A   1      39.554  29.860  29.931  1.00  0.00    -0.354 N 
ATOM     21  C   UNL A   1      38.672  31.817  33.770  1.00  0.00     0.074 A 
ATOM     22  C   UNL A   1      37.473  32.617  33.664  1.00  0.00     0.031 C 
ATOM     23  C   UNL A   1      39.086  29.317  27.808  1.00  0.00     0.029 A 
ATOM     24  C   UNL A   1      39.976  29.028  28.921  1.00  0.00     0.049 A 
ATOM     25  H   UNL A   1      39.938  29.845  30.838  1.00  0.00     0.167 HD
ATOM     26  C   UNL A   1      39.362  31.604  34.911  1.00  0.00     0.037 A 
ATOM     27  C   UNL A   1      41.010  28.170  28.890  1.00  0.00     0.037 A 
ATOM     28  C   UNL A   1      40.550  30.798  34.962  1.00  0.00     0.049 A 
ATOM     29  C   UNL A   1      41.832  28.054  30.142  1.00  0.00     0.074 A 
ATOM     30  C   UNL A   1      41.414  30.589  36.019  1.00  0.00     0.029 A 
ATOM     31  N   UNL A   1      41.035  30.055  33.890  1.00  0.00    -0.354 N 
ATOM     32  N   UNL A   1      41.632  28.613  31.314  1.00  0.00    -0.248 NA
ATOM     33  C   UNL A   1      43.030  27.213  30.069  1.00  0.00     0.031 C 
ATOM     34  C   UNL A   1      42.444  29.752  35.573  1.00  0.00     0.029 A 
ATOM     35  C   UNL A   1      42.191  29.394  34.256  1.00  0.00     0.049 A 
ATOM     36  H   UNL A   1      40.614  30.008  33.001  1.00  0.00     0.167 HD
ATOM     37  C   UNL A   1      42.674  28.188  32.121  1.00  0.00     0.074 A 
ATOM     38  C   UNL A   1      43.481  27.293  31.312  1.00  0.00     0.031 C 
ATOM     39  C   UNL A   1      42.955  28.510  33.408  1.00  0.00     0.037 A 
BRANCH  26  40
ATOM     40  C   UNL A   1      38.884  32.322  36.135  1.00  0.00     0.057 A 
ATOM     41  C   UNL A   1      39.264  33.639  36.428  1.00  0.00     0.134 A 
ATOM     42  C   UNL A   1      38.072  31.663  37.066  1.00  0.00     0.134 A 
ATOM     43  F   UNL A   1      40.079  34.312  35.600  1.00  0.00    -0.206 F 
ATOM     44  C   UNL A   1      38.869  34.267  37.611  1.00  0.00     0.040 A 
ATOM     45  C   UNL A   1      37.652  32.287  38.242  1.00  0.00     0.040 A 
ATOM     46  F   UNL A   1      37.689  30.395  36.857  1.00  0.00    -0.206 F 
ATOM     47  C   UNL A   1      38.057  33.591  38.520  1.00  0.00     0.006 A 
ENDBRANCH  26  40
BRANCH  27  48
ATOM     48  C   UNL A   1      41.381  27.461  27.637  1.00  0.00     0.057 A 
ATOM     49  C   UNL A   1      42.117  28.084  26.623  1.00  0.00     0.134 A 
ATOM     50  C   UNL A   1      40.964  26.141  27.401  1.00  0.00     0.134 A 
ATOM     51  F   UNL A   1      42.534  29.350  26.772  1.00  0.00    -0.206 F 
ATOM     52  C   UNL A   1      42.397  27.437  25.416  1.00  0.00     0.040 A 
ATOM     53  C   UNL A   1      41.268  25.471  26.214  1.00  0.00     0.040 A 
ATOM     54  F   UNL A   1      40.255  25.478  28.326  1.00  0.00    -0.206 F 
ATOM     55  C   UNL A   1      41.975  26.126  25.211  1.00  0.00     0.006 A 
ENDBRANCH  27  48
BRANCH  39  56
ATOM     56  C   UNL A   1      44.165  27.860  34.004  1.00  0.00     0.057 A 
ATOM     57  C   UNL A   1      45.422  28.475  33.977  1.00  0.00     0.134 A 
ATOM     58  C   UNL A   1      44.060  26.612  34.629  1.00  0.00     0.134 A 
ATOM     59  F   UNL A   1      45.586  29.663  33.376  1.00  0.00    -0.206 F 
ATOM     60  C   UNL A   1      46.543  27.854  34.522  1.00  0.00     0.040 A 
ATOM     61  C   UNL A   1      45.167  25.997  35.208  1.00  0.00     0.040 A 
ATOM     62  F   UNL A   1      42.879  25.979  34.695  1.00  0.00    -0.206 F 
ATOM     63  C   UNL A   1      46.416  26.613  35.146  1.00  0.00     0.006 A 
ENDBRANCH  39  56
ENDBRANCH  13  14
ENDBRANCH   6   8
ENDBRANCH   5   6
ENDBRANCH   4   5
ENDBRANCH   3   4
ENDBRANCH   2   3
ENDBRANCH   1   2
BRANCH   1  64
ATOM     64  C   UNL A   1      33.683  28.825  25.631  1.00  0.00     0.261 C 
BRANCH  64  65
ATOM     65  O   UNL A   1      33.316  27.719  24.800  1.00  0.00    -0.463 OA
BRANCH  65  66
ATOM     66  C   UNL A   1      33.098  28.044  23.499  1.00  0.00     0.309 C 
ATOM     67  O   UNL A   1      33.931  28.560  22.765  1.00  0.00    -0.252 OA
BRANCH  66  68
ATOM     68  C   UNL A   1      31.763  27.446  23.058  1.00  0.00     0.111 C 
ATOM     69  C   UNL A   1      30.612  28.160  23.780  1.00  0.00     0.016 C 
ATOM     70  C   UNL A   1      31.776  25.910  23.111  1.00  0.00     0.093 C 
ATOM     71  C   UNL A   1      29.299  27.399  23.750  1.00  0.00     0.001 C 
ATOM     72  C   UNL A   1      30.429  25.219  23.355  1.00  0.00     0.014 C 
ATOM     73  C   UNL A   1      29.510  25.995  24.285  1.00  0.00     0.001 C 
BRANCH  70  74
ATOM     74  C   UNL A   1      32.514  25.276  21.910  1.00  0.00     0.228 C 
ATOM     75  O   UNL A   1      32.451  25.845  20.811  1.00  0.00    -0.274 OA
ATOM     76  N   UNL A   1      33.318  24.168  21.944  1.00  0.00    -0.326 N 
ATOM     77  H   UNL A   1      33.653  23.900  21.058  1.00  0.00     0.169 HD
BRANCH  76  78
ATOM     78  C   UNL A   1      33.762  23.338  22.984  1.00  0.00     0.041 A 
ATOM     79  C   UNL A   1      33.029  22.187  23.258  1.00  0.00     0.026 A 
ATOM     80  C   UNL A   1      34.873  23.614  23.772  1.00  0.00     0.040 A 
ATOM     81  C   UNL A   1      33.493  21.270  24.206  1.00  0.00     0.003 A 
ATOM     82  C   UNL A   1      35.376  22.702  24.712  1.00  0.00     0.041 A 
ATOM     83  C   UNL A   1      34.679  21.510  24.907  1.00  0.00     0.014 A 
BRANCH  82  84
ATOM     84  C   UNL A   1      36.687  22.916  25.314  1.00  0.00     0.248 A 
ATOM     85  N   UNL A   1      37.122  23.992  25.935  1.00  0.00    -0.107 NA
ATOM     86  O   UNL A   1      37.571  21.864  25.388  1.00  0.00    -0.416 OA
ATOM     87  N   UNL A   1      38.335  23.661  26.492  1.00  0.00    -0.107 NA
ATOM     88  C   UNL A   1      38.589  22.419  26.136  1.00  0.00     0.248 A 
BRANCH  88  89
ATOM     89  C   UNL A   1      39.733  21.586  26.491  1.00  0.00     0.039 A 
ATOM     90  C   UNL A   1      40.710  22.095  27.365  1.00  0.00     0.014 A 
ATOM     91  C   UNL A   1      39.931  20.315  25.939  1.00  0.00     0.014 A 
ATOM     92  C   UNL A   1      41.855  21.355  27.676  1.00  0.00     0.001 A 
ATOM     93  C   UNL A   1      41.086  19.579  26.238  1.00  0.00     0.001 A 
ATOM     94  C   UNL A   1      42.046  20.101  27.106  1.00  0.00     0.000 A 
ENDBRANCH  88  89
ENDBRANCH  82  84
ENDBRANCH  76  78
ENDBRANCH  70  74
ENDBRANCH  66  68
ENDBRANCH  65  66
ENDBRANCH  64  65
ENDBRANCH   1  64
TORSDOF 18
ENDMDL
MODEL 2
REMARK VINA RESULT:     -12.3      3.841     10.056
REMARK SMILES O=C(OCCOCCOC(=O)[C@@H]1CCCC[C@H]1C(=O)Nc1cccc(-c2nnc(-c3ccccc3)o2)c1)c1ccc(-c2c3nc(c(-c4c(F)cccc4F)c4ccc([nH]4)c(-c4c(F)cccc4F)c4nc(c(-c5c(F)cccc5F)c5ccc2[nH]5)C=C4)C=C3)cc1
REMARK SMILES IDX 7 1 6 2 5 3 4 4 3 5 2 6 1 7 38 8 39 9 91 10 40 11 90 12
REMARK SMILES IDX 41 13 42 14 43 15 84 16 44 17 89 18 83 19 85 20 45 21 88 22
REMARK SMILES IDX 82 23 81 24 46 26 72 27 55 28 71 29 56 30 59 31 70 32 86 33
REMARK SMILES IDX 57 34 58 35 69 37 87 38 60 39 47 40 48 41 53 42 49 43 50 44
REMARK SMILES IDX 52 45 54 46 51 47 73 48 74 49 79 50 75 51 76 52 78 53 80 54
REMARK SMILES IDX 77 55 61 56 62 57 67 58 63 59 64 60 66 61 68 62 65 63 8 64
REMARK SMILES IDX 9 65 10 66 11 67 12 68 13 69 17 70 14 71 16 72 15 73 18 74
REMARK SMILES IDX 19 75 20 76 21 78 22 79 37 80 23 81 25 82 24 83 26 84 27 85
REMARK SMILES IDX 36 86 28 87 29 88 30 89 31 90 35 91 32 92 34 93 33 94
REMARK H PARENT 85 25 59 36 20 77
REMARK Flexibility Score: inf
ROOT
ATOM      1  C   UNL A   1      37.324  22.808  24.776  1.00  0.00     0.202 C 
ENDROOT
BRANCH   1   2
ATOM      2  O   UNL A   1      37.484  21.624  25.561  1.00  0.00    -0.374 OA
BRANCH   2   3
ATOM      3  C   UNL A   1      37.427  20.343  24.933  1.00  0.00     0.202 C 
BRANCH   3   4
ATOM      4  C   UNL A   1      38.631  19.374  24.945  1.00  0.00     0.261 C 
BRANCH   4   5
ATOM      5  O   UNL A   1      39.468  19.449  26.115  1.00  0.00    -0.460 OA
BRANCH   5   6
ATOM      6  C   UNL A   1      40.800  19.746  26.095  1.00  0.00     0.338 C 
ATOM      7  O   UNL A   1      41.623  18.912  25.738  1.00  0.00    -0.246 OA
BRANCH   6   8
ATOM      8  C   UNL A   1      41.259  21.080  26.568  1.00  0.00     0.060 A 
ATOM      9  C   UNL A   1      40.691  22.240  26.071  1.00  0.00     0.016 A 
ATOM     10  C   UNL A   1      42.229  21.204  27.564  1.00  0.00     0.016 A 
ATOM     11  C   UNL A   1      41.182  23.484  26.345  1.00  0.00     0.010 A 
ATOM     12  C   UNL A   1      42.619  22.481  27.998  1.00  0.00     0.010 A 
ATOM     13  C   UNL A   1      42.099  23.622  27.369  1.00  0.00    -0.014 A 
BRANCH  13  14
ATOM     14  C   UNL A   1      42.476  25.010  27.664  1.00  0.00     0.031 A 
ATOM     15  C   UNL A   1      43.716  25.549  27.041  1.00  0.00     0.074 A 
ATOM     16  C   UNL A   1      41.562  25.804  28.262  1.00  0.00     0.049 A 
ATOM     17  N   UNL A   1      44.233  26.742  27.143  1.00  0.00    -0.248 NA
ATOM     18  C   UNL A   1      44.471  24.633  26.168  1.00  0.00     0.031 C 
ATOM     19  C   UNL A   1      40.237  25.368  28.731  1.00  0.00     0.029 A 
ATOM     20  N   UNL A   1      41.565  27.147  28.507  1.00  0.00    -0.354 N 
ATOM     21  C   UNL A   1      45.390  26.709  26.382  1.00  0.00     0.074 A 
ATOM     22  C   UNL A   1      45.506  25.381  25.822  1.00  0.00     0.031 C 
ATOM     23  C   UNL A   1      39.543  26.433  29.156  1.00  0.00     0.029 A 
ATOM     24  C   UNL A   1      40.408  27.600  29.098  1.00  0.00     0.049 A 
ATOM     25  H   UNL A   1      42.321  27.737  28.282  1.00  0.00     0.167 HD
ATOM     26  C   UNL A   1      46.273  27.711  26.184  1.00  0.00     0.037 A 
ATOM     27  C   UNL A   1      40.113  28.815  29.590  1.00  0.00     0.037 A 
ATOM     28  C   UNL A   1      46.109  29.015  26.763  1.00  0.00     0.049 A 
ATOM     29  C   UNL A   1      41.171  29.873  29.464  1.00  0.00     0.074 A 
ATOM     30  C   UNL A   1      46.977  30.089  26.746  1.00  0.00     0.029 A 
ATOM     31  N   UNL A   1      44.979  29.420  27.467  1.00  0.00    -0.354 N 
ATOM     32  N   UNL A   1      42.333  29.807  28.853  1.00  0.00    -0.248 NA
ATOM     33  C   UNL A   1      40.898  31.160  30.108  1.00  0.00     0.031 C 
ATOM     34  C   UNL A   1      46.388  31.130  27.474  1.00  0.00     0.029 A 
ATOM     35  C   UNL A   1      45.130  30.725  27.897  1.00  0.00     0.049 A 
ATOM     36  H   UNL A   1      44.188  28.859  27.633  1.00  0.00     0.167 HD
ATOM     37  C   UNL A   1      42.927  31.046  29.032  1.00  0.00     0.074 A 
ATOM     38  C   UNL A   1      41.978  31.853  29.777  1.00  0.00     0.031 C 
ATOM     39  C   UNL A   1      44.148  31.482  28.635  1.00  0.00     0.037 A 
BRANCH  26  40
ATOM     40  C   UNL A   1      47.501  27.385  25.392  1.00  0.00     0.057 A 
ATOM     41  C   UNL A   1      47.567  27.564  24.003  1.00  0.00     0.134 A 
ATOM     42  C   UNL A   1      48.619  26.828  26.025  1.00  0.00     0.134 A 
ATOM     43  F   UNL A   1      46.513  28.049  23.329  1.00  0.00    -0.206 F 
ATOM     44  C   UNL A   1      48.694  27.183  23.272  1.00  0.00     0.040 A 
ATOM     45  C   UNL A   1      49.760  26.465  25.308  1.00  0.00     0.040 A 
ATOM     46  F   UNL A   1      48.614  26.612  27.349  1.00  0.00    -0.206 F 
ATOM     47  C   UNL A   1      49.796  26.635  23.925  1.00  0.00     0.006 A 
ENDBRANCH  26  40
BRANCH  27  48
ATOM     48  C   UNL A   1      38.841  29.058  30.322  1.00  0.00     0.057 A 
ATOM     49  C   UNL A   1      37.654  29.381  29.656  1.00  0.00     0.134 A 
ATOM     50  C   UNL A   1      38.793  29.016  31.724  1.00  0.00     0.134 A 
ATOM     51  F   UNL A   1      37.629  29.456  28.317  1.00  0.00    -0.206 F 
ATOM     52  C   UNL A   1      36.480  29.683  30.353  1.00  0.00     0.040 A 
ATOM     53  C   UNL A   1      37.619  29.280  32.432  1.00  0.00     0.040 A 
ATOM     54  F   UNL A   1      39.891  28.713  32.432  1.00  0.00    -0.206 F 
ATOM     55  C   UNL A   1      36.460  29.629  31.745  1.00  0.00     0.006 A 
ENDBRANCH  27  48
BRANCH  39  56
ATOM     56  C   UNL A   1      44.489  32.898  28.980  1.00  0.00     0.057 A 
ATOM     57  C   UNL A   1      45.094  33.236  30.196  1.00  0.00     0.134 A 
ATOM     58  C   UNL A   1      44.224  33.930  28.071  1.00  0.00     0.134 A 
ATOM     59  F   UNL A   1      45.356  32.292  31.112  1.00  0.00    -0.206 F 
ATOM     60  C   UNL A   1      45.394  34.560  30.512  1.00  0.00     0.040 A 
ATOM     61  C   UNL A   1      44.551  35.252  28.362  1.00  0.00     0.040 A 
ATOM     62  F   UNL A   1      43.654  33.665  26.886  1.00  0.00    -0.206 F 
ATOM     63  C   UNL A   1      45.128  35.572  29.590  1.00  0.00     0.006 A 
ENDBRANCH  39  56
ENDBRANCH  13  14
ENDBRANCH   6   8
ENDBRANCH   5   6
ENDBRANCH   4   5
ENDBRANCH   3   4
ENDBRANCH   2   3
ENDBRANCH   1   2
BRANCH   1  64
ATOM     64  C   UNL A   1      36.815  23.944  25.674  1.00  0.00     0.261 C 
BRANCH  64  65
ATOM     65  O   UNL A   1      35.538  23.560  26.196  1.00  0.00    -0.463 OA
BRANCH  65  66
ATOM     66  C   UNL A   1      34.495  24.285  25.714  1.00  0.00     0.309 C 
ATOM     67  O   UNL A   1      34.563  25.463  25.385  1.00  0.00    -0.252 OA
BRANCH  66  68
ATOM     68  C   UNL A   1      33.330  23.341  25.424  1.00  0.00     0.111 C 
ATOM     69  C   UNL A   1      33.762  22.285  24.398  1.00  0.00     0.016 C 
ATOM     70  C   UNL A   1      32.029  24.106  25.135  1.00  0.00     0.093 C 
ATOM     71  C   UNL A   1      32.605  21.567  23.728  1.00  0.00     0.001 C 
ATOM     72  C   UNL A   1      31.013  23.413  24.218  1.00  0.00     0.014 C 
ATOM     73  C   UNL A   1      31.657  22.582  23.119  1.00  0.00     0.001 C 
BRANCH  70  74
ATOM     74  C   UNL A   1      31.347  24.634  26.418  1.00  0.00     0.228 C 
ATOM     75  O   UNL A   1      31.175  23.848  27.361  1.00  0.00    -0.274 OA
ATOM     76  N   UNL A   1      30.973  25.928  26.665  1.00  0.00    -0.326 N 
ATOM     77  H   UNL A   1      30.509  26.044  27.525  1.00  0.00     0.169 HD
BRANCH  76  78
ATOM     78  C   UNL A   1      31.120  27.122  25.943  1.00  0.00     0.041 A 
ATOM     79  C   UNL A   1      30.612  27.168  24.649  1.00  0.00     0.026 A 
ATOM     80  C   UNL A   1      31.766  28.249  26.437  1.00  0.00     0.040 A 
ATOM     81  C   UNL A   1      30.630  28.368  23.930  1.00  0.00     0.003 A 
ATOM     82  C   UNL A   1      31.778  29.473  25.751  1.00  0.00     0.041 A 
ATOM     83  C   UNL A   1      31.182  29.523  24.492  1.00  0.00     0.014 A 
BRANCH  82  84
ATOM     84  C   UNL A   1      32.228  30.686  26.422  1.00  0.00     0.248 A 
ATOM     85  N   UNL A   1      31.525  31.766  26.690  1.00  0.00    -0.107 NA
ATOM     86  O   UNL A   1      33.486  30.717  26.979  1.00  0.00    -0.416 OA
ATOM     87  N   UNL A   1      32.312  32.558  27.494  1.00  0.00    -0.107 NA
ATOM     88  C   UNL A   1      33.465  31.936  27.627  1.00  0.00     0.248 A 
BRANCH  88  89
ATOM     89  C   UNL A   1      34.631  32.336  28.407  1.00  0.00     0.039 A 
ATOM     90  C   UNL A   1      34.456  32.767  29.733  1.00  0.00     0.014 A 
ATOM     91  C   UNL A   1      35.919  32.372  27.858  1.00  0.00     0.014 A 
ATOM     92  C   UNL A   1      35.539  33.224  30.491  1.00  0.00     0.001 A 
ATOM     93  C   UNL A   1      37.002  32.845  28.612  1.00  0.00     0.001 A 
ATOM     94  C   UNL A   1      36.810  33.270  29.927  1.00  0.00     0.000 A 
ENDBRANCH  88  89
ENDBRANCH  82  84
ENDBRANCH  76  78
ENDBRANCH  70  74
ENDBRANCH  66  68
ENDBRANCH  65  66
ENDBRANCH  64  65
ENDBRANCH   1  64
TORSDOF 18
ENDMDL
MODEL 3
REMARK VINA RESULT:     -11.7      3.790      9.817
REMARK SMILES O=C(OCCOCCOC(=O)[C@@H]1CCCC[C@H]1C(=O)Nc1cccc(-c2nnc(-c3ccccc3)o2)c1)c1ccc(-c2c3nc(c(-c4c(F)cccc4F)c4ccc([nH]4)c(-c4c(F)cccc4F)c4nc(c(-c5c(F)cccc5F)c5ccc2[nH]5)C=C4)C=C3)cc1
REMARK SMILES IDX 7 1 6 2 5 3 4 4 3 5 2 6 1 7 38 8 39 9 91 10 40 11 90 12
REMARK SMILES IDX 41 13 42 14 43 15 84 16 44 17 89 18 83 19 85 20 45 21 88 22
REMARK SMILES IDX 82 23 81 24 46 26 72 27 55 28 71 29 56 30 59 31 70 32 86 33
REMARK SMILES IDX 57 34 58 35 69 37 87 38 60 39 47 40 48 41 53 42 49 43 50 44
REMARK SMILES IDX 52 45 54 46 51 47 73 48 74 49 79 50 75 51 76 52 78 53 80 54
REMARK SMILES IDX 77 55 61 56 62 57 67 58 63 59 64 60 66 61 68 62 65 63 8 64
REMARK SMILES IDX 9 65 10 66 11 67 12 68 13 69 17 70 14 71 16 72 15 73 18 74
REMARK SMILES IDX 19 75 20 76 21 78 22 79 37 80 23 81 25 82 24 83 26 84 27 85
REMARK SMILES IDX 36 86 28 87 29 88 30 89 31 90 35 91 32 92 34 93 33 94
REMARK H PARENT 85 25 59 36 20 77
REMARK Flexibility Score: inf
ROOT
ATOM      1  C   UNL A   1      35.966  23.614  25.345  1.00  0.00     0.202 C 
ENDROOT
BRANCH   1   2
ATOM      2  O   UNL A   1      35.789  22.442  24.545  1.00  0.00    -0.374 OA
BRANCH   2   3
ATOM      3  C   UNL A   1      36.887  21.554  24.334  1.00  0.00     0.202 C 
BRANCH   3   4
ATOM      4  C   UNL A   1      37.608  20.854  25.508  1.00  0.00     0.261 C 
BRANCH   4   5
ATOM      5  O   UNL A   1      39.031  20.701  25.352  1.00  0.00    -0.460 OA
BRANCH   5   6
ATOM      6  C   UNL A   1      39.924  20.681  26.383  1.00  0.00     0.338 C 
ATOM      7  O   UNL A   1      40.222  19.629  26.934  1.00  0.00    -0.246 OA
BRANCH   6   8
ATOM      8  C   UNL A   1      40.496  21.961  26.880  1.00  0.00     0.060 A 
ATOM      9  C   UNL A   1      40.159  23.165  26.284  1.00  0.00     0.016 A 
ATOM     10  C   UNL A   1      41.339  21.998  27.993  1.00  0.00     0.016 A 
ATOM     11  C   UNL A   1      40.776  24.343  26.590  1.00  0.00     0.010 A 
ATOM     12  C   UNL A   1      41.841  23.230  28.442  1.00  0.00     0.010 A 
ATOM     13  C   UNL A   1      41.565  24.402  27.722  1.00  0.00    -0.014 A 
BRANCH  13  14
ATOM     14  C   UNL A   1      42.087  25.739  28.031  1.00  0.00     0.031 A 
ATOM     15  C   UNL A   1      43.382  26.148  27.418  1.00  0.00     0.074 A 
ATOM     16  C   UNL A   1      41.259  26.623  28.630  1.00  0.00     0.049 A 
ATOM     17  N   UNL A   1      44.022  27.277  27.533  1.00  0.00    -0.248 NA
ATOM     18  C   UNL A   1      44.039  25.162  26.541  1.00  0.00     0.031 C 
ATOM     19  C   UNL A   1      39.893  26.327  29.089  1.00  0.00     0.029 A 
ATOM     20  N   UNL A   1      41.405  27.956  28.885  1.00  0.00    -0.354 N 
ATOM     21  C   UNL A   1      45.173  27.126  26.776  1.00  0.00     0.074 A 
ATOM     22  C   UNL A   1      45.150  25.798  26.207  1.00  0.00     0.031 C 
ATOM     23  C   UNL A   1      39.314  27.457  29.518  1.00  0.00     0.029 A 
ATOM     24  C   UNL A   1      40.300  28.525  29.474  1.00  0.00     0.049 A 
ATOM     25  H   UNL A   1      42.221  28.463  28.669  1.00  0.00     0.167 HD
ATOM     26  C   UNL A   1      46.160  28.030  26.591  1.00  0.00     0.037 A 
ATOM     27  C   UNL A   1      40.133  29.762  29.974  1.00  0.00     0.037 A 
ATOM     28  C   UNL A   1      46.133  29.339  27.180  1.00  0.00     0.049 A 
ATOM     29  C   UNL A   1      41.300  30.701  29.862  1.00  0.00     0.074 A 
ATOM     30  C   UNL A   1      47.111  30.314  27.176  1.00  0.00     0.029 A 
ATOM     31  N   UNL A   1      45.049  29.858  27.881  1.00  0.00    -0.354 N 
ATOM     32  N   UNL A   1      42.451  30.516  29.256  1.00  0.00    -0.248 NA
ATOM     33  C   UNL A   1      41.162  32.005  30.515  1.00  0.00     0.031 C 
ATOM     34  C   UNL A   1      46.633  31.407  27.909  1.00  0.00     0.029 A 
ATOM     35  C   UNL A   1      45.336  31.135  28.322  1.00  0.00     0.049 A 
ATOM     36  H   UNL A   1      44.201  29.383  28.039  1.00  0.00     0.167 HD
ATOM     37  C   UNL A   1      43.174  31.682  29.449  1.00  0.00     0.074 A 
ATOM     38  C   UNL A   1      42.312  32.581  30.195  1.00  0.00     0.031 C 
ATOM     39  C   UNL A   1      44.436  31.988  29.061  1.00  0.00     0.037 A 
BRANCH  26  40
ATOM     40  C   UNL A   1      47.350  27.580  25.803  1.00  0.00     0.057 A 
ATOM     41  C   UNL A   1      48.507  27.075  26.413  1.00  0.00     0.134 A 
ATOM     42  C   UNL A   1      47.360  27.707  24.408  1.00  0.00     0.134 A 
ATOM     43  F   UNL A   1      48.581  26.971  27.750  1.00  0.00    -0.206 F 
ATOM     44  C   UNL A   1      49.635  26.731  25.666  1.00  0.00     0.040 A 
ATOM     45  C   UNL A   1      48.474  27.345  23.648  1.00  0.00     0.040 A 
ATOM     46  F   UNL A   1      46.293  28.202  23.763  1.00  0.00    -0.206 F 
ATOM     47  C   UNL A   1      49.619  26.863  24.279  1.00  0.00     0.006 A 
ENDBRANCH  26  40
BRANCH  27  48
ATOM     48  C   UNL A   1      38.890  30.134  30.701  1.00  0.00     0.057 A 
ATOM     49  C   UNL A   1      38.720  29.864  32.063  1.00  0.00     0.134 A 
ATOM     50  C   UNL A   1      37.813  30.735  30.032  1.00  0.00     0.134 A 
ATOM     51  F   UNL A   1      39.701  29.275  32.763  1.00  0.00    -0.206 F 
ATOM     52  C   UNL A   1      37.521  30.147  32.724  1.00  0.00     0.040 A 
ATOM     53  C   UNL A   1      36.622  31.056  30.687  1.00  0.00     0.040 A 
ATOM     54  F   UNL A   1      37.901  31.024  28.726  1.00  0.00    -0.206 F 
ATOM     55  C   UNL A   1      36.469  30.748  32.035  1.00  0.00     0.006 A 
ENDBRANCH  27  48
BRANCH  39  56
ATOM     56  C   UNL A   1      44.925  33.357  29.419  1.00  0.00     0.057 A 
ATOM     57  C   UNL A   1      44.731  34.455  28.572  1.00  0.00     0.134 A 
ATOM     58  C   UNL A   1      45.577  33.578  30.638  1.00  0.00     0.134 A 
ATOM     59  F   UNL A   1      44.127  34.300  27.385  1.00  0.00    -0.206 F 
ATOM     60  C   UNL A   1      45.203  35.721  28.910  1.00  0.00     0.040 A 
ATOM     61  C   UNL A   1      46.022  34.846  31.001  1.00  0.00     0.040 A 
ATOM     62  F   UNL A   1      45.783  32.566  31.495  1.00  0.00    -0.206 F 
ATOM     63  C   UNL A   1      45.845  35.921  30.132  1.00  0.00     0.006 A 
ENDBRANCH  39  56
ENDBRANCH  13  14
ENDBRANCH   6   8
ENDBRANCH   5   6
ENDBRANCH   4   5
ENDBRANCH   3   4
ENDBRANCH   2   3
ENDBRANCH   1   2
BRANCH   1  64
ATOM     64  C   UNL A   1      35.086  23.509  26.597  1.00  0.00     0.261 C 
BRANCH  64  65
ATOM     65  O   UNL A   1      34.519  22.195  26.633  1.00  0.00    -0.463 OA
BRANCH  65  66
ATOM     66  C   UNL A   1      33.271  22.139  27.169  1.00  0.00     0.309 C 
ATOM     67  O   UNL A   1      33.004  22.411  28.333  1.00  0.00    -0.252 OA
BRANCH  66  68
ATOM     68  C   UNL A   1      32.260  21.929  26.044  1.00  0.00     0.111 C 
ATOM     69  C   UNL A   1      32.826  20.939  25.017  1.00  0.00     0.016 C 
ATOM     70  C   UNL A   1      31.715  23.261  25.505  1.00  0.00     0.093 C 
ATOM     71  C   UNL A   1      32.117  20.969  23.675  1.00  0.00     0.001 C 
ATOM     72  C   UNL A   1      31.263  23.276  24.039  1.00  0.00     0.014 C 
ATOM     73  C   UNL A   1      32.103  22.387  23.136  1.00  0.00     0.001 C 
BRANCH  70  74
ATOM     74  C   UNL A   1      30.639  23.884  26.423  1.00  0.00     0.228 C 
ATOM     75  O   UNL A   1      30.042  23.144  27.217  1.00  0.00    -0.274 OA
ATOM     76  N   UNL A   1      30.320  25.212  26.514  1.00  0.00    -0.326 N 
ATOM     77  H   UNL A   1      29.569  25.393  27.125  1.00  0.00     0.169 HD
BRANCH  76  78
ATOM     78  C   UNL A   1      30.845  26.367  25.916  1.00  0.00     0.041 A 
ATOM     79  C   UNL A   1      30.278  26.797  24.721  1.00  0.00     0.026 A 
ATOM     80  C   UNL A   1      31.915  27.087  26.435  1.00  0.00     0.040 A 
ATOM     81  C   UNL A   1      30.688  28.004  24.145  1.00  0.00     0.003 A 
ATOM     82  C   UNL A   1      32.331  28.314  25.894  1.00  0.00     0.041 A 
ATOM     83  C   UNL A   1      31.687  28.776  24.747  1.00  0.00     0.014 A 
BRANCH  82  84
ATOM     84  C   UNL A   1      33.268  29.157  26.625  1.00  0.00     0.248 A 
ATOM     85  N   UNL A   1      34.500  28.867  26.988  1.00  0.00    -0.107 NA
ATOM     86  O   UNL A   1      32.932  30.467  26.882  1.00  0.00    -0.416 OA
ATOM     87  N   UNL A   1      35.049  30.029  27.479  1.00  0.00    -0.107 NA
ATOM     88  C   UNL A   1      34.104  30.945  27.431  1.00  0.00     0.248 A 
BRANCH  88  89
ATOM     89  C   UNL A   1      34.181  32.353  27.804  1.00  0.00     0.039 A 
ATOM     90  C   UNL A   1      35.435  32.921  28.089  1.00  0.00     0.014 A 
ATOM     91  C   UNL A   1      33.039  33.149  27.956  1.00  0.00     0.014 A 
ATOM     92  C   UNL A   1      35.545  34.248  28.517  1.00  0.00     0.001 A 
ATOM     93  C   UNL A   1      33.147  34.474  28.400  1.00  0.00     0.001 A 
ATOM     94  C   UNL A   1      34.400  35.022  28.680  1.00  0.00     0.000 A 
ENDBRANCH  88  89
ENDBRANCH  82  84
ENDBRANCH  76  78
ENDBRANCH  70  74
ENDBRANCH  66  68
ENDBRANCH  65  66
ENDBRANCH  64  65
ENDBRANCH   1  64
TORSDOF 18
ENDMDL
