MODEL 1
REMARK VINA RESULT:     -12.2      0.000      0.000
REMARK SMILES Cc1ccc(C(=O)NC2CC2)cc1NC(=O)[C@@H]1[C@@H](C(=O)OCCOCCOC(=O)c2ccc(-c3c4nc(c(-c5c(F)cccc5F)c5ccc([nH]5)c(-c5c(F)cccc5F)c5nc(c(-c6c(F)cccc6F)c6ccc3[nH]6)C=C5)C=C4)cc2)[C@H]2C=C[C@@H]1C2
REMARK SMILES IDX 23 1 22 2 21 3 19 4 20 5 18 6 17 7 87 8 84 9 86 10 88 11
REMARK SMILES IDX 85 12 15 13 14 14 16 16 13 17 1 18 2 19 3 20 4 21 12 22 5 23
REMARK SMILES IDX 6 24 7 25 8 26 9 28 10 29 11 30 24 31 25 32 26 33 27 34
REMARK SMILES IDX 28 35 29 36 30 37 31 38 83 39 32 40 82 41 33 42 34 43 35 44
REMARK SMILES IDX 76 45 36 46 81 47 75 48 77 49 37 50 80 51 74 52 73 53 38 55
REMARK SMILES IDX 64 56 47 57 63 58 48 59 51 60 62 61 78 62 49 63 50 64 61 66
REMARK SMILES IDX 79 67 52 68 39 69 40 70 45 71 41 72 42 73 44 74 46 75 43 76
REMARK SMILES IDX 65 77 66 78 71 79 67 80 68 81 70 82 72 83 69 84 53 85 54 86
REMARK SMILES IDX 59 87 55 88 56 89 58 90 60 91 57 92
REMARK H PARENT 14 15 8 27 77 54 51 65
REMARK Flexibility Score: inf
ROOT
ATOM      1  C   UNL A   1      34.217  33.332  28.037  1.00  0.00     0.202 C 
ENDROOT
BRANCH   1   2
ATOM      2  C   UNL A   1      34.131  31.833  28.209  1.00  0.00     0.261 C 
BRANCH   2   3
ATOM      3  O   UNL A   1      33.681  31.211  26.995  1.00  0.00    -0.463 OA
BRANCH   3   4
ATOM      4  C   UNL A   1      33.727  29.850  26.971  1.00  0.00     0.310 C 
ATOM      5  O   UNL A   1      34.485  29.156  27.633  1.00  0.00    -0.252 OA
BRANCH   4   6
ATOM      6  C   UNL A   1      32.637  29.321  26.070  1.00  0.00     0.119 C 
ATOM      7  C   UNL A   1      32.496  27.766  26.158  1.00  0.00     0.100 C 
ATOM      8  C   UNL A   1      32.455  27.353  24.664  1.00  0.00     0.025 C 
ATOM      9  C   UNL A   1      32.915  29.546  24.566  1.00  0.00     0.027 C 
ATOM     10  C   UNL A   1      33.870  27.490  24.142  1.00  0.00    -0.027 C 
ATOM     11  C   UNL A   1      31.864  28.597  23.982  1.00  0.00     0.017 C 
ATOM     12  C   UNL A   1      34.156  28.801  24.118  1.00  0.00    -0.027 C 
BRANCH   7  13
ATOM     13  C   UNL A   1      31.320  27.264  26.983  1.00  0.00     0.228 C 
ATOM     14  N   UNL A   1      30.649  26.098  26.689  1.00  0.00    -0.326 N 
ATOM     15  H   UNL A   1      29.883  25.934  27.286  1.00  0.00     0.169 HD
ATOM     16  O   UNL A   1      30.905  27.920  27.945  1.00  0.00    -0.274 OA
BRANCH  14  17
ATOM     17  C   UNL A   1      30.821  25.084  25.714  1.00  0.00     0.044 A 
ATOM     18  C   UNL A   1      29.198  26.217  24.084  1.00  0.00     0.046 C 
ATOM     19  C   UNL A   1      30.205  25.168  24.460  1.00  0.00    -0.027 A 
ATOM     20  C   UNL A   1      30.512  24.196  23.481  1.00  0.00     0.006 A 
ATOM     21  C   UNL A   1      31.411  23.156  23.737  1.00  0.00     0.014 A 
ATOM     22  C   UNL A   1      31.580  23.946  25.970  1.00  0.00     0.040 A 
ATOM     23  C   UNL A   1      31.951  22.999  25.007  1.00  0.00     0.041 A 
BRANCH  23  24
ATOM     24  C   UNL A   1      32.924  21.867  25.224  1.00  0.00     0.251 C 
ATOM     25  O   UNL A   1      32.571  20.715  24.963  1.00  0.00    -0.269 OA
ATOM     26  N   UNL A   1      34.212  22.071  25.674  1.00  0.00    -0.349 N 
ATOM     27  H   UNL A   1      34.793  21.277  25.709  1.00  0.00     0.164 HD
BRANCH  26  28
ATOM     28  C   UNL A   1      34.787  23.284  26.091  1.00  0.00     0.082 C 
ATOM     29  C   UNL A   1      36.232  23.482  25.885  1.00  0.00     0.027 C 
ATOM     30  C   UNL A   1      35.252  24.422  25.241  1.00  0.00     0.027 C 
ENDBRANCH  26  28
ENDBRANCH  23  24
ENDBRANCH  14  17
ENDBRANCH   7  13
ENDBRANCH   4   6
ENDBRANCH   3   4
ENDBRANCH   2   3
ENDBRANCH   1   2
BRANCH   1  31
ATOM     31  O   UNL A   1      33.258  33.905  28.920  1.00  0.00    -0.374 OA
BRANCH  31  32
ATOM     32  C   UNL A   1      33.196  35.324  28.923  1.00  0.00     0.202 C 
BRANCH  32  33
ATOM     33  C   UNL A   1      32.995  35.939  30.315  1.00  0.00     0.261 C 
BRANCH  33  34
ATOM     34  O   UNL A   1      33.106  34.905  31.311  1.00  0.00    -0.460 OA
BRANCH  34  35
ATOM     35  C   UNL A   1      34.217  34.980  32.097  1.00  0.00     0.338 C 
ATOM     36  O   UNL A   1      34.578  35.952  32.723  1.00  0.00    -0.246 OA
BRANCH  35  37
ATOM     37  C   UNL A   1      35.080  33.791  31.839  1.00  0.00     0.060 A 
ATOM     38  C   UNL A   1      35.065  32.719  32.748  1.00  0.00     0.016 A 
ATOM     39  C   UNL A   1      36.087  33.871  30.879  1.00  0.00     0.016 A 
ATOM     40  C   UNL A   1      36.123  31.799  32.769  1.00  0.00     0.010 A 
ATOM     41  C   UNL A   1      37.167  33.014  30.962  1.00  0.00     0.010 A 
ATOM     42  C   UNL A   1      37.208  31.988  31.917  1.00  0.00    -0.014 A 
BRANCH  42  43
ATOM     43  C   UNL A   1      38.443  31.192  31.962  1.00  0.00     0.031 A 
ATOM     44  C   UNL A   1      38.522  29.960  31.127  1.00  0.00     0.074 A 
ATOM     45  C   UNL A   1      39.575  31.726  32.487  1.00  0.00     0.049 A 
ATOM     46  N   UNL A   1      39.497  29.119  31.131  1.00  0.00    -0.248 NA
ATOM     47  C   UNL A   1      37.506  29.615  30.139  1.00  0.00     0.031 C 
ATOM     48  C   UNL A   1      40.961  31.280  32.297  1.00  0.00     0.029 A 
ATOM     49  N   UNL A   1      39.738  32.850  33.313  1.00  0.00    -0.354 N 
ATOM     50  C   UNL A   1      39.451  28.396  29.954  1.00  0.00     0.074 A 
ATOM     51  C   UNL A   1      38.140  28.682  29.423  1.00  0.00     0.031 C 
ATOM     52  C   UNL A   1      41.784  31.940  33.126  1.00  0.00     0.029 A 
ATOM     53  C   UNL A   1      40.918  32.632  34.055  1.00  0.00     0.049 A 
ATOM     54  H   UNL A   1      39.146  33.633  33.365  1.00  0.00     0.167 HD
ATOM     55  C   UNL A   1      40.592  27.771  29.516  1.00  0.00     0.037 A 
ATOM     56  C   UNL A   1      40.845  32.345  35.384  1.00  0.00     0.037 A 
ATOM     57  C   UNL A   1      41.686  27.931  30.511  1.00  0.00     0.049 A 
ATOM     58  C   UNL A   1      41.353  30.937  35.597  1.00  0.00     0.074 A 
ATOM     59  C   UNL A   1      42.941  28.516  30.480  1.00  0.00     0.029 A 
ATOM     60  N   UNL A   1      41.447  27.656  31.871  1.00  0.00    -0.354 N 
ATOM     61  N   UNL A   1      41.163  29.956  34.743  1.00  0.00    -0.248 NA
ATOM     62  C   UNL A   1      42.336  30.614  36.626  1.00  0.00     0.031 C 
ATOM     63  C   UNL A   1      43.364  28.754  31.817  1.00  0.00     0.029 A 
ATOM     64  C   UNL A   1      42.417  28.222  32.682  1.00  0.00     0.049 A 
ATOM     65  H   UNL A   1      40.686  27.128  32.204  1.00  0.00     0.167 HD
ATOM     66  C   UNL A   1      42.103  28.988  34.979  1.00  0.00     0.074 A 
ATOM     67  C   UNL A   1      42.755  29.404  36.216  1.00  0.00     0.031 C 
ATOM     68  C   UNL A   1      42.461  27.986  34.121  1.00  0.00     0.037 A 
BRANCH  55  69
ATOM     69  C   UNL A   1      40.805  27.265  28.074  1.00  0.00     0.057 A 
ATOM     70  C   UNL A   1      40.337  26.001  27.652  1.00  0.00     0.134 A 
ATOM     71  C   UNL A   1      41.496  27.948  27.051  1.00  0.00     0.134 A 
ATOM     72  F   UNL A   1      39.515  25.266  28.408  1.00  0.00    -0.206 F 
ATOM     73  C   UNL A   1      40.649  25.426  26.403  1.00  0.00     0.040 A 
ATOM     74  C   UNL A   1      41.844  27.378  25.811  1.00  0.00     0.040 A 
ATOM     75  F   UNL A   1      41.795  29.245  27.136  1.00  0.00    -0.206 F 
ATOM     76  C   UNL A   1      41.437  26.100  25.487  1.00  0.00     0.006 A 
ENDBRANCH  55  69
BRANCH  56  77
ATOM     77  C   UNL A   1      39.750  33.102  36.051  1.00  0.00     0.057 A 
ATOM     78  C   UNL A   1      38.565  32.387  36.339  1.00  0.00     0.134 A 
ATOM     79  C   UNL A   1      39.968  34.267  36.792  1.00  0.00     0.134 A 
ATOM     80  F   UNL A   1      38.301  31.239  35.693  1.00  0.00    -0.206 F 
ATOM     81  C   UNL A   1      37.707  32.743  37.387  1.00  0.00     0.040 A 
ATOM     82  C   UNL A   1      39.108  34.635  37.842  1.00  0.00     0.040 A 
ATOM     83  F   UNL A   1      41.078  34.995  36.608  1.00  0.00    -0.206 F 
ATOM     84  C   UNL A   1      38.001  33.852  38.170  1.00  0.00     0.006 A 
ENDBRANCH  56  77
BRANCH  68  85
ATOM     85  C   UNL A   1      43.057  26.690  34.606  1.00  0.00     0.057 A 
ATOM     86  C   UNL A   1      42.263  25.617  35.037  1.00  0.00     0.134 A 
ATOM     87  C   UNL A   1      44.430  26.402  34.443  1.00  0.00     0.134 A 
ATOM     88  F   UNL A   1      40.931  25.726  35.141  1.00  0.00    -0.206 F 
ATOM     89  C   UNL A   1      42.799  24.362  35.330  1.00  0.00     0.040 A 
ATOM     90  C   UNL A   1      44.967  25.138  34.686  1.00  0.00     0.040 A 
ATOM     91  F   UNL A   1      45.308  27.315  34.004  1.00  0.00    -0.206 F 
ATOM     92  C   UNL A   1      44.152  24.114  35.139  1.00  0.00     0.006 A 
ENDBRANCH  68  85
ENDBRANCH  42  43
ENDBRANCH  35  37
ENDBRANCH  34  35
ENDBRANCH  33  34
ENDBRANCH  32  33
ENDBRANCH  31  32
ENDBRANCH   1  31
TORSDOF 18
ENDMDL
MODEL 2
REMARK VINA RESULT:     -12.1      2.920      5.054
REMARK SMILES Cc1ccc(C(=O)NC2CC2)cc1NC(=O)[C@@H]1[C@@H](C(=O)OCCOCCOC(=O)c2ccc(-c3c4nc(c(-c5c(F)cccc5F)c5ccc([nH]5)c(-c5c(F)cccc5F)c5nc(c(-c6c(F)cccc6F)c6ccc3[nH]6)C=C5)C=C4)cc2)[C@H]2C=C[C@@H]1C2
REMARK SMILES IDX 23 1 22 2 21 3 19 4 20 5 18 6 17 7 87 8 84 9 86 10 88 11
REMARK SMILES IDX 85 12 15 13 14 14 16 16 13 17 1 18 2 19 3 20 4 21 12 22 5 23
REMARK SMILES IDX 6 24 7 25 8 26 9 28 10 29 11 30 24 31 25 32 26 33 27 34
REMARK SMILES IDX 28 35 29 36 30 37 31 38 83 39 32 40 82 41 33 42 34 43 35 44
REMARK SMILES IDX 76 45 36 46 81 47 75 48 77 49 37 50 80 51 74 52 73 53 38 55
REMARK SMILES IDX 64 56 47 57 63 58 48 59 51 60 62 61 78 62 49 63 50 64 61 66
REMARK SMILES IDX 79 67 52 68 39 69 40 70 45 71 41 72 42 73 44 74 46 75 43 76
REMARK SMILES IDX 65 77 66 78 71 79 67 80 68 81 70 82 72 83 69 84 53 85 54 86
REMARK SMILES IDX 59 87 55 88 56 89 58 90 60 91 57 92
REMARK H PARENT 14 15 8 27 77 54 51 65
REMARK Flexibility Score: inf
ROOT
ATOM      1  C   UNL A   1      32.468  29.628  27.269  1.00  0.00     0.202 C 
ENDROOT
BRANCH   1   2
ATOM      2  C   UNL A   1      31.639  28.840  26.281  1.00  0.00     0.261 C 
BRANCH   2   3
ATOM      3  O   UNL A   1      32.487  28.142  25.354  1.00  0.00    -0.463 OA
BRANCH   3   4
ATOM      4  C   UNL A   1      32.658  26.812  25.591  1.00  0.00     0.310 C 
ATOM      5  O   UNL A   1      33.658  26.303  26.079  1.00  0.00    -0.252 OA
BRANCH   4   6
ATOM      6  C   UNL A   1      31.391  26.068  25.244  1.00  0.00     0.119 C 
ATOM      7  C   UNL A   1      31.630  24.530  25.088  1.00  0.00     0.100 C 
ATOM      8  C   UNL A   1      30.910  24.219  23.750  1.00  0.00     0.025 C 
ATOM      9  C   UNL A   1      30.804  26.455  23.867  1.00  0.00     0.027 C 
ATOM     10  C   UNL A   1      31.794  24.766  22.648  1.00  0.00    -0.027 C 
ATOM     11  C   UNL A   1      29.818  25.298  23.691  1.00  0.00     0.017 C 
ATOM     12  C   UNL A   1      31.758  26.104  22.742  1.00  0.00    -0.027 C 
BRANCH   7  13
ATOM     13  C   UNL A   1      31.174  23.677  26.262  1.00  0.00     0.228 C 
ATOM     14  N   UNL A   1      31.616  22.389  26.462  1.00  0.00    -0.326 N 
ATOM     15  H   UNL A   1      31.195  21.953  27.238  1.00  0.00     0.169 HD
ATOM     16  O   UNL A   1      30.351  24.117  27.072  1.00  0.00    -0.274 OA
BRANCH  14  17
ATOM     17  C   UNL A   1      32.547  21.554  25.794  1.00  0.00     0.044 A 
ATOM     18  C   UNL A   1      34.553  22.757  26.844  1.00  0.00     0.046 C 
ATOM     19  C   UNL A   1      33.923  21.669  26.023  1.00  0.00    -0.027 A 
ATOM     20  C   UNL A   1      34.795  20.729  25.429  1.00  0.00     0.006 A 
ATOM     21  C   UNL A   1      34.318  19.695  24.618  1.00  0.00     0.014 A 
ATOM     22  C   UNL A   1      32.140  20.610  24.856  1.00  0.00     0.040 A 
ATOM     23  C   UNL A   1      32.968  19.629  24.297  1.00  0.00     0.041 A 
BRANCH  23  24
ATOM     24  C   UNL A   1      32.506  18.486  23.428  1.00  0.00     0.251 C 
ATOM     25  O   UNL A   1      32.132  18.722  22.277  1.00  0.00    -0.269 OA
ATOM     26  N   UNL A   1      32.515  17.176  23.858  1.00  0.00    -0.349 N 
ATOM     27  H   UNL A   1      32.268  16.495  23.191  1.00  0.00     0.164 HD
BRANCH  26  28
ATOM     28  C   UNL A   1      32.834  16.702  25.143  1.00  0.00     0.082 C 
ATOM     29  C   UNL A   1      32.711  15.259  25.409  1.00  0.00     0.027 C 
ATOM     30  C   UNL A   1      34.045  15.934  25.566  1.00  0.00     0.027 C 
ENDBRANCH  26  28
ENDBRANCH  23  24
ENDBRANCH  14  17
ENDBRANCH   7  13
ENDBRANCH   4   6
ENDBRANCH   3   4
ENDBRANCH   2   3
ENDBRANCH   1   2
BRANCH   1  31
ATOM     31  O   UNL A   1      32.588  30.948  26.748  1.00  0.00    -0.374 OA
BRANCH  31  32
ATOM     32  C   UNL A   1      33.478  31.806  27.447  1.00  0.00     0.202 C 
BRANCH  32  33
ATOM     33  C   UNL A   1      34.450  31.071  28.381  1.00  0.00     0.261 C 
BRANCH  33  34
ATOM     34  O   UNL A   1      35.712  30.896  27.710  1.00  0.00    -0.460 OA
BRANCH  34  35
ATOM     35  C   UNL A   1      36.139  29.605  27.613  1.00  0.00     0.338 C 
ATOM     36  O   UNL A   1      35.453  28.653  27.311  1.00  0.00    -0.246 OA
BRANCH  35  37
ATOM     37  C   UNL A   1      37.498  29.491  28.217  1.00  0.00     0.060 A 
ATOM     38  C   UNL A   1      38.629  29.721  27.416  1.00  0.00     0.016 A 
ATOM     39  C   UNL A   1      37.643  28.890  29.466  1.00  0.00     0.016 A 
ATOM     40  C   UNL A   1      39.884  29.240  27.816  1.00  0.00     0.010 A 
ATOM     41  C   UNL A   1      38.863  28.343  29.813  1.00  0.00     0.010 A 
ATOM     42  C   UNL A   1      39.987  28.492  28.986  1.00  0.00    -0.014 A 
BRANCH  42  43
ATOM     43  C   UNL A   1      41.208  27.798  29.420  1.00  0.00     0.031 A 
ATOM     44  C   UNL A   1      41.572  26.520  28.745  1.00  0.00     0.074 A 
ATOM     45  C   UNL A   1      42.129  28.451  30.171  1.00  0.00     0.049 A 
ATOM     46  N   UNL A   1      42.556  25.758  29.075  1.00  0.00    -0.248 NA
ATOM     47  C   UNL A   1      40.875  26.030  27.561  1.00  0.00     0.031 C 
ATOM     48  C   UNL A   1      43.538  28.101  30.387  1.00  0.00     0.029 A 
ATOM     49  N   UNL A   1      42.006  29.640  30.910  1.00  0.00    -0.354 N 
ATOM     50  C   UNL A   1      42.863  24.953  27.995  1.00  0.00     0.074 A 
ATOM     51  C   UNL A   1      41.726  25.101  27.119  1.00  0.00     0.031 C 
ATOM     52  C   UNL A   1      44.074  28.877  31.340  1.00  0.00     0.029 A 
ATOM     53  C   UNL A   1      42.957  29.566  31.948  1.00  0.00     0.049 A 
ATOM     54  H   UNL A   1      41.379  30.378  30.738  1.00  0.00     0.167 HD
ATOM     55  C   UNL A   1      44.112  24.388  27.924  1.00  0.00     0.037 A 
ATOM     56  C   UNL A   1      42.551  29.368  33.233  1.00  0.00     0.037 A 
ATOM     57  C   UNL A   1      44.893  24.700  29.151  1.00  0.00     0.049 A 
ATOM     58  C   UNL A   1      43.061  28.020  33.693  1.00  0.00     0.074 A 
ATOM     59  C   UNL A   1      46.078  25.375  29.396  1.00  0.00     0.029 A 
ATOM     60  N   UNL A   1      44.319  24.503  30.421  1.00  0.00    -0.354 N 
ATOM     61  N   UNL A   1      43.158  26.971  32.909  1.00  0.00    -0.248 NA
ATOM     62  C   UNL A   1      43.752  27.846  34.966  1.00  0.00     0.031 C 
ATOM     63  C   UNL A   1      46.118  25.737  30.771  1.00  0.00     0.029 A 
ATOM     64  C   UNL A   1      45.007  25.196  31.403  1.00  0.00     0.049 A 
ATOM     65  H   UNL A   1      43.527  23.943  30.590  1.00  0.00     0.167 HD
ATOM     66  C   UNL A   1      44.054  26.096  33.464  1.00  0.00     0.074 A 
ATOM     67  C   UNL A   1      44.331  26.646  34.787  1.00  0.00     0.031 C 
ATOM     68  C   UNL A   1      44.681  25.066  32.819  1.00  0.00     0.037 A 
BRANCH  55  69
ATOM     69  C   UNL A   1      44.727  23.799  26.637  1.00  0.00     0.057 A 
ATOM     70  C   UNL A   1      44.345  22.534  26.141  1.00  0.00     0.134 A 
ATOM     71  C   UNL A   1      45.731  24.402  25.849  1.00  0.00     0.134 A 
ATOM     72  F   UNL A   1      43.295  21.870  26.636  1.00  0.00    -0.206 F 
ATOM     73  C   UNL A   1      44.992  21.884  25.070  1.00  0.00     0.040 A 
ATOM     74  C   UNL A   1      46.410  23.756  24.798  1.00  0.00     0.040 A 
ATOM     75  F   UNL A   1      46.056  25.689  25.973  1.00  0.00    -0.206 F 
ATOM     76  C   UNL A   1      46.054  22.479  24.414  1.00  0.00     0.006 A 
ENDBRANCH  55  69
BRANCH  56  77
ATOM     77  C   UNL A   1      41.278  30.084  33.524  1.00  0.00     0.057 A 
ATOM     78  C   UNL A   1      41.361  31.485  33.693  1.00  0.00     0.134 A 
ATOM     79  C   UNL A   1      40.021  29.571  33.197  1.00  0.00     0.134 A 
ATOM     80  F   UNL A   1      42.542  32.058  33.975  1.00  0.00    -0.206 F 
ATOM     81  C   UNL A   1      40.282  32.340  33.431  1.00  0.00     0.040 A 
ATOM     82  C   UNL A   1      38.930  30.421  32.938  1.00  0.00     0.040 A 
ATOM     83  F   UNL A   1      39.852  28.257  32.990  1.00  0.00    -0.206 F 
ATOM     84  C   UNL A   1      39.069  31.807  33.013  1.00  0.00     0.006 A 
ENDBRANCH  56  77
BRANCH  68  85
ATOM     85  C   UNL A   1      45.198  23.857  33.555  1.00  0.00     0.057 A 
ATOM     86  C   UNL A   1      46.479  23.820  34.125  1.00  0.00     0.134 A 
ATOM     87  C   UNL A   1      44.346  22.787  33.906  1.00  0.00     0.134 A 
ATOM     88  F   UNL A   1      47.355  24.821  33.952  1.00  0.00    -0.206 F 
ATOM     89  C   UNL A   1      46.901  22.773  34.946  1.00  0.00     0.040 A 
ATOM     90  C   UNL A   1      44.742  21.762  34.764  1.00  0.00     0.040 A 
ATOM     91  F   UNL A   1      43.082  22.702  33.469  1.00  0.00    -0.206 F 
ATOM     92  C   UNL A   1      46.027  21.748  35.281  1.00  0.00     0.006 A 
ENDBRANCH  68  85
ENDBRANCH  42  43
ENDBRANCH  35  37
ENDBRANCH  34  35
ENDBRANCH  33  34
ENDBRANCH  32  33
ENDBRANCH  31  32
ENDBRANCH   1  31
TORSDOF 18
ENDMDL
MODEL 3
REMARK VINA RESULT:     -11.9      2.884      5.610
REMARK SMILES Cc1ccc(C(=O)NC2CC2)cc1NC(=O)[C@@H]1[C@@H](C(=O)OCCOCCOC(=O)c2ccc(-c3c4nc(c(-c5c(F)cccc5F)c5ccc([nH]5)c(-c5c(F)cccc5F)c5nc(c(-c6c(F)cccc6F)c6ccc3[nH]6)C=C5)C=C4)cc2)[C@H]2C=C[C@@H]1C2
REMARK SMILES IDX 23 1 22 2 21 3 19 4 20 5 18 6 17 7 87 8 84 9 86 10 88 11
REMARK SMILES IDX 85 12 15 13 14 14 16 16 13 17 1 18 2 19 3 20 4 21 12 22 5 23
REMARK SMILES IDX 6 24 7 25 8 26 9 28 10 29 11 30 24 31 25 32 26 33 27 34
REMARK SMILES IDX 28 35 29 36 30 37 31 38 83 39 32 40 82 41 33 42 34 43 35 44
REMARK SMILES IDX 76 45 36 46 81 47 75 48 77 49 37 50 80 51 74 52 73 53 38 55
REMARK SMILES IDX 64 56 47 57 63 58 48 59 51 60 62 61 78 62 49 63 50 64 61 66
REMARK SMILES IDX 79 67 52 68 39 69 40 70 45 71 41 72 42 73 44 74 46 75 43 76
REMARK SMILES IDX 65 77 66 78 71 79 67 80 68 81 70 82 72 83 69 84 53 85 54 86
REMARK SMILES IDX 59 87 55 88 56 89 58 90 60 91 57 92
REMARK H PARENT 14 15 8 27 77 54 51 65
REMARK Flexibility Score: inf
ROOT
ATOM      1  C   UNL A   1      33.659  27.589  26.475  1.00  0.00     0.202 C 
ENDROOT
BRANCH   1   2
ATOM      2  C   UNL A   1      33.270  26.163  26.160  1.00  0.00     0.261 C 
BRANCH   2   3
ATOM      3  O   UNL A   1      33.771  25.776  24.870  1.00  0.00    -0.463 OA
BRANCH   3   4
ATOM      4  C   UNL A   1      34.406  24.573  24.814  1.00  0.00     0.310 C 
ATOM      5  O   UNL A   1      35.290  24.203  25.574  1.00  0.00    -0.252 OA
BRANCH   4   6
ATOM      6  C   UNL A   1      33.789  23.725  23.728  1.00  0.00     0.119 C 
ATOM      7  C   UNL A   1      32.537  24.405  23.083  1.00  0.00     0.100 C 
ATOM      8  C   UNL A   1      31.497  23.255  23.091  1.00  0.00     0.025 C 
ATOM      9  C   UNL A   1      33.213  22.385  24.242  1.00  0.00     0.027 C 
ATOM     10  C   UNL A   1      31.039  23.100  24.526  1.00  0.00    -0.027 C 
ATOM     11  C   UNL A   1      32.377  21.997  23.020  1.00  0.00     0.017 C 
ATOM     12  C   UNL A   1      32.078  22.613  25.221  1.00  0.00    -0.027 C 
BRANCH   7  13
ATOM     13  C   UNL A   1      32.769  25.035  21.718  1.00  0.00     0.228 C 
ATOM     14  N   UNL A   1      32.391  26.324  21.419  1.00  0.00    -0.326 N 
ATOM     15  H   UNL A   1      32.566  26.570  20.482  1.00  0.00     0.169 HD
ATOM     16  O   UNL A   1      33.289  24.380  20.807  1.00  0.00    -0.274 OA
BRANCH  14  17
ATOM     17  C   UNL A   1      31.804  27.375  22.169  1.00  0.00     0.044 A 
ATOM     18  C   UNL A   1      34.080  28.192  23.021  1.00  0.00     0.046 C 
ATOM     19  C   UNL A   1      32.590  28.301  22.863  1.00  0.00    -0.027 A 
ATOM     20  C   UNL A   1      31.960  29.401  23.487  1.00  0.00     0.006 A 
ATOM     21  C   UNL A   1      30.574  29.581  23.432  1.00  0.00     0.014 A 
ATOM     22  C   UNL A   1      30.423  27.511  22.278  1.00  0.00     0.040 A 
ATOM     23  C   UNL A   1      29.771  28.617  22.837  1.00  0.00     0.041 A 
BRANCH  23  24
ATOM     24  C   UNL A   1      28.283  28.868  22.795  1.00  0.00     0.251 C 
ATOM     25  O   UNL A   1      27.526  28.071  23.352  1.00  0.00    -0.269 OA
ATOM     26  N   UNL A   1      27.735  29.976  22.183  1.00  0.00    -0.349 N 
ATOM     27  H   UNL A   1      26.761  30.089  22.277  1.00  0.00     0.164 HD
BRANCH  26  28
ATOM     28  C   UNL A   1      28.409  30.960  21.438  1.00  0.00     0.082 C 
ATOM     29  C   UNL A   1      27.610  32.001  20.770  1.00  0.00     0.027 C 
ATOM     30  C   UNL A   1      28.634  32.393  21.799  1.00  0.00     0.027 C 
ENDBRANCH  26  28
ENDBRANCH  23  24
ENDBRANCH  14  17
ENDBRANCH   7  13
ENDBRANCH   4   6
ENDBRANCH   3   4
ENDBRANCH   2   3
ENDBRANCH   1   2
BRANCH   1  31
ATOM     31  O   UNL A   1      32.481  28.246  26.932  1.00  0.00    -0.374 OA
BRANCH  31  32
ATOM     32  C   UNL A   1      32.634  29.618  27.269  1.00  0.00     0.202 C 
BRANCH  32  33
ATOM     33  C   UNL A   1      34.052  30.162  27.047  1.00  0.00     0.261 C 
BRANCH  33  34
ATOM     34  O   UNL A   1      34.607  30.570  28.311  1.00  0.00    -0.460 OA
BRANCH  34  35
ATOM     35  C   UNL A   1      35.872  31.076  28.249  1.00  0.00     0.338 C 
ATOM     36  O   UNL A   1      36.173  32.185  27.868  1.00  0.00    -0.246 OA
BRANCH  35  37
ATOM     37  C   UNL A   1      36.852  29.967  28.438  1.00  0.00     0.060 A 
ATOM     38  C   UNL A   1      36.906  29.297  29.672  1.00  0.00     0.016 A 
ATOM     39  C   UNL A   1      37.881  29.799  27.513  1.00  0.00     0.016 A 
ATOM     40  C   UNL A   1      38.044  28.559  30.023  1.00  0.00     0.010 A 
ATOM     41  C   UNL A   1      39.034  29.144  27.899  1.00  0.00     0.010 A 
ATOM     42  C   UNL A   1      39.137  28.538  29.160  1.00  0.00    -0.014 A 
BRANCH  42  43
ATOM     43  C   UNL A   1      40.440  27.942  29.489  1.00  0.00     0.031 A 
ATOM     44  C   UNL A   1      40.820  26.663  28.824  1.00  0.00     0.074 A 
ATOM     45  C   UNL A   1      41.386  28.683  30.119  1.00  0.00     0.049 A 
ATOM     46  N   UNL A   1      41.881  25.980  29.077  1.00  0.00    -0.248 NA
ATOM     47  C   UNL A   1      40.042  26.082  27.736  1.00  0.00     0.031 C 
ATOM     48  C   UNL A   1      42.830  28.432  30.200  1.00  0.00     0.029 A 
ATOM     49  N   UNL A   1      41.257  29.890  30.826  1.00  0.00    -0.354 N 
ATOM     50  C   UNL A   1      42.132  25.152  27.999  1.00  0.00     0.074 A 
ATOM     51  C   UNL A   1      40.905  25.192  27.241  1.00  0.00     0.031 C 
ATOM     52  C   UNL A   1      43.406  29.279  31.066  1.00  0.00     0.029 A 
ATOM     53  C   UNL A   1      42.311  29.919  31.762  1.00  0.00     0.049 A 
ATOM     54  H   UNL A   1      40.568  30.579  30.694  1.00  0.00     0.167 HD
ATOM     55  C   UNL A   1      43.403  24.665  27.819  1.00  0.00     0.037 A 
ATOM     56  C   UNL A   1      42.050  29.748  33.088  1.00  0.00     0.037 A 
ATOM     57  C   UNL A   1      44.281  25.076  28.948  1.00  0.00     0.049 A 
ATOM     58  C   UNL A   1      42.695  28.456  33.538  1.00  0.00     0.074 A 
ATOM     59  C   UNL A   1      45.435  25.835  29.046  1.00  0.00     0.029 A 
ATOM     60  N   UNL A   1      43.851  24.896  30.276  1.00  0.00    -0.354 N 
ATOM     61  N   UNL A   1      42.783  27.383  32.784  1.00  0.00    -0.248 NA
ATOM     62  C   UNL A   1      43.520  28.377  34.739  1.00  0.00     0.031 C 
ATOM     63  C   UNL A   1      45.589  26.255  30.396  1.00  0.00     0.029 A 
ATOM     64  C   UNL A   1      44.586  25.671  31.157  1.00  0.00     0.049 A 
ATOM     65  H   UNL A   1      43.120  24.294  30.545  1.00  0.00     0.167 HD
ATOM     66  C   UNL A   1      43.787  26.590  33.274  1.00  0.00     0.074 A 
ATOM     67  C   UNL A   1      44.158  27.211  34.541  1.00  0.00     0.031 C 
ATOM     68  C   UNL A   1      44.414  25.578  32.603  1.00  0.00     0.037 A 
BRANCH  55  69
ATOM     69  C   UNL A   1      43.923  24.066  26.496  1.00  0.00     0.057 A 
ATOM     70  C   UNL A   1      43.483  22.810  26.024  1.00  0.00     0.134 A 
ATOM     71  C   UNL A   1      44.889  24.647  25.647  1.00  0.00     0.134 A 
ATOM     72  F   UNL A   1      42.451  22.169  26.583  1.00  0.00    -0.206 F 
ATOM     73  C   UNL A   1      44.048  22.147  24.915  1.00  0.00     0.040 A 
ATOM     74  C   UNL A   1      45.487  23.987  24.556  1.00  0.00     0.040 A 
ATOM     75  F   UNL A   1      45.250  25.926  25.751  1.00  0.00    -0.206 F 
ATOM     76  C   UNL A   1      45.080  22.719  24.195  1.00  0.00     0.006 A 
ENDBRANCH  55  69
BRANCH  56  77
ATOM     77  C   UNL A   1      40.768  30.393  33.484  1.00  0.00     0.057 A 
ATOM     78  C   UNL A   1      40.783  31.798  33.636  1.00  0.00     0.134 A 
ATOM     79  C   UNL A   1      39.519  29.805  33.271  1.00  0.00     0.134 A 
ATOM     80  F   UNL A   1      41.949  32.442  33.811  1.00  0.00    -0.206 F 
ATOM     81  C   UNL A   1      39.638  32.586  33.463  1.00  0.00     0.040 A 
ATOM     82  C   UNL A   1      38.363  30.587  33.102  1.00  0.00     0.040 A 
ATOM     83  F   UNL A   1      39.410  28.481  33.088  1.00  0.00    -0.206 F 
ATOM     84  C   UNL A   1      38.426  31.980  33.156  1.00  0.00     0.006 A 
ENDBRANCH  56  77
BRANCH  68  85
ATOM     85  C   UNL A   1      45.083  24.435  33.322  1.00  0.00     0.057 A 
ATOM     86  C   UNL A   1      46.422  24.494  33.737  1.00  0.00     0.134 A 
ATOM     87  C   UNL A   1      44.342  23.340  33.817  1.00  0.00     0.134 A 
ATOM     88  F   UNL A   1      47.211  25.530  33.419  1.00  0.00    -0.206 F 
ATOM     89  C   UNL A   1      46.997  23.512  34.545  1.00  0.00     0.040 A 
ATOM     90  C   UNL A   1      44.894  22.380  34.665  1.00  0.00     0.040 A 
ATOM     91  F   UNL A   1      43.043  23.167  33.538  1.00  0.00    -0.206 F 
ATOM     92  C   UNL A   1      46.229  22.459  35.025  1.00  0.00     0.006 A 
ENDBRANCH  68  85
ENDBRANCH  42  43
ENDBRANCH  35  37
ENDBRANCH  34  35
ENDBRANCH  33  34
ENDBRANCH  32  33
ENDBRANCH  31  32
ENDBRANCH   1  31
TORSDOF 18
ENDMDL
