MODEL 1
REMARK VINA RESULT:     -10.6      0.000      0.000
REMARK SMILES C[C@@H](C(=O)OCCOCCOC(=O)c1ccc(-c2c3nc(c(-c4c(F)cccc4F)c4ccc([nH]4)c(-c4c(F)cccc4F)c4nc(c(-c5c(F)cccc5F)c5ccc2[nH]5)C=C4)C=C3)cc1)c1ccc(Cc2cccs2)cc1F
REMARK SMILES IDX 7 1 6 2 5 3 3 4 4 5 2 6 1 7 68 8 69 9 79 10 70 11 78 12
REMARK SMILES IDX 80 13 71 14 72 15 73 16 74 17 77 18 75 19 76 20 8 21 9 22
REMARK SMILES IDX 10 23 11 24 12 25 13 26 14 27 15 28 67 29 16 30 66 31 17 32
REMARK SMILES IDX 18 33 19 34 60 35 20 36 65 37 59 38 61 39 21 40 64 41 58 42
REMARK SMILES IDX 57 43 22 45 48 46 31 47 47 48 32 49 35 50 46 51 62 52 33 53
REMARK SMILES IDX 34 54 45 56 63 57 36 58 23 59 24 60 29 61 25 62 26 63 28 64
REMARK SMILES IDX 30 65 27 66 49 67 50 68 55 69 51 70 52 71 54 72 56 73 53 74
REMARK SMILES IDX 37 75 38 76 43 77 39 78 40 79 42 80 44 81 41 82
REMARK H PARENT 61 44 35 55
REMARK Flexibility Score: inf
ROOT
ATOM      1  C   UNL A   1      34.306  29.611  27.137  1.00  0.00     0.202 C 
ENDROOT
BRANCH   1   2
ATOM      2  C   UNL A   1      33.207  28.549  27.218  1.00  0.00     0.261 C 
BRANCH   2   3
ATOM      3  O   UNL A   1      33.558  27.407  26.413  1.00  0.00    -0.463 OA
BRANCH   3   4
ATOM      4  C   UNL A   1      32.556  26.511  26.188  1.00  0.00     0.313 C 
ATOM      5  O   UNL A   1      31.800  26.102  27.063  1.00  0.00    -0.252 OA
BRANCH   4   6
ATOM      6  C   UNL A   1      32.451  26.095  24.715  1.00  0.00     0.129 C 
ATOM      7  C   UNL A   1      33.741  26.256  23.899  1.00  0.00     0.025 C 
BRANCH   6   8
ATOM      8  C   UNL A   1      31.249  26.783  24.077  1.00  0.00     0.002 A 
ATOM      9  C   UNL A   1      31.333  28.032  23.443  1.00  0.00     0.008 A 
ATOM     10  C   UNL A   1      29.980  26.212  24.224  1.00  0.00     0.127 A 
ATOM     11  C   UNL A   1      30.179  28.689  23.000  1.00  0.00     0.004 A 
ATOM     12  C   UNL A   1      28.826  26.862  23.787  1.00  0.00     0.043 A 
ATOM     13  F   UNL A   1      29.856  25.012  24.808  1.00  0.00    -0.207 F 
ATOM     14  C   UNL A   1      28.912  28.117  23.175  1.00  0.00    -0.040 A 
BRANCH  14  15
ATOM     15  C   UNL A   1      27.665  28.842  22.719  1.00  0.00     0.082 C 
BRANCH  15  16
ATOM     16  C   UNL A   1      27.909  30.254  22.256  1.00  0.00     0.009 A 
ATOM     17  C   UNL A   1      28.008  30.738  20.964  1.00  0.00     0.016 A 
ATOM     18  S   UNL A   1      28.038  31.523  23.404  1.00  0.00    -0.149 S 
ATOM     19  C   UNL A   1      28.176  32.154  20.921  1.00  0.00     0.012 A 
ATOM     20  C   UNL A   1      28.200  32.707  22.181  1.00  0.00     0.065 A 
ENDBRANCH  15  16
ENDBRANCH  14  15
ENDBRANCH   6   8
ENDBRANCH   4   6
ENDBRANCH   3   4
ENDBRANCH   2   3
ENDBRANCH   1   2
BRANCH   1  21
ATOM     21  O   UNL A   1      33.873  30.968  27.265  1.00  0.00    -0.374 OA
BRANCH  21  22
ATOM     22  C   UNL A   1      32.484  31.223  27.081  1.00  0.00     0.202 C 
BRANCH  22  23
ATOM     23  C   UNL A   1      32.035  32.680  27.247  1.00  0.00     0.261 C 
BRANCH  23  24
ATOM     24  O   UNL A   1      33.145  33.592  27.254  1.00  0.00    -0.460 OA
BRANCH  24  25
ATOM     25  C   UNL A   1      33.265  34.315  28.392  1.00  0.00     0.338 C 
ATOM     26  O   UNL A   1      32.503  35.180  28.806  1.00  0.00    -0.246 OA
BRANCH  25  27
ATOM     27  C   UNL A   1      34.384  33.806  29.203  1.00  0.00     0.060 A 
ATOM     28  C   UNL A   1      35.677  34.173  28.809  1.00  0.00     0.016 A 
ATOM     29  C   UNL A   1      34.187  32.937  30.278  1.00  0.00     0.016 A 
ATOM     30  C   UNL A   1      36.783  33.628  29.456  1.00  0.00     0.010 A 
ATOM     31  C   UNL A   1      35.301  32.383  30.921  1.00  0.00     0.010 A 
ATOM     32  C   UNL A   1      36.601  32.697  30.487  1.00  0.00    -0.014 A 
BRANCH  32  33
ATOM     33  C   UNL A   1      37.772  31.942  30.990  1.00  0.00     0.031 A 
ATOM     34  C   UNL A   1      38.293  32.243  32.368  1.00  0.00     0.074 A 
ATOM     35  C   UNL A   1      38.333  30.967  30.253  1.00  0.00     0.049 A 
ATOM     36  N   UNL A   1      39.297  31.706  33.012  1.00  0.00    -0.248 NA
ATOM     37  C   UNL A   1      37.585  33.290  33.122  1.00  0.00     0.031 C 
ATOM     38  C   UNL A   1      37.891  30.554  28.922  1.00  0.00     0.029 A 
ATOM     39  N   UNL A   1      39.397  30.146  30.525  1.00  0.00    -0.354 N 
ATOM     40  C   UNL A   1      39.344  32.350  34.242  1.00  0.00     0.074 A 
ATOM     41  C   UNL A   1      38.286  33.338  34.245  1.00  0.00     0.031 C 
ATOM     42  C   UNL A   1      38.684  29.557  28.491  1.00  0.00     0.029 A 
ATOM     43  C   UNL A   1      39.701  29.282  29.504  1.00  0.00     0.049 A 
ATOM     44  H   UNL A   1      39.897  30.175  31.374  1.00  0.00     0.167 HD
ATOM     45  C   UNL A   1      40.186  32.132  35.280  1.00  0.00     0.037 A 
ATOM     46  C   UNL A   1      40.698  28.382  29.395  1.00  0.00     0.037 A 
ATOM     47  C   UNL A   1      41.234  31.147  35.280  1.00  0.00     0.049 A 
ATOM     48  C   UNL A   1      41.664  28.207  30.536  1.00  0.00     0.074 A 
ATOM     49  C   UNL A   1      42.124  30.834  36.292  1.00  0.00     0.029 A 
ATOM     50  N   UNL A   1      41.536  30.319  34.209  1.00  0.00    -0.354 N 
ATOM     51  N   UNL A   1      41.682  28.800  31.705  1.00  0.00    -0.248 NA
ATOM     52  C   UNL A   1      42.748  27.233  30.342  1.00  0.00     0.031 C 
ATOM     53  C   UNL A   1      42.996  29.848  35.816  1.00  0.00     0.029 A 
ATOM     54  C   UNL A   1      42.618  29.514  34.526  1.00  0.00     0.049 A 
ATOM     55  H   UNL A   1      41.054  30.305  33.351  1.00  0.00     0.167 HD
ATOM     56  C   UNL A   1      42.757  28.255  32.395  1.00  0.00     0.074 A 
ATOM     57  C   UNL A   1      43.362  27.275  31.517  1.00  0.00     0.031 C 
ATOM     58  C   UNL A   1      43.203  28.537  33.644  1.00  0.00     0.037 A 
BRANCH  45  59
ATOM     59  C   UNL A   1      40.021  32.994  36.495  1.00  0.00     0.057 A 
ATOM     60  C   UNL A   1      40.794  34.145  36.698  1.00  0.00     0.134 A 
ATOM     61  C   UNL A   1      39.054  32.686  37.461  1.00  0.00     0.134 A 
ATOM     62  F   UNL A   1      41.747  34.487  35.817  1.00  0.00    -0.206 F 
ATOM     63  C   UNL A   1      40.626  34.946  37.827  1.00  0.00     0.040 A 
ATOM     64  C   UNL A   1      38.861  33.493  38.583  1.00  0.00     0.040 A 
ATOM     65  F   UNL A   1      38.279  31.599  37.326  1.00  0.00    -0.206 F 
ATOM     66  C   UNL A   1      39.652  34.625  38.771  1.00  0.00     0.006 A 
ENDBRANCH  45  59
BRANCH  46  67
ATOM     67  C   UNL A   1      40.844  27.579  28.155  1.00  0.00     0.057 A 
ATOM     68  C   UNL A   1      41.574  28.060  27.062  1.00  0.00     0.134 A 
ATOM     69  C   UNL A   1      40.237  26.324  28.025  1.00  0.00     0.134 A 
ATOM     70  F   UNL A   1      42.157  29.266  27.118  1.00  0.00    -0.206 F 
ATOM     71  C   UNL A   1      41.683  27.328  25.878  1.00  0.00     0.040 A 
ATOM     72  C   UNL A   1      40.357  25.572  26.855  1.00  0.00     0.040 A 
ATOM     73  F   UNL A   1      39.523  25.808  29.036  1.00  0.00    -0.206 F 
ATOM     74  C   UNL A   1      41.076  26.078  25.774  1.00  0.00     0.006 A 
ENDBRANCH  46  67
BRANCH  58  75
ATOM     75  C   UNL A   1      44.379  27.754  34.148  1.00  0.00     0.057 A 
ATOM     76  C   UNL A   1      45.688  28.240  34.047  1.00  0.00     0.134 A 
ATOM     77  C   UNL A   1      44.193  26.519  34.781  1.00  0.00     0.134 A 
ATOM     78  F   UNL A   1      45.934  29.412  33.440  1.00  0.00    -0.206 F 
ATOM     79  C   UNL A   1      46.774  27.514  34.540  1.00  0.00     0.040 A 
ATOM     80  C   UNL A   1      45.268  25.796  35.301  1.00  0.00     0.040 A 
ATOM     81  F   UNL A   1      42.963  26.002  34.920  1.00  0.00    -0.206 F 
ATOM     82  C   UNL A   1      46.564  26.292  35.175  1.00  0.00     0.006 A 
ENDBRANCH  58  75
ENDBRANCH  32  33
ENDBRANCH  25  27
ENDBRANCH  24  25
ENDBRANCH  23  24
ENDBRANCH  22  23
ENDBRANCH  21  22
ENDBRANCH   1  21
TORSDOF 17
ENDMDL
MODEL 2
REMARK VINA RESULT:     -10.4      4.165      6.443
REMARK SMILES C[C@@H](C(=O)OCCOCCOC(=O)c1ccc(-c2c3nc(c(-c4c(F)cccc4F)c4ccc([nH]4)c(-c4c(F)cccc4F)c4nc(c(-c5c(F)cccc5F)c5ccc2[nH]5)C=C4)C=C3)cc1)c1ccc(Cc2cccs2)cc1F
REMARK SMILES IDX 7 1 6 2 5 3 3 4 4 5 2 6 1 7 68 8 69 9 79 10 70 11 78 12
REMARK SMILES IDX 80 13 71 14 72 15 73 16 74 17 77 18 75 19 76 20 8 21 9 22
REMARK SMILES IDX 10 23 11 24 12 25 13 26 14 27 15 28 67 29 16 30 66 31 17 32
REMARK SMILES IDX 18 33 19 34 60 35 20 36 65 37 59 38 61 39 21 40 64 41 58 42
REMARK SMILES IDX 57 43 22 45 48 46 31 47 47 48 32 49 35 50 46 51 62 52 33 53
REMARK SMILES IDX 34 54 45 56 63 57 36 58 23 59 24 60 29 61 25 62 26 63 28 64
REMARK SMILES IDX 30 65 27 66 49 67 50 68 55 69 51 70 52 71 54 72 56 73 53 74
REMARK SMILES IDX 37 75 38 76 43 77 39 78 40 79 42 80 44 81 41 82
REMARK H PARENT 61 44 35 55
REMARK Flexibility Score: inf
ROOT
ATOM      1  C   UNL A   1      34.620  34.050  28.645  1.00  0.00     0.202 C 
ENDROOT
BRANCH   1   2
ATOM      2  C   UNL A   1      34.082  32.667  29.020  1.00  0.00     0.261 C 
BRANCH   2   3
ATOM      3  O   UNL A   1      34.593  31.671  28.112  1.00  0.00    -0.463 OA
BRANCH   3   4
ATOM      4  C   UNL A   1      33.661  30.858  27.542  1.00  0.00     0.313 C 
ATOM      5  O   UNL A   1      32.575  31.251  27.130  1.00  0.00    -0.252 OA
BRANCH   4   6
ATOM      6  C   UNL A   1      34.130  29.400  27.436  1.00  0.00     0.129 C 
ATOM      7  C   UNL A   1      35.643  29.214  27.255  1.00  0.00     0.025 C 
BRANCH   6   8
ATOM      8  C   UNL A   1      33.306  28.676  26.378  1.00  0.00     0.002 A 
ATOM      9  C   UNL A   1      33.655  28.658  25.020  1.00  0.00     0.008 A 
ATOM     10  C   UNL A   1      32.084  28.100  26.742  1.00  0.00     0.127 A 
ATOM     11  C   UNL A   1      32.794  28.104  24.065  1.00  0.00     0.004 A 
ATOM     12  C   UNL A   1      31.220  27.548  25.797  1.00  0.00     0.043 A 
ATOM     13  F   UNL A   1      31.718  28.079  28.032  1.00  0.00    -0.207 F 
ATOM     14  C   UNL A   1      31.563  27.552  24.441  1.00  0.00    -0.040 A 
BRANCH  14  15
ATOM     15  C   UNL A   1      30.623  26.978  23.404  1.00  0.00     0.082 C 
BRANCH  15  16
ATOM     16  C   UNL A   1      29.408  27.827  23.138  1.00  0.00     0.009 A 
ATOM     17  C   UNL A   1      28.093  27.597  23.498  1.00  0.00     0.016 A 
ATOM     18  S   UNL A   1      29.574  29.336  22.338  1.00  0.00    -0.149 S 
ATOM     19  C   UNL A   1      27.228  28.668  23.127  1.00  0.00     0.012 A 
ATOM     20  C   UNL A   1      27.908  29.683  22.496  1.00  0.00     0.065 A 
ENDBRANCH  15  16
ENDBRANCH  14  15
ENDBRANCH   6   8
ENDBRANCH   4   6
ENDBRANCH   3   4
ENDBRANCH   2   3
ENDBRANCH   1   2
BRANCH   1  21
ATOM     21  O   UNL A   1      34.845  34.949  29.735  1.00  0.00    -0.374 OA
BRANCH  21  22
ATOM     22  C   UNL A   1      33.977  34.830  30.858  1.00  0.00     0.202 C 
BRANCH  22  23
ATOM     23  C   UNL A   1      34.629  34.379  32.171  1.00  0.00     0.261 C 
BRANCH  23  24
ATOM     24  O   UNL A   1      35.981  33.933  31.981  1.00  0.00    -0.460 OA
BRANCH  24  25
ATOM     25  C   UNL A   1      36.295  32.803  32.656  1.00  0.00     0.338 C 
ATOM     26  O   UNL A   1      35.798  32.399  33.701  1.00  0.00    -0.246 OA
BRANCH  25  27
ATOM     27  C   UNL A   1      37.235  31.984  31.871  1.00  0.00     0.060 A 
ATOM     28  C   UNL A   1      38.226  31.294  32.579  1.00  0.00     0.016 A 
ATOM     29  C   UNL A   1      37.198  31.944  30.476  1.00  0.00     0.016 A 
ATOM     30  C   UNL A   1      39.220  30.603  31.891  1.00  0.00     0.010 A 
ATOM     31  C   UNL A   1      38.204  31.256  29.785  1.00  0.00     0.010 A 
ATOM     32  C   UNL A   1      39.239  30.617  30.491  1.00  0.00    -0.014 A 
BRANCH  32  33
ATOM     33  C   UNL A   1      40.431  30.097  29.782  1.00  0.00     0.031 A 
ATOM     34  C   UNL A   1      41.603  31.014  29.563  1.00  0.00     0.074 A 
ATOM     35  C   UNL A   1      40.492  28.815  29.382  1.00  0.00     0.049 A 
ATOM     36  N   UNL A   1      42.747  30.774  28.976  1.00  0.00    -0.248 NA
ATOM     37  C   UNL A   1      41.468  32.386  30.079  1.00  0.00     0.031 C 
ATOM     38  C   UNL A   1      39.440  27.819  29.575  1.00  0.00     0.029 A 
ATOM     39  N   UNL A   1      41.489  28.132  28.732  1.00  0.00    -0.354 N 
ATOM     40  C   UNL A   1      43.464  31.962  29.047  1.00  0.00     0.074 A 
ATOM     41  C   UNL A   1      42.617  32.930  29.710  1.00  0.00     0.031 C 
ATOM     42  C   UNL A   1      39.845  26.650  29.048  1.00  0.00     0.029 A 
ATOM     43  C   UNL A   1      41.172  26.824  28.461  1.00  0.00     0.049 A 
ATOM     44  H   UNL A   1      42.349  28.542  28.483  1.00  0.00     0.167 HD
ATOM     45  C   UNL A   1      44.719  32.220  28.610  1.00  0.00     0.037 A 
ATOM     46  C   UNL A   1      41.872  25.881  27.800  1.00  0.00     0.037 A 
ATOM     47  C   UNL A   1      45.564  31.257  27.956  1.00  0.00     0.049 A 
ATOM     48  C   UNL A   1      43.237  26.214  27.261  1.00  0.00     0.074 A 
ATOM     49  C   UNL A   1      46.859  31.416  27.497  1.00  0.00     0.029 A 
ATOM     50  N   UNL A   1      45.191  29.954  27.662  1.00  0.00    -0.354 N 
ATOM     51  N   UNL A   1      43.917  27.331  27.360  1.00  0.00    -0.248 NA
ATOM     52  C   UNL A   1      43.934  25.151  26.521  1.00  0.00     0.031 C 
ATOM     53  C   UNL A   1      47.254  30.222  26.883  1.00  0.00     0.029 A 
ATOM     54  C   UNL A   1      46.223  29.306  27.003  1.00  0.00     0.049 A 
ATOM     55  H   UNL A   1      44.323  29.549  27.889  1.00  0.00     0.167 HD
ATOM     56  C   UNL A   1      45.129  27.099  26.721  1.00  0.00     0.074 A 
ATOM     57  C   UNL A   1      45.095  25.731  26.247  1.00  0.00     0.031 C 
ATOM     58  C   UNL A   1      46.176  27.941  26.545  1.00  0.00     0.037 A 
BRANCH  45  59
ATOM     59  C   UNL A   1      45.245  33.611  28.804  1.00  0.00     0.057 A 
ATOM     60  C   UNL A   1      45.981  33.974  29.940  1.00  0.00     0.134 A 
ATOM     61  C   UNL A   1      45.037  34.594  27.827  1.00  0.00     0.134 A 
ATOM     62  F   UNL A   1      46.201  33.083  30.919  1.00  0.00    -0.206 F 
ATOM     63  C   UNL A   1      46.474  35.268  30.106  1.00  0.00     0.040 A 
ATOM     64  C   UNL A   1      45.546  35.885  27.972  1.00  0.00     0.040 A 
ATOM     65  F   UNL A   1      44.342  34.311  26.714  1.00  0.00    -0.206 F 
ATOM     66  C   UNL A   1      46.263  36.227  29.116  1.00  0.00     0.006 A 
ENDBRANCH  45  59
BRANCH  46  67
ATOM     67  C   UNL A   1      41.291  24.530  27.598  1.00  0.00     0.057 A 
ATOM     68  C   UNL A   1      40.271  24.310  26.665  1.00  0.00     0.134 A 
ATOM     69  C   UNL A   1      41.727  23.431  28.349  1.00  0.00     0.134 A 
ATOM     70  F   UNL A   1      39.796  25.328  25.934  1.00  0.00    -0.206 F 
ATOM     71  C   UNL A   1      39.693  23.051  26.498  1.00  0.00     0.040 A 
ATOM     72  C   UNL A   1      41.174  22.162  28.176  1.00  0.00     0.040 A 
ATOM     73  F   UNL A   1      42.701  23.576  29.260  1.00  0.00    -0.206 F 
ATOM     74  C   UNL A   1      40.148  21.971  27.252  1.00  0.00     0.006 A 
ENDBRANCH  46  67
BRANCH  58  75
ATOM     75  C   UNL A   1      47.384  27.399  25.840  1.00  0.00     0.057 A 
ATOM     76  C   UNL A   1      48.439  26.796  26.538  1.00  0.00     0.134 A 
ATOM     77  C   UNL A   1      47.473  27.443  24.443  1.00  0.00     0.134 A 
ATOM     78  F   UNL A   1      48.419  26.734  27.878  1.00  0.00    -0.206 F 
ATOM     79  C   UNL A   1      49.548  26.274  25.870  1.00  0.00     0.040 A 
ATOM     80  C   UNL A   1      48.566  26.902  23.763  1.00  0.00     0.040 A 
ATOM     81  F   UNL A   1      46.493  27.998  23.714  1.00  0.00    -0.206 F 
ATOM     82  C   UNL A   1      49.610  26.320  24.479  1.00  0.00     0.006 A 
ENDBRANCH  58  75
ENDBRANCH  32  33
ENDBRANCH  25  27
ENDBRANCH  24  25
ENDBRANCH  23  24
ENDBRANCH  22  23
ENDBRANCH  21  22
ENDBRANCH   1  21
TORSDOF 17
ENDMDL
MODEL 3
REMARK VINA RESULT:     -10.1      4.606      9.361
REMARK SMILES C[C@@H](C(=O)OCCOCCOC(=O)c1ccc(-c2c3nc(c(-c4c(F)cccc4F)c4ccc([nH]4)c(-c4c(F)cccc4F)c4nc(c(-c5c(F)cccc5F)c5ccc2[nH]5)C=C4)C=C3)cc1)c1ccc(Cc2cccs2)cc1F
REMARK SMILES IDX 7 1 6 2 5 3 3 4 4 5 2 6 1 7 68 8 69 9 79 10 70 11 78 12
REMARK SMILES IDX 80 13 71 14 72 15 73 16 74 17 77 18 75 19 76 20 8 21 9 22
REMARK SMILES IDX 10 23 11 24 12 25 13 26 14 27 15 28 67 29 16 30 66 31 17 32
REMARK SMILES IDX 18 33 19 34 60 35 20 36 65 37 59 38 61 39 21 40 64 41 58 42
REMARK SMILES IDX 57 43 22 45 48 46 31 47 47 48 32 49 35 50 46 51 62 52 33 53
REMARK SMILES IDX 34 54 45 56 63 57 36 58 23 59 24 60 29 61 25 62 26 63 28 64
REMARK SMILES IDX 30 65 27 66 49 67 50 68 55 69 51 70 52 71 54 72 56 73 53 74
REMARK SMILES IDX 37 75 38 76 43 77 39 78 40 79 42 80 44 81 41 82
REMARK H PARENT 61 44 35 55
REMARK Flexibility Score: inf
ROOT
ATOM      1  C   UNL A   1      35.164  21.588  26.149  1.00  0.00     0.202 C 
ENDROOT
BRANCH   1   2
ATOM      2  C   UNL A   1      33.639  21.454  26.129  1.00  0.00     0.261 C 
BRANCH   2   3
ATOM      3  O   UNL A   1      33.042  22.648  25.588  1.00  0.00    -0.463 OA
BRANCH   3   4
ATOM      4  C   UNL A   1      31.788  22.500  25.074  1.00  0.00     0.313 C 
ATOM      5  O   UNL A   1      30.836  22.068  25.715  1.00  0.00    -0.252 OA
BRANCH   4   6
ATOM      6  C   UNL A   1      31.686  22.967  23.616  1.00  0.00     0.129 C 
ATOM      7  C   UNL A   1      32.473  22.123  22.605  1.00  0.00     0.025 C 
BRANCH   6   8
ATOM      8  C   UNL A   1      32.009  24.455  23.535  1.00  0.00     0.002 A 
ATOM      9  C   UNL A   1      33.247  24.943  23.092  1.00  0.00     0.008 A 
ATOM     10  C   UNL A   1      31.085  25.381  24.031  1.00  0.00     0.127 A 
ATOM     11  C   UNL A   1      33.549  26.308  23.170  1.00  0.00     0.004 A 
ATOM     12  C   UNL A   1      31.379  26.741  24.114  1.00  0.00     0.043 A 
ATOM     13  F   UNL A   1      29.883  24.960  24.448  1.00  0.00    -0.207 F 
ATOM     14  C   UNL A   1      32.624  27.221  23.691  1.00  0.00    -0.040 A 
BRANCH  14  15
ATOM     15  C   UNL A   1      32.963  28.691  23.799  1.00  0.00     0.082 C 
BRANCH  15  16
ATOM     16  C   UNL A   1      33.197  29.166  25.209  1.00  0.00     0.009 A 
ATOM     17  C   UNL A   1      34.242  28.863  26.063  1.00  0.00     0.016 A 
ATOM     18  S   UNL A   1      32.114  30.284  25.929  1.00  0.00    -0.149 S 
ATOM     19  C   UNL A   1      34.155  29.562  27.303  1.00  0.00     0.012 A 
ATOM     20  C   UNL A   1      33.048  30.377  27.357  1.00  0.00     0.065 A 
ENDBRANCH  15  16
ENDBRANCH  14  15
ENDBRANCH   6   8
ENDBRANCH   4   6
ENDBRANCH   3   4
ENDBRANCH   2   3
ENDBRANCH   1   2
BRANCH   1  21
ATOM     21  O   UNL A   1      35.842  21.184  24.957  1.00  0.00    -0.374 OA
BRANCH  21  22
ATOM     22  C   UNL A   1      36.396  19.872  24.942  1.00  0.00     0.202 C 
BRANCH  22  23
ATOM     23  C   UNL A   1      37.928  19.784  24.931  1.00  0.00     0.261 C 
BRANCH  23  24
ATOM     24  O   UNL A   1      38.544  21.001  25.381  1.00  0.00    -0.460 OA
BRANCH  24  25
ATOM     25  C   UNL A   1      39.611  20.818  26.193  1.00  0.00     0.338 C 
ATOM     26  O   UNL A   1      40.277  19.798  26.326  1.00  0.00    -0.246 OA
BRANCH  25  27
ATOM     27  C   UNL A   1      40.005  22.094  26.813  1.00  0.00     0.060 A 
ATOM     28  C   UNL A   1      39.352  23.250  26.366  1.00  0.00     0.016 A 
ATOM     29  C   UNL A   1      41.032  22.177  27.755  1.00  0.00     0.016 A 
ATOM     30  C   UNL A   1      39.762  24.501  26.819  1.00  0.00     0.010 A 
ATOM     31  C   UNL A   1      41.449  23.436  28.203  1.00  0.00     0.010 A 
ATOM     32  C   UNL A   1      40.840  24.603  27.707  1.00  0.00    -0.014 A 
BRANCH  32  33
ATOM     33  C   UNL A   1      41.423  25.938  27.981  1.00  0.00     0.031 A 
ATOM     34  C   UNL A   1      42.805  26.245  27.472  1.00  0.00     0.074 A 
ATOM     35  C   UNL A   1      40.716  26.880  28.629  1.00  0.00     0.049 A 
ATOM     36  N   UNL A   1      43.507  27.342  27.589  1.00  0.00    -0.248 NA
ATOM     37  C   UNL A   1      43.484  25.171  26.729  1.00  0.00     0.031 C 
ATOM     38  C   UNL A   1      39.354  26.716  29.132  1.00  0.00     0.029 A 
ATOM     39  N   UNL A   1      41.050  28.166  28.971  1.00  0.00    -0.354 N 
ATOM     40  C   UNL A   1      44.710  27.090  26.940  1.00  0.00     0.074 A 
ATOM     41  C   UNL A   1      44.654  25.728  26.456  1.00  0.00     0.031 C 
ATOM     42  C   UNL A   1      38.969  27.860  29.725  1.00  0.00     0.029 A 
ATOM     43  C   UNL A   1      40.065  28.824  29.664  1.00  0.00     0.049 A 
ATOM     44  H   UNL A   1      41.915  28.577  28.741  1.00  0.00     0.167 HD
ATOM     45  C   UNL A   1      45.762  27.922  26.755  1.00  0.00     0.037 A 
ATOM     46  C   UNL A   1      40.059  30.060  30.200  1.00  0.00     0.037 A 
ATOM     47  C   UNL A   1      45.816  29.279  27.231  1.00  0.00     0.049 A 
ATOM     48  C   UNL A   1      41.269  30.942  30.041  1.00  0.00     0.074 A 
ATOM     49  C   UNL A   1      46.828  30.209  27.074  1.00  0.00     0.029 A 
ATOM     50  N   UNL A   1      44.815  29.896  27.966  1.00  0.00    -0.354 N 
ATOM     51  N   UNL A   1      42.388  30.704  29.401  1.00  0.00    -0.248 NA
ATOM     52  C   UNL A   1      41.212  32.266  30.677  1.00  0.00     0.031 C 
ATOM     53  C   UNL A   1      46.458  31.375  27.754  1.00  0.00     0.029 A 
ATOM     54  C   UNL A   1      45.196  31.186  28.293  1.00  0.00     0.049 A 
ATOM     55  H   UNL A   1      43.959  29.479  28.217  1.00  0.00     0.167 HD
ATOM     56  C   UNL A   1      43.156  31.854  29.534  1.00  0.00     0.074 A 
ATOM     57  C   UNL A   1      42.371  32.794  30.307  1.00  0.00     0.031 C 
ATOM     58  C   UNL A   1      44.399  32.112  29.056  1.00  0.00     0.037 A 
BRANCH  45  59
ATOM     59  C   UNL A   1      46.952  27.377  26.025  1.00  0.00     0.057 A 
ATOM     60  C   UNL A   1      47.996  26.724  26.692  1.00  0.00     0.134 A 
ATOM     61  C   UNL A   1      47.041  27.481  24.630  1.00  0.00     0.134 A 
ATOM     62  F   UNL A   1      47.978  26.604  28.029  1.00  0.00    -0.206 F 
ATOM     63  C   UNL A   1      49.095  26.211  26.002  1.00  0.00     0.040 A 
ATOM     64  C   UNL A   1      48.124  26.952  23.928  1.00  0.00     0.040 A 
ATOM     65  F   UNL A   1      46.074  28.094  23.930  1.00  0.00    -0.206 F 
ATOM     66  C   UNL A   1      49.158  26.319  24.614  1.00  0.00     0.006 A 
ENDBRANCH  45  59
BRANCH  46  67
ATOM     67  C   UNL A   1      38.871  30.540  30.949  1.00  0.00     0.057 A 
ATOM     68  C   UNL A   1      38.719  30.274  32.315  1.00  0.00     0.134 A 
ATOM     69  C   UNL A   1      37.850  31.256  30.312  1.00  0.00     0.134 A 
ATOM     70  F   UNL A   1      39.651  29.572  32.973  1.00  0.00    -0.206 F 
ATOM     71  C   UNL A   1      37.586  30.688  33.017  1.00  0.00     0.040 A 
ATOM     72  C   UNL A   1      36.723  31.696  31.008  1.00  0.00     0.040 A 
ATOM     73  F   UNL A   1      37.936  31.542  29.005  1.00  0.00    -0.206 F 
ATOM     74  C   UNL A   1      36.585  31.405  32.364  1.00  0.00     0.006 A 
ENDBRANCH  46  67
BRANCH  58  75
ATOM     75  C   UNL A   1      44.972  33.472  29.325  1.00  0.00     0.057 A 
ATOM     76  C   UNL A   1      45.769  33.729  30.448  1.00  0.00     0.134 A 
ATOM     77  C   UNL A   1      44.757  34.525  28.428  1.00  0.00     0.134 A 
ATOM     78  F   UNL A   1      46.002  32.765  31.351  1.00  0.00    -0.206 F 
ATOM     79  C   UNL A   1      46.317  34.992  30.677  1.00  0.00     0.040 A 
ATOM     80  C   UNL A   1      45.320  35.786  28.634  1.00  0.00     0.040 A 
ATOM     81  F   UNL A   1      44.011  34.343  27.328  1.00  0.00    -0.206 F 
ATOM     82  C   UNL A   1      46.098  36.023  29.765  1.00  0.00     0.006 A 
ENDBRANCH  58  75
ENDBRANCH  32  33
ENDBRANCH  25  27
ENDBRANCH  24  25
ENDBRANCH  23  24
ENDBRANCH  22  23
ENDBRANCH  21  22
ENDBRANCH   1  21
TORSDOF 17
ENDMDL
