MODEL 1
REMARK VINA RESULT:     -12.9      0.000      0.000
REMARK SMILES O=C(OCCOCCOC(=O)[C@@H]1CCCC[C@@H]1C(=O)Nc1ccccc1C(=O)N1CCN(c2ccc(F)cc2)CC1)c1ccc(-c2c3nc(c(-c4c(F)cccc4F)c4ccc([nH]4)c(-c4c(F)cccc4F)c4nc(c(-c5c(F)cccc5F)c5ccc2[nH]5)C=C4)C=C3)cc1
REMARK SMILES IDX 7 1 6 2 5 3 4 4 3 5 2 6 1 7 42 8 43 9 95 10 44 11 94 12
REMARK SMILES IDX 45 13 46 14 47 15 88 16 48 17 93 18 87 19 89 20 49 21 92 22
REMARK SMILES IDX 86 23 85 24 50 26 76 27 59 28 75 29 60 30 63 31 74 32 90 33
REMARK SMILES IDX 61 34 62 35 73 37 91 38 64 39 51 40 52 41 57 42 53 43 54 44
REMARK SMILES IDX 56 45 58 46 55 47 77 48 78 49 83 50 79 51 80 52 82 53 84 54
REMARK SMILES IDX 81 55 65 56 66 57 71 58 67 59 68 60 70 61 72 62 69 63 8 64
REMARK SMILES IDX 9 65 10 66 11 67 12 68 13 69 17 70 14 71 16 72 15 73 18 74
REMARK SMILES IDX 19 75 20 76 21 78 22 79 26 80 23 81 25 82 24 83 27 84 28 85
REMARK SMILES IDX 29 86 30 87 41 88 31 89 40 90 32 91 33 92 34 93 39 94 35 95
REMARK SMILES IDX 38 96 36 97 37 98
REMARK H PARENT 89 25 63 36 20 77
REMARK Flexibility Score: inf
ROOT
ATOM      1  C   UNL A   1      32.228  29.677  26.909  1.00  0.00     0.202 C 
ENDROOT
BRANCH   1   2
ATOM      2  O   UNL A   1      31.439  30.437  25.996  1.00  0.00    -0.374 OA
BRANCH   2   3
ATOM      3  C   UNL A   1      31.242  31.764  26.442  1.00  0.00     0.202 C 
BRANCH   3   4
ATOM      4  C   UNL A   1      32.491  32.459  27.015  1.00  0.00     0.261 C 
BRANCH   4   5
ATOM      5  O   UNL A   1      32.244  33.805  27.496  1.00  0.00    -0.460 OA
BRANCH   5   6
ATOM      6  C   UNL A   1      33.001  34.482  28.396  1.00  0.00     0.338 C 
ATOM      7  O   UNL A   1      32.729  35.645  28.713  1.00  0.00    -0.246 OA
BRANCH   6   8
ATOM      8  C   UNL A   1      34.183  33.828  28.997  1.00  0.00     0.060 A 
ATOM      9  C   UNL A   1      34.037  32.631  29.672  1.00  0.00     0.016 A 
ATOM     10  C   UNL A   1      35.473  34.333  28.837  1.00  0.00     0.016 A 
ATOM     11  C   UNL A   1      35.031  32.125  30.473  1.00  0.00     0.010 A 
ATOM     12  C   UNL A   1      36.555  33.637  29.390  1.00  0.00     0.010 A 
ATOM     13  C   UNL A   1      36.333  32.537  30.240  1.00  0.00    -0.014 A 
BRANCH  13  14
ATOM     14  C   UNL A   1      37.427  31.746  30.847  1.00  0.00     0.031 A 
ATOM     15  C   UNL A   1      37.761  31.961  32.287  1.00  0.00     0.074 A 
ATOM     16  C   UNL A   1      38.069  30.816  30.107  1.00  0.00     0.049 A 
ATOM     17  N   UNL A   1      38.795  31.547  32.966  1.00  0.00    -0.248 NA
ATOM     18  C   UNL A   1      36.810  32.770  33.068  1.00  0.00     0.031 C 
ATOM     19  C   UNL A   1      37.753  30.458  28.714  1.00  0.00     0.029 A 
ATOM     20  N   UNL A   1      39.100  29.969  30.419  1.00  0.00    -0.354 N 
ATOM     21  C   UNL A   1      38.667  32.117  34.225  1.00  0.00     0.074 A 
ATOM     22  C   UNL A   1      37.448  32.896  34.221  1.00  0.00     0.031 C 
ATOM     23  C   UNL A   1      38.508  29.421  28.331  1.00  0.00     0.029 A 
ATOM     24  C   UNL A   1      39.467  29.141  29.382  1.00  0.00     0.049 A 
ATOM     25  H   UNL A   1      39.538  29.954  31.302  1.00  0.00     0.167 HD
ATOM     26  C   UNL A   1      39.515  32.008  35.272  1.00  0.00     0.037 A 
ATOM     27  C   UNL A   1      40.507  28.298  29.269  1.00  0.00     0.037 A 
ATOM     28  C   UNL A   1      40.701  31.194  35.231  1.00  0.00     0.049 A 
ATOM     29  C   UNL A   1      41.460  28.237  30.426  1.00  0.00     0.074 A 
ATOM     30  C   UNL A   1      41.672  31.021  36.198  1.00  0.00     0.029 A 
ATOM     31  N   UNL A   1      41.067  30.403  34.146  1.00  0.00    -0.354 N 
ATOM     32  N   UNL A   1      41.393  28.854  31.582  1.00  0.00    -0.248 NA
ATOM     33  C   UNL A   1      42.645  27.391  30.256  1.00  0.00     0.031 C 
ATOM     34  C   UNL A   1      42.646  30.160  35.681  1.00  0.00     0.029 A 
ATOM     35  C   UNL A   1      42.251  29.745  34.417  1.00  0.00     0.049 A 
ATOM     36  H   UNL A   1      40.555  30.324  33.308  1.00  0.00     0.167 HD
ATOM     37  C   UNL A   1      42.511  28.449  32.294  1.00  0.00     0.074 A 
ATOM     38  C   UNL A   1      43.229  27.522  31.438  1.00  0.00     0.031 C 
ATOM     39  C   UNL A   1      42.913  28.810  33.537  1.00  0.00     0.037 A 
BRANCH  26  40
ATOM     40  C   UNL A   1      39.222  32.858  36.475  1.00  0.00     0.057 A 
ATOM     41  C   UNL A   1      39.809  34.116  36.674  1.00  0.00     0.134 A 
ATOM     42  C   UNL A   1      38.393  32.369  37.494  1.00  0.00     0.134 A 
ATOM     43  F   UNL A   1      40.638  34.633  35.755  1.00  0.00    -0.206 F 
ATOM     44  C   UNL A   1      39.619  34.832  37.859  1.00  0.00     0.040 A 
ATOM     45  C   UNL A   1      38.172  33.089  38.668  1.00  0.00     0.040 A 
ATOM     46  F   UNL A   1      37.804  31.170  37.375  1.00  0.00    -0.206 F 
ATOM     47  C   UNL A   1      38.797  34.318  38.861  1.00  0.00     0.006 A 
ENDBRANCH  26  40
BRANCH  27  48
ATOM     48  C   UNL A   1      40.731  27.512  28.024  1.00  0.00     0.057 A 
ATOM     49  C   UNL A   1      40.164  26.243  27.858  1.00  0.00     0.134 A 
ATOM     50  C   UNL A   1      41.523  27.997  26.973  1.00  0.00     0.134 A 
ATOM     51  F   UNL A   1      39.407  25.711  28.828  1.00  0.00    -0.206 F 
ATOM     52  C   UNL A   1      40.395  25.478  26.712  1.00  0.00     0.040 A 
ATOM     53  C   UNL A   1      41.736  27.258  25.807  1.00  0.00     0.040 A 
ATOM     54  F   UNL A   1      42.095  29.208  27.057  1.00  0.00    -0.206 F 
ATOM     55  C   UNL A   1      41.179  25.988  25.679  1.00  0.00     0.006 A 
ENDBRANCH  27  48
BRANCH  39  56
ATOM     56  C   UNL A   1      44.139  28.128  34.062  1.00  0.00     0.057 A 
ATOM     57  C   UNL A   1      45.419  28.672  33.910  1.00  0.00     0.134 A 
ATOM     58  C   UNL A   1      44.020  26.918  34.758  1.00  0.00     0.134 A 
ATOM     59  F   UNL A   1      45.596  29.819  33.235  1.00  0.00    -0.206 F 
ATOM     60  C   UNL A   1      46.546  28.021  34.410  1.00  0.00     0.040 A 
ATOM     61  C   UNL A   1      45.134  26.276  35.292  1.00  0.00     0.040 A 
ATOM     62  F   UNL A   1      42.817  26.352  34.940  1.00  0.00    -0.206 F 
ATOM     63  C   UNL A   1      46.402  26.824  35.111  1.00  0.00     0.006 A 
ENDBRANCH  39  56
ENDBRANCH  13  14
ENDBRANCH   6   8
ENDBRANCH   5   6
ENDBRANCH   4   5
ENDBRANCH   3   4
ENDBRANCH   2   3
ENDBRANCH   1   2
BRANCH   1  64
ATOM     64  C   UNL A   1      31.571  28.328  27.277  1.00  0.00     0.261 C 
BRANCH  64  65
ATOM     65  O   UNL A   1      31.653  27.324  26.217  1.00  0.00    -0.463 OA
BRANCH  65  66
ATOM     66  C   UNL A   1      32.869  26.766  25.900  1.00  0.00     0.309 C 
ATOM     67  O   UNL A   1      33.714  27.302  25.196  1.00  0.00    -0.252 OA
BRANCH  66  68
ATOM     68  C   UNL A   1      32.989  25.306  26.392  1.00  0.00     0.111 C 
ATOM     69  C   UNL A   1      34.171  24.519  25.819  1.00  0.00     0.016 C 
ATOM     70  C   UNL A   1      31.695  24.417  26.633  1.00  0.00     0.093 C 
ATOM     71  C   UNL A   1      34.586  23.418  26.790  1.00  0.00     0.001 C 
ATOM     72  C   UNL A   1      32.165  23.358  27.692  1.00  0.00     0.014 C 
ATOM     73  C   UNL A   1      33.422  22.554  27.266  1.00  0.00     0.001 C 
BRANCH  70  74
ATOM     74  C   UNL A   1      31.067  23.485  25.554  1.00  0.00     0.228 C 
ATOM     75  O   UNL A   1      30.614  22.381  25.884  1.00  0.00    -0.274 OA
ATOM     76  N   UNL A   1      30.772  23.846  24.266  1.00  0.00    -0.325 N 
ATOM     77  H   UNL A   1      30.090  23.271  23.848  1.00  0.00     0.169 HD
BRANCH  76  78
ATOM     78  C   UNL A   1      31.234  24.862  23.412  1.00  0.00     0.054 A 
ATOM     79  C   UNL A   1      30.373  25.955  23.232  1.00  0.00     0.027 A 
ATOM     80  C   UNL A   1      32.424  24.837  22.676  1.00  0.00     0.063 A 
ATOM     81  C   UNL A   1      30.825  27.121  22.611  1.00  0.00     0.002 A 
ATOM     82  C   UNL A   1      32.926  26.043  22.154  1.00  0.00     0.016 A 
ATOM     83  C   UNL A   1      32.138  27.196  22.160  1.00  0.00     0.001 A 
BRANCH  80  84
ATOM     84  C   UNL A   1      32.950  23.583  22.027  1.00  0.00     0.256 C 
ATOM     85  O   UNL A   1      33.540  23.617  20.952  1.00  0.00    -0.269 OA
ATOM     86  N   UNL A   1      32.663  22.375  22.674  1.00  0.00    -0.335 N 
ATOM     87  C   UNL A   1      33.800  21.875  23.375  1.00  0.00     0.141 C 
ATOM     88  C   UNL A   1      31.980  21.262  21.988  1.00  0.00     0.141 C 
ATOM     89  C   UNL A   1      33.456  20.867  24.439  1.00  0.00     0.138 C 
ATOM     90  C   UNL A   1      31.728  20.006  22.916  1.00  0.00     0.138 C 
ATOM     91  N   UNL A   1      32.890  19.699  23.791  1.00  0.00    -0.368 N 
BRANCH  91  92
ATOM     92  C   UNL A   1      33.260  18.480  24.329  1.00  0.00     0.037 A 
ATOM     93  C   UNL A   1      33.953  17.513  23.555  1.00  0.00     0.029 A 
ATOM     94  C   UNL A   1      32.783  18.072  25.575  1.00  0.00     0.029 A 
ATOM     95  C   UNL A   1      34.033  16.175  23.933  1.00  0.00     0.041 A 
ATOM     96  C   UNL A   1      32.866  16.728  25.966  1.00  0.00     0.041 A 
ATOM     97  C   UNL A   1      33.462  15.790  25.131  1.00  0.00     0.123 A 
ATOM     98  F   UNL A   1      33.474  14.498  25.480  1.00  0.00    -0.207 F 
ENDBRANCH  91  92
ENDBRANCH  80  84
ENDBRANCH  76  78
ENDBRANCH  70  74
ENDBRANCH  66  68
ENDBRANCH  65  66
ENDBRANCH  64  65
ENDBRANCH   1  64
TORSDOF 18
ENDMDL
MODEL 2
REMARK VINA RESULT:     -12.8      0.883      5.851
REMARK SMILES O=C(OCCOCCOC(=O)[C@@H]1CCCC[C@@H]1C(=O)Nc1ccccc1C(=O)N1CCN(c2ccc(F)cc2)CC1)c1ccc(-c2c3nc(c(-c4c(F)cccc4F)c4ccc([nH]4)c(-c4c(F)cccc4F)c4nc(c(-c5c(F)cccc5F)c5ccc2[nH]5)C=C4)C=C3)cc1
REMARK SMILES IDX 7 1 6 2 5 3 4 4 3 5 2 6 1 7 42 8 43 9 95 10 44 11 94 12
REMARK SMILES IDX 45 13 46 14 47 15 88 16 48 17 93 18 87 19 89 20 49 21 92 22
REMARK SMILES IDX 86 23 85 24 50 26 76 27 59 28 75 29 60 30 63 31 74 32 90 33
REMARK SMILES IDX 61 34 62 35 73 37 91 38 64 39 51 40 52 41 57 42 53 43 54 44
REMARK SMILES IDX 56 45 58 46 55 47 77 48 78 49 83 50 79 51 80 52 82 53 84 54
REMARK SMILES IDX 81 55 65 56 66 57 71 58 67 59 68 60 70 61 72 62 69 63 8 64
REMARK SMILES IDX 9 65 10 66 11 67 12 68 13 69 17 70 14 71 16 72 15 73 18 74
REMARK SMILES IDX 19 75 20 76 21 78 22 79 26 80 23 81 25 82 24 83 27 84 28 85
REMARK SMILES IDX 29 86 30 87 41 88 31 89 40 90 32 91 33 92 34 93 39 94 35 95
REMARK SMILES IDX 38 96 36 97 37 98
REMARK H PARENT 89 25 63 36 20 77
REMARK Flexibility Score: inf
ROOT
ATOM      1  C   UNL A   1      32.240  29.508  27.242  1.00  0.00     0.202 C 
ENDROOT
BRANCH   1   2
ATOM      2  O   UNL A   1      31.702  30.256  26.154  1.00  0.00    -0.374 OA
BRANCH   2   3
ATOM      3  C   UNL A   1      31.427  31.594  26.514  1.00  0.00     0.202 C 
BRANCH   3   4
ATOM      4  C   UNL A   1      32.550  32.313  27.285  1.00  0.00     0.261 C 
BRANCH   4   5
ATOM      5  O   UNL A   1      32.295  33.722  27.512  1.00  0.00    -0.460 OA
BRANCH   5   6
ATOM      6  C   UNL A   1      32.895  34.501  28.448  1.00  0.00     0.338 C 
ATOM      7  O   UNL A   1      32.405  35.581  28.790  1.00  0.00    -0.246 OA
BRANCH   6   8
ATOM      8  C   UNL A   1      34.169  34.061  29.058  1.00  0.00     0.060 A 
ATOM      9  C   UNL A   1      34.158  33.112  30.063  1.00  0.00     0.016 A 
ATOM     10  C   UNL A   1      35.406  34.509  28.597  1.00  0.00     0.016 A 
ATOM     11  C   UNL A   1      35.261  32.871  30.843  1.00  0.00     0.010 A 
ATOM     12  C   UNL A   1      36.577  34.014  29.187  1.00  0.00     0.010 A 
ATOM     13  C   UNL A   1      36.507  33.208  30.339  1.00  0.00    -0.014 A 
BRANCH  13  14
ATOM     14  C   UNL A   1      37.699  32.638  31.005  1.00  0.00     0.031 A 
ATOM     15  C   UNL A   1      38.444  31.532  30.332  1.00  0.00     0.074 A 
ATOM     16  C   UNL A   1      38.120  33.157  32.180  1.00  0.00     0.049 A 
ATOM     17  N   UNL A   1      39.371  30.749  30.811  1.00  0.00    -0.248 NA
ATOM     18  C   UNL A   1      38.082  31.253  28.933  1.00  0.00     0.031 C 
ATOM     19  C   UNL A   1      37.519  34.307  32.875  1.00  0.00     0.029 A 
ATOM     20  N   UNL A   1      39.170  32.817  32.992  1.00  0.00    -0.354 N 
ATOM     21  C   UNL A   1      39.639  29.831  29.806  1.00  0.00     0.074 A 
ATOM     22  C   UNL A   1      38.787  30.160  28.685  1.00  0.00     0.031 C 
ATOM     23  C   UNL A   1      38.255  34.623  33.949  1.00  0.00     0.029 A 
ATOM     24  C   UNL A   1      39.281  33.611  34.111  1.00  0.00     0.049 A 
ATOM     25  H   UNL A   1      39.787  32.075  32.794  1.00  0.00     0.167 HD
ATOM     26  C   UNL A   1      40.508  28.795  29.843  1.00  0.00     0.037 A 
ATOM     27  C   UNL A   1      40.080  33.493  35.185  1.00  0.00     0.037 A 
ATOM     28  C   UNL A   1      41.355  28.530  30.976  1.00  0.00     0.049 A 
ATOM     29  C   UNL A   1      40.996  32.305  35.222  1.00  0.00     0.074 A 
ATOM     30  C   UNL A   1      42.250  27.496  31.170  1.00  0.00     0.029 A 
ATOM     31  N   UNL A   1      41.408  29.330  32.114  1.00  0.00    -0.354 N 
ATOM     32  N   UNL A   1      41.178  31.378  34.312  1.00  0.00    -0.248 NA
ATOM     33  C   UNL A   1      41.792  32.128  36.439  1.00  0.00     0.031 C 
ATOM     34  C   UNL A   1      42.812  27.647  32.443  1.00  0.00     0.029 A 
ATOM     35  C   UNL A   1      42.317  28.810  33.016  1.00  0.00     0.049 A 
ATOM     36  H   UNL A   1      40.877  30.147  32.254  1.00  0.00     0.167 HD
ATOM     37  C   UNL A   1      42.134  30.520  34.832  1.00  0.00     0.074 A 
ATOM     38  C   UNL A   1      42.500  31.051  36.133  1.00  0.00     0.031 C 
ATOM     39  C   UNL A   1      42.662  29.394  34.291  1.00  0.00     0.037 A 
BRANCH  26  40
ATOM     40  C   UNL A   1      40.491  27.853  28.674  1.00  0.00     0.057 A 
ATOM     41  C   UNL A   1      39.743  26.667  28.668  1.00  0.00     0.134 A 
ATOM     42  C   UNL A   1      41.306  28.103  27.561  1.00  0.00     0.134 A 
ATOM     43  F   UNL A   1      38.965  26.348  29.713  1.00  0.00    -0.206 F 
ATOM     44  C   UNL A   1      39.841  25.746  27.622  1.00  0.00     0.040 A 
ATOM     45  C   UNL A   1      41.389  27.204  26.496  1.00  0.00     0.040 A 
ATOM     46  F   UNL A   1      42.054  29.214  27.502  1.00  0.00    -0.206 F 
ATOM     47  C   UNL A   1      40.667  26.014  26.531  1.00  0.00     0.006 A 
ENDBRANCH  26  40
BRANCH  27  48
ATOM     48  C   UNL A   1      40.008  34.465  36.311  1.00  0.00     0.057 A 
ATOM     49  C   UNL A   1      40.755  35.648  36.294  1.00  0.00     0.134 A 
ATOM     50  C   UNL A   1      39.204  34.237  37.437  1.00  0.00     0.134 A 
ATOM     51  F   UNL A   1      41.557  35.924  35.254  1.00  0.00    -0.206 F 
ATOM     52  C   UNL A   1      40.727  36.553  37.358  1.00  0.00     0.040 A 
ATOM     53  C   UNL A   1      39.139  35.148  38.494  1.00  0.00     0.040 A 
ATOM     54  F   UNL A   1      38.454  33.129  37.523  1.00  0.00    -0.206 F 
ATOM     55  C   UNL A   1      39.912  36.306  38.461  1.00  0.00     0.006 A 
ENDBRANCH  27  48
BRANCH  39  56
ATOM     56  C   UNL A   1      43.746  28.725  35.078  1.00  0.00     0.057 A 
ATOM     57  C   UNL A   1      45.099  29.032  34.899  1.00  0.00     0.134 A 
ATOM     58  C   UNL A   1      43.414  27.776  36.054  1.00  0.00     0.134 A 
ATOM     59  F   UNL A   1      45.478  29.919  33.964  1.00  0.00    -0.206 F 
ATOM     60  C   UNL A   1      46.091  28.398  35.646  1.00  0.00     0.040 A 
ATOM     61  C   UNL A   1      44.393  27.161  36.830  1.00  0.00     0.040 A 
ATOM     62  F   UNL A   1      42.133  27.445  36.275  1.00  0.00    -0.206 F 
ATOM     63  C   UNL A   1      45.736  27.466  36.621  1.00  0.00     0.006 A 
ENDBRANCH  39  56
ENDBRANCH  13  14
ENDBRANCH   6   8
ENDBRANCH   5   6
ENDBRANCH   4   5
ENDBRANCH   3   4
ENDBRANCH   2   3
ENDBRANCH   1   2
BRANCH   1  64
ATOM     64  C   UNL A   1      31.543  28.140  27.420  1.00  0.00     0.261 C 
BRANCH  64  65
ATOM     65  O   UNL A   1      31.668  27.259  26.260  1.00  0.00    -0.463 OA
BRANCH  65  66
ATOM     66  C   UNL A   1      32.889  26.705  25.954  1.00  0.00     0.309 C 
ATOM     67  O   UNL A   1      33.744  27.250  25.268  1.00  0.00    -0.252 OA
BRANCH  66  68
ATOM     68  C   UNL A   1      33.002  25.239  26.429  1.00  0.00     0.111 C 
ATOM     69  C   UNL A   1      34.178  24.452  25.844  1.00  0.00     0.016 C 
ATOM     70  C   UNL A   1      31.705  24.354  26.665  1.00  0.00     0.093 C 
ATOM     71  C   UNL A   1      34.591  23.338  26.801  1.00  0.00     0.001 C 
ATOM     72  C   UNL A   1      32.172  23.282  27.711  1.00  0.00     0.014 C 
ATOM     73  C   UNL A   1      33.424  22.476  27.272  1.00  0.00     0.001 C 
BRANCH  70  74
ATOM     74  C   UNL A   1      31.068  23.438  25.578  1.00  0.00     0.228 C 
ATOM     75  O   UNL A   1      30.612  22.332  25.897  1.00  0.00    -0.274 OA
ATOM     76  N   UNL A   1      30.770  23.815  24.295  1.00  0.00    -0.325 N 
ATOM     77  H   UNL A   1      30.084  23.248  23.874  1.00  0.00     0.169 HD
BRANCH  76  78
ATOM     78  C   UNL A   1      31.233  24.838  23.451  1.00  0.00     0.054 A 
ATOM     79  C   UNL A   1      30.371  25.930  23.276  1.00  0.00     0.027 A 
ATOM     80  C   UNL A   1      32.426  24.822  22.720  1.00  0.00     0.063 A 
ATOM     81  C   UNL A   1      30.823  27.102  22.665  1.00  0.00     0.002 A 
ATOM     82  C   UNL A   1      32.927  26.033  22.210  1.00  0.00     0.016 A 
ATOM     83  C   UNL A   1      32.137  27.184  22.221  1.00  0.00     0.001 A 
BRANCH  80  84
ATOM     84  C   UNL A   1      32.958  23.573  22.063  1.00  0.00     0.256 C 
ATOM     85  O   UNL A   1      33.557  23.618  20.993  1.00  0.00    -0.269 OA
ATOM     86  N   UNL A   1      32.666  22.359  22.698  1.00  0.00    -0.335 N 
ATOM     87  C   UNL A   1      33.798  21.853  23.403  1.00  0.00     0.141 C 
ATOM     88  C   UNL A   1      31.990  21.253  21.996  1.00  0.00     0.141 C 
ATOM     89  C   UNL A   1      33.446  20.836  24.455  1.00  0.00     0.138 C 
ATOM     90  C   UNL A   1      31.731  19.988  22.911  1.00  0.00     0.138 C 
ATOM     91  N   UNL A   1      32.886  19.674  23.792  1.00  0.00    -0.368 N 
BRANCH  91  92
ATOM     92  C   UNL A   1      33.252  18.450  24.322  1.00  0.00     0.037 A 
ATOM     93  C   UNL A   1      33.931  17.481  23.537  1.00  0.00     0.029 A 
ATOM     94  C   UNL A   1      32.784  18.040  25.570  1.00  0.00     0.029 A 
ATOM     95  C   UNL A   1      34.004  16.141  23.909  1.00  0.00     0.041 A 
ATOM     96  C   UNL A   1      32.861  16.695  25.955  1.00  0.00     0.041 A 
ATOM     97  C   UNL A   1      33.442  15.756  25.110  1.00  0.00     0.123 A 
ATOM     98  F   UNL A   1      33.449  14.462  25.454  1.00  0.00    -0.207 F 
ENDBRANCH  91  92
ENDBRANCH  80  84
ENDBRANCH  76  78
ENDBRANCH  70  74
ENDBRANCH  66  68
ENDBRANCH  65  66
ENDBRANCH  64  65
ENDBRANCH   1  64
TORSDOF 18
ENDMDL
MODEL 3
REMARK VINA RESULT:     -12.7      2.682      4.420
REMARK SMILES O=C(OCCOCCOC(=O)[C@@H]1CCCC[C@@H]1C(=O)Nc1ccccc1C(=O)N1CCN(c2ccc(F)cc2)CC1)c1ccc(-c2c3nc(c(-c4c(F)cccc4F)c4ccc([nH]4)c(-c4c(F)cccc4F)c4nc(c(-c5c(F)cccc5F)c5ccc2[nH]5)C=C4)C=C3)cc1
REMARK SMILES IDX 7 1 6 2 5 3 4 4 3 5 2 6 1 7 42 8 43 9 95 10 44 11 94 12
REMARK SMILES IDX 45 13 46 14 47 15 88 16 48 17 93 18 87 19 89 20 49 21 92 22
REMARK SMILES IDX 86 23 85 24 50 26 76 27 59 28 75 29 60 30 63 31 74 32 90 33
REMARK SMILES IDX 61 34 62 35 73 37 91 38 64 39 51 40 52 41 57 42 53 43 54 44
REMARK SMILES IDX 56 45 58 46 55 47 77 48 78 49 83 50 79 51 80 52 82 53 84 54
REMARK SMILES IDX 81 55 65 56 66 57 71 58 67 59 68 60 70 61 72 62 69 63 8 64
REMARK SMILES IDX 9 65 10 66 11 67 12 68 13 69 17 70 14 71 16 72 15 73 18 74
REMARK SMILES IDX 19 75 20 76 21 78 22 79 26 80 23 81 25 82 24 83 27 84 28 85
REMARK SMILES IDX 29 86 30 87 41 88 31 89 40 90 32 91 33 92 34 93 39 94 35 95
REMARK SMILES IDX 38 96 36 97 37 98
REMARK H PARENT 89 25 63 36 20 77
REMARK Flexibility Score: inf
ROOT
ATOM      1  C   UNL A   1      34.148  32.892  28.984  1.00  0.00     0.202 C 
ENDROOT
BRANCH   1   2
ATOM      2  O   UNL A   1      33.178  33.932  28.885  1.00  0.00    -0.374 OA
BRANCH   2   3
ATOM      3  C   UNL A   1      33.772  35.195  28.663  1.00  0.00     0.202 C 
BRANCH   3   4
ATOM      4  C   UNL A   1      33.010  36.395  29.254  1.00  0.00     0.261 C 
BRANCH   4   5
ATOM      5  O   UNL A   1      32.203  36.064  30.412  1.00  0.00    -0.460 OA
BRANCH   5   6
ATOM      6  C   UNL A   1      32.619  36.072  31.704  1.00  0.00     0.338 C 
ATOM      7  O   UNL A   1      32.117  36.838  32.532  1.00  0.00    -0.246 OA
BRANCH   6   8
ATOM      8  C   UNL A   1      33.706  35.162  32.128  1.00  0.00     0.060 A 
ATOM      9  C   UNL A   1      35.005  35.627  32.193  1.00  0.00     0.016 A 
ATOM     10  C   UNL A   1      33.457  33.857  32.552  1.00  0.00     0.016 A 
ATOM     11  C   UNL A   1      36.075  34.774  32.311  1.00  0.00     0.010 A 
ATOM     12  C   UNL A   1      34.527  33.064  32.989  1.00  0.00     0.010 A 
ATOM     13  C   UNL A   1      35.852  33.514  32.842  1.00  0.00    -0.014 A 
BRANCH  13  14
ATOM     14  C   UNL A   1      37.028  32.737  33.294  1.00  0.00     0.031 A 
ATOM     15  C   UNL A   1      37.556  32.961  34.674  1.00  0.00     0.074 A 
ATOM     16  C   UNL A   1      37.572  31.811  32.474  1.00  0.00     0.049 A 
ATOM     17  N   UNL A   1      38.678  32.561  35.204  1.00  0.00    -0.248 NA
ATOM     18  C   UNL A   1      36.714  33.763  35.576  1.00  0.00     0.031 C 
ATOM     19  C   UNL A   1      37.070  31.444  31.140  1.00  0.00     0.029 A 
ATOM     20  N   UNL A   1      38.646  30.977  32.643  1.00  0.00    -0.354 N 
ATOM     21  C   UNL A   1      38.719  33.135  36.466  1.00  0.00     0.074 A 
ATOM     22  C   UNL A   1      37.504  33.900  36.630  1.00  0.00     0.031 C 
ATOM     23  C   UNL A   1      37.777  30.414  30.658  1.00  0.00     0.029 A 
ATOM     24  C   UNL A   1      38.875  30.149  31.567  1.00  0.00     0.049 A 
ATOM     25  H   UNL A   1      39.202  30.970  33.456  1.00  0.00     0.167 HD
ATOM     26  C   UNL A   1      39.706  33.039  37.387  1.00  0.00     0.037 A 
ATOM     27  C   UNL A   1      39.899  29.316  31.313  1.00  0.00     0.037 A 
ATOM     28  C   UNL A   1      40.884  32.238  37.184  1.00  0.00     0.049 A 
ATOM     29  C   UNL A   1      41.004  29.270  32.327  1.00  0.00     0.074 A 
ATOM     30  C   UNL A   1      41.981  32.080  38.007  1.00  0.00     0.029 A 
ATOM     31  N   UNL A   1      41.105  31.447  36.060  1.00  0.00    -0.354 N 
ATOM     32  N   UNL A   1      41.090  29.892  33.479  1.00  0.00    -0.248 NA
ATOM     33  C   UNL A   1      42.163  28.437  31.997  1.00  0.00     0.031 C 
ATOM     34  C   UNL A   1      42.884  31.227  37.362  1.00  0.00     0.029 A 
ATOM     35  C   UNL A   1      42.323  30.803  36.166  1.00  0.00     0.049 A 
ATOM     36  H   UNL A   1      40.483  31.359  35.301  1.00  0.00     0.167 HD
ATOM     37  C   UNL A   1      42.300  29.502  34.031  1.00  0.00     0.074 A 
ATOM     38  C   UNL A   1      42.903  28.578  33.086  1.00  0.00     0.031 C 
ATOM     39  C   UNL A   1      42.866  29.871  35.206  1.00  0.00     0.037 A 
BRANCH  26  40
ATOM     40  C   UNL A   1      39.573  33.892  38.616  1.00  0.00     0.057 A 
ATOM     41  C   UNL A   1      38.956  33.437  39.789  1.00  0.00     0.134 A 
ATOM     42  C   UNL A   1      40.005  35.225  38.594  1.00  0.00     0.134 A 
ATOM     43  F   UNL A   1      38.490  32.181  39.870  1.00  0.00    -0.206 F 
ATOM     44  C   UNL A   1      38.732  34.288  40.875  1.00  0.00     0.040 A 
ATOM     45  C   UNL A   1      39.814  36.076  39.684  1.00  0.00     0.040 A 
ATOM     46  F   UNL A   1      40.598  35.731  37.503  1.00  0.00    -0.206 F 
ATOM     47  C   UNL A   1      39.162  35.612  40.824  1.00  0.00     0.006 A 
ENDBRANCH  26  40
BRANCH  27  48
ATOM     48  C   UNL A   1      39.957  28.528  30.051  1.00  0.00     0.057 A 
ATOM     49  C   UNL A   1      40.640  29.010  28.928  1.00  0.00     0.134 A 
ATOM     50  C   UNL A   1      39.326  27.282  29.925  1.00  0.00     0.134 A 
ATOM     51  F   UNL A   1      41.254  30.201  28.972  1.00  0.00    -0.206 F 
ATOM     52  C   UNL A   1      40.672  28.300  27.725  1.00  0.00     0.040 A 
ATOM     53  C   UNL A   1      39.378  26.545  28.740  1.00  0.00     0.040 A 
ATOM     54  F   UNL A   1      38.658  26.752  30.960  1.00  0.00    -0.206 F 
ATOM     55  C   UNL A   1      40.044  27.060  27.631  1.00  0.00     0.006 A 
ENDBRANCH  27  48
BRANCH  39  56
ATOM     56  C   UNL A   1      44.161  29.205  35.557  1.00  0.00     0.057 A 
ATOM     57  C   UNL A   1      44.214  28.010  36.280  1.00  0.00     0.134 A 
ATOM     58  C   UNL A   1      45.372  29.767  35.130  1.00  0.00     0.134 A 
ATOM     59  F   UNL A   1      43.087  27.436  36.733  1.00  0.00    -0.206 F 
ATOM     60  C   UNL A   1      45.431  27.406  36.593  1.00  0.00     0.040 A 
ATOM     61  C   UNL A   1      46.592  29.155  35.407  1.00  0.00     0.040 A 
ATOM     62  F   UNL A   1      45.383  30.909  34.427  1.00  0.00    -0.206 F 
ATOM     63  C   UNL A   1      46.623  27.975  36.147  1.00  0.00     0.006 A 
ENDBRANCH  39  56
ENDBRANCH  13  14
ENDBRANCH   6   8
ENDBRANCH   5   6
ENDBRANCH   4   5
ENDBRANCH   3   4
ENDBRANCH   2   3
ENDBRANCH   1   2
BRANCH   1  64
ATOM     64  C   UNL A   1      34.234  32.040  27.698  1.00  0.00     0.261 C 
BRANCH  64  65
ATOM     65  O   UNL A   1      33.612  30.722  27.822  1.00  0.00    -0.463 OA
BRANCH  65  66
ATOM     66  C   UNL A   1      34.137  29.654  27.133  1.00  0.00     0.309 C 
ATOM     67  O   UNL A   1      35.280  29.239  27.266  1.00  0.00    -0.252 OA
BRANCH  66  68
ATOM     68  C   UNL A   1      33.176  29.134  26.040  1.00  0.00     0.111 C 
ATOM     69  C   UNL A   1      31.769  29.738  26.066  1.00  0.00     0.016 C 
ATOM     70  C   UNL A   1      33.202  27.613  25.585  1.00  0.00     0.093 C 
ATOM     71  C   UNL A   1      31.157  29.701  24.669  1.00  0.00     0.001 C 
ATOM     72  C   UNL A   1      32.636  27.653  24.122  1.00  0.00     0.014 C 
ATOM     73  C   UNL A   1      31.246  28.332  24.002  1.00  0.00     0.001 C 
BRANCH  70  74
ATOM     74  C   UNL A   1      32.306  26.503  26.211  1.00  0.00     0.228 C 
ATOM     75  O   UNL A   1      31.638  26.753  27.223  1.00  0.00    -0.274 OA
ATOM     76  N   UNL A   1      32.012  25.297  25.632  1.00  0.00    -0.325 N 
ATOM     77  H   UNL A   1      31.190  24.886  25.986  1.00  0.00     0.169 HD
BRANCH  76  78
ATOM     78  C   UNL A   1      32.634  24.520  24.641  1.00  0.00     0.054 A 
ATOM     79  C   UNL A   1      31.806  24.072  23.600  1.00  0.00     0.027 A 
ATOM     80  C   UNL A   1      33.967  24.094  24.647  1.00  0.00     0.063 A 
ATOM     81  C   UNL A   1      32.357  23.508  22.447  1.00  0.00     0.002 A 
ATOM     82  C   UNL A   1      34.540  23.636  23.447  1.00  0.00     0.016 A 
ATOM     83  C   UNL A   1      33.737  23.382  22.333  1.00  0.00     0.001 A 
BRANCH  80  84
ATOM     84  C   UNL A   1      34.676  23.667  25.907  1.00  0.00     0.256 C 
ATOM     85  O   UNL A   1      34.083  23.583  26.978  1.00  0.00    -0.269 OA
ATOM     86  N   UNL A   1      36.055  23.446  25.805  1.00  0.00    -0.335 N 
ATOM     87  C   UNL A   1      36.360  22.054  25.772  1.00  0.00     0.141 C 
ATOM     88  C   UNL A   1      37.024  24.141  26.672  1.00  0.00     0.141 C 
ATOM     89  C   UNL A   1      37.724  21.749  25.213  1.00  0.00     0.138 C 
ATOM     90  C   UNL A   1      38.530  23.766  26.365  1.00  0.00     0.138 C 
ATOM     91  N   UNL A   1      38.717  22.315  26.106  1.00  0.00    -0.368 N 
BRANCH  91  92
ATOM     92  C   UNL A   1      39.852  21.548  26.298  1.00  0.00     0.037 A 
ATOM     93  C   UNL A   1      39.940  20.224  25.796  1.00  0.00     0.029 A 
ATOM     94  C   UNL A   1      40.859  21.964  27.168  1.00  0.00     0.029 A 
ATOM     95  C   UNL A   1      40.892  19.315  26.254  1.00  0.00     0.041 A 
ATOM     96  C   UNL A   1      41.826  21.059  27.628  1.00  0.00     0.041 A 
ATOM     97  C   UNL A   1      41.814  19.739  27.189  1.00  0.00     0.123 A 
ATOM     98  F   UNL A   1      42.696  18.863  27.686  1.00  0.00    -0.207 F 
ENDBRANCH  91  92
ENDBRANCH  80  84
ENDBRANCH  76  78
ENDBRANCH  70  74
ENDBRANCH  66  68
ENDBRANCH  65  66
ENDBRANCH  64  65
ENDBRANCH   1  64
TORSDOF 18
ENDMDL
