MODEL 1
REMARK VINA RESULT:     -11.5      0.000      0.000
REMARK SMILES CS(=O)(=O)c1ccc(/C=C(/C(=O)OCCOCCOC(=O)c2ccc(-c3c4nc(c(-c5c(F)cccc5F)c5ccc([nH]5)c(-c5c(F)cccc5F)c5nc(c(-c6c(F)cccc6F)c6ccc3[nH]6)C=C5)C=C4)cc2)c2ccccc2)cc1
REMARK SMILES IDX 16 1 15 2 14 3 13 4 11 5 12 6 10 7 9 8 8 9 5 10 6 11 83 12
REMARK SMILES IDX 7 13 82 14 2 15 1 16 3 17 4 18 76 19 77 20 81 21 78 22 80 23
REMARK SMILES IDX 79 24 17 25 18 26 19 27 20 28 21 29 22 30 23 31 75 32 24 33
REMARK SMILES IDX 74 34 25 35 26 36 27 37 68 38 28 39 73 40 67 41 69 42 29 43
REMARK SMILES IDX 72 44 66 45 65 46 30 48 56 49 39 50 55 51 40 52 43 53 54 54
REMARK SMILES IDX 70 55 41 56 42 57 53 59 71 60 44 61 31 62 32 63 37 64 33 65
REMARK SMILES IDX 34 66 36 67 38 68 35 69 57 70 58 71 63 72 59 73 60 74 62 75
REMARK SMILES IDX 64 76 61 77 45 78 46 79 51 80 47 81 48 82 50 83 52 84 49 85
REMARK H PARENT 69 47 43 58
REMARK Flexibility Score: inf
ROOT
ATOM      1  O   UNL A   1      34.545  20.560  24.923  1.00  0.00    -0.374 OA
ENDROOT
BRANCH   1   2
ATOM      2  C   UNL A   1      33.296  21.253  24.931  1.00  0.00     0.202 C 
BRANCH   2   3
ATOM      3  C   UNL A   1      32.837  21.846  26.266  1.00  0.00     0.261 C 
BRANCH   3   4
ATOM      4  O   UNL A   1      32.215  23.130  26.080  1.00  0.00    -0.460 OA
BRANCH   4   5
ATOM      5  C   UNL A   1      33.081  24.174  26.013  1.00  0.00     0.338 C 
ATOM      6  O   UNL A   1      34.248  24.150  26.380  1.00  0.00    -0.246 OA
BRANCH   5   7
ATOM      7  C   UNL A   1      32.480  25.361  25.321  1.00  0.00     0.067 C 
ATOM      8  C   UNL A   1      31.783  25.193  24.172  1.00  0.00     0.024 C 
BRANCH   8   9
ATOM      9  C   UNL A   1      30.876  26.159  23.501  1.00  0.00    -0.025 A 
ATOM     10  C   UNL A   1      29.152  28.246  22.751  1.00  0.00     0.067 A 
ATOM     11  C   UNL A   1      30.451  28.209  22.251  1.00  0.00     0.021 A 
ATOM     12  C   UNL A   1      28.667  27.200  23.533  1.00  0.00     0.021 A 
ATOM     13  C   UNL A   1      31.290  27.144  22.593  1.00  0.00     0.009 A 
ATOM     14  C   UNL A   1      29.529  26.159  23.899  1.00  0.00     0.009 A 
BRANCH  10  15
ATOM     15  S   UNL A   1      28.174  29.714  22.528  1.00  0.00     0.175 S 
ATOM     16  C   UNL A   1      29.014  30.938  23.491  1.00  0.00     0.163 C 
ATOM     17  O   UNL A   1      26.882  29.466  23.141  1.00  0.00    -0.224 OA
ATOM     18  O   UNL A   1      28.270  30.097  21.134  1.00  0.00    -0.224 OA
ENDBRANCH  10  15
ENDBRANCH   8   9
BRANCH   7  19
ATOM     19  C   UNL A   1      32.621  26.651  26.023  1.00  0.00    -0.011 A 
ATOM     20  C   UNL A   1      33.756  27.445  25.786  1.00  0.00     0.009 A 
ATOM     21  C   UNL A   1      31.633  27.113  26.898  1.00  0.00     0.009 A 
ATOM     22  C   UNL A   1      33.891  28.688  26.400  1.00  0.00     0.001 A 
ATOM     23  C   UNL A   1      31.768  28.363  27.505  1.00  0.00     0.001 A 
ATOM     24  C   UNL A   1      32.893  29.149  27.255  1.00  0.00     0.000 A 
ENDBRANCH   7  19
ENDBRANCH   5   7
ENDBRANCH   4   5
ENDBRANCH   3   4
ENDBRANCH   2   3
ENDBRANCH   1   2
BRANCH   1  25
ATOM     25  C   UNL A   1      35.733  21.344  24.957  1.00  0.00     0.202 C 
BRANCH  25  26
ATOM     26  C   UNL A   1      37.051  20.626  25.273  1.00  0.00     0.261 C 
BRANCH  26  27
ATOM     27  O   UNL A   1      38.197  21.477  25.139  1.00  0.00    -0.460 OA
BRANCH  27  28
ATOM     28  C   UNL A   1      39.187  21.218  26.023  1.00  0.00     0.338 C 
ATOM     29  O   UNL A   1      39.726  20.139  26.243  1.00  0.00    -0.246 OA
BRANCH  28  30
ATOM     30  C   UNL A   1      39.683  22.476  26.603  1.00  0.00     0.060 A 
ATOM     31  C   UNL A   1      39.117  23.668  26.134  1.00  0.00     0.016 A 
ATOM     32  C   UNL A   1      40.713  22.497  27.546  1.00  0.00     0.016 A 
ATOM     33  C   UNL A   1      39.610  24.892  26.573  1.00  0.00     0.010 A 
ATOM     34  C   UNL A   1      41.214  23.729  27.979  1.00  0.00     0.010 A 
ATOM     35  C   UNL A   1      40.686  24.929  27.470  1.00  0.00    -0.014 A 
BRANCH  35  36
ATOM     36  C   UNL A   1      41.334  26.227  27.769  1.00  0.00     0.031 A 
ATOM     37  C   UNL A   1      42.736  26.474  27.289  1.00  0.00     0.074 A 
ATOM     38  C   UNL A   1      40.663  27.188  28.429  1.00  0.00     0.049 A 
ATOM     39  N   UNL A   1      43.487  27.536  27.432  1.00  0.00    -0.248 NA
ATOM     40  C   UNL A   1      43.378  25.375  26.550  1.00  0.00     0.031 C 
ATOM     41  C   UNL A   1      39.292  27.074  28.920  1.00  0.00     0.029 A 
ATOM     42  N   UNL A   1      41.052  28.449  28.800  1.00  0.00    -0.354 N 
ATOM     43  C   UNL A   1      44.689  27.233  26.806  1.00  0.00     0.074 A 
ATOM     44  C   UNL A   1      44.580  25.878  26.311  1.00  0.00     0.031 C 
ATOM     45  C   UNL A   1      38.954  28.218  29.538  1.00  0.00     0.029 A 
ATOM     46  C   UNL A   1      40.095  29.133  29.506  1.00  0.00     0.049 A 
ATOM     47  H   UNL A   1      41.934  28.828  28.581  1.00  0.00     0.167 HD
ATOM     48  C   UNL A   1      45.782  28.019  26.651  1.00  0.00     0.037 A 
ATOM     49  C   UNL A   1      40.140  30.352  30.075  1.00  0.00     0.037 A 
ATOM     50  C   UNL A   1      45.885  29.367  27.145  1.00  0.00     0.049 A 
ATOM     51  C   UNL A   1      41.385  31.186  29.936  1.00  0.00     0.074 A 
ATOM     52  C   UNL A   1      46.936  30.257  27.006  1.00  0.00     0.029 A 
ATOM     53  N   UNL A   1      44.906  30.016  27.882  1.00  0.00    -0.354 N 
ATOM     54  N   UNL A   1      42.501  30.908  29.307  1.00  0.00    -0.248 NA
ATOM     55  C   UNL A   1      41.374  32.506  30.582  1.00  0.00     0.031 C 
ATOM     56  C   UNL A   1      46.612  31.426  27.705  1.00  0.00     0.029 A 
ATOM     57  C   UNL A   1      45.340  31.283  28.233  1.00  0.00     0.049 A 
ATOM     58  H   UNL A   1      44.031  29.631  28.119  1.00  0.00     0.167 HD
ATOM     59  C   UNL A   1      43.315  32.023  29.462  1.00  0.00     0.074 A 
ATOM     60  C   UNL A   1      42.557  32.988  30.231  1.00  0.00     0.031 C 
ATOM     61  C   UNL A   1      44.575  32.230  29.006  1.00  0.00     0.037 A 
BRANCH  48  62
ATOM     62  C   UNL A   1      46.963  27.424  25.942  1.00  0.00     0.057 A 
ATOM     63  C   UNL A   1      47.146  27.563  24.559  1.00  0.00     0.134 A 
ATOM     64  C   UNL A   1      47.943  26.723  26.655  1.00  0.00     0.134 A 
ATOM     65  F   UNL A   1      46.236  28.210  23.815  1.00  0.00    -0.206 F 
ATOM     66  C   UNL A   1      48.248  27.003  23.910  1.00  0.00     0.040 A 
ATOM     67  C   UNL A   1      49.062  26.183  26.021  1.00  0.00     0.040 A 
ATOM     68  F   UNL A   1      47.831  26.558  27.982  1.00  0.00    -0.206 F 
ATOM     69  C   UNL A   1      49.213  26.316  24.642  1.00  0.00     0.006 A 
ENDBRANCH  48  62
BRANCH  49  70
ATOM     70  C   UNL A   1      38.970  30.853  30.838  1.00  0.00     0.057 A 
ATOM     71  C   UNL A   1      37.974  31.620  30.224  1.00  0.00     0.134 A 
ATOM     72  C   UNL A   1      38.822  30.577  32.203  1.00  0.00     0.134 A 
ATOM     73  F   UNL A   1      38.072  31.936  28.923  1.00  0.00    -0.206 F 
ATOM     74  C   UNL A   1      36.880  32.106  30.940  1.00  0.00     0.040 A 
ATOM     75  C   UNL A   1      37.720  31.036  32.927  1.00  0.00     0.040 A 
ATOM     76  F   UNL A   1      39.741  29.846  32.849  1.00  0.00    -0.206 F 
ATOM     77  C   UNL A   1      36.747  31.808  32.296  1.00  0.00     0.006 A 
ENDBRANCH  49  70
BRANCH  61  78
ATOM     78  C   UNL A   1      45.206  33.558  29.311  1.00  0.00     0.057 A 
ATOM     79  C   UNL A   1      46.000  33.756  30.448  1.00  0.00     0.134 A 
ATOM     80  C   UNL A   1      45.046  34.642  28.437  1.00  0.00     0.134 A 
ATOM     81  F   UNL A   1      46.184  32.762  31.330  1.00  0.00    -0.206 F 
ATOM     82  C   UNL A   1      46.594  34.991  30.716  1.00  0.00     0.040 A 
ATOM     83  C   UNL A   1      45.655  35.873  28.682  1.00  0.00     0.040 A 
ATOM     84  F   UNL A   1      44.306  34.518  27.325  1.00  0.00    -0.206 F 
ATOM     85  C   UNL A   1      46.427  36.052  29.829  1.00  0.00     0.006 A 
ENDBRANCH  61  78
ENDBRANCH  35  36
ENDBRANCH  28  30
ENDBRANCH  27  28
ENDBRANCH  26  27
ENDBRANCH  25  26
ENDBRANCH   1  25
TORSDOF 17
ENDMDL
MODEL 2
REMARK VINA RESULT:     -11.5      4.203      9.288
REMARK SMILES CS(=O)(=O)c1ccc(/C=C(/C(=O)OCCOCCOC(=O)c2ccc(-c3c4nc(c(-c5c(F)cccc5F)c5ccc([nH]5)c(-c5c(F)cccc5F)c5nc(c(-c6c(F)cccc6F)c6ccc3[nH]6)C=C5)C=C4)cc2)c2ccccc2)cc1
REMARK SMILES IDX 16 1 15 2 14 3 13 4 11 5 12 6 10 7 9 8 8 9 5 10 6 11 83 12
REMARK SMILES IDX 7 13 82 14 2 15 1 16 3 17 4 18 76 19 77 20 81 21 78 22 80 23
REMARK SMILES IDX 79 24 17 25 18 26 19 27 20 28 21 29 22 30 23 31 75 32 24 33
REMARK SMILES IDX 74 34 25 35 26 36 27 37 68 38 28 39 73 40 67 41 69 42 29 43
REMARK SMILES IDX 72 44 66 45 65 46 30 48 56 49 39 50 55 51 40 52 43 53 54 54
REMARK SMILES IDX 70 55 41 56 42 57 53 59 71 60 44 61 31 62 32 63 37 64 33 65
REMARK SMILES IDX 34 66 36 67 38 68 35 69 57 70 58 71 63 72 59 73 60 74 62 75
REMARK SMILES IDX 64 76 61 77 45 78 46 79 51 80 47 81 48 82 50 83 52 84 49 85
REMARK H PARENT 69 47 43 58
REMARK Flexibility Score: inf
ROOT
ATOM      1  O   UNL A   1      31.914  29.019  25.608  1.00  0.00    -0.374 OA
ENDROOT
BRANCH   1   2
ATOM      2  C   UNL A   1      31.449  27.879  24.885  1.00  0.00     0.202 C 
BRANCH   2   3
ATOM      3  C   UNL A   1      32.510  26.909  24.356  1.00  0.00     0.261 C 
BRANCH   3   4
ATOM      4  O   UNL A   1      32.031  26.191  23.205  1.00  0.00    -0.460 OA
BRANCH   4   5
ATOM      5  C   UNL A   1      32.969  25.433  22.581  1.00  0.00     0.338 C 
ATOM      6  O   UNL A   1      33.662  25.796  21.641  1.00  0.00    -0.246 OA
BRANCH   5   7
ATOM      7  C   UNL A   1      33.154  24.103  23.249  1.00  0.00     0.067 C 
ATOM      8  C   UNL A   1      32.142  23.204  23.257  1.00  0.00     0.024 C 
BRANCH   8   9
ATOM      9  C   UNL A   1      32.204  21.757  23.588  1.00  0.00    -0.025 A 
ATOM     10  C   UNL A   1      32.829  19.039  23.931  1.00  0.00     0.067 A 
ATOM     11  C   UNL A   1      32.852  19.898  25.027  1.00  0.00     0.021 A 
ATOM     12  C   UNL A   1      32.396  19.495  22.687  1.00  0.00     0.021 A 
ATOM     13  C   UNL A   1      32.496  21.240  24.858  1.00  0.00     0.009 A 
ATOM     14  C   UNL A   1      32.079  20.848  22.523  1.00  0.00     0.009 A 
BRANCH  10  15
ATOM     15  S   UNL A   1      33.520  17.409  24.088  1.00  0.00     0.175 S 
ATOM     16  C   UNL A   1      32.575  16.667  25.387  1.00  0.00     0.163 C 
ATOM     17  O   UNL A   1      34.886  17.565  24.556  1.00  0.00    -0.224 OA
ATOM     18  O   UNL A   1      33.236  16.693  22.861  1.00  0.00    -0.224 OA
ENDBRANCH  10  15
ENDBRANCH   8   9
BRANCH   7  19
ATOM     19  C   UNL A   1      34.504  23.835  23.780  1.00  0.00    -0.011 A 
ATOM     20  C   UNL A   1      34.844  24.296  25.063  1.00  0.00     0.009 A 
ATOM     21  C   UNL A   1      35.443  23.106  23.043  1.00  0.00     0.009 A 
ATOM     22  C   UNL A   1      36.096  24.016  25.607  1.00  0.00     0.001 A 
ATOM     23  C   UNL A   1      36.693  22.821  23.595  1.00  0.00     0.001 A 
ATOM     24  C   UNL A   1      37.018  23.274  24.874  1.00  0.00     0.000 A 
ENDBRANCH   7  19
ENDBRANCH   5   7
ENDBRANCH   4   5
ENDBRANCH   3   4
ENDBRANCH   2   3
ENDBRANCH   1   2
BRANCH   1  25
ATOM     25  C   UNL A   1      31.257  30.261  25.372  1.00  0.00     0.202 C 
BRANCH  25  26
ATOM     26  C   UNL A   1      31.589  31.431  26.306  1.00  0.00     0.261 C 
BRANCH  26  27
ATOM     27  O   UNL A   1      32.642  31.125  27.231  1.00  0.00    -0.460 OA
BRANCH  27  28
ATOM     28  C   UNL A   1      33.427  32.180  27.546  1.00  0.00     0.338 C 
ATOM     29  O   UNL A   1      33.100  33.360  27.606  1.00  0.00    -0.246 OA
BRANCH  28  30
ATOM     30  C   UNL A   1      34.747  31.707  27.992  1.00  0.00     0.060 A 
ATOM     31  C   UNL A   1      34.872  30.347  28.303  1.00  0.00     0.016 A 
ATOM     32  C   UNL A   1      35.827  32.578  28.154  1.00  0.00     0.016 A 
ATOM     33  C   UNL A   1      36.067  29.859  28.821  1.00  0.00     0.010 A 
ATOM     34  C   UNL A   1      37.024  32.087  28.684  1.00  0.00     0.010 A 
ATOM     35  C   UNL A   1      37.137  30.733  29.048  1.00  0.00    -0.014 A 
BRANCH  35  36
ATOM     36  C   UNL A   1      38.324  30.246  29.788  1.00  0.00     0.031 A 
ATOM     37  C   UNL A   1      38.545  30.703  31.202  1.00  0.00     0.074 A 
ATOM     38  C   UNL A   1      39.175  29.376  29.214  1.00  0.00     0.049 A 
ATOM     39  N   UNL A   1      39.509  30.396  32.032  1.00  0.00    -0.248 NA
ATOM     40  C   UNL A   1      37.545  31.631  31.754  1.00  0.00     0.031 C 
ATOM     41  C   UNL A   1      39.050  28.843  27.860  1.00  0.00     0.029 A 
ATOM     42  N   UNL A   1      40.314  28.793  29.705  1.00  0.00    -0.354 N 
ATOM     43  C   UNL A   1      39.235  31.095  33.200  1.00  0.00     0.074 A 
ATOM     44  C   UNL A   1      38.035  31.866  32.962  1.00  0.00     0.031 C 
ATOM     45  C   UNL A   1      40.080  28.014  27.622  1.00  0.00     0.029 A 
ATOM     46  C   UNL A   1      40.947  27.979  28.799  1.00  0.00     0.049 A 
ATOM     47  H   UNL A   1      40.647  28.942  30.619  1.00  0.00     0.167 HD
ATOM     48  C   UNL A   1      39.920  31.086  34.370  1.00  0.00     0.037 A 
ATOM     49  C   UNL A   1      42.104  27.298  28.903  1.00  0.00     0.037 A 
ATOM     50  C   UNL A   1      41.114  30.316  34.602  1.00  0.00     0.049 A 
ATOM     51  C   UNL A   1      42.876  27.346  30.194  1.00  0.00     0.074 A 
ATOM     52  C   UNL A   1      41.860  30.211  35.764  1.00  0.00     0.029 A 
ATOM     53  N   UNL A   1      41.743  29.527  33.650  1.00  0.00    -0.354 N 
ATOM     54  N   UNL A   1      42.588  27.977  31.307  1.00  0.00    -0.248 NA
ATOM     55  C   UNL A   1      44.132  26.585  30.244  1.00  0.00     0.031 C 
ATOM     56  C   UNL A   1      42.968  29.400  35.498  1.00  0.00     0.029 A 
ATOM     57  C   UNL A   1      42.885  28.958  34.188  1.00  0.00     0.049 A 
ATOM     58  H   UNL A   1      41.423  29.391  32.729  1.00  0.00     0.167 HD
ATOM     59  C   UNL A   1      43.612  27.671  32.195  1.00  0.00     0.074 A 
ATOM     60  C   UNL A   1      44.520  26.785  31.495  1.00  0.00     0.031 C 
ATOM     61  C   UNL A   1      43.783  28.083  33.475  1.00  0.00     0.037 A 
BRANCH  48  62
ATOM     62  C   UNL A   1      39.406  31.960  35.475  1.00  0.00     0.057 A 
ATOM     63  C   UNL A   1      39.829  33.288  35.630  1.00  0.00     0.134 A 
ATOM     64  C   UNL A   1      38.459  31.475  36.386  1.00  0.00     0.134 A 
ATOM     65  F   UNL A   1      40.746  33.810  34.801  1.00  0.00    -0.206 F 
ATOM     66  C   UNL A   1      39.346  34.091  36.665  1.00  0.00     0.040 A 
ATOM     67  C   UNL A   1      37.949  32.277  37.407  1.00  0.00     0.040 A 
ATOM     68  F   UNL A   1      38.010  30.214  36.292  1.00  0.00    -0.206 F 
ATOM     69  C   UNL A   1      38.399  33.587  37.553  1.00  0.00     0.006 A 
ENDBRANCH  48  62
BRANCH  49  70
ATOM     70  C   UNL A   1      42.607  26.518  27.745  1.00  0.00     0.057 A 
ATOM     71  C   UNL A   1      43.365  27.120  26.736  1.00  0.00     0.134 A 
ATOM     72  C   UNL A   1      42.338  25.150  27.621  1.00  0.00     0.134 A 
ATOM     73  F   UNL A   1      43.637  28.433  26.788  1.00  0.00    -0.206 F 
ATOM     74  C   UNL A   1      43.829  26.393  25.638  1.00  0.00     0.040 A 
ATOM     75  C   UNL A   1      42.815  24.405  26.542  1.00  0.00     0.040 A 
ATOM     76  F   UNL A   1      41.618  24.514  28.557  1.00  0.00    -0.206 F 
ATOM     77  C   UNL A   1      43.558  25.029  25.542  1.00  0.00     0.006 A 
ENDBRANCH  49  70
BRANCH  61  78
ATOM     78  C   UNL A   1      44.987  27.566  34.208  1.00  0.00     0.057 A 
ATOM     79  C   UNL A   1      46.196  28.274  34.237  1.00  0.00     0.134 A 
ATOM     80  C   UNL A   1      44.925  26.363  34.923  1.00  0.00     0.134 A 
ATOM     81  F   UNL A   1      46.324  29.427  33.563  1.00  0.00    -0.206 F 
ATOM     82  C   UNL A   1      47.307  27.791  34.932  1.00  0.00     0.040 A 
ATOM     83  C   UNL A   1      46.021  25.884  35.643  1.00  0.00     0.040 A 
ATOM     84  F   UNL A   1      43.795  25.640  34.945  1.00  0.00    -0.206 F 
ATOM     85  C   UNL A   1      47.218  26.596  35.642  1.00  0.00     0.006 A 
ENDBRANCH  61  78
ENDBRANCH  35  36
ENDBRANCH  28  30
ENDBRANCH  27  28
ENDBRANCH  26  27
ENDBRANCH  25  26
ENDBRANCH   1  25
TORSDOF 17
ENDMDL
MODEL 3
REMARK VINA RESULT:     -11.4      1.878      6.145
REMARK SMILES CS(=O)(=O)c1ccc(/C=C(/C(=O)OCCOCCOC(=O)c2ccc(-c3c4nc(c(-c5c(F)cccc5F)c5ccc([nH]5)c(-c5c(F)cccc5F)c5nc(c(-c6c(F)cccc6F)c6ccc3[nH]6)C=C5)C=C4)cc2)c2ccccc2)cc1
REMARK SMILES IDX 16 1 15 2 14 3 13 4 11 5 12 6 10 7 9 8 8 9 5 10 6 11 83 12
REMARK SMILES IDX 7 13 82 14 2 15 1 16 3 17 4 18 76 19 77 20 81 21 78 22 80 23
REMARK SMILES IDX 79 24 17 25 18 26 19 27 20 28 21 29 22 30 23 31 75 32 24 33
REMARK SMILES IDX 74 34 25 35 26 36 27 37 68 38 28 39 73 40 67 41 69 42 29 43
REMARK SMILES IDX 72 44 66 45 65 46 30 48 56 49 39 50 55 51 40 52 43 53 54 54
REMARK SMILES IDX 70 55 41 56 42 57 53 59 71 60 44 61 31 62 32 63 37 64 33 65
REMARK SMILES IDX 34 66 36 67 38 68 35 69 57 70 58 71 63 72 59 73 60 74 62 75
REMARK SMILES IDX 64 76 61 77 45 78 46 79 51 80 47 81 48 82 50 83 52 84 49 85
REMARK H PARENT 69 47 43 58
REMARK Flexibility Score: inf
ROOT
ATOM      1  O   UNL A   1      36.418  21.485  25.911  1.00  0.00    -0.374 OA
ENDROOT
BRANCH   1   2
ATOM      2  C   UNL A   1      35.157  21.613  25.253  1.00  0.00     0.202 C 
BRANCH   2   3
ATOM      3  C   UNL A   1      34.011  22.234  26.058  1.00  0.00     0.261 C 
BRANCH   3   4
ATOM      4  O   UNL A   1      33.554  23.457  25.454  1.00  0.00    -0.460 OA
BRANCH   4   5
ATOM      5  C   UNL A   1      32.495  24.035  26.078  1.00  0.00     0.338 C 
ATOM      6  O   UNL A   1      32.021  23.675  27.147  1.00  0.00    -0.246 OA
BRANCH   5   7
ATOM      7  C   UNL A   1      32.019  25.262  25.360  1.00  0.00     0.067 C 
ATOM      8  C   UNL A   1      31.252  25.142  24.251  1.00  0.00     0.024 C 
BRANCH   8   9
ATOM      9  C   UNL A   1      30.446  26.191  23.576  1.00  0.00    -0.025 A 
ATOM     10  C   UNL A   1      28.896  28.413  22.830  1.00  0.00     0.067 A 
ATOM     11  C   UNL A   1      30.219  28.318  22.405  1.00  0.00     0.021 A 
ATOM     12  C   UNL A   1      28.304  27.365  23.533  1.00  0.00     0.021 A 
ATOM     13  C   UNL A   1      30.971  27.189  22.742  1.00  0.00     0.009 A 
ATOM     14  C   UNL A   1      29.079  26.257  23.896  1.00  0.00     0.009 A 
BRANCH  10  15
ATOM     15  S   UNL A   1      28.022  29.948  22.623  1.00  0.00     0.175 S 
ATOM     16  C   UNL A   1      29.086  31.150  23.367  1.00  0.00     0.163 C 
ATOM     17  O   UNL A   1      26.811  29.862  23.421  1.00  0.00    -0.224 OA
ATOM     18  O   UNL A   1      27.955  30.225  21.203  1.00  0.00    -0.224 OA
ENDBRANCH  10  15
ENDBRANCH   8   9
BRANCH   7  19
ATOM     19  C   UNL A   1      32.358  26.549  25.997  1.00  0.00    -0.011 A 
ATOM     20  C   UNL A   1      31.413  27.178  26.825  1.00  0.00     0.009 A 
ATOM     21  C   UNL A   1      33.612  27.141  25.818  1.00  0.00     0.009 A 
ATOM     22  C   UNL A   1      31.724  28.370  27.476  1.00  0.00     0.001 A 
ATOM     23  C   UNL A   1      33.923  28.331  26.478  1.00  0.00     0.001 A 
ATOM     24  C   UNL A   1      32.982  28.943  27.306  1.00  0.00     0.000 A 
ENDBRANCH   7  19
ENDBRANCH   5   7
ENDBRANCH   4   5
ENDBRANCH   3   4
ENDBRANCH   2   3
ENDBRANCH   1   2
BRANCH   1  25
ATOM     25  C   UNL A   1      37.542  21.124  25.114  1.00  0.00     0.202 C 
BRANCH  25  26
ATOM     26  C   UNL A   1      38.935  21.281  25.737  1.00  0.00     0.261 C 
BRANCH  26  27
ATOM     27  O   UNL A   1      39.423  20.067  26.325  1.00  0.00    -0.460 OA
BRANCH  27  28
ATOM     28  C   UNL A   1      40.760  19.895  26.213  1.00  0.00     0.338 C 
ATOM     29  O   UNL A   1      41.348  18.955  25.690  1.00  0.00    -0.246 OA
BRANCH  28  30
ATOM     30  C   UNL A   1      41.461  21.107  26.666  1.00  0.00     0.060 A 
ATOM     31  C   UNL A   1      41.400  21.413  28.031  1.00  0.00     0.016 A 
ATOM     32  C   UNL A   1      42.120  21.955  25.772  1.00  0.00     0.016 A 
ATOM     33  C   UNL A   1      41.962  22.595  28.505  1.00  0.00     0.010 A 
ATOM     34  C   UNL A   1      42.675  23.147  26.248  1.00  0.00     0.010 A 
ATOM     35  C   UNL A   1      42.570  23.485  27.610  1.00  0.00    -0.014 A 
BRANCH  35  36
ATOM     36  C   UNL A   1      42.977  24.826  28.090  1.00  0.00     0.031 A 
ATOM     37  C   UNL A   1      41.923  25.868  28.335  1.00  0.00     0.074 A 
ATOM     38  C   UNL A   1      44.270  25.097  28.337  1.00  0.00     0.049 A 
ATOM     39  N   UNL A   1      42.055  27.098  28.761  1.00  0.00    -0.248 NA
ATOM     40  C   UNL A   1      40.532  25.469  28.064  1.00  0.00     0.031 C 
ATOM     41  C   UNL A   1      45.378  24.160  28.161  1.00  0.00     0.029 A 
ATOM     42  N   UNL A   1      44.867  26.246  28.789  1.00  0.00    -0.354 N 
ATOM     43  C   UNL A   1      40.770  27.621  28.804  1.00  0.00     0.074 A 
ATOM     44  C   UNL A   1      39.875  26.588  28.332  1.00  0.00     0.031 C 
ATOM     45  C   UNL A   1      46.525  24.775  28.493  1.00  0.00     0.029 A 
ATOM     46  C   UNL A   1      46.233  26.154  28.881  1.00  0.00     0.049 A 
ATOM     47  H   UNL A   1      44.364  27.059  29.024  1.00  0.00     0.167 HD
ATOM     48  C   UNL A   1      40.372  28.851  29.211  1.00  0.00     0.037 A 
ATOM     49  C   UNL A   1      47.145  27.084  29.223  1.00  0.00     0.037 A 
ATOM     50  C   UNL A   1      41.266  29.876  29.681  1.00  0.00     0.049 A 
ATOM     51  C   UNL A   1      46.684  28.460  29.620  1.00  0.00     0.074 A 
ATOM     52  C   UNL A   1      40.957  31.141  30.150  1.00  0.00     0.029 A 
ATOM     53  N   UNL A   1      42.647  29.757  29.732  1.00  0.00    -0.354 N 
ATOM     54  N   UNL A   1      45.463  28.933  29.698  1.00  0.00    -0.248 NA
ATOM     55  C   UNL A   1      47.727  29.431  29.980  1.00  0.00     0.031 C 
ATOM     56  C   UNL A   1      42.155  31.806  30.435  1.00  0.00     0.029 A 
ATOM     57  C   UNL A   1      43.207  30.937  30.193  1.00  0.00     0.049 A 
ATOM     58  H   UNL A   1      43.154  28.952  29.478  1.00  0.00     0.167 HD
ATOM     59  C   UNL A   1      45.589  30.246  30.136  1.00  0.00     0.074 A 
ATOM     60  C   UNL A   1      47.005  30.489  30.322  1.00  0.00     0.031 C 
ATOM     61  C   UNL A   1      44.620  31.165  30.366  1.00  0.00     0.037 A 
BRANCH  48  62
ATOM     62  C   UNL A   1      38.906  29.161  29.135  1.00  0.00     0.057 A 
ATOM     63  C   UNL A   1      38.067  29.060  30.253  1.00  0.00     0.134 A 
ATOM     64  C   UNL A   1      38.330  29.589  27.932  1.00  0.00     0.134 A 
ATOM     65  F   UNL A   1      38.552  28.641  31.432  1.00  0.00    -0.206 F 
ATOM     66  C   UNL A   1      36.703  29.348  30.170  1.00  0.00     0.040 A 
ATOM     67  C   UNL A   1      36.974  29.906  27.844  1.00  0.00     0.040 A 
ATOM     68  F   UNL A   1      39.078  29.711  26.825  1.00  0.00    -0.206 F 
ATOM     69  C   UNL A   1      36.155  29.779  28.964  1.00  0.00     0.006 A 
ENDBRANCH  48  62
BRANCH  49  70
ATOM     70  C   UNL A   1      48.590  26.744  29.198  1.00  0.00     0.057 A 
ATOM     71  C   UNL A   1      49.377  26.995  28.069  1.00  0.00     0.134 A 
ATOM     72  C   UNL A   1      49.217  26.159  30.304  1.00  0.00     0.134 A 
ATOM     73  F   UNL A   1      48.827  27.534  26.970  1.00  0.00    -0.206 F 
ATOM     74  C   UNL A   1      50.732  26.664  28.035  1.00  0.00     0.040 A 
ATOM     75  C   UNL A   1      50.576  25.845  30.294  1.00  0.00     0.040 A 
ATOM     76  F   UNL A   1      48.517  25.896  31.418  1.00  0.00    -0.206 F 
ATOM     77  C   UNL A   1      51.337  26.093  29.154  1.00  0.00     0.006 A 
ENDBRANCH  49  70
BRANCH  61  78
ATOM     78  C   UNL A   1      45.057  32.513  30.864  1.00  0.00     0.057 A 
ATOM     79  C   UNL A   1      45.220  32.780  32.229  1.00  0.00     0.134 A 
ATOM     80  C   UNL A   1      45.351  33.545  29.963  1.00  0.00     0.134 A 
ATOM     81  F   UNL A   1      44.944  31.839  33.144  1.00  0.00    -0.206 F 
ATOM     82  C   UNL A   1      45.639  34.033  32.682  1.00  0.00     0.040 A 
ATOM     83  C   UNL A   1      45.796  34.793  30.402  1.00  0.00     0.040 A 
ATOM     84  F   UNL A   1      45.225  33.353  28.641  1.00  0.00    -0.206 F 
ATOM     85  C   UNL A   1      45.934  35.041  31.766  1.00  0.00     0.006 A 
ENDBRANCH  61  78
ENDBRANCH  35  36
ENDBRANCH  28  30
ENDBRANCH  27  28
ENDBRANCH  26  27
ENDBRANCH  25  26
ENDBRANCH   1  25
TORSDOF 17
ENDMDL
