MODEL 1
REMARK VINA RESULT:     -11.2      0.000      0.000
REMARK SMILES C[C@]1(Cn2c(=O)[nH]c3cc(C(=O)OCCOCCOC(=O)c4ccc(-c5c6nc(c(-c7c(F)cccc7F)c7ccc([nH]7)c(-c7c(F)cccc7F)c7nc(c(-c8c(F)cccc8F)c8ccc5[nH]8)C=C7)C=C6)cc4)ccc32)CCCO1
REMARK SMILES IDX 16 1 15 2 14 3 13 4 11 5 12 6 10 7 4 8 5 9 78 10 6 11 7 12
REMARK SMILES IDX 8 13 77 14 9 16 76 17 3 18 2 19 1 20 79 21 82 22 80 23 81 24
REMARK SMILES IDX 17 25 18 26 19 27 20 28 21 29 22 30 23 31 75 32 24 33 74 34
REMARK SMILES IDX 25 35 26 36 27 37 68 38 28 39 73 40 67 41 69 42 29 43 72 44
REMARK SMILES IDX 66 45 65 46 30 48 56 49 39 50 55 51 40 52 43 53 54 54 70 55
REMARK SMILES IDX 41 56 42 57 53 59 71 60 44 61 31 62 32 63 37 64 33 65 34 66
REMARK SMILES IDX 36 67 38 68 35 69 57 70 58 71 63 72 59 73 60 74 62 75 64 76
REMARK SMILES IDX 61 77 45 78 46 79 51 80 47 81 48 82 50 83 52 84 49 85
REMARK H PARENT 7 15 69 47 43 58
REMARK Flexibility Score: inf
ROOT
ATOM      1  O   UNL A   1      41.544  20.226  27.579  1.00  0.00    -0.374 OA
ENDROOT
BRANCH   1   2
ATOM      2  C   UNL A   1      40.785  21.427  27.496  1.00  0.00     0.202 C 
BRANCH   2   3
ATOM      3  C   UNL A   1      40.234  21.837  26.127  1.00  0.00     0.261 C 
BRANCH   3   4
ATOM      4  O   UNL A   1      38.911  22.359  26.237  1.00  0.00    -0.460 OA
BRANCH   4   5
ATOM      5  C   UNL A   1      38.023  21.728  25.440  1.00  0.00     0.338 C 
ATOM      6  O   UNL A   1      38.080  20.582  25.024  1.00  0.00    -0.246 OA
BRANCH   5   7
ATOM      7  C   UNL A   1      36.843  22.586  25.236  1.00  0.00     0.062 A 
ATOM      8  N   UNL A   1      33.924  25.095  23.845  1.00  0.00    -0.289 N 
ATOM      9  C   UNL A   1      33.481  24.354  22.717  1.00  0.00     0.326 A 
ATOM     10  C   UNL A   1      34.823  24.309  24.577  1.00  0.00     0.069 A 
ATOM     11  O   UNL A   1      32.727  24.699  21.841  1.00  0.00    -0.248 OA
ATOM     12  N   UNL A   1      34.167  23.127  22.766  1.00  0.00    -0.306 N 
ATOM     13  C   UNL A   1      35.025  23.136  23.852  1.00  0.00     0.067 A 
ATOM     14  C   UNL A   1      35.520  24.569  25.737  1.00  0.00     0.029 A 
ATOM     15  H   UNL A   1      34.055  22.384  22.131  1.00  0.00     0.171 HD
ATOM     16  C   UNL A   1      36.022  22.250  24.155  1.00  0.00     0.044 A 
ATOM     17  C   UNL A   1      36.566  23.701  26.060  1.00  0.00     0.018 A 
BRANCH   8  18
ATOM     18  C   UNL A   1      33.724  26.520  23.997  1.00  0.00     0.162 C 
BRANCH  18  19
ATOM     19  C   UNL A   1      32.722  26.929  25.118  1.00  0.00     0.083 C 
ATOM     20  C   UNL A   1      31.698  25.821  25.425  1.00  0.00     0.044 C 
ATOM     21  C   UNL A   1      33.394  27.439  26.393  1.00  0.00     0.039 C 
ATOM     22  O   UNL A   1      31.943  28.064  24.664  1.00  0.00    -0.373 OA
ATOM     23  C   UNL A   1      32.312  28.287  27.018  1.00  0.00     0.031 C 
ATOM     24  C   UNL A   1      31.613  28.877  25.807  1.00  0.00     0.161 C 
ENDBRANCH  18  19
ENDBRANCH   8  18
ENDBRANCH   5   7
ENDBRANCH   4   5
ENDBRANCH   3   4
ENDBRANCH   2   3
ENDBRANCH   1   2
BRANCH   1  25
ATOM     25  C   UNL A   1      41.650  19.418  26.398  1.00  0.00     0.202 C 
BRANCH  25  26
ATOM     26  C   UNL A   1      43.040  19.249  25.761  1.00  0.00     0.261 C 
BRANCH  26  27
ATOM     27  O   UNL A   1      43.332  20.358  24.895  1.00  0.00    -0.460 OA
BRANCH  27  28
ATOM     28  C   UNL A   1      44.641  20.725  24.846  1.00  0.00     0.338 C 
ATOM     29  O   UNL A   1      45.549  20.158  24.272  1.00  0.00    -0.246 OA
BRANCH  28  30
ATOM     30  C   UNL A   1      44.648  22.146  25.248  1.00  0.00     0.060 A 
ATOM     31  C   UNL A   1      45.457  22.580  26.303  1.00  0.00     0.016 A 
ATOM     32  C   UNL A   1      43.562  22.915  24.797  1.00  0.00     0.016 A 
ATOM     33  C   UNL A   1      45.112  23.747  26.972  1.00  0.00     0.010 A 
ATOM     34  C   UNL A   1      43.201  24.061  25.493  1.00  0.00     0.010 A 
ATOM     35  C   UNL A   1      43.956  24.454  26.602  1.00  0.00    -0.014 A 
BRANCH  35  36
ATOM     36  C   UNL A   1      43.663  25.699  27.314  1.00  0.00     0.031 A 
ATOM     37  C   UNL A   1      44.679  26.763  27.090  1.00  0.00     0.074 A 
ATOM     38  C   UNL A   1      42.527  25.971  27.988  1.00  0.00     0.049 A 
ATOM     39  N   UNL A   1      45.386  27.408  27.959  1.00  0.00    -0.248 NA
ATOM     40  C   UNL A   1      45.003  27.080  25.689  1.00  0.00     0.031 C 
ATOM     41  C   UNL A   1      41.298  25.181  28.028  1.00  0.00     0.029 A 
ATOM     42  N   UNL A   1      42.199  27.085  28.713  1.00  0.00    -0.354 N 
ATOM     43  C   UNL A   1      46.124  28.334  27.225  1.00  0.00     0.074 A 
ATOM     44  C   UNL A   1      45.956  27.996  25.837  1.00  0.00     0.031 C 
ATOM     45  C   UNL A   1      40.309  25.911  28.589  1.00  0.00     0.029 A 
ATOM     46  C   UNL A   1      40.846  27.194  29.004  1.00  0.00     0.049 A 
ATOM     47  H   UNL A   1      42.864  27.750  29.000  1.00  0.00     0.167 HD
ATOM     48  C   UNL A   1      46.647  29.454  27.788  1.00  0.00     0.037 A 
ATOM     49  C   UNL A   1      40.186  28.286  29.467  1.00  0.00     0.037 A 
ATOM     50  C   UNL A   1      46.785  29.332  29.212  1.00  0.00     0.049 A 
ATOM     51  C   UNL A   1      41.180  29.236  30.014  1.00  0.00     0.074 A 
ATOM     52  C   UNL A   1      47.469  28.482  30.061  1.00  0.00     0.029 A 
ATOM     53  N   UNL A   1      45.911  30.023  30.011  1.00  0.00    -0.354 N 
ATOM     54  N   UNL A   1      41.828  29.069  31.131  1.00  0.00    -0.248 NA
ATOM     55  C   UNL A   1      41.748  30.223  29.108  1.00  0.00     0.031 C 
ATOM     56  C   UNL A   1      46.648  28.373  31.222  1.00  0.00     0.029 A 
ATOM     57  C   UNL A   1      45.525  29.172  31.011  1.00  0.00     0.049 A 
ATOM     58  H   UNL A   1      45.617  30.955  29.888  1.00  0.00     0.167 HD
ATOM     59  C   UNL A   1      43.087  29.597  30.891  1.00  0.00     0.074 A 
ATOM     60  C   UNL A   1      42.943  30.392  29.677  1.00  0.00     0.031 C 
ATOM     61  C   UNL A   1      44.186  29.116  31.541  1.00  0.00     0.037 A 
BRANCH  48  62
ATOM     62  C   UNL A   1      46.690  30.789  27.085  1.00  0.00     0.057 A 
ATOM     63  C   UNL A   1      45.543  31.510  26.691  1.00  0.00     0.134 A 
ATOM     64  C   UNL A   1      47.889  31.523  27.077  1.00  0.00     0.134 A 
ATOM     65  F   UNL A   1      44.314  30.978  26.723  1.00  0.00    -0.206 F 
ATOM     66  C   UNL A   1      45.580  32.860  26.339  1.00  0.00     0.040 A 
ATOM     67  C   UNL A   1      47.928  32.891  26.781  1.00  0.00     0.040 A 
ATOM     68  F   UNL A   1      49.047  30.955  27.445  1.00  0.00    -0.206 F 
ATOM     69  C   UNL A   1      46.769  33.566  26.419  1.00  0.00     0.006 A 
ENDBRANCH  48  62
BRANCH  49  70
ATOM     70  C   UNL A   1      38.772  28.669  29.246  1.00  0.00     0.057 A 
ATOM     71  C   UNL A   1      38.341  29.218  28.025  1.00  0.00     0.134 A 
ATOM     72  C   UNL A   1      37.850  28.727  30.302  1.00  0.00     0.134 A 
ATOM     73  F   UNL A   1      39.170  29.309  26.975  1.00  0.00    -0.206 F 
ATOM     74  C   UNL A   1      37.072  29.777  27.856  1.00  0.00     0.040 A 
ATOM     75  C   UNL A   1      36.579  29.299  30.150  1.00  0.00     0.040 A 
ATOM     76  F   UNL A   1      38.181  28.279  31.521  1.00  0.00    -0.206 F 
ATOM     77  C   UNL A   1      36.188  29.829  28.925  1.00  0.00     0.006 A 
ENDBRANCH  49  70
BRANCH  61  78
ATOM     78  C   UNL A   1      43.956  28.223  32.724  1.00  0.00     0.057 A 
ATOM     79  C   UNL A   1      44.023  28.772  34.009  1.00  0.00     0.134 A 
ATOM     80  C   UNL A   1      43.800  26.834  32.628  1.00  0.00     0.134 A 
ATOM     81  F   UNL A   1      44.233  30.089  34.173  1.00  0.00    -0.206 F 
ATOM     82  C   UNL A   1      43.916  27.978  35.152  1.00  0.00     0.040 A 
ATOM     83  C   UNL A   1      43.657  26.032  33.764  1.00  0.00     0.040 A 
ATOM     84  F   UNL A   1      43.834  26.212  31.441  1.00  0.00    -0.206 F 
ATOM     85  C   UNL A   1      43.720  26.605  35.031  1.00  0.00     0.006 A 
ENDBRANCH  61  78
ENDBRANCH  35  36
ENDBRANCH  28  30
ENDBRANCH  27  28
ENDBRANCH  26  27
ENDBRANCH  25  26
ENDBRANCH   1  25
TORSDOF 16
ENDMDL
MODEL 2
REMARK VINA RESULT:     -10.8      1.566      2.440
REMARK SMILES C[C@]1(Cn2c(=O)[nH]c3cc(C(=O)OCCOCCOC(=O)c4ccc(-c5c6nc(c(-c7c(F)cccc7F)c7ccc([nH]7)c(-c7c(F)cccc7F)c7nc(c(-c8c(F)cccc8F)c8ccc5[nH]8)C=C7)C=C6)cc4)ccc32)CCCO1
REMARK SMILES IDX 16 1 15 2 14 3 13 4 11 5 12 6 10 7 4 8 5 9 78 10 6 11 7 12
REMARK SMILES IDX 8 13 77 14 9 16 76 17 3 18 2 19 1 20 79 21 82 22 80 23 81 24
REMARK SMILES IDX 17 25 18 26 19 27 20 28 21 29 22 30 23 31 75 32 24 33 74 34
REMARK SMILES IDX 25 35 26 36 27 37 68 38 28 39 73 40 67 41 69 42 29 43 72 44
REMARK SMILES IDX 66 45 65 46 30 48 56 49 39 50 55 51 40 52 43 53 54 54 70 55
REMARK SMILES IDX 41 56 42 57 53 59 71 60 44 61 31 62 32 63 37 64 33 65 34 66
REMARK SMILES IDX 36 67 38 68 35 69 57 70 58 71 63 72 59 73 60 74 62 75 64 76
REMARK SMILES IDX 61 77 45 78 46 79 51 80 47 81 48 82 50 83 52 84 49 85
REMARK H PARENT 7 15 69 47 43 58
REMARK Flexibility Score: inf
ROOT
ATOM      1  O   UNL A   1      43.776  17.941  25.398  1.00  0.00    -0.374 OA
ENDROOT
BRANCH   1   2
ATOM      2  C   UNL A   1      42.684  18.440  26.163  1.00  0.00     0.202 C 
BRANCH   2   3
ATOM      3  C   UNL A   1      42.099  19.802  25.779  1.00  0.00     0.261 C 
BRANCH   3   4
ATOM      4  O   UNL A   1      40.753  19.934  26.230  1.00  0.00    -0.460 OA
BRANCH   4   5
ATOM      5  C   UNL A   1      40.396  21.213  26.475  1.00  0.00     0.338 C 
ATOM      6  O   UNL A   1      41.092  22.104  26.934  1.00  0.00    -0.246 OA
BRANCH   5   7
ATOM      7  C   UNL A   1      39.037  21.455  25.964  1.00  0.00     0.062 A 
ATOM      8  N   UNL A   1      35.091  22.385  25.398  1.00  0.00    -0.289 N 
ATOM      9  C   UNL A   1      35.103  23.751  25.785  1.00  0.00     0.326 A 
ATOM     10  C   UNL A   1      36.410  21.917  25.352  1.00  0.00     0.069 A 
ATOM     11  O   UNL A   1      34.166  24.490  25.961  1.00  0.00    -0.248 OA
ATOM     12  N   UNL A   1      36.452  24.077  26.013  1.00  0.00    -0.306 N 
ATOM     13  C   UNL A   1      37.226  22.946  25.816  1.00  0.00     0.067 A 
ATOM     14  C   UNL A   1      36.923  20.678  25.034  1.00  0.00     0.029 A 
ATOM     15  H   UNL A   1      36.790  24.965  26.271  1.00  0.00     0.171 HD
ATOM     16  C   UNL A   1      38.544  22.754  26.128  1.00  0.00     0.044 A 
ATOM     17  C   UNL A   1      38.258  20.436  25.368  1.00  0.00     0.018 A 
BRANCH   8  18
ATOM     18  C   UNL A   1      33.899  21.564  25.387  1.00  0.00     0.162 C 
BRANCH  18  19
ATOM     19  C   UNL A   1      32.936  21.816  24.188  1.00  0.00     0.083 C 
ATOM     20  C   UNL A   1      32.490  20.510  23.507  1.00  0.00     0.044 C 
ATOM     21  C   UNL A   1      31.740  22.705  24.531  1.00  0.00     0.039 C 
ATOM     22  O   UNL A   1      33.640  22.567  23.168  1.00  0.00    -0.373 OA
ATOM     23  C   UNL A   1      31.351  23.265  23.184  1.00  0.00     0.031 C 
ATOM     24  C   UNL A   1      32.690  23.409  22.485  1.00  0.00     0.161 C 
ENDBRANCH  18  19
ENDBRANCH   8  18
ENDBRANCH   5   7
ENDBRANCH   4   5
ENDBRANCH   3   4
ENDBRANCH   2   3
ENDBRANCH   1   2
BRANCH   1  25
ATOM     25  C   UNL A   1      45.086  18.442  25.697  1.00  0.00     0.202 C 
BRANCH  25  26
ATOM     26  C   UNL A   1      45.806  19.271  24.617  1.00  0.00     0.261 C 
BRANCH  26  27
ATOM     27  O   UNL A   1      45.794  20.664  24.967  1.00  0.00    -0.460 OA
BRANCH  27  28
ATOM     28  C   UNL A   1      45.003  21.450  24.187  1.00  0.00     0.338 C 
ATOM     29  O   UNL A   1      44.603  21.217  23.064  1.00  0.00    -0.246 OA
BRANCH  28  30
ATOM     30  C   UNL A   1      44.385  22.409  25.125  1.00  0.00     0.060 A 
ATOM     31  C   UNL A   1      43.371  23.270  24.692  1.00  0.00     0.016 A 
ATOM     32  C   UNL A   1      45.107  22.665  26.302  1.00  0.00     0.016 A 
ATOM     33  C   UNL A   1      43.149  24.447  25.396  1.00  0.00     0.010 A 
ATOM     34  C   UNL A   1      44.906  23.860  26.980  1.00  0.00     0.010 A 
ATOM     35  C   UNL A   1      43.953  24.766  26.503  1.00  0.00    -0.014 A 
BRANCH  35  36
ATOM     36  C   UNL A   1      43.648  25.998  27.232  1.00  0.00     0.031 A 
ATOM     37  C   UNL A   1      44.643  27.081  27.007  1.00  0.00     0.074 A 
ATOM     38  C   UNL A   1      42.516  26.243  27.923  1.00  0.00     0.049 A 
ATOM     39  N   UNL A   1      45.349  27.730  27.874  1.00  0.00    -0.248 NA
ATOM     40  C   UNL A   1      44.943  27.419  25.606  1.00  0.00     0.031 C 
ATOM     41  C   UNL A   1      41.301  25.431  27.969  1.00  0.00     0.029 A 
ATOM     42  N   UNL A   1      42.178  27.343  28.663  1.00  0.00    -0.354 N 
ATOM     43  C   UNL A   1      46.062  28.676  27.141  1.00  0.00     0.074 A 
ATOM     44  C   UNL A   1      45.883  28.350  25.752  1.00  0.00     0.031 C 
ATOM     45  C   UNL A   1      40.307  26.137  28.550  1.00  0.00     0.029 A 
ATOM     46  C   UNL A   1      40.827  27.426  28.973  1.00  0.00     0.049 A 
ATOM     47  H   UNL A   1      42.835  28.017  28.950  1.00  0.00     0.167 HD
ATOM     48  C   UNL A   1      46.573  29.799  27.710  1.00  0.00     0.037 A 
ATOM     49  C   UNL A   1      40.153  28.501  29.455  1.00  0.00     0.037 A 
ATOM     50  C   UNL A   1      46.730  29.664  29.131  1.00  0.00     0.049 A 
ATOM     51  C   UNL A   1      41.138  29.462  30.001  1.00  0.00     0.074 A 
ATOM     52  C   UNL A   1      47.439  28.818  29.962  1.00  0.00     0.029 A 
ATOM     53  N   UNL A   1      45.854  30.332  29.948  1.00  0.00    -0.354 N 
ATOM     54  N   UNL A   1      41.802  29.295  31.107  1.00  0.00    -0.248 NA
ATOM     55  C   UNL A   1      41.677  30.469  29.098  1.00  0.00     0.031 C 
ATOM     56  C   UNL A   1      46.635  28.682  31.132  1.00  0.00     0.029 A 
ATOM     57  C   UNL A   1      45.495  29.463  30.943  1.00  0.00     0.049 A 
ATOM     58  H   UNL A   1      45.542  31.259  29.839  1.00  0.00     0.167 HD
ATOM     59  C   UNL A   1      43.049  29.847  30.858  1.00  0.00     0.074 A 
ATOM     60  C   UNL A   1      42.876  30.652  29.654  1.00  0.00     0.031 C 
ATOM     61  C   UNL A   1      44.164  29.378  31.489  1.00  0.00     0.037 A 
BRANCH  48  62
ATOM     62  C   UNL A   1      46.584  31.142  27.021  1.00  0.00     0.057 A 
ATOM     63  C   UNL A   1      45.420  31.864  26.683  1.00  0.00     0.134 A 
ATOM     64  C   UNL A   1      47.780  31.879  26.971  1.00  0.00     0.134 A 
ATOM     65  F   UNL A   1      44.194  31.330  26.761  1.00  0.00    -0.206 F 
ATOM     66  C   UNL A   1      45.440  33.218  26.346  1.00  0.00     0.040 A 
ATOM     67  C   UNL A   1      47.804  33.249  26.689  1.00  0.00     0.040 A 
ATOM     68  F   UNL A   1      48.953  31.308  27.284  1.00  0.00    -0.206 F 
ATOM     69  C   UNL A   1      46.630  33.926  26.384  1.00  0.00     0.006 A 
ENDBRANCH  48  62
BRANCH  49  70
ATOM     70  C   UNL A   1      38.730  28.862  29.256  1.00  0.00     0.057 A 
ATOM     71  C   UNL A   1      38.272  29.398  28.039  1.00  0.00     0.134 A 
ATOM     72  C   UNL A   1      37.826  28.912  30.326  1.00  0.00     0.134 A 
ATOM     73  F   UNL A   1      39.081  29.495  26.975  1.00  0.00    -0.206 F 
ATOM     74  C   UNL A   1      36.991  29.936  27.888  1.00  0.00     0.040 A 
ATOM     75  C   UNL A   1      36.544  29.464  30.193  1.00  0.00     0.040 A 
ATOM     76  F   UNL A   1      38.183  28.475  31.543  1.00  0.00    -0.206 F 
ATOM     77  C   UNL A   1      36.124  29.982  28.971  1.00  0.00     0.006 A 
ENDBRANCH  49  70
BRANCH  61  78
ATOM     78  C   UNL A   1      43.964  28.469  32.665  1.00  0.00     0.057 A 
ATOM     79  C   UNL A   1      43.999  29.013  33.954  1.00  0.00     0.134 A 
ATOM     80  C   UNL A   1      43.868  27.075  32.560  1.00  0.00     0.134 A 
ATOM     81  F   UNL A   1      44.153  30.336  34.127  1.00  0.00    -0.206 F 
ATOM     82  C   UNL A   1      43.919  28.207  35.091  1.00  0.00     0.040 A 
ATOM     83  C   UNL A   1      43.752  26.261  33.690  1.00  0.00     0.040 A 
ATOM     84  F   UNL A   1      43.936  26.463  31.369  1.00  0.00    -0.206 F 
ATOM     85  C   UNL A   1      43.781  26.828  34.961  1.00  0.00     0.006 A 
ENDBRANCH  61  78
ENDBRANCH  35  36
ENDBRANCH  28  30
ENDBRANCH  27  28
ENDBRANCH  26  27
ENDBRANCH  25  26
ENDBRANCH   1  25
TORSDOF 16
ENDMDL
MODEL 3
REMARK VINA RESULT:     -10.8      3.802      9.298
REMARK SMILES C[C@]1(Cn2c(=O)[nH]c3cc(C(=O)OCCOCCOC(=O)c4ccc(-c5c6nc(c(-c7c(F)cccc7F)c7ccc([nH]7)c(-c7c(F)cccc7F)c7nc(c(-c8c(F)cccc8F)c8ccc5[nH]8)C=C7)C=C6)cc4)ccc32)CCCO1
REMARK SMILES IDX 16 1 15 2 14 3 13 4 11 5 12 6 10 7 4 8 5 9 78 10 6 11 7 12
REMARK SMILES IDX 8 13 77 14 9 16 76 17 3 18 2 19 1 20 79 21 82 22 80 23 81 24
REMARK SMILES IDX 17 25 18 26 19 27 20 28 21 29 22 30 23 31 75 32 24 33 74 34
REMARK SMILES IDX 25 35 26 36 27 37 68 38 28 39 73 40 67 41 69 42 29 43 72 44
REMARK SMILES IDX 66 45 65 46 30 48 56 49 39 50 55 51 40 52 43 53 54 54 70 55
REMARK SMILES IDX 41 56 42 57 53 59 71 60 44 61 31 62 32 63 37 64 33 65 34 66
REMARK SMILES IDX 36 67 38 68 35 69 57 70 58 71 63 72 59 73 60 74 62 75 64 76
REMARK SMILES IDX 61 77 45 78 46 79 51 80 47 81 48 82 50 83 52 84 49 85
REMARK H PARENT 7 15 69 47 43 58
REMARK Flexibility Score: inf
ROOT
ATOM      1  O   UNL A   1      35.201  34.244  28.772  1.00  0.00    -0.374 OA
ENDROOT
BRANCH   1   2
ATOM      2  C   UNL A   1      35.140  33.036  28.022  1.00  0.00     0.202 C 
BRANCH   2   3
ATOM      3  C   UNL A   1      34.147  31.959  28.470  1.00  0.00     0.261 C 
BRANCH   3   4
ATOM      4  O   UNL A   1      34.165  30.839  27.589  1.00  0.00    -0.460 OA
BRANCH   4   5
ATOM      5  C   UNL A   1      32.955  30.560  27.059  1.00  0.00     0.338 C 
ATOM      6  O   UNL A   1      32.031  31.333  26.868  1.00  0.00    -0.246 OA
BRANCH   5   7
ATOM      7  C   UNL A   1      32.933  29.167  26.582  1.00  0.00     0.062 A 
ATOM      8  N   UNL A   1      32.689  25.106  26.126  1.00  0.00    -0.289 N 
ATOM      9  C   UNL A   1      31.364  24.887  26.585  1.00  0.00     0.326 A 
ATOM     10  C   UNL A   1      32.914  26.485  26.035  1.00  0.00     0.069 A 
ATOM     11  O   UNL A   1      30.812  23.839  26.814  1.00  0.00    -0.248 OA
ATOM     12  N   UNL A   1      30.816  26.162  26.810  1.00  0.00    -0.306 N 
ATOM     13  C   UNL A   1      31.780  27.119  26.541  1.00  0.00     0.067 A 
ATOM     14  C   UNL A   1      34.025  27.201  25.645  1.00  0.00     0.029 A 
ATOM     15  H   UNL A   1      29.896  26.345  27.109  1.00  0.00     0.171 HD
ATOM     16  C   UNL A   1      31.751  28.457  26.822  1.00  0.00     0.044 A 
ATOM     17  C   UNL A   1      34.043  28.566  25.945  1.00  0.00     0.018 A 
BRANCH   8  18
ATOM     18  C   UNL A   1      33.707  24.077  26.090  1.00  0.00     0.162 C 
BRANCH  18  19
ATOM     19  C   UNL A   1      33.693  23.181  24.815  1.00  0.00     0.083 C 
ATOM     20  C   UNL A   1      35.051  23.169  24.089  1.00  0.00     0.044 C 
ATOM     21  C   UNL A   1      33.178  21.763  25.062  1.00  0.00     0.039 C 
ATOM     22  O   UNL A   1      32.748  23.729  23.864  1.00  0.00    -0.373 OA
ATOM     23  C   UNL A   1      32.706  21.343  23.690  1.00  0.00     0.031 C 
ATOM     24  C   UNL A   1      32.179  22.642  23.109  1.00  0.00     0.161 C 
ENDBRANCH  18  19
ENDBRANCH   8  18
ENDBRANCH   5   7
ENDBRANCH   4   5
ENDBRANCH   3   4
ENDBRANCH   2   3
ENDBRANCH   1   2
BRANCH   1  25
ATOM     25  C   UNL A   1      34.132  35.187  28.608  1.00  0.00     0.202 C 
BRANCH  25  26
ATOM     26  C   UNL A   1      33.217  35.459  29.816  1.00  0.00     0.261 C 
BRANCH  26  27
ATOM     27  O   UNL A   1      33.425  34.466  30.833  1.00  0.00    -0.460 OA
BRANCH  27  28
ATOM     28  C   UNL A   1      33.946  34.933  32.000  1.00  0.00     0.338 C 
ATOM     29  O   UNL A   1      33.400  35.632  32.830  1.00  0.00    -0.246 OA
BRANCH  28  30
ATOM     30  C   UNL A   1      35.123  34.077  32.254  1.00  0.00     0.060 A 
ATOM     31  C   UNL A   1      36.402  34.636  32.334  1.00  0.00     0.016 A 
ATOM     32  C   UNL A   1      34.940  32.703  32.027  1.00  0.00     0.016 A 
ATOM     33  C   UNL A   1      37.502  33.826  32.086  1.00  0.00     0.010 A 
ATOM     34  C   UNL A   1      36.042  31.905  31.745  1.00  0.00     0.010 A 
ATOM     35  C   UNL A   1      37.317  32.477  31.738  1.00  0.00    -0.014 A 
BRANCH  35  36
ATOM     36  C   UNL A   1      38.513  31.659  31.528  1.00  0.00     0.031 A 
ATOM     37  C   UNL A   1      39.287  31.412  32.774  1.00  0.00     0.074 A 
ATOM     38  C   UNL A   1      38.845  31.032  30.381  1.00  0.00     0.049 A 
ATOM     39  N   UNL A   1      40.528  31.674  33.026  1.00  0.00    -0.248 NA
ATOM     40  C   UNL A   1      38.537  30.873  33.920  1.00  0.00     0.031 C 
ATOM     41  C   UNL A   1      38.036  30.890  29.171  1.00  0.00     0.029 A 
ATOM     42  N   UNL A   1      39.960  30.292  30.094  1.00  0.00    -0.354 N 
ATOM     43  C   UNL A   1      40.761  31.179  34.307  1.00  0.00     0.074 A 
ATOM     44  C   UNL A   1      39.480  30.828  34.858  1.00  0.00     0.031 C 
ATOM     45  C   UNL A   1      38.606  29.978  28.352  1.00  0.00     0.029 A 
ATOM     46  C   UNL A   1      39.847  29.516  28.948  1.00  0.00     0.049 A 
ATOM     47  H   UNL A   1      40.770  30.308  30.652  1.00  0.00     0.167 HD
ATOM     48  C   UNL A   1      42.009  30.881  34.753  1.00  0.00     0.037 A 
ATOM     49  C   UNL A   1      40.657  28.503  28.552  1.00  0.00     0.037 A 
ATOM     50  C   UNL A   1      43.029  31.560  34.006  1.00  0.00     0.049 A 
ATOM     51  C   UNL A   1      41.929  28.600  29.305  1.00  0.00     0.074 A 
ATOM     52  C   UNL A   1      43.343  32.882  33.753  1.00  0.00     0.029 A 
ATOM     53  N   UNL A   1      43.784  30.829  33.125  1.00  0.00    -0.354 N 
ATOM     54  N   UNL A   1      42.843  29.503  29.100  1.00  0.00    -0.248 NA
ATOM     55  C   UNL A   1      42.021  27.899  30.577  1.00  0.00     0.031 C 
ATOM     56  C   UNL A   1      43.897  32.890  32.439  1.00  0.00     0.029 A 
ATOM     57  C   UNL A   1      43.896  31.573  31.981  1.00  0.00     0.049 A 
ATOM     58  H   UNL A   1      44.171  29.938  33.284  1.00  0.00     0.167 HD
ATOM     59  C   UNL A   1      43.353  29.781  30.359  1.00  0.00     0.074 A 
ATOM     60  C   UNL A   1      42.893  28.687  31.207  1.00  0.00     0.031 C 
ATOM     61  C   UNL A   1      43.864  31.011  30.655  1.00  0.00     0.037 A 
BRANCH  48  62
ATOM     62  C   UNL A   1      42.309  29.691  35.631  1.00  0.00     0.057 A 
ATOM     63  C   UNL A   1      41.961  28.362  35.305  1.00  0.00     0.134 A 
ATOM     64  C   UNL A   1      43.240  29.824  36.676  1.00  0.00     0.134 A 
ATOM     65  F   UNL A   1      41.151  28.063  34.281  1.00  0.00    -0.206 F 
ATOM     66  C   UNL A   1      42.512  27.254  35.950  1.00  0.00     0.040 A 
ATOM     67  C   UNL A   1      43.840  28.719  37.291  1.00  0.00     0.040 A 
ATOM     68  F   UNL A   1      43.662  31.035  37.071  1.00  0.00    -0.206 F 
ATOM     69  C   UNL A   1      43.483  27.429  36.922  1.00  0.00     0.006 A 
ENDBRANCH  48  62
BRANCH  49  70
ATOM     70  C   UNL A   1      40.313  27.310  27.743  1.00  0.00     0.057 A 
ATOM     71  C   UNL A   1      39.548  26.257  28.276  1.00  0.00     0.134 A 
ATOM     72  C   UNL A   1      40.920  27.061  26.503  1.00  0.00     0.134 A 
ATOM     73  F   UNL A   1      39.004  26.344  29.498  1.00  0.00    -0.206 F 
ATOM     74  C   UNL A   1      39.382  25.038  27.614  1.00  0.00     0.040 A 
ATOM     75  C   UNL A   1      40.774  25.836  25.836  1.00  0.00     0.040 A 
ATOM     76  F   UNL A   1      41.713  27.980  25.934  1.00  0.00    -0.206 F 
ATOM     77  C   UNL A   1      40.006  24.818  26.394  1.00  0.00     0.006 A 
ENDBRANCH  49  70
BRANCH  61  78
ATOM     78  C   UNL A   1      44.132  31.943  29.511  1.00  0.00     0.057 A 
ATOM     79  C   UNL A   1      45.417  31.984  28.959  1.00  0.00     0.134 A 
ATOM     80  C   UNL A   1      43.200  32.876  29.036  1.00  0.00     0.134 A 
ATOM     81  F   UNL A   1      46.376  31.160  29.411  1.00  0.00    -0.206 F 
ATOM     82  C   UNL A   1      45.756  32.899  27.960  1.00  0.00     0.040 A 
ATOM     83  C   UNL A   1      43.518  33.773  28.012  1.00  0.00     0.040 A 
ATOM     84  F   UNL A   1      41.981  32.979  29.583  1.00  0.00    -0.206 F 
ATOM     85  C   UNL A   1      44.801  33.788  27.474  1.00  0.00     0.006 A 
ENDBRANCH  61  78
ENDBRANCH  35  36
ENDBRANCH  28  30
ENDBRANCH  27  28
ENDBRANCH  26  27
ENDBRANCH  25  26
ENDBRANCH   1  25
TORSDOF 16
ENDMDL
