MODEL 1
REMARK VINA RESULT:      -9.0      0.000      0.000
REMARK SMILES C[C@H](Sc1ccccn1)C(=O)N[C@H](C(=O)OCCOCCOC(=O)c1ccc(-c2c3nc(c(-c4c(F)cccc4F)c4ccc([nH]4)c(-c4c(F)cccc4F)c4nc(c(-c5c(F)cccc5F)c5ccc2[nH]5)C=C4)C=C3)cc1)c1ccc(F)cc1
REMARK SMILES IDX 18 1 17 2 16 3 14 4 15 5 13 6 12 7 10 8 11 9 2 11 1 12 3 13
REMARK SMILES IDX 4 14 5 15 9 16 6 17 8 18 7 19 79 20 80 21 85 22 81 23 84 24
REMARK SMILES IDX 82 25 83 26 19 27 20 28 21 29 22 30 23 31 24 32 25 33 26 34
REMARK SMILES IDX 78 35 27 36 77 37 28 38 29 39 30 40 71 41 31 42 76 43 70 44
REMARK SMILES IDX 72 45 32 46 75 47 69 48 68 49 33 51 59 52 42 53 58 54 43 55
REMARK SMILES IDX 46 56 57 57 73 58 44 59 45 60 56 62 74 63 47 64 34 65 35 66
REMARK SMILES IDX 40 67 36 68 37 69 39 70 41 71 38 72 60 73 61 74 66 75 62 76
REMARK SMILES IDX 63 77 65 78 67 79 64 80 48 81 49 82 54 83 50 84 51 85 53 86
REMARK SMILES IDX 55 87 52 88
REMARK H PARENT 12 10 72 50 46 61
REMARK Flexibility Score: inf
ROOT
ATOM      1  C   UNL A   1      35.011  35.124  34.147  1.00  0.00     0.202 C 
ENDROOT
BRANCH   1   2
ATOM      2  C   UNL A   1      35.869  33.867  34.379  1.00  0.00     0.261 C 
BRANCH   2   3
ATOM      3  O   UNL A   1      37.128  34.085  35.008  1.00  0.00    -0.461 OA
BRANCH   3   4
ATOM      4  C   UNL A   1      37.395  33.198  36.014  1.00  0.00     0.333 C 
ATOM      5  O   UNL A   1      36.615  32.901  36.907  1.00  0.00    -0.249 OA
BRANCH   4   6
ATOM      6  C   UNL A   1      38.807  32.632  35.854  1.00  0.00     0.223 C 
BRANCH   6   7
ATOM      7  N   UNL A   1      39.534  32.488  37.118  1.00  0.00    -0.338 N 
ATOM      8  C   UNL A   1      39.635  33.200  38.265  1.00  0.00     0.234 C 
ATOM      9  O   UNL A   1      40.366  32.695  39.129  1.00  0.00    -0.274 OA
ATOM     10  H   UNL A   1      40.084  31.672  37.137  1.00  0.00     0.164 HD
BRANCH   8  11
ATOM     11  C   UNL A   1      38.964  34.553  38.544  1.00  0.00     0.139 C 
ATOM     12  C   UNL A   1      39.464  35.662  37.641  1.00  0.00     0.030 C 
BRANCH  11  13
ATOM     13  S   UNL A   1      38.758  34.771  40.370  1.00  0.00    -0.093 SA
BRANCH  13  14
ATOM     14  C   UNL A   1      37.401  33.732  40.877  1.00  0.00     0.097 A 
ATOM     15  C   UNL A   1      37.133  32.482  40.335  1.00  0.00     0.035 A 
ATOM     16  N   UNL A   1      36.665  34.233  41.900  1.00  0.00    -0.250 NA
ATOM     17  C   UNL A   1      36.023  31.767  40.787  1.00  0.00     0.004 A 
ATOM     18  C   UNL A   1      35.595  33.522  42.322  1.00  0.00     0.112 A 
ATOM     19  C   UNL A   1      35.230  32.299  41.795  1.00  0.00     0.020 A 
ENDBRANCH  13  14
ENDBRANCH  11  13
ENDBRANCH   8  11
ENDBRANCH   6   7
BRANCH   6  20
ATOM     20  C   UNL A   1      38.980  31.480  34.862  1.00  0.00    -0.014 A 
ATOM     21  C   UNL A   1      37.852  30.995  34.168  1.00  0.00     0.009 A 
ATOM     22  C   UNL A   1      40.202  30.813  34.652  1.00  0.00     0.009 A 
ATOM     23  C   UNL A   1      37.952  29.901  33.300  1.00  0.00     0.039 A 
ATOM     24  C   UNL A   1      40.309  29.741  33.764  1.00  0.00     0.039 A 
ATOM     25  C   UNL A   1      39.182  29.292  33.097  1.00  0.00     0.123 A 
ATOM     26  F   UNL A   1      39.282  28.252  32.261  1.00  0.00    -0.207 F 
ENDBRANCH   6  20
ENDBRANCH   4   6
ENDBRANCH   3   4
ENDBRANCH   2   3
ENDBRANCH   1   2
BRANCH   1  27
ATOM     27  O   UNL A   1      35.117  35.858  32.934  1.00  0.00    -0.374 OA
BRANCH  27  28
ATOM     28  C   UNL A   1      34.127  36.816  32.577  1.00  0.00     0.202 C 
BRANCH  28  29
ATOM     29  C   UNL A   1      33.087  36.452  31.521  1.00  0.00     0.261 C 
BRANCH  29  30
ATOM     30  O   UNL A   1      33.086  35.049  31.219  1.00  0.00    -0.460 OA
BRANCH  30  31
ATOM     31  C   UNL A   1      33.411  34.754  29.940  1.00  0.00     0.338 C 
ATOM     32  O   UNL A   1      32.877  35.172  28.919  1.00  0.00    -0.246 OA
BRANCH  31  33
ATOM     33  C   UNL A   1      34.638  33.954  29.904  1.00  0.00     0.060 A 
ATOM     34  C   UNL A   1      34.821  32.996  30.908  1.00  0.00     0.016 A 
ATOM     35  C   UNL A   1      35.646  34.226  28.978  1.00  0.00     0.016 A 
ATOM     36  C   UNL A   1      36.041  32.339  31.024  1.00  0.00     0.010 A 
ATOM     37  C   UNL A   1      36.875  33.575  29.104  1.00  0.00     0.010 A 
ATOM     38  C   UNL A   1      37.087  32.661  30.151  1.00  0.00    -0.014 A 
BRANCH  38  39
ATOM     39  C   UNL A   1      38.448  32.161  30.441  1.00  0.00     0.031 A 
ATOM     40  C   UNL A   1      38.888  30.859  29.833  1.00  0.00     0.074 A 
ATOM     41  C   UNL A   1      39.287  32.877  31.208  1.00  0.00     0.049 A 
ATOM     42  N   UNL A   1      40.020  30.220  29.971  1.00  0.00    -0.248 NA
ATOM     43  C   UNL A   1      37.919  30.189  28.949  1.00  0.00     0.031 C 
ATOM     44  C   UNL A   1      38.980  34.170  31.813  1.00  0.00     0.029 A 
ATOM     45  N   UNL A   1      40.569  32.608  31.611  1.00  0.00    -0.354 N 
ATOM     46  C   UNL A   1      39.900  29.072  29.197  1.00  0.00     0.074 A 
ATOM     47  C   UNL A   1      38.576  29.087  28.616  1.00  0.00     0.031 C 
ATOM     48  C   UNL A   1      40.045  34.581  32.524  1.00  0.00     0.029 A 
ATOM     49  C   UNL A   1      41.092  33.564  32.445  1.00  0.00     0.049 A 
ATOM     50  H   UNL A   1      41.067  31.806  31.328  1.00  0.00     0.167 HD
ATOM     51  C   UNL A   1      40.816  28.099  28.986  1.00  0.00     0.037 A 
ATOM     52  C   UNL A   1      42.275  33.600  33.085  1.00  0.00     0.037 A 
ATOM     53  C   UNL A   1      42.132  28.091  29.568  1.00  0.00     0.049 A 
ATOM     54  C   UNL A   1      43.250  32.470  32.890  1.00  0.00     0.074 A 
ATOM     55  C   UNL A   1      43.143  27.160  29.406  1.00  0.00     0.029 A 
ATOM     56  N   UNL A   1      42.616  29.061  30.433  1.00  0.00    -0.354 N 
ATOM     57  N   UNL A   1      43.138  31.400  32.140  1.00  0.00    -0.248 NA
ATOM     58  C   UNL A   1      44.519  32.556  33.626  1.00  0.00     0.031 C 
ATOM     59  C   UNL A   1      44.222  27.543  30.209  1.00  0.00     0.029 A 
ATOM     60  C   UNL A   1      43.902  28.739  30.833  1.00  0.00     0.049 A 
ATOM     61  H   UNL A   1      42.118  29.861  30.720  1.00  0.00     0.167 HD
ATOM     62  C   UNL A   1      44.329  30.700  32.292  1.00  0.00     0.074 A 
ATOM     63  C   UNL A   1      45.153  31.474  33.198  1.00  0.00     0.031 C 
ATOM     64  C   UNL A   1      44.707  29.525  31.731  1.00  0.00     0.037 A 
BRANCH  51  65
ATOM     65  C   UNL A   1      40.415  26.950  28.108  1.00  0.00     0.057 A 
ATOM     66  C   UNL A   1      39.550  25.942  28.556  1.00  0.00     0.134 A 
ATOM     67  C   UNL A   1      40.878  26.865  26.790  1.00  0.00     0.134 A 
ATOM     68  F   UNL A   1      39.083  25.957  29.813  1.00  0.00    -0.206 F 
ATOM     69  C   UNL A   1      39.178  24.880  27.730  1.00  0.00     0.040 A 
ATOM     70  C   UNL A   1      40.495  25.820  25.947  1.00  0.00     0.040 A 
ATOM     71  F   UNL A   1      41.708  27.798  26.298  1.00  0.00    -0.206 F 
ATOM     72  C   UNL A   1      39.647  24.821  26.418  1.00  0.00     0.006 A 
ENDBRANCH  51  65
BRANCH  52  73
ATOM     73  C   UNL A   1      42.597  34.737  33.982  1.00  0.00     0.057 A 
ATOM     74  C   UNL A   1      43.031  35.964  33.470  1.00  0.00     0.134 A 
ATOM     75  C   UNL A   1      42.489  34.619  35.373  1.00  0.00     0.134 A 
ATOM     76  F   UNL A   1      43.176  36.131  32.148  1.00  0.00    -0.206 F 
ATOM     77  C   UNL A   1      43.360  37.030  34.309  1.00  0.00     0.040 A 
ATOM     78  C   UNL A   1      42.791  35.683  36.223  1.00  0.00     0.040 A 
ATOM     79  F   UNL A   1      42.079  33.467  35.925  1.00  0.00    -0.206 F 
ATOM     80  C   UNL A   1      43.235  36.892  35.691  1.00  0.00     0.006 A 
ENDBRANCH  52  73
BRANCH  64  81
ATOM     81  C   UNL A   1      46.083  29.023  32.054  1.00  0.00     0.057 A 
ATOM     82  C   UNL A   1      47.201  29.391  31.296  1.00  0.00     0.134 A 
ATOM     83  C   UNL A   1      46.297  28.194  33.163  1.00  0.00     0.134 A 
ATOM     84  F   UNL A   1      47.063  30.173  30.215  1.00  0.00    -0.206 F 
ATOM     85  C   UNL A   1      48.481  28.937  31.619  1.00  0.00     0.040 A 
ATOM     86  C   UNL A   1      47.574  27.754  33.511  1.00  0.00     0.040 A 
ATOM     87  F   UNL A   1      45.269  27.813  33.936  1.00  0.00    -0.206 F 
ATOM     88  C   UNL A   1      48.671  28.122  32.734  1.00  0.00     0.006 A 
ENDBRANCH  64  81
ENDBRANCH  38  39
ENDBRANCH  31  33
ENDBRANCH  30  31
ENDBRANCH  29  30
ENDBRANCH  28  29
ENDBRANCH  27  28
ENDBRANCH   1  27
TORSDOF 19
ENDMDL
MODEL 2
REMARK VINA RESULT:      -8.9      1.433      2.316
REMARK SMILES C[C@H](Sc1ccccn1)C(=O)N[C@H](C(=O)OCCOCCOC(=O)c1ccc(-c2c3nc(c(-c4c(F)cccc4F)c4ccc([nH]4)c(-c4c(F)cccc4F)c4nc(c(-c5c(F)cccc5F)c5ccc2[nH]5)C=C4)C=C3)cc1)c1ccc(F)cc1
REMARK SMILES IDX 18 1 17 2 16 3 14 4 15 5 13 6 12 7 10 8 11 9 2 11 1 12 3 13
REMARK SMILES IDX 4 14 5 15 9 16 6 17 8 18 7 19 79 20 80 21 85 22 81 23 84 24
REMARK SMILES IDX 82 25 83 26 19 27 20 28 21 29 22 30 23 31 24 32 25 33 26 34
REMARK SMILES IDX 78 35 27 36 77 37 28 38 29 39 30 40 71 41 31 42 76 43 70 44
REMARK SMILES IDX 72 45 32 46 75 47 69 48 68 49 33 51 59 52 42 53 58 54 43 55
REMARK SMILES IDX 46 56 57 57 73 58 44 59 45 60 56 62 74 63 47 64 34 65 35 66
REMARK SMILES IDX 40 67 36 68 37 69 39 70 41 71 38 72 60 73 61 74 66 75 62 76
REMARK SMILES IDX 63 77 65 78 67 79 64 80 48 81 49 82 54 83 50 84 51 85 53 86
REMARK SMILES IDX 55 87 52 88
REMARK H PARENT 12 10 72 50 46 61
REMARK Flexibility Score: inf
ROOT
ATOM      1  C   UNL A   1      34.764  35.183  34.041  1.00  0.00     0.202 C 
ENDROOT
BRANCH   1   2
ATOM      2  C   UNL A   1      35.638  33.941  34.298  1.00  0.00     0.261 C 
BRANCH   2   3
ATOM      3  O   UNL A   1      36.941  34.197  34.813  1.00  0.00    -0.461 OA
BRANCH   3   4
ATOM      4  C   UNL A   1      37.296  33.361  35.836  1.00  0.00     0.333 C 
ATOM      5  O   UNL A   1      36.562  33.037  36.757  1.00  0.00    -0.249 OA
BRANCH   4   6
ATOM      6  C   UNL A   1      38.741  32.894  35.653  1.00  0.00     0.223 C 
BRANCH   6   7
ATOM      7  N   UNL A   1      39.533  32.921  36.885  1.00  0.00    -0.338 N 
ATOM      8  C   UNL A   1      39.780  33.829  37.860  1.00  0.00     0.234 C 
ATOM      9  O   UNL A   1      40.513  33.426  38.774  1.00  0.00    -0.274 OA
ATOM     10  H   UNL A   1      39.999  32.069  37.044  1.00  0.00     0.164 HD
BRANCH   8  11
ATOM     11  C   UNL A   1      39.267  35.276  37.889  1.00  0.00     0.139 C 
ATOM     12  C   UNL A   1      39.733  36.096  36.704  1.00  0.00     0.030 C 
BRANCH  11  13
ATOM     13  S   UNL A   1      39.325  35.912  39.626  1.00  0.00    -0.093 SA
BRANCH  13  14
ATOM     14  C   UNL A   1      40.645  37.107  39.708  1.00  0.00     0.097 A 
ATOM     15  C   UNL A   1      40.489  38.409  40.162  1.00  0.00     0.035 A 
ATOM     16  N   UNL A   1      41.860  36.624  39.344  1.00  0.00    -0.250 NA
ATOM     17  C   UNL A   1      41.588  39.271  40.153  1.00  0.00     0.004 A 
ATOM     18  C   UNL A   1      42.909  37.476  39.345  1.00  0.00     0.112 A 
ATOM     19  C   UNL A   1      42.823  38.801  39.728  1.00  0.00     0.020 A 
ENDBRANCH  13  14
ENDBRANCH  11  13
ENDBRANCH   8  11
ENDBRANCH   6   7
BRANCH   6  20
ATOM     20  C   UNL A   1      38.963  31.674  34.757  1.00  0.00    -0.014 A 
ATOM     21  C   UNL A   1      37.869  31.130  34.052  1.00  0.00     0.009 A 
ATOM     22  C   UNL A   1      40.196  31.003  34.650  1.00  0.00     0.009 A 
ATOM     23  C   UNL A   1      38.013  29.976  33.272  1.00  0.00     0.039 A 
ATOM     24  C   UNL A   1      40.347  29.869  33.849  1.00  0.00     0.039 A 
ATOM     25  C   UNL A   1      39.254  29.364  33.169  1.00  0.00     0.123 A 
ATOM     26  F   UNL A   1      39.395  28.266  32.416  1.00  0.00    -0.207 F 
ENDBRANCH   6  20
ENDBRANCH   4   6
ENDBRANCH   3   4
ENDBRANCH   2   3
ENDBRANCH   1   2
BRANCH   1  27
ATOM     27  O   UNL A   1      34.953  35.969  32.871  1.00  0.00    -0.374 OA
BRANCH  27  28
ATOM     28  C   UNL A   1      33.943  36.872  32.434  1.00  0.00     0.202 C 
BRANCH  28  29
ATOM     29  C   UNL A   1      32.897  36.390  31.433  1.00  0.00     0.261 C 
BRANCH  29  30
ATOM     30  O   UNL A   1      33.040  34.995  31.125  1.00  0.00    -0.460 OA
BRANCH  30  31
ATOM     31  C   UNL A   1      33.391  34.741  29.845  1.00  0.00     0.338 C 
ATOM     32  O   UNL A   1      32.886  35.201  28.826  1.00  0.00    -0.246 OA
BRANCH  31  33
ATOM     33  C   UNL A   1      34.609  33.926  29.809  1.00  0.00     0.060 A 
ATOM     34  C   UNL A   1      34.803  32.999  30.840  1.00  0.00     0.016 A 
ATOM     35  C   UNL A   1      35.599  34.156  28.853  1.00  0.00     0.016 A 
ATOM     36  C   UNL A   1      36.018  32.333  30.951  1.00  0.00     0.010 A 
ATOM     37  C   UNL A   1      36.823  33.496  28.973  1.00  0.00     0.010 A 
ATOM     38  C   UNL A   1      37.048  32.614  30.045  1.00  0.00    -0.014 A 
BRANCH  38  39
ATOM     39  C   UNL A   1      38.410  32.109  30.322  1.00  0.00     0.031 A 
ATOM     40  C   UNL A   1      38.830  30.792  29.731  1.00  0.00     0.074 A 
ATOM     41  C   UNL A   1      39.267  32.832  31.062  1.00  0.00     0.049 A 
ATOM     42  N   UNL A   1      39.959  30.146  29.862  1.00  0.00    -0.248 NA
ATOM     43  C   UNL A   1      37.841  30.113  28.876  1.00  0.00     0.031 C 
ATOM     44  C   UNL A   1      38.981  34.139  31.648  1.00  0.00     0.029 A 
ATOM     45  N   UNL A   1      40.553  32.560  31.448  1.00  0.00    -0.354 N 
ATOM     46  C   UNL A   1      39.817  28.986  29.112  1.00  0.00     0.074 A 
ATOM     47  C   UNL A   1      38.483  29.001  28.553  1.00  0.00     0.031 C 
ATOM     48  C   UNL A   1      40.060  34.554  32.334  1.00  0.00     0.029 A 
ATOM     49  C   UNL A   1      41.097  33.527  32.256  1.00  0.00     0.049 A 
ATOM     50  H   UNL A   1      41.040  31.749  31.173  1.00  0.00     0.167 HD
ATOM     51  C   UNL A   1      40.722  28.001  28.905  1.00  0.00     0.037 A 
ATOM     52  C   UNL A   1      42.291  33.565  32.876  1.00  0.00     0.037 A 
ATOM     53  C   UNL A   1      42.047  27.993  29.465  1.00  0.00     0.049 A 
ATOM     54  C   UNL A   1      43.254  32.424  32.686  1.00  0.00     0.074 A 
ATOM     55  C   UNL A   1      43.048  27.051  29.305  1.00  0.00     0.029 A 
ATOM     56  N   UNL A   1      42.553  28.976  30.304  1.00  0.00    -0.354 N 
ATOM     57  N   UNL A   1      43.121  31.341  31.958  1.00  0.00    -0.248 NA
ATOM     58  C   UNL A   1      44.536  32.513  33.400  1.00  0.00     0.031 C 
ATOM     59  C   UNL A   1      44.143  27.440  30.083  1.00  0.00     0.029 A 
ATOM     60  C   UNL A   1      43.842  28.650  30.689  1.00  0.00     0.049 A 
ATOM     61  H   UNL A   1      42.066  29.785  30.585  1.00  0.00     0.167 HD
ATOM     62  C   UNL A   1      44.309  30.635  32.104  1.00  0.00     0.074 A 
ATOM     63  C   UNL A   1      45.154  31.418  32.982  1.00  0.00     0.031 C 
ATOM     64  C   UNL A   1      44.669  29.446  31.559  1.00  0.00     0.037 A 
BRANCH  51  65
ATOM     65  C   UNL A   1      40.297  26.839  28.056  1.00  0.00     0.057 A 
ATOM     66  C   UNL A   1      40.732  26.691  26.731  1.00  0.00     0.134 A 
ATOM     67  C   UNL A   1      39.463  25.843  28.577  1.00  0.00     0.134 A 
ATOM     68  F   UNL A   1      41.520  27.618  26.167  1.00  0.00    -0.206 F 
ATOM     69  C   UNL A   1      40.335  25.604  25.951  1.00  0.00     0.040 A 
ATOM     70  C   UNL A   1      39.078  24.739  27.813  1.00  0.00     0.040 A 
ATOM     71  F   UNL A   1      39.012  25.923  29.838  1.00  0.00    -0.206 F 
ATOM     72  C   UNL A   1      39.510  24.621  26.494  1.00  0.00     0.006 A 
ENDBRANCH  51  65
BRANCH  52  73
ATOM     73  C   UNL A   1      42.637  34.716  33.747  1.00  0.00     0.057 A 
ATOM     74  C   UNL A   1      42.998  35.953  33.203  1.00  0.00     0.134 A 
ATOM     75  C   UNL A   1      42.624  34.602  35.142  1.00  0.00     0.134 A 
ATOM     76  F   UNL A   1      43.051  36.117  31.873  1.00  0.00    -0.206 F 
ATOM     77  C   UNL A   1      43.349  37.032  34.015  1.00  0.00     0.040 A 
ATOM     78  C   UNL A   1      42.949  35.678  35.966  1.00  0.00     0.040 A 
ATOM     79  F   UNL A   1      42.286  33.441  35.723  1.00  0.00    -0.206 F 
ATOM     80  C   UNL A   1      43.320  36.898  35.403  1.00  0.00     0.006 A 
ENDBRANCH  52  73
BRANCH  64  81
ATOM     81  C   UNL A   1      46.046  28.939  31.868  1.00  0.00     0.057 A 
ATOM     82  C   UNL A   1      47.163  29.327  31.118  1.00  0.00     0.134 A 
ATOM     83  C   UNL A   1      46.262  28.085  32.957  1.00  0.00     0.134 A 
ATOM     84  F   UNL A   1      47.022  30.134  30.057  1.00  0.00    -0.206 F 
ATOM     85  C   UNL A   1      48.443  28.867  31.430  1.00  0.00     0.040 A 
ATOM     86  C   UNL A   1      47.540  27.639  33.294  1.00  0.00     0.040 A 
ATOM     87  F   UNL A   1      45.235  27.683  33.722  1.00  0.00    -0.206 F 
ATOM     88  C   UNL A   1      48.635  28.026  32.525  1.00  0.00     0.006 A 
ENDBRANCH  64  81
ENDBRANCH  38  39
ENDBRANCH  31  33
ENDBRANCH  30  31
ENDBRANCH  29  30
ENDBRANCH  28  29
ENDBRANCH  27  28
ENDBRANCH   1  27
TORSDOF 19
ENDMDL
MODEL 3
REMARK VINA RESULT:      -8.9      7.109     12.747
REMARK SMILES C[C@H](Sc1ccccn1)C(=O)N[C@H](C(=O)OCCOCCOC(=O)c1ccc(-c2c3nc(c(-c4c(F)cccc4F)c4ccc([nH]4)c(-c4c(F)cccc4F)c4nc(c(-c5c(F)cccc5F)c5ccc2[nH]5)C=C4)C=C3)cc1)c1ccc(F)cc1
REMARK SMILES IDX 18 1 17 2 16 3 14 4 15 5 13 6 12 7 10 8 11 9 2 11 1 12 3 13
REMARK SMILES IDX 4 14 5 15 9 16 6 17 8 18 7 19 79 20 80 21 85 22 81 23 84 24
REMARK SMILES IDX 82 25 83 26 19 27 20 28 21 29 22 30 23 31 24 32 25 33 26 34
REMARK SMILES IDX 78 35 27 36 77 37 28 38 29 39 30 40 71 41 31 42 76 43 70 44
REMARK SMILES IDX 72 45 32 46 75 47 69 48 68 49 33 51 59 52 42 53 58 54 43 55
REMARK SMILES IDX 46 56 57 57 73 58 44 59 45 60 56 62 74 63 47 64 34 65 35 66
REMARK SMILES IDX 40 67 36 68 37 69 39 70 41 71 38 72 60 73 61 74 66 75 62 76
REMARK SMILES IDX 63 77 65 78 67 79 64 80 48 81 49 82 54 83 50 84 51 85 53 86
REMARK SMILES IDX 55 87 52 88
REMARK H PARENT 12 10 72 50 46 61
REMARK Flexibility Score: inf
ROOT
ATOM      1  C   UNL A   1      37.121  20.999  25.185  1.00  0.00     0.202 C 
ENDROOT
BRANCH   1   2
ATOM      2  C   UNL A   1      35.682  21.505  24.975  1.00  0.00     0.261 C 
BRANCH   2   3
ATOM      3  O   UNL A   1      35.519  22.920  24.957  1.00  0.00    -0.461 OA
BRANCH   3   4
ATOM      4  C   UNL A   1      35.323  23.429  23.703  1.00  0.00     0.333 C 
ATOM      5  O   UNL A   1      36.015  23.171  22.730  1.00  0.00    -0.249 OA
BRANCH   4   6
ATOM      6  C   UNL A   1      34.113  24.364  23.701  1.00  0.00     0.223 C 
BRANCH   6   7
ATOM      7  N   UNL A   1      33.737  24.842  22.368  1.00  0.00    -0.338 N 
ATOM      8  C   UNL A   1      33.108  25.934  21.871  1.00  0.00     0.234 C 
ATOM      9  O   UNL A   1      33.013  25.963  20.636  1.00  0.00    -0.274 OA
ATOM     10  H   UNL A   1      34.008  24.215  21.660  1.00  0.00     0.164 HD
BRANCH   8  11
ATOM     11  C   UNL A   1      32.499  27.073  22.700  1.00  0.00     0.139 C 
ATOM     12  C   UNL A   1      33.492  27.720  23.644  1.00  0.00     0.030 C 
BRANCH  11  13
ATOM     13  S   UNL A   1      30.787  26.602  23.224  1.00  0.00    -0.093 SA
BRANCH  13  14
ATOM     14  C   UNL A   1      29.715  27.966  22.817  1.00  0.00     0.097 A 
ATOM     15  C   UNL A   1      28.404  28.085  23.259  1.00  0.00     0.035 A 
ATOM     16  N   UNL A   1      30.304  28.939  22.076  1.00  0.00    -0.250 NA
ATOM     17  C   UNL A   1      27.645  29.183  22.851  1.00  0.00     0.004 A 
ATOM     18  C   UNL A   1      29.549  29.993  21.695  1.00  0.00     0.112 A 
ATOM     19  C   UNL A   1      28.223  30.155  22.046  1.00  0.00     0.020 A 
ENDBRANCH  13  14
ENDBRANCH  11  13
ENDBRANCH   8  11
ENDBRANCH   6   7
BRANCH   6  20
ATOM     20  C   UNL A   1      32.946  23.984  24.615  1.00  0.00    -0.014 A 
ATOM     21  C   UNL A   1      32.746  24.704  25.810  1.00  0.00     0.009 A 
ATOM     22  C   UNL A   1      32.089  22.894  24.368  1.00  0.00     0.009 A 
ATOM     23  C   UNL A   1      31.730  24.350  26.707  1.00  0.00     0.039 A 
ATOM     24  C   UNL A   1      31.058  22.558  25.248  1.00  0.00     0.039 A 
ATOM     25  C   UNL A   1      30.889  23.287  26.411  1.00  0.00     0.123 A 
ATOM     26  F   UNL A   1      29.912  22.953  27.263  1.00  0.00    -0.207 F 
ENDBRANCH   6  20
ENDBRANCH   4   6
ENDBRANCH   3   4
ENDBRANCH   2   3
ENDBRANCH   1   2
BRANCH   1  27
ATOM     27  O   UNL A   1      38.140  21.885  25.633  1.00  0.00    -0.374 OA
BRANCH  27  28
ATOM     28  C   UNL A   1      39.406  21.383  26.047  1.00  0.00     0.202 C 
BRANCH  28  29
ATOM     29  C   UNL A   1      39.686  19.887  25.934  1.00  0.00     0.261 C 
BRANCH  29  30
ATOM     30  O   UNL A   1      40.940  19.616  25.288  1.00  0.00    -0.460 OA
BRANCH  30  31
ATOM     31  C   UNL A   1      41.960  19.359  26.136  1.00  0.00     0.338 C 
ATOM     32  O   UNL A   1      42.388  18.263  26.479  1.00  0.00    -0.246 OA
BRANCH  31  33
ATOM     33  C   UNL A   1      42.634  20.607  26.505  1.00  0.00     0.060 A 
ATOM     34  C   UNL A   1      42.549  21.024  27.839  1.00  0.00     0.016 A 
ATOM     35  C   UNL A   1      43.230  21.415  25.536  1.00  0.00     0.016 A 
ATOM     36  C   UNL A   1      43.015  22.283  28.201  1.00  0.00     0.010 A 
ATOM     37  C   UNL A   1      43.686  22.683  25.898  1.00  0.00     0.010 A 
ATOM     38  C   UNL A   1      43.542  23.135  27.222  1.00  0.00    -0.014 A 
BRANCH  38  39
ATOM     39  C   UNL A   1      43.788  24.554  27.558  1.00  0.00     0.031 A 
ATOM     40  C   UNL A   1      45.205  25.055  27.601  1.00  0.00     0.074 A 
ATOM     41  C   UNL A   1      42.760  25.386  27.788  1.00  0.00     0.049 A 
ATOM     42  N   UNL A   1      45.654  26.246  27.897  1.00  0.00    -0.248 NA
ATOM     43  C   UNL A   1      46.255  24.079  27.263  1.00  0.00     0.031 C 
ATOM     44  C   UNL A   1      41.347  25.018  27.731  1.00  0.00     0.029 A 
ATOM     45  N   UNL A   1      42.752  26.716  28.120  1.00  0.00    -0.354 N 
ATOM     46  C   UNL A   1      47.037  26.164  27.786  1.00  0.00     0.074 A 
ATOM     47  C   UNL A   1      47.354  24.800  27.425  1.00  0.00     0.031 C 
ATOM     48  C   UNL A   1      40.604  26.098  28.032  1.00  0.00     0.029 A 
ATOM     49  C   UNL A   1      41.492  27.220  28.329  1.00  0.00     0.049 A 
ATOM     50  H   UNL A   1      43.571  27.257  28.201  1.00  0.00     0.167 HD
ATOM     51  C   UNL A   1      47.955  27.142  27.964  1.00  0.00     0.037 A 
ATOM     52  C   UNL A   1      41.107  28.443  28.735  1.00  0.00     0.037 A 
ATOM     53  C   UNL A   1      47.631  28.496  28.323  1.00  0.00     0.049 A 
ATOM     54  C   UNL A   1      42.152  29.495  28.993  1.00  0.00     0.074 A 
ATOM     55  C   UNL A   1      48.486  29.568  28.513  1.00  0.00     0.029 A 
ATOM     56  N   UNL A   1      46.346  28.963  28.558  1.00  0.00    -0.354 N 
ATOM     57  N   UNL A   1      43.455  29.416  28.865  1.00  0.00    -0.248 NA
ATOM     58  C   UNL A   1      41.673  30.808  29.448  1.00  0.00     0.031 C 
ATOM     59  C   UNL A   1      47.721  30.672  28.905  1.00  0.00     0.029 A 
ATOM     60  C   UNL A   1      46.386  30.300  28.913  1.00  0.00     0.049 A 
ATOM     61  H   UNL A   1      45.526  28.422  28.482  1.00  0.00     0.167 HD
ATOM     62  C   UNL A   1      43.949  30.672  29.196  1.00  0.00     0.074 A 
ATOM     63  C   UNL A   1      42.803  31.497  29.521  1.00  0.00     0.031 C 
ATOM     64  C   UNL A   1      45.233  31.105  29.227  1.00  0.00     0.037 A 
BRANCH  51  65
ATOM     65  C   UNL A   1      49.399  26.772  27.795  1.00  0.00     0.057 A 
ATOM     66  C   UNL A   1      50.184  26.334  28.871  1.00  0.00     0.134 A 
ATOM     67  C   UNL A   1      50.007  26.829  26.535  1.00  0.00     0.134 A 
ATOM     68  F   UNL A   1      49.666  26.271  30.107  1.00  0.00    -0.206 F 
ATOM     69  C   UNL A   1      51.526  25.987  28.703  1.00  0.00     0.040 A 
ATOM     70  C   UNL A   1      51.342  26.462  26.349  1.00  0.00     0.040 A 
ATOM     71  F   UNL A   1      49.313  27.238  25.462  1.00  0.00    -0.206 F 
ATOM     72  C   UNL A   1      52.106  26.045  27.437  1.00  0.00     0.006 A 
ENDBRANCH  51  65
BRANCH  52  73
ATOM     73  C   UNL A   1      39.667  28.737  28.935  1.00  0.00     0.057 A 
ATOM     74  C   UNL A   1      39.045  28.513  30.168  1.00  0.00     0.134 A 
ATOM     75  C   UNL A   1      38.875  29.239  27.895  1.00  0.00     0.134 A 
ATOM     76  F   UNL A   1      39.745  28.012  31.197  1.00  0.00    -0.206 F 
ATOM     77  C   UNL A   1      37.685  28.763  30.357  1.00  0.00     0.040 A 
ATOM     78  C   UNL A   1      37.521  29.517  28.075  1.00  0.00     0.040 A 
ATOM     79  F   UNL A   1      39.413  29.475  26.689  1.00  0.00    -0.206 F 
ATOM     80  C   UNL A   1      36.919  29.272  29.308  1.00  0.00     0.006 A 
ENDBRANCH  52  73
BRANCH  64  81
ATOM     81  C   UNL A   1      45.464  32.541  29.590  1.00  0.00     0.057 A 
ATOM     82  C   UNL A   1      45.464  33.557  28.627  1.00  0.00     0.134 A 
ATOM     83  C   UNL A   1      45.648  32.917  30.927  1.00  0.00     0.134 A 
ATOM     84  F   UNL A   1      45.306  33.263  27.328  1.00  0.00    -0.206 F 
ATOM     85  C   UNL A   1      45.657  34.894  28.979  1.00  0.00     0.040 A 
ATOM     86  C   UNL A   1      45.816  34.251  31.295  1.00  0.00     0.040 A 
ATOM     87  F   UNL A   1      45.649  31.992  31.900  1.00  0.00    -0.206 F 
ATOM     88  C   UNL A   1      45.826  35.245  30.318  1.00  0.00     0.006 A 
ENDBRANCH  64  81
ENDBRANCH  38  39
ENDBRANCH  31  33
ENDBRANCH  30  31
ENDBRANCH  29  30
ENDBRANCH  28  29
ENDBRANCH  27  28
ENDBRANCH   1  27
TORSDOF 19
ENDMDL
