MODEL 1
REMARK VINA RESULT:     -12.1      0.000      0.000
REMARK SMILES CCc1ccc(-c2cc(Cl)cc3c2O[C@@H](C(F)(F)F)C(C(=O)OCCOCCOC(=O)c2ccc(-c4c5nc(c(-c6c(F)cccc6F)c6ccc([nH]6)c(-c6c(F)cccc6F)c6nc(c(-c7c(F)cccc7F)c7ccc4[nH]7)C=C6)C=C5)cc2)=C3)cc1
REMARK SMILES IDX 26 1 25 2 24 3 23 4 21 5 22 6 20 7 7 8 8 9 13 10 9 11 12 12
REMARK SMILES IDX 14 13 10 14 11 15 86 16 15 17 6 18 3 19 4 20 88 21 5 22
REMARK SMILES IDX 87 23 2 24 1 25 16 26 17 27 18 28 19 29 27 30 28 31 29 32
REMARK SMILES IDX 30 33 31 34 32 35 33 36 85 37 34 38 84 39 35 40 36 41 37 42
REMARK SMILES IDX 78 43 38 44 83 45 77 46 79 47 39 48 82 49 76 50 75 51 40 53
REMARK SMILES IDX 66 54 49 55 65 56 50 57 53 58 64 59 80 60 51 61 52 62 63 64
REMARK SMILES IDX 81 65 54 66 41 67 42 68 47 69 43 70 44 71 46 72 48 73 45 74
REMARK SMILES IDX 67 75 68 76 73 77 69 78 70 79 72 80 74 81 71 82 55 83 56 84
REMARK SMILES IDX 61 85 57 86 58 87 60 88 62 89 59 90
REMARK H PARENT 79 52 53 63
REMARK Flexibility Score: inf
ROOT
ATOM      1  O   UNL A   1      32.614  30.829  26.581  1.00  0.00    -0.374 OA
ENDROOT
BRANCH   1   2
ATOM      2  C   UNL A   1      32.214  29.647  25.901  1.00  0.00     0.202 C 
BRANCH   2   3
ATOM      3  C   UNL A   1      33.285  28.816  25.177  1.00  0.00     0.261 C 
BRANCH   3   4
ATOM      4  O   UNL A   1      32.760  27.631  24.559  1.00  0.00    -0.460 OA
BRANCH   4   5
ATOM      5  C   UNL A   1      32.718  27.643  23.212  1.00  0.00     0.338 C 
ATOM      6  O   UNL A   1      33.294  28.449  22.495  1.00  0.00    -0.246 OA
BRANCH   5   7
ATOM      7  C   UNL A   1      32.025  26.456  22.657  1.00  0.00     0.087 C 
ATOM      8  C   UNL A   1      32.769  22.836  24.564  1.00  0.00     0.026 A 
ATOM      9  C   UNL A   1      34.025  23.015  25.189  1.00  0.00     0.033 A 
ATOM     10  C   UNL A   1      32.352  23.907  23.743  1.00  0.00     0.135 A 
ATOM     11  C   UNL A   1      34.920  23.990  24.749  1.00  0.00     0.042 A 
ATOM     12  C   UNL A   1      33.330  24.703  23.119  1.00  0.00     0.019 A 
ATOM     13  O   UNL A   1      31.087  24.500  23.951  1.00  0.00    -0.475 OA
ATOM     14  Cl  UNL A   1      36.452  24.147  25.510  1.00  0.00    -0.084 Cl
ATOM     15  C   UNL A   1      34.614  24.764  23.641  1.00  0.00     0.032 A 
ATOM     16  C   UNL A   1      32.912  25.644  22.058  1.00  0.00     0.027 C 
ATOM     17  C   UNL A   1      30.797  25.754  23.198  1.00  0.00     0.316 C 
BRANCH   8  18
ATOM     18  C   UNL A   1      32.432  21.378  24.324  1.00  0.00    -0.015 A 
ATOM     19  C   UNL A   1      32.695  18.578  23.642  1.00  0.00    -0.048 A 
ATOM     20  C   UNL A   1      32.869  19.035  24.956  1.00  0.00     0.004 A 
ATOM     21  C   UNL A   1      32.301  19.521  22.689  1.00  0.00     0.004 A 
ATOM     22  C   UNL A   1      32.727  20.396  25.291  1.00  0.00     0.009 A 
ATOM     23  C   UNL A   1      32.171  20.892  23.024  1.00  0.00     0.009 A 
BRANCH  19  24
ATOM     24  C   UNL A   1      32.933  17.104  23.362  1.00  0.00     0.032 C 
ATOM     25  C   UNL A   1      34.238  16.469  23.832  1.00  0.00     0.009 C 
ENDBRANCH  19  24
ENDBRANCH   8  18
BRANCH  17  26
ATOM     26  C   UNL A   1      29.727  26.700  23.792  1.00  0.00     0.430 C 
ATOM     27  F   UNL A   1      29.995  26.899  25.113  1.00  0.00    -0.167 F 
ATOM     28  F   UNL A   1      29.750  27.920  23.211  1.00  0.00    -0.167 F 
ATOM     29  F   UNL A   1      28.460  26.250  23.721  1.00  0.00    -0.167 F 
ENDBRANCH  17  26
ENDBRANCH   5   7
ENDBRANCH   4   5
ENDBRANCH   3   4
ENDBRANCH   2   3
ENDBRANCH   1   2
BRANCH   1  30
ATOM     30  C   UNL A   1      31.642  31.853  26.783  1.00  0.00     0.202 C 
BRANCH  30  31
ATOM     31  C   UNL A   1      32.109  33.311  26.842  1.00  0.00     0.261 C 
BRANCH  31  32
ATOM     32  O   UNL A   1      32.204  33.836  28.175  1.00  0.00    -0.460 OA
BRANCH  32  33
ATOM     33  C   UNL A   1      33.306  34.584  28.409  1.00  0.00     0.338 C 
ATOM     34  O   UNL A   1      33.378  35.805  28.494  1.00  0.00    -0.246 OA
BRANCH  33  35
ATOM     35  C   UNL A   1      34.449  33.713  28.712  1.00  0.00     0.060 A 
ATOM     36  C   UNL A   1      34.196  32.483  29.331  1.00  0.00     0.016 A 
ATOM     37  C   UNL A   1      35.756  34.149  28.493  1.00  0.00     0.016 A 
ATOM     38  C   UNL A   1      35.257  31.695  29.768  1.00  0.00     0.010 A 
ATOM     39  C   UNL A   1      36.819  33.360  28.939  1.00  0.00     0.010 A 
ATOM     40  C   UNL A   1      36.574  32.147  29.606  1.00  0.00    -0.014 A 
BRANCH  40  41
ATOM     41  C   UNL A   1      37.686  31.411  30.252  1.00  0.00     0.031 A 
ATOM     42  C   UNL A   1      38.013  31.695  31.690  1.00  0.00     0.074 A 
ATOM     43  C   UNL A   1      38.384  30.491  29.562  1.00  0.00     0.049 A 
ATOM     44  N   UNL A   1      38.975  31.210  32.433  1.00  0.00    -0.248 NA
ATOM     45  C   UNL A   1      37.143  32.658  32.384  1.00  0.00     0.031 C 
ATOM     46  C   UNL A   1      38.134  30.110  28.173  1.00  0.00     0.029 A 
ATOM     47  N   UNL A   1      39.454  29.720  29.937  1.00  0.00    -0.354 N 
ATOM     48  C   UNL A   1      38.834  31.819  33.675  1.00  0.00     0.074 A 
ATOM     49  C   UNL A   1      37.714  32.728  33.577  1.00  0.00     0.031 C 
ATOM     50  C   UNL A   1      39.036  29.186  27.807  1.00  0.00     0.029 A 
ATOM     51  C   UNL A   1      39.948  28.939  28.922  1.00  0.00     0.049 A 
ATOM     52  H   UNL A   1      39.832  29.727  30.846  1.00  0.00     0.167 HD
ATOM     53  C   UNL A   1      39.571  31.629  34.795  1.00  0.00     0.037 A 
ATOM     54  C   UNL A   1      41.029  28.137  28.891  1.00  0.00     0.037 A 
ATOM     55  C   UNL A   1      40.684  30.719  34.883  1.00  0.00     0.049 A 
ATOM     56  C   UNL A   1      41.870  27.990  30.133  1.00  0.00     0.074 A 
ATOM     57  C   UNL A   1      41.476  30.430  35.980  1.00  0.00     0.029 A 
ATOM     58  N   UNL A   1      41.166  29.957  33.830  1.00  0.00    -0.354 N 
ATOM     59  N   UNL A   1      41.709  28.542  31.312  1.00  0.00    -0.248 NA
ATOM     60  C   UNL A   1      43.039  27.104  30.041  1.00  0.00     0.031 C 
ATOM     61  C   UNL A   1      42.475  29.540  35.574  1.00  0.00     0.029 A 
ATOM     62  C   UNL A   1      42.265  29.222  34.243  1.00  0.00     0.049 A 
ATOM     63  H   UNL A   1      40.783  29.940  32.922  1.00  0.00     0.167 HD
ATOM     64  C   UNL A   1      42.735  28.047  32.109  1.00  0.00     0.074 A 
ATOM     65  C   UNL A   1      43.503  27.140  31.282  1.00  0.00     0.031 C 
ATOM     66  C   UNL A   1      43.014  28.316  33.408  1.00  0.00     0.037 A 
BRANCH  53  67
ATOM     67  C   UNL A   1      39.222  32.445  36.006  1.00  0.00     0.057 A 
ATOM     68  C   UNL A   1      38.369  31.964  37.007  1.00  0.00     0.134 A 
ATOM     69  C   UNL A   1      39.778  33.718  36.190  1.00  0.00     0.134 A 
ATOM     70  F   UNL A   1      37.791  30.759  36.889  1.00  0.00    -0.206 F 
ATOM     71  C   UNL A   1      38.064  32.727  38.137  1.00  0.00     0.040 A 
ATOM     72  C   UNL A   1      39.505  34.478  37.329  1.00  0.00     0.040 A 
ATOM     73  F   UNL A   1      40.607  34.238  35.273  1.00  0.00    -0.206 F 
ATOM     74  C   UNL A   1      38.640  33.985  38.303  1.00  0.00     0.006 A 
ENDBRANCH  53  67
BRANCH  54  75
ATOM     75  C   UNL A   1      41.392  27.425  27.639  1.00  0.00     0.057 A 
ATOM     76  C   UNL A   1      42.235  28.009  26.688  1.00  0.00     0.134 A 
ATOM     77  C   UNL A   1      40.887  26.151  27.356  1.00  0.00     0.134 A 
ATOM     78  F   UNL A   1      42.734  29.237  26.891  1.00  0.00    -0.206 F 
ATOM     79  C   UNL A   1      42.547  27.363  25.490  1.00  0.00     0.040 A 
ATOM     80  C   UNL A   1      41.212  25.480  26.176  1.00  0.00     0.040 A 
ATOM     81  F   UNL A   1      40.075  25.534  28.227  1.00  0.00    -0.206 F 
ATOM     82  C   UNL A   1      42.038  26.090  25.234  1.00  0.00     0.006 A 
ENDBRANCH  54  75
BRANCH  66  83
ATOM     83  C   UNL A   1      44.172  27.588  34.030  1.00  0.00     0.057 A 
ATOM     84  C   UNL A   1      45.461  28.132  34.067  1.00  0.00     0.134 A 
ATOM     85  C   UNL A   1      43.980  26.340  34.638  1.00  0.00     0.134 A 
ATOM     86  F   UNL A   1      45.716  29.318  33.494  1.00  0.00    -0.206 F 
ATOM     87  C   UNL A   1      46.524  27.449  34.663  1.00  0.00     0.040 A 
ATOM     88  C   UNL A   1      45.027  25.662  35.264  1.00  0.00     0.040 A 
ATOM     89  F   UNL A   1      42.767  25.765  34.648  1.00  0.00    -0.206 F 
ATOM     90  C   UNL A   1      46.306  26.214  35.271  1.00  0.00     0.006 A 
ENDBRANCH  66  83
ENDBRANCH  40  41
ENDBRANCH  33  35
ENDBRANCH  32  33
ENDBRANCH  31  32
ENDBRANCH  30  31
ENDBRANCH   1  30
TORSDOF 17
ENDMDL
MODEL 2
REMARK VINA RESULT:     -12.0      0.681      5.964
REMARK SMILES CCc1ccc(-c2cc(Cl)cc3c2O[C@@H](C(F)(F)F)C(C(=O)OCCOCCOC(=O)c2ccc(-c4c5nc(c(-c6c(F)cccc6F)c6ccc([nH]6)c(-c6c(F)cccc6F)c6nc(c(-c7c(F)cccc7F)c7ccc4[nH]7)C=C6)C=C5)cc2)=C3)cc1
REMARK SMILES IDX 26 1 25 2 24 3 23 4 21 5 22 6 20 7 7 8 8 9 13 10 9 11 12 12
REMARK SMILES IDX 14 13 10 14 11 15 86 16 15 17 6 18 3 19 4 20 88 21 5 22
REMARK SMILES IDX 87 23 2 24 1 25 16 26 17 27 18 28 19 29 27 30 28 31 29 32
REMARK SMILES IDX 30 33 31 34 32 35 33 36 85 37 34 38 84 39 35 40 36 41 37 42
REMARK SMILES IDX 78 43 38 44 83 45 77 46 79 47 39 48 82 49 76 50 75 51 40 53
REMARK SMILES IDX 66 54 49 55 65 56 50 57 53 58 64 59 80 60 51 61 52 62 63 64
REMARK SMILES IDX 81 65 54 66 41 67 42 68 47 69 43 70 44 71 46 72 48 73 45 74
REMARK SMILES IDX 67 75 68 76 73 77 69 78 70 79 72 80 74 81 71 82 55 83 56 84
REMARK SMILES IDX 61 85 57 86 58 87 60 88 62 89 59 90
REMARK H PARENT 79 52 53 63
REMARK Flexibility Score: inf
ROOT
ATOM      1  O   UNL A   1      33.258  30.771  26.894  1.00  0.00    -0.374 OA
ENDROOT
BRANCH   1   2
ATOM      2  C   UNL A   1      33.031  29.368  26.868  1.00  0.00     0.202 C 
BRANCH   2   3
ATOM      3  C   UNL A   1      34.104  28.459  26.248  1.00  0.00     0.261 C 
BRANCH   3   4
ATOM      4  O   UNL A   1      33.554  27.353  25.516  1.00  0.00    -0.460 OA
BRANCH   4   5
ATOM      5  C   UNL A   1      33.346  27.567  24.202  1.00  0.00     0.338 C 
ATOM      6  O   UNL A   1      33.826  28.486  23.551  1.00  0.00    -0.246 OA
BRANCH   5   7
ATOM      7  C   UNL A   1      32.598  26.460  23.559  1.00  0.00     0.087 C 
ATOM      8  C   UNL A   1      33.213  22.664  25.140  1.00  0.00     0.026 A 
ATOM      9  C   UNL A   1      34.484  22.738  25.759  1.00  0.00     0.033 A 
ATOM     10  C   UNL A   1      32.831  23.818  24.421  1.00  0.00     0.135 A 
ATOM     11  C   UNL A   1      35.413  23.709  25.388  1.00  0.00     0.042 A 
ATOM     12  C   UNL A   1      33.833  24.623  23.850  1.00  0.00     0.019 A 
ATOM     13  O   UNL A   1      31.594  24.441  24.698  1.00  0.00    -0.475 OA
ATOM     14  Cl  UNL A   1      36.959  23.739  26.135  1.00  0.00    -0.084 Cl
ATOM     15  C   UNL A   1      35.126  24.588  24.355  1.00  0.00     0.032 A 
ATOM     16  C   UNL A   1      33.442  25.668  22.880  1.00  0.00     0.027 C 
ATOM     17  C   UNL A   1      31.348  25.766  24.058  1.00  0.00     0.316 C 
BRANCH   8  18
ATOM     18  C   UNL A   1      32.813  21.247  24.784  1.00  0.00    -0.015 A 
ATOM     19  C   UNL A   1      32.900  18.556  23.723  1.00  0.00    -0.048 A 
ATOM     20  C   UNL A   1      33.309  18.844  25.032  1.00  0.00     0.004 A 
ATOM     21  C   UNL A   1      32.363  19.610  22.979  1.00  0.00     0.004 A 
ATOM     22  C   UNL A   1      33.253  20.152  25.554  1.00  0.00     0.009 A 
ATOM     23  C   UNL A   1      32.320  20.927  23.500  1.00  0.00     0.009 A 
BRANCH  19  24
ATOM     24  C   UNL A   1      33.058  17.130  23.223  1.00  0.00     0.032 C 
ATOM     25  C   UNL A   1      34.076  16.222  23.905  1.00  0.00     0.009 C 
ENDBRANCH  19  24
ENDBRANCH   8  18
BRANCH  17  26
ATOM     26  C   UNL A   1      30.326  26.700  24.747  1.00  0.00     0.430 C 
ATOM     27  F   UNL A   1      30.285  27.885  24.076  1.00  0.00    -0.167 F 
ATOM     28  F   UNL A   1      29.072  26.198  24.706  1.00  0.00    -0.167 F 
ATOM     29  F   UNL A   1      30.594  26.996  26.032  1.00  0.00    -0.167 F 
ENDBRANCH  17  26
ENDBRANCH   5   7
ENDBRANCH   4   5
ENDBRANCH   3   4
ENDBRANCH   2   3
ENDBRANCH   1   2
BRANCH   1  30
ATOM     30  C   UNL A   1      32.128  31.635  26.988  1.00  0.00     0.202 C 
BRANCH  30  31
ATOM     31  C   UNL A   1      32.351  33.150  26.924  1.00  0.00     0.261 C 
BRANCH  31  32
ATOM     32  O   UNL A   1      32.198  33.812  28.189  1.00  0.00    -0.460 OA
BRANCH  32  33
ATOM     33  C   UNL A   1      33.228  34.617  28.531  1.00  0.00     0.338 C 
ATOM     34  O   UNL A   1      33.217  35.837  28.653  1.00  0.00    -0.246 OA
BRANCH  33  35
ATOM     35  C   UNL A   1      34.396  33.808  28.906  1.00  0.00     0.060 A 
ATOM     36  C   UNL A   1      34.193  32.705  29.745  1.00  0.00     0.016 A 
ATOM     37  C   UNL A   1      35.682  34.193  28.529  1.00  0.00     0.016 A 
ATOM     38  C   UNL A   1      35.286  32.001  30.241  1.00  0.00     0.010 A 
ATOM     39  C   UNL A   1      36.778  33.490  29.035  1.00  0.00     0.010 A 
ATOM     40  C   UNL A   1      36.585  32.412  29.918  1.00  0.00    -0.014 A 
BRANCH  40  41
ATOM     41  C   UNL A   1      37.743  31.796  30.607  1.00  0.00     0.031 A 
ATOM     42  C   UNL A   1      38.535  30.734  29.898  1.00  0.00     0.074 A 
ATOM     43  C   UNL A   1      38.087  32.191  31.845  1.00  0.00     0.049 A 
ATOM     44  N   UNL A   1      39.546  30.025  30.331  1.00  0.00    -0.248 NA
ATOM     45  C   UNL A   1      38.131  30.425  28.517  1.00  0.00     0.031 C 
ATOM     46  C   UNL A   1      37.413  33.235  32.616  1.00  0.00     0.029 A 
ATOM     47  N   UNL A   1      39.086  31.751  32.674  1.00  0.00    -0.354 N 
ATOM     48  C   UNL A   1      39.889  29.179  29.283  1.00  0.00     0.074 A 
ATOM     49  C   UNL A   1      38.962  29.442  28.204  1.00  0.00     0.031 C 
ATOM     50  C   UNL A   1      38.009  33.344  33.814  1.00  0.00     0.029 A 
ATOM     51  C   UNL A   1      39.080  32.355  33.907  1.00  0.00     0.049 A 
ATOM     52  H   UNL A   1      39.744  31.066  32.412  1.00  0.00     0.167 HD
ATOM     53  C   UNL A   1      40.891  28.270  29.227  1.00  0.00     0.037 A 
ATOM     54  C   UNL A   1      39.838  32.117  34.994  1.00  0.00     0.037 A 
ATOM     55  C   UNL A   1      41.812  28.018  30.306  1.00  0.00     0.049 A 
ATOM     56  C   UNL A   1      40.907  31.057  34.927  1.00  0.00     0.074 A 
ATOM     57  C   UNL A   1      42.881  27.141  30.337  1.00  0.00     0.029 A 
ATOM     58  N   UNL A   1      41.765  28.637  31.545  1.00  0.00    -0.354 N 
ATOM     59  N   UNL A   1      41.246  30.287  33.921  1.00  0.00    -0.248 NA
ATOM     60  C   UNL A   1      41.701  30.838  36.144  1.00  0.00     0.031 C 
ATOM     61  C   UNL A   1      43.443  27.186  31.617  1.00  0.00     0.029 A 
ATOM     62  C   UNL A   1      42.767  28.139  32.360  1.00  0.00     0.049 A 
ATOM     63  H   UNL A   1      41.115  29.331  31.807  1.00  0.00     0.167 HD
ATOM     64  C   UNL A   1      42.312  29.516  34.373  1.00  0.00     0.074 A 
ATOM     65  C   UNL A   1      42.569  29.923  35.739  1.00  0.00     0.031 C 
ATOM     66  C   UNL A   1      43.015  28.561  33.716  1.00  0.00     0.037 A 
BRANCH  53  67
ATOM     67  C   UNL A   1      41.025  27.457  27.972  1.00  0.00     0.057 A 
ATOM     68  C   UNL A   1      41.840  27.861  26.906  1.00  0.00     0.134 A 
ATOM     69  C   UNL A   1      40.357  26.233  27.843  1.00  0.00     0.134 A 
ATOM     70  F   UNL A   1      42.498  29.029  26.956  1.00  0.00    -0.206 F 
ATOM     71  C   UNL A   1      41.968  27.087  25.750  1.00  0.00     0.040 A 
ATOM     72  C   UNL A   1      40.501  25.436  26.706  1.00  0.00     0.040 A 
ATOM     73  F   UNL A   1      39.565  25.782  28.828  1.00  0.00    -0.206 F 
ATOM     74  C   UNL A   1      41.304  25.866  25.653  1.00  0.00     0.006 A 
ENDBRANCH  53  67
BRANCH  54  75
ATOM     75  C   UNL A   1      39.603  32.880  36.247  1.00  0.00     0.057 A 
ATOM     76  C   UNL A   1      40.297  34.064  36.518  1.00  0.00     0.134 A 
ATOM     77  C   UNL A   1      38.694  32.431  37.213  1.00  0.00     0.134 A 
ATOM     78  F   UNL A   1      41.197  34.536  35.643  1.00  0.00    -0.206 F 
ATOM     79  C   UNL A   1      40.112  34.764  37.712  1.00  0.00     0.040 A 
ATOM     80  C   UNL A   1      38.477  33.135  38.398  1.00  0.00     0.040 A 
ATOM     81  F   UNL A   1      37.996  31.303  37.013  1.00  0.00    -0.206 F 
ATOM     82  C   UNL A   1      39.194  34.302  38.654  1.00  0.00     0.006 A 
ENDBRANCH  54  75
BRANCH  66  83
ATOM     83  C   UNL A   1      44.160  27.921  34.450  1.00  0.00     0.057 A 
ATOM     84  C   UNL A   1      45.444  28.478  34.458  1.00  0.00     0.134 A 
ATOM     85  C   UNL A   1      43.959  26.751  35.194  1.00  0.00     0.134 A 
ATOM     86  F   UNL A   1      45.707  29.591  33.756  1.00  0.00    -0.206 F 
ATOM     87  C   UNL A   1      46.494  27.879  35.157  1.00  0.00     0.040 A 
ATOM     88  C   UNL A   1      44.993  26.160  35.922  1.00  0.00     0.040 A 
ATOM     89  F   UNL A   1      42.749  26.170  35.239  1.00  0.00    -0.206 F 
ATOM     90  C   UNL A   1      46.267  26.721  35.898  1.00  0.00     0.006 A 
ENDBRANCH  66  83
ENDBRANCH  40  41
ENDBRANCH  33  35
ENDBRANCH  32  33
ENDBRANCH  31  32
ENDBRANCH  30  31
ENDBRANCH   1  30
TORSDOF 17
ENDMDL
MODEL 3
REMARK VINA RESULT:     -11.9      4.561      8.773
REMARK SMILES CCc1ccc(-c2cc(Cl)cc3c2O[C@@H](C(F)(F)F)C(C(=O)OCCOCCOC(=O)c2ccc(-c4c5nc(c(-c6c(F)cccc6F)c6ccc([nH]6)c(-c6c(F)cccc6F)c6nc(c(-c7c(F)cccc7F)c7ccc4[nH]7)C=C6)C=C5)cc2)=C3)cc1
REMARK SMILES IDX 26 1 25 2 24 3 23 4 21 5 22 6 20 7 7 8 8 9 13 10 9 11 12 12
REMARK SMILES IDX 14 13 10 14 11 15 86 16 15 17 6 18 3 19 4 20 88 21 5 22
REMARK SMILES IDX 87 23 2 24 1 25 16 26 17 27 18 28 19 29 27 30 28 31 29 32
REMARK SMILES IDX 30 33 31 34 32 35 33 36 85 37 34 38 84 39 35 40 36 41 37 42
REMARK SMILES IDX 78 43 38 44 83 45 77 46 79 47 39 48 82 49 76 50 75 51 40 53
REMARK SMILES IDX 66 54 49 55 65 56 50 57 53 58 64 59 80 60 51 61 52 62 63 64
REMARK SMILES IDX 81 65 54 66 41 67 42 68 47 69 43 70 44 71 46 72 48 73 45 74
REMARK SMILES IDX 67 75 68 76 73 77 69 78 70 79 72 80 74 81 71 82 55 83 56 84
REMARK SMILES IDX 61 85 57 86 58 87 60 88 62 89 59 90
REMARK H PARENT 79 52 53 63
REMARK Flexibility Score: inf
ROOT
ATOM      1  O   UNL A   1      36.878  21.455  25.721  1.00  0.00    -0.374 OA
ENDROOT
BRANCH   1   2
ATOM      2  C   UNL A   1      35.681  22.163  25.429  1.00  0.00     0.202 C 
BRANCH   2   3
ATOM      3  C   UNL A   1      34.984  22.932  26.562  1.00  0.00     0.261 C 
BRANCH   3   4
ATOM      4  O   UNL A   1      33.764  23.566  26.149  1.00  0.00    -0.460 OA
BRANCH   4   5
ATOM      5  C   UNL A   1      32.632  23.043  26.660  1.00  0.00     0.338 C 
ATOM      6  O   UNL A   1      32.529  22.520  27.761  1.00  0.00    -0.246 OA
BRANCH   5   7
ATOM      7  C   UNL A   1      31.448  23.318  25.810  1.00  0.00     0.087 C 
ATOM      8  C   UNL A   1      31.337  27.041  23.960  1.00  0.00     0.026 A 
ATOM      9  C   UNL A   1      32.156  27.864  24.769  1.00  0.00     0.033 A 
ATOM     10  C   UNL A   1      31.122  25.737  24.460  1.00  0.00     0.135 A 
ATOM     11  C   UNL A   1      32.421  27.538  26.098  1.00  0.00     0.042 A 
ATOM     12  C   UNL A   1      31.153  25.531  25.851  1.00  0.00     0.019 A 
ATOM     13  O   UNL A   1      31.400  24.618  23.644  1.00  0.00    -0.475 OA
ATOM     14  Cl  UNL A   1      33.388  28.586  27.056  1.00  0.00    -0.084 Cl
ATOM     15  C   UNL A   1      31.830  26.424  26.671  1.00  0.00     0.032 A 
ATOM     16  C   UNL A   1      30.669  24.244  26.392  1.00  0.00     0.027 C 
ATOM     17  C   UNL A   1      31.354  23.278  24.299  1.00  0.00     0.316 C 
BRANCH   8  18
ATOM     18  C   UNL A   1      30.340  27.829  23.136  1.00  0.00    -0.015 A 
ATOM     19  C   UNL A   1      28.474  29.884  22.317  1.00  0.00    -0.048 A 
ATOM     20  C   UNL A   1      29.837  29.958  21.999  1.00  0.00     0.004 A 
ATOM     21  C   UNL A   1      28.037  28.730  22.971  1.00  0.00     0.004 A 
ATOM     22  C   UNL A   1      30.743  28.951  22.385  1.00  0.00     0.009 A 
ATOM     23  C   UNL A   1      28.951  27.723  23.371  1.00  0.00     0.009 A 
BRANCH  19  24
ATOM     24  C   UNL A   1      27.583  31.048  21.918  1.00  0.00     0.032 C 
ATOM     25  C   UNL A   1      28.198  32.213  21.149  1.00  0.00     0.009 C 
ENDBRANCH  19  24
ENDBRANCH   8  18
BRANCH  17  26
ATOM     26  C   UNL A   1      32.169  22.144  23.635  1.00  0.00     0.430 C 
ATOM     27  F   UNL A   1      31.540  21.757  22.490  1.00  0.00    -0.167 F 
ATOM     28  F   UNL A   1      33.404  22.553  23.270  1.00  0.00    -0.167 F 
ATOM     29  F   UNL A   1      32.322  21.034  24.382  1.00  0.00    -0.167 F 
ENDBRANCH  17  26
ENDBRANCH   5   7
ENDBRANCH   4   5
ENDBRANCH   3   4
ENDBRANCH   2   3
ENDBRANCH   1   2
BRANCH   1  30
ATOM     30  C   UNL A   1      37.184  20.297  24.947  1.00  0.00     0.202 C 
BRANCH  30  31
ATOM     31  C   UNL A   1      38.573  19.665  25.082  1.00  0.00     0.261 C 
BRANCH  31  32
ATOM     32  O   UNL A   1      39.315  20.137  26.218  1.00  0.00    -0.460 OA
BRANCH  32  33
ATOM     33  C   UNL A   1      40.643  19.891  26.164  1.00  0.00     0.338 C 
ATOM     34  O   UNL A   1      41.205  18.916  25.676  1.00  0.00    -0.246 OA
BRANCH  33  35
ATOM     35  C   UNL A   1      41.391  21.057  26.653  1.00  0.00     0.060 A 
ATOM     36  C   UNL A   1      41.387  21.314  28.029  1.00  0.00     0.016 A 
ATOM     37  C   UNL A   1      41.992  21.945  25.760  1.00  0.00     0.016 A 
ATOM     38  C   UNL A   1      41.957  22.486  28.517  1.00  0.00     0.010 A 
ATOM     39  C   UNL A   1      42.556  23.124  26.252  1.00  0.00     0.010 A 
ATOM     40  C   UNL A   1      42.512  23.414  27.627  1.00  0.00    -0.014 A 
BRANCH  40  41
ATOM     41  C   UNL A   1      42.930  24.746  28.123  1.00  0.00     0.031 A 
ATOM     42  C   UNL A   1      41.884  25.794  28.375  1.00  0.00     0.074 A 
ATOM     43  C   UNL A   1      44.228  25.009  28.357  1.00  0.00     0.049 A 
ATOM     44  N   UNL A   1      42.029  27.038  28.754  1.00  0.00    -0.248 NA
ATOM     45  C   UNL A   1      40.484  25.388  28.166  1.00  0.00     0.031 C 
ATOM     46  C   UNL A   1      45.326  24.060  28.179  1.00  0.00     0.029 A 
ATOM     47  N   UNL A   1      44.841  26.159  28.783  1.00  0.00    -0.354 N 
ATOM     48  C   UNL A   1      40.745  27.566  28.817  1.00  0.00     0.074 A 
ATOM     49  C   UNL A   1      39.836  26.518  28.409  1.00  0.00     0.031 C 
ATOM     50  C   UNL A   1      46.483  24.671  28.482  1.00  0.00     0.029 A 
ATOM     51  C   UNL A   1      46.209  26.062  28.836  1.00  0.00     0.049 A 
ATOM     52  H   UNL A   1      44.348  26.975  29.027  1.00  0.00     0.167 HD
ATOM     53  C   UNL A   1      40.362  28.811  29.187  1.00  0.00     0.037 A 
ATOM     54  C   UNL A   1      47.136  26.999  29.114  1.00  0.00     0.037 A 
ATOM     55  C   UNL A   1      41.276  29.847  29.594  1.00  0.00     0.049 A 
ATOM     56  C   UNL A   1      46.687  28.394  29.464  1.00  0.00     0.074 A 
ATOM     57  C   UNL A   1      40.987  31.132  30.019  1.00  0.00     0.029 A 
ATOM     58  N   UNL A   1      42.656  29.718  29.620  1.00  0.00    -0.354 N 
ATOM     59  N   UNL A   1      45.470  28.874  29.554  1.00  0.00    -0.248 NA
ATOM     60  C   UNL A   1      47.742  29.376  29.755  1.00  0.00     0.031 C 
ATOM     61  C   UNL A   1      42.195  31.799  30.241  1.00  0.00     0.029 A 
ATOM     62  C   UNL A   1      43.235  30.910  30.022  1.00  0.00     0.049 A 
ATOM     63  H   UNL A   1      43.152  28.899  29.387  1.00  0.00     0.167 HD
ATOM     64  C   UNL A   1      45.611  30.202  29.942  1.00  0.00     0.074 A 
ATOM     65  C   UNL A   1      47.031  30.446  30.084  1.00  0.00     0.031 C 
ATOM     66  C   UNL A   1      44.652  31.133  30.165  1.00  0.00     0.037 A 
BRANCH  53  67
ATOM     67  C   UNL A   1      38.897  29.133  29.136  1.00  0.00     0.057 A 
ATOM     68  C   UNL A   1      38.074  29.041  30.267  1.00  0.00     0.134 A 
ATOM     69  C   UNL A   1      38.307  29.579  27.946  1.00  0.00     0.134 A 
ATOM     70  F   UNL A   1      38.570  28.609  31.436  1.00  0.00    -0.206 F 
ATOM     71  C   UNL A   1      36.715  29.360  30.210  1.00  0.00     0.040 A 
ATOM     72  C   UNL A   1      36.957  29.928  27.883  1.00  0.00     0.040 A 
ATOM     73  F   UNL A   1      39.038  29.695  26.826  1.00  0.00    -0.206 F 
ATOM     74  C   UNL A   1      36.156  29.813  29.016  1.00  0.00     0.006 A 
ENDBRANCH  53  67
BRANCH  54  75
ATOM     75  C   UNL A   1      48.580  26.658  29.056  1.00  0.00     0.057 A 
ATOM     76  C   UNL A   1      49.266  26.199  30.186  1.00  0.00     0.134 A 
ATOM     77  C   UNL A   1      49.315  26.804  27.873  1.00  0.00     0.134 A 
ATOM     78  F   UNL A   1      48.623  26.059  31.355  1.00  0.00    -0.206 F 
ATOM     79  C   UNL A   1      50.633  25.917  30.149  1.00  0.00     0.040 A 
ATOM     80  C   UNL A   1      50.675  26.498  27.813  1.00  0.00     0.040 A 
ATOM     81  F   UNL A   1      48.717  27.237  26.753  1.00  0.00    -0.206 F 
ATOM     82  C   UNL A   1      51.340  26.061  28.957  1.00  0.00     0.006 A 
ENDBRANCH  54  75
BRANCH  66  83
ATOM     83  C   UNL A   1      45.102  32.490  30.629  1.00  0.00     0.057 A 
ATOM     84  C   UNL A   1      45.371  33.532  29.734  1.00  0.00     0.134 A 
ATOM     85  C   UNL A   1      45.226  32.766  31.997  1.00  0.00     0.134 A 
ATOM     86  F   UNL A   1      45.283  33.332  28.410  1.00  0.00    -0.206 F 
ATOM     87  C   UNL A   1      45.774  34.792  30.181  1.00  0.00     0.040 A 
ATOM     88  C   UNL A   1      45.597  34.030  32.458  1.00  0.00     0.040 A 
ATOM     89  F   UNL A   1      44.972  31.816  32.911  1.00  0.00    -0.206 F 
ATOM     90  C   UNL A   1      45.879  35.046  31.548  1.00  0.00     0.006 A 
ENDBRANCH  66  83
ENDBRANCH  40  41
ENDBRANCH  33  35
ENDBRANCH  32  33
ENDBRANCH  31  32
ENDBRANCH  30  31
ENDBRANCH   1  30
TORSDOF 17
ENDMDL
