MODEL 1
REMARK VINA RESULT:     -13.2      0.000      0.000
REMARK SMILES O=C(OCCOCCOC(=O)c1cc(Cl)c2c(c1)[C@H]1C=CC[C@H]1[C@H](c1ccc(S(=O)(=O)N3CCOCC3)cc1)N2)c1ccc(-c2c3nc(c(-c4c(F)cccc4F)c4ccc([nH]4)c(-c4c(F)cccc4F)c4nc(c(-c5c(F)cccc5F)c5ccc2[nH]5)C=C4)C=C3)cc1
REMARK SMILES IDX 7 1 6 2 5 3 4 4 3 5 2 6 1 7 41 8 42 9 94 10 43 11 93 12
REMARK SMILES IDX 44 13 45 14 46 15 87 16 47 17 92 18 86 19 88 20 48 21 91 22
REMARK SMILES IDX 85 23 84 24 49 26 75 27 58 28 74 29 59 30 62 31 73 32 89 33
REMARK SMILES IDX 60 34 61 35 72 37 90 38 63 39 50 40 51 41 56 42 52 43 53 44
REMARK SMILES IDX 55 45 57 46 54 47 76 48 77 49 82 50 78 51 79 52 81 53 83 54
REMARK SMILES IDX 80 55 64 56 65 57 70 58 66 59 67 60 69 61 71 62 68 63 8 64
REMARK SMILES IDX 9 65 10 66 11 67 12 68 13 69 18 70 14 71 17 72 15 73 16 74
REMARK SMILES IDX 19 75 40 76 20 77 23 78 24 79 21 81 22 82 25 83 26 84 39 85
REMARK SMILES IDX 27 86 38 87 28 88 29 89 30 90 31 91 32 92 33 93 37 94 34 95
REMARK SMILES IDX 36 96 35 97
REMARK H PARENT 88 25 62 36 40 80
REMARK Flexibility Score: inf
ROOT
ATOM      1  C   UNL A   1      43.558  19.200  25.561  1.00  0.00     0.202 C 
ENDROOT
BRANCH   1   2
ATOM      2  O   UNL A   1      44.003  19.962  24.436  1.00  0.00    -0.374 OA
BRANCH   2   3
ATOM      3  C   UNL A   1      44.820  21.088  24.742  1.00  0.00     0.202 C 
BRANCH   3   4
ATOM      4  C   UNL A   1      44.599  22.307  23.847  1.00  0.00     0.261 C 
BRANCH   4   5
ATOM      5  O   UNL A   1      43.902  23.354  24.532  1.00  0.00    -0.460 OA
BRANCH   5   6
ATOM      6  C   UNL A   1      44.379  24.526  25.008  1.00  0.00     0.338 C 
ATOM      7  O   UNL A   1      45.505  24.868  24.650  1.00  0.00    -0.246 OA
BRANCH   6   8
ATOM      8  C   UNL A   1      43.671  25.405  26.002  1.00  0.00     0.060 A 
ATOM      9  C   UNL A   1      43.927  26.755  26.247  1.00  0.00     0.016 A 
ATOM     10  C   UNL A   1      42.622  24.807  26.729  1.00  0.00     0.016 A 
ATOM     11  C   UNL A   1      43.142  27.506  27.109  1.00  0.00     0.010 A 
ATOM     12  C   UNL A   1      41.873  25.532  27.662  1.00  0.00     0.010 A 
ATOM     13  C   UNL A   1      42.148  26.884  27.855  1.00  0.00    -0.014 A 
BRANCH  13  14
ATOM     14  C   UNL A   1      41.616  27.650  28.988  1.00  0.00     0.031 A 
ATOM     15  C   UNL A   1      42.382  27.577  30.275  1.00  0.00     0.074 A 
ATOM     16  C   UNL A   1      40.597  28.504  28.814  1.00  0.00     0.049 A 
ATOM     17  N   UNL A   1      42.223  28.259  31.375  1.00  0.00    -0.248 NA
ATOM     18  C   UNL A   1      43.523  26.642  30.302  1.00  0.00     0.031 C 
ATOM     19  C   UNL A   1      39.887  28.732  27.554  1.00  0.00     0.029 A 
ATOM     20  N   UNL A   1      39.998  29.354  29.701  1.00  0.00    -0.354 N 
ATOM     21  C   UNL A   1      43.266  27.869  32.204  1.00  0.00     0.074 A 
ATOM     22  C   UNL A   1      44.047  26.885  31.491  1.00  0.00     0.031 C 
ATOM     23  C   UNL A   1      38.926  29.649  27.760  1.00  0.00     0.029 A 
ATOM     24  C   UNL A   1      38.940  30.044  29.165  1.00  0.00     0.049 A 
ATOM     25  H   UNL A   1      40.296  29.460  30.633  1.00  0.00     0.167 HD
ATOM     26  C   UNL A   1      43.535  28.287  33.460  1.00  0.00     0.037 A 
ATOM     27  C   UNL A   1      38.071  30.872  29.772  1.00  0.00     0.037 A 
ATOM     28  C   UNL A   1      42.680  29.182  34.187  1.00  0.00     0.049 A 
ATOM     29  C   UNL A   1      38.274  31.163  31.236  1.00  0.00     0.074 A 
ATOM     30  C   UNL A   1      42.779  29.604  35.498  1.00  0.00     0.029 A 
ATOM     31  N   UNL A   1      41.534  29.762  33.658  1.00  0.00    -0.354 N 
ATOM     32  N   UNL A   1      39.249  30.783  32.030  1.00  0.00    -0.248 NA
ATOM     33  C   UNL A   1      37.253  31.988  31.892  1.00  0.00     0.031 C 
ATOM     34  C   UNL A   1      41.654  30.388  35.782  1.00  0.00     0.029 A 
ATOM     35  C   UNL A   1      40.889  30.505  34.630  1.00  0.00     0.049 A 
ATOM     36  H   UNL A   1      41.226  29.660  32.729  1.00  0.00     0.167 HD
ATOM     37  C   UNL A   1      38.971  31.336  33.272  1.00  0.00     0.074 A 
ATOM     38  C   UNL A   1      37.743  32.093  33.119  1.00  0.00     0.031 C 
ATOM     39  C   UNL A   1      39.660  31.234  34.436  1.00  0.00     0.037 A 
BRANCH  26  40
ATOM     40  C   UNL A   1      44.735  27.685  34.125  1.00  0.00     0.057 A 
ATOM     41  C   UNL A   1      45.966  28.352  34.099  1.00  0.00     0.134 A 
ATOM     42  C   UNL A   1      44.662  26.488  34.849  1.00  0.00     0.134 A 
ATOM     43  F   UNL A   1      46.098  29.513  33.441  1.00  0.00    -0.206 F 
ATOM     44  C   UNL A   1      47.080  27.852  34.773  1.00  0.00     0.040 A 
ATOM     45  C   UNL A   1      45.765  25.987  35.544  1.00  0.00     0.040 A 
ATOM     46  F   UNL A   1      43.501  25.821  34.945  1.00  0.00    -0.206 F 
ATOM     47  C   UNL A   1      46.980  26.670  35.505  1.00  0.00     0.006 A 
ENDBRANCH  26  40
BRANCH  27  48
ATOM     48  C   UNL A   1      36.910  31.422  29.028  1.00  0.00     0.057 A 
ATOM     49  C   UNL A   1      35.791  30.625  28.750  1.00  0.00     0.134 A 
ATOM     50  C   UNL A   1      36.865  32.757  28.613  1.00  0.00     0.134 A 
ATOM     51  F   UNL A   1      35.766  29.337  29.124  1.00  0.00    -0.206 F 
ATOM     52  C   UNL A   1      34.675  31.132  28.083  1.00  0.00     0.040 A 
ATOM     53  C   UNL A   1      35.744  33.284  27.967  1.00  0.00     0.040 A 
ATOM     54  F   UNL A   1      37.893  33.579  28.870  1.00  0.00    -0.206 F 
ATOM     55  C   UNL A   1      34.646  32.469  27.698  1.00  0.00     0.006 A 
ENDBRANCH  27  48
BRANCH  39  56
ATOM     56  C   UNL A   1      39.105  31.973  35.616  1.00  0.00     0.057 A 
ATOM     57  C   UNL A   1      39.451  33.311  35.842  1.00  0.00     0.134 A 
ATOM     58  C   UNL A   1      38.260  31.354  36.544  1.00  0.00     0.134 A 
ATOM     59  F   UNL A   1      40.267  33.957  34.996  1.00  0.00    -0.206 F 
ATOM     60  C   UNL A   1      38.976  34.007  36.953  1.00  0.00     0.040 A 
ATOM     61  C   UNL A   1      37.754  32.049  37.643  1.00  0.00     0.040 A 
ATOM     62  F   UNL A   1      37.882  30.077  36.375  1.00  0.00    -0.206 F 
ATOM     63  C   UNL A   1      38.118  33.378  37.853  1.00  0.00     0.006 A 
ENDBRANCH  39  56
ENDBRANCH  13  14
ENDBRANCH   6   8
ENDBRANCH   5   6
ENDBRANCH   4   5
ENDBRANCH   3   4
ENDBRANCH   2   3
ENDBRANCH   1   2
BRANCH   1  64
ATOM     64  C   UNL A   1      42.703  20.045  26.507  1.00  0.00     0.261 C 
BRANCH  64  65
ATOM     65  O   UNL A   1      41.655  20.699  25.777  1.00  0.00    -0.460 OA
BRANCH  65  66
ATOM     66  C   UNL A   1      40.469  20.035  25.745  1.00  0.00     0.338 C 
ATOM     67  O   UNL A   1      40.268  18.850  25.888  1.00  0.00    -0.246 OA
BRANCH  66  68
ATOM     68  C   UNL A   1      39.405  21.059  25.744  1.00  0.00     0.062 A 
ATOM     69  C   UNL A   1      39.526  22.219  26.500  1.00  0.00     0.038 A 
ATOM     70  C   UNL A   1      38.227  20.786  25.040  1.00  0.00     0.022 A 
ATOM     71  C   UNL A   1      38.463  23.114  26.524  1.00  0.00     0.065 A 
ATOM     72  C   UNL A   1      37.124  21.644  25.135  1.00  0.00    -0.015 A 
ATOM     73  Cl  UNL A   1      38.650  24.573  27.438  1.00  0.00    -0.082 Cl
ATOM     74  C   UNL A   1      37.252  22.842  25.849  1.00  0.00     0.057 A 
ATOM     75  C   UNL A   1      35.831  21.269  24.463  1.00  0.00     0.049 C 
ATOM     76  N   UNL A   1      36.242  23.781  25.819  1.00  0.00    -0.376 N 
ATOM     77  C   UNL A   1      34.910  20.379  25.265  1.00  0.00    -0.023 C 
ATOM     78  C   UNL A   1      34.909  22.462  24.161  1.00  0.00     0.031 C 
ATOM     79  C   UNL A   1      34.918  23.491  25.314  1.00  0.00     0.114 C 
ATOM     80  H   UNL A   1      36.431  24.687  26.154  1.00  0.00     0.161 HD
ATOM     81  C   UNL A   1      33.627  20.664  25.003  1.00  0.00    -0.030 C 
ATOM     82  C   UNL A   1      33.521  21.797  24.029  1.00  0.00     0.034 C 
BRANCH  79  83
ATOM     83  C   UNL A   1      34.299  24.806  24.877  1.00  0.00    -0.025 A 
ATOM     84  C   UNL A   1      33.939  25.808  25.801  1.00  0.00     0.007 A 
ATOM     85  C   UNL A   1      34.076  25.026  23.518  1.00  0.00     0.007 A 
ATOM     86  C   UNL A   1      33.422  27.030  25.364  1.00  0.00     0.022 A 
ATOM     87  C   UNL A   1      33.520  26.224  23.091  1.00  0.00     0.022 A 
ATOM     88  C   UNL A   1      33.238  27.242  23.998  1.00  0.00     0.082 A 
BRANCH  88  89
ATOM     89  S   UNL A   1      32.722  28.838  23.406  1.00  0.00     0.243 S 
ATOM     90  O   UNL A   1      32.556  29.678  24.570  1.00  0.00    -0.207 OA
ATOM     91  O   UNL A   1      33.628  29.190  22.332  1.00  0.00    -0.207 OA
BRANCH  89  92
ATOM     92  N   UNL A   1      31.217  28.567  22.711  1.00  0.00    -0.193 NA
ATOM     93  C   UNL A   1      30.359  29.659  22.204  1.00  0.00     0.131 C 
ATOM     94  C   UNL A   1      30.562  27.248  22.778  1.00  0.00     0.131 C 
ATOM     95  C   UNL A   1      28.939  29.620  22.798  1.00  0.00     0.177 C 
ATOM     96  C   UNL A   1      29.220  27.369  23.502  1.00  0.00     0.177 C 
ATOM     97  O   UNL A   1      28.367  28.307  22.833  1.00  0.00    -0.379 OA
ENDBRANCH  89  92
ENDBRANCH  88  89
ENDBRANCH  79  83
ENDBRANCH  66  68
ENDBRANCH  65  66
ENDBRANCH  64  65
ENDBRANCH   1  64
TORSDOF 17
ENDMDL
MODEL 2
REMARK VINA RESULT:     -11.8      6.967      9.891
REMARK SMILES O=C(OCCOCCOC(=O)c1cc(Cl)c2c(c1)[C@H]1C=CC[C@H]1[C@H](c1ccc(S(=O)(=O)N3CCOCC3)cc1)N2)c1ccc(-c2c3nc(c(-c4c(F)cccc4F)c4ccc([nH]4)c(-c4c(F)cccc4F)c4nc(c(-c5c(F)cccc5F)c5ccc2[nH]5)C=C4)C=C3)cc1
REMARK SMILES IDX 7 1 6 2 5 3 4 4 3 5 2 6 1 7 41 8 42 9 94 10 43 11 93 12
REMARK SMILES IDX 44 13 45 14 46 15 87 16 47 17 92 18 86 19 88 20 48 21 91 22
REMARK SMILES IDX 85 23 84 24 49 26 75 27 58 28 74 29 59 30 62 31 73 32 89 33
REMARK SMILES IDX 60 34 61 35 72 37 90 38 63 39 50 40 51 41 56 42 52 43 53 44
REMARK SMILES IDX 55 45 57 46 54 47 76 48 77 49 82 50 78 51 79 52 81 53 83 54
REMARK SMILES IDX 80 55 64 56 65 57 70 58 66 59 67 60 69 61 71 62 68 63 8 64
REMARK SMILES IDX 9 65 10 66 11 67 12 68 13 69 18 70 14 71 17 72 15 73 16 74
REMARK SMILES IDX 19 75 40 76 20 77 23 78 24 79 21 81 22 82 25 83 26 84 39 85
REMARK SMILES IDX 27 86 38 87 28 88 29 89 30 90 31 91 32 92 33 93 37 94 34 95
REMARK SMILES IDX 36 96 35 97
REMARK H PARENT 88 25 62 36 40 80
REMARK Flexibility Score: inf
ROOT
ATOM      1  C   UNL A   1      44.035  18.961  25.588  1.00  0.00     0.202 C 
ENDROOT
BRANCH   1   2
ATOM      2  O   UNL A   1      44.118  19.950  24.560  1.00  0.00    -0.374 OA
BRANCH   2   3
ATOM      3  C   UNL A   1      45.436  20.298  24.147  1.00  0.00     0.202 C 
BRANCH   3   4
ATOM      4  C   UNL A   1      45.872  21.718  24.510  1.00  0.00     0.261 C 
BRANCH   4   5
ATOM      5  O   UNL A   1      45.986  21.898  25.925  1.00  0.00    -0.460 OA
BRANCH   5   6
ATOM      6  C   UNL A   1      45.542  22.919  26.694  1.00  0.00     0.338 C 
ATOM      7  O   UNL A   1      44.638  22.676  27.493  1.00  0.00    -0.246 OA
BRANCH   6   8
ATOM      8  C   UNL A   1      46.013  24.343  26.592  1.00  0.00     0.060 A 
ATOM      9  C   UNL A   1      46.299  25.042  25.418  1.00  0.00     0.016 A 
ATOM     10  C   UNL A   1      46.141  25.047  27.807  1.00  0.00     0.016 A 
ATOM     11  C   UNL A   1      46.621  26.390  25.427  1.00  0.00     0.010 A 
ATOM     12  C   UNL A   1      46.544  26.386  27.838  1.00  0.00     0.010 A 
ATOM     13  C   UNL A   1      46.794  27.050  26.638  1.00  0.00    -0.014 A 
BRANCH  13  14
ATOM     14  C   UNL A   1      47.478  28.347  26.576  1.00  0.00     0.031 A 
ATOM     15  C   UNL A   1      48.955  28.324  26.319  1.00  0.00     0.074 A 
ATOM     16  C   UNL A   1      46.773  29.488  26.574  1.00  0.00     0.049 A 
ATOM     17  N   UNL A   1      49.771  29.311  26.072  1.00  0.00    -0.248 NA
ATOM     18  C   UNL A   1      49.588  26.991  26.281  1.00  0.00     0.031 C 
ATOM     19  C   UNL A   1      45.317  29.586  26.681  1.00  0.00     0.029 A 
ATOM     20  N   UNL A   1      47.194  30.784  26.456  1.00  0.00    -0.354 N 
ATOM     21  C   UNL A   1      50.997  28.718  25.807  1.00  0.00     0.074 A 
ATOM     22  C   UNL A   1      50.828  27.289  25.932  1.00  0.00     0.031 C 
ATOM     23  C   UNL A   1      44.968  30.884  26.650  1.00  0.00     0.029 A 
ATOM     24  C   UNL A   1      46.176  31.698  26.549  1.00  0.00     0.049 A 
ATOM     25  H   UNL A   1      48.136  31.035  26.318  1.00  0.00     0.167 HD
ATOM     26  C   UNL A   1      52.168  29.321  25.502  1.00  0.00     0.037 A 
ATOM     27  C   UNL A   1      46.240  33.041  26.582  1.00  0.00     0.037 A 
ATOM     28  C   UNL A   1      52.334  30.746  25.493  1.00  0.00     0.049 A 
ATOM     29  C   UNL A   1      47.593  33.689  26.446  1.00  0.00     0.074 A 
ATOM     30  C   UNL A   1      53.486  31.484  25.304  1.00  0.00     0.029 A 
ATOM     31  N   UNL A   1      51.306  31.650  25.728  1.00  0.00    -0.354 N 
ATOM     32  N   UNL A   1      48.760  33.133  26.212  1.00  0.00    -0.248 NA
ATOM     33  C   UNL A   1      47.643  35.149  26.587  1.00  0.00     0.031 C 
ATOM     34  C   UNL A   1      53.165  32.834  25.490  1.00  0.00     0.029 A 
ATOM     35  C   UNL A   1      51.803  32.940  25.732  1.00  0.00     0.049 A 
ATOM     36  H   UNL A   1      50.363  31.408  25.869  1.00  0.00     0.167 HD
ATOM     37  C   UNL A   1      49.678  34.172  26.159  1.00  0.00     0.074 A 
ATOM     38  C   UNL A   1      48.926  35.395  26.368  1.00  0.00     0.031 C 
ATOM     39  C   UNL A   1      51.019  34.129  25.957  1.00  0.00     0.037 A 
BRANCH  26  40
ATOM     40  C   UNL A   1      53.344  28.423  25.269  1.00  0.00     0.057 A 
ATOM     41  C   UNL A   1      53.699  28.047  23.968  1.00  0.00     0.134 A 
ATOM     42  C   UNL A   1      54.166  27.988  26.317  1.00  0.00     0.134 A 
ATOM     43  F   UNL A   1      52.965  28.446  22.919  1.00  0.00    -0.206 F 
ATOM     44  C   UNL A   1      54.833  27.274  23.717  1.00  0.00     0.040 A 
ATOM     45  C   UNL A   1      55.314  27.231  26.076  1.00  0.00     0.040 A 
ATOM     46  F   UNL A   1      53.903  28.347  27.583  1.00  0.00    -0.206 F 
ATOM     47  C   UNL A   1      55.649  26.870  24.772  1.00  0.00     0.006 A 
ENDBRANCH  26  40
BRANCH  27  48
ATOM     48  C   UNL A   1      45.017  33.848  26.818  1.00  0.00     0.057 A 
ATOM     49  C   UNL A   1      44.248  34.320  25.746  1.00  0.00     0.134 A 
ATOM     50  C   UNL A   1      44.561  34.136  28.109  1.00  0.00     0.134 A 
ATOM     51  F   UNL A   1      44.624  34.076  24.481  1.00  0.00    -0.206 F 
ATOM     52  C   UNL A   1      43.075  35.050  25.947  1.00  0.00     0.040 A 
ATOM     53  C   UNL A   1      43.376  34.845  28.325  1.00  0.00     0.040 A 
ATOM     54  F   UNL A   1      45.238  33.693  29.179  1.00  0.00    -0.206 F 
ATOM     55  C   UNL A   1      42.632  35.306  27.241  1.00  0.00     0.006 A 
ENDBRANCH  27  48
BRANCH  39  56
ATOM     56  C   UNL A   1      51.740  35.443  25.936  1.00  0.00     0.057 A 
ATOM     57  C   UNL A   1      51.956  36.115  24.726  1.00  0.00     0.134 A 
ATOM     58  C   UNL A   1      52.248  36.025  27.103  1.00  0.00     0.134 A 
ATOM     59  F   UNL A   1      51.503  35.604  23.571  1.00  0.00    -0.206 F 
ATOM     60  C   UNL A   1      52.656  37.319  24.678  1.00  0.00     0.040 A 
ATOM     61  C   UNL A   1      52.924  37.245  27.071  1.00  0.00     0.040 A 
ATOM     62  F   UNL A   1      52.062  35.435  28.294  1.00  0.00    -0.206 F 
ATOM     63  C   UNL A   1      53.136  37.892  25.855  1.00  0.00     0.006 A 
ENDBRANCH  39  56
ENDBRANCH  13  14
ENDBRANCH   6   8
ENDBRANCH   5   6
ENDBRANCH   4   5
ENDBRANCH   3   4
ENDBRANCH   2   3
ENDBRANCH   1   2
BRANCH   1  64
ATOM     64  C   UNL A   1      42.587  18.726  26.024  1.00  0.00     0.261 C 
BRANCH  64  65
ATOM     65  O   UNL A   1      41.964  19.974  26.361  1.00  0.00    -0.460 OA
BRANCH  65  66
ATOM     66  C   UNL A   1      40.676  20.108  25.945  1.00  0.00     0.338 C 
ATOM     67  O   UNL A   1      39.924  19.251  25.539  1.00  0.00    -0.246 OA
BRANCH  66  68
ATOM     68  C   UNL A   1      40.251  21.476  26.306  1.00  0.00     0.062 A 
ATOM     69  C   UNL A   1      38.922  21.869  26.186  1.00  0.00     0.038 A 
ATOM     70  C   UNL A   1      41.235  22.398  26.676  1.00  0.00     0.022 A 
ATOM     71  C   UNL A   1      38.589  23.189  26.464  1.00  0.00     0.065 A 
ATOM     72  C   UNL A   1      40.914  23.747  26.871  1.00  0.00    -0.015 A 
ATOM     73  Cl  UNL A   1      36.922  23.646  26.350  1.00  0.00    -0.082 Cl
ATOM     74  C   UNL A   1      39.572  24.144  26.806  1.00  0.00     0.057 A 
ATOM     75  C   UNL A   1      42.009  24.739  27.155  1.00  0.00     0.049 C 
ATOM     76  N   UNL A   1      39.208  25.427  27.159  1.00  0.00    -0.376 N 
ATOM     77  C   UNL A   1      42.695  25.321  25.942  1.00  0.00    -0.023 C 
ATOM     78  C   UNL A   1      41.534  26.013  27.874  1.00  0.00     0.031 C 
ATOM     79  C   UNL A   1      40.169  26.494  27.331  1.00  0.00     0.114 C 
ATOM     80  H   UNL A   1      38.254  25.624  27.300  1.00  0.00     0.161 HD
ATOM     81  C   UNL A   1      43.067  26.589  26.168  1.00  0.00    -0.030 C 
ATOM     82  C   UNL A   1      42.647  27.029  27.538  1.00  0.00     0.034 C 
BRANCH  79  83
ATOM     83  C   UNL A   1      39.546  27.523  28.257  1.00  0.00    -0.025 A 
ATOM     84  C   UNL A   1      39.432  28.881  27.897  1.00  0.00     0.007 A 
ATOM     85  C   UNL A   1      39.077  27.111  29.504  1.00  0.00     0.007 A 
ATOM     86  C   UNL A   1      38.805  29.794  28.747  1.00  0.00     0.022 A 
ATOM     87  C   UNL A   1      38.495  28.030  30.364  1.00  0.00     0.022 A 
ATOM     88  C   UNL A   1      38.313  29.354  29.976  1.00  0.00     0.082 A 
BRANCH  88  89
ATOM     89  S   UNL A   1      37.381  30.461  31.010  1.00  0.00     0.243 S 
ATOM     90  O   UNL A   1      36.715  29.642  31.998  1.00  0.00    -0.207 OA
ATOM     91  O   UNL A   1      38.282  31.529  31.386  1.00  0.00    -0.207 OA
BRANCH  89  92
ATOM     92  N   UNL A   1      36.226  31.127  29.988  1.00  0.00    -0.193 NA
ATOM     93  C   UNL A   1      35.502  30.334  28.972  1.00  0.00     0.131 C 
ATOM     94  C   UNL A   1      36.036  32.585  29.885  1.00  0.00     0.131 C 
ATOM     95  C   UNL A   1      35.599  30.947  27.563  1.00  0.00     0.177 C 
ATOM     96  C   UNL A   1      36.288  33.042  28.447  1.00  0.00     0.177 C 
ATOM     97  O   UNL A   1      35.406  32.367  27.540  1.00  0.00    -0.379 OA
ENDBRANCH  89  92
ENDBRANCH  88  89
ENDBRANCH  79  83
ENDBRANCH  66  68
ENDBRANCH  65  66
ENDBRANCH  64  65
ENDBRANCH   1  64
TORSDOF 17
ENDMDL
MODEL 3
REMARK VINA RESULT:     -11.8      4.539     10.631
REMARK SMILES O=C(OCCOCCOC(=O)c1cc(Cl)c2c(c1)[C@H]1C=CC[C@H]1[C@H](c1ccc(S(=O)(=O)N3CCOCC3)cc1)N2)c1ccc(-c2c3nc(c(-c4c(F)cccc4F)c4ccc([nH]4)c(-c4c(F)cccc4F)c4nc(c(-c5c(F)cccc5F)c5ccc2[nH]5)C=C4)C=C3)cc1
REMARK SMILES IDX 7 1 6 2 5 3 4 4 3 5 2 6 1 7 41 8 42 9 94 10 43 11 93 12
REMARK SMILES IDX 44 13 45 14 46 15 87 16 47 17 92 18 86 19 88 20 48 21 91 22
REMARK SMILES IDX 85 23 84 24 49 26 75 27 58 28 74 29 59 30 62 31 73 32 89 33
REMARK SMILES IDX 60 34 61 35 72 37 90 38 63 39 50 40 51 41 56 42 52 43 53 44
REMARK SMILES IDX 55 45 57 46 54 47 76 48 77 49 82 50 78 51 79 52 81 53 83 54
REMARK SMILES IDX 80 55 64 56 65 57 70 58 66 59 67 60 69 61 71 62 68 63 8 64
REMARK SMILES IDX 9 65 10 66 11 67 12 68 13 69 18 70 14 71 17 72 15 73 16 74
REMARK SMILES IDX 19 75 40 76 20 77 23 78 24 79 21 81 22 82 25 83 26 84 39 85
REMARK SMILES IDX 27 86 38 87 28 88 29 89 30 90 31 91 32 92 33 93 37 94 34 95
REMARK SMILES IDX 36 96 35 97
REMARK H PARENT 88 25 62 36 40 80
REMARK Flexibility Score: inf
ROOT
ATOM      1  C   UNL A   1      34.763  34.265  30.137  1.00  0.00     0.202 C 
ENDROOT
BRANCH   1   2
ATOM      2  O   UNL A   1      34.196  34.088  31.436  1.00  0.00    -0.374 OA
BRANCH   2   3
ATOM      3  C   UNL A   1      34.472  32.838  32.061  1.00  0.00     0.202 C 
BRANCH   3   4
ATOM      4  C   UNL A   1      35.957  32.528  32.255  1.00  0.00     0.261 C 
BRANCH   4   5
ATOM      5  O   UNL A   1      36.297  31.222  31.778  1.00  0.00    -0.460 OA
BRANCH   5   6
ATOM      6  C   UNL A   1      36.691  30.841  30.541  1.00  0.00     0.338 C 
ATOM      7  O   UNL A   1      35.867  30.929  29.632  1.00  0.00    -0.246 OA
BRANCH   6   8
ATOM      8  C   UNL A   1      38.031  30.247  30.207  1.00  0.00     0.060 A 
ATOM      9  C   UNL A   1      39.028  29.883  31.114  1.00  0.00     0.016 A 
ATOM     10  C   UNL A   1      38.282  30.002  28.841  1.00  0.00     0.016 A 
ATOM     11  C   UNL A   1      40.187  29.239  30.709  1.00  0.00     0.010 A 
ATOM     12  C   UNL A   1      39.483  29.426  28.411  1.00  0.00     0.010 A 
ATOM     13  C   UNL A   1      40.439  29.056  29.355  1.00  0.00    -0.014 A 
BRANCH  13  14
ATOM     14  C   UNL A   1      41.818  28.708  28.995  1.00  0.00     0.031 A 
ATOM     15  C   UNL A   1      42.078  27.286  28.598  1.00  0.00     0.074 A 
ATOM     16  C   UNL A   1      42.748  29.665  28.862  1.00  0.00     0.049 A 
ATOM     17  N   UNL A   1      43.155  26.747  28.098  1.00  0.00    -0.248 NA
ATOM     18  C   UNL A   1      40.941  26.355  28.732  1.00  0.00     0.031 C 
ATOM     19  C   UNL A   1      42.535  31.094  29.098  1.00  0.00     0.029 A 
ATOM     20  N   UNL A   1      44.056  29.575  28.475  1.00  0.00    -0.354 N 
ATOM     21  C   UNL A   1      42.813  25.431  27.818  1.00  0.00     0.074 A 
ATOM     22  C   UNL A   1      41.435  25.245  28.211  1.00  0.00     0.031 C 
ATOM     23  C   UNL A   1      43.690  31.746  28.873  1.00  0.00     0.029 A 
ATOM     24  C   UNL A   1      44.718  30.776  28.508  1.00  0.00     0.049 A 
ATOM     25  H   UNL A   1      44.481  28.731  28.200  1.00  0.00     0.167 HD
ATOM     26  C   UNL A   1      43.591  24.459  27.295  1.00  0.00     0.037 A 
ATOM     27  C   UNL A   1      46.021  31.034  28.296  1.00  0.00     0.037 A 
ATOM     28  C   UNL A   1      44.988  24.640  27.017  1.00  0.00     0.049 A 
ATOM     29  C   UNL A   1      46.917  29.887  27.910  1.00  0.00     0.074 A 
ATOM     30  C   UNL A   1      45.914  23.712  26.584  1.00  0.00     0.029 A 
ATOM     31  N   UNL A   1      45.665  25.840  27.191  1.00  0.00    -0.354 N 
ATOM     32  N   UNL A   1      46.603  28.636  27.662  1.00  0.00    -0.248 NA
ATOM     33  C   UNL A   1      48.349  30.181  27.786  1.00  0.00     0.031 C 
ATOM     34  C   UNL A   1      47.167  24.336  26.559  1.00  0.00     0.029 A 
ATOM     35  C   UNL A   1      47.009  25.668  26.916  1.00  0.00     0.049 A 
ATOM     36  H   UNL A   1      45.250  26.688  27.468  1.00  0.00     0.167 HD
ATOM     37  C   UNL A   1      47.791  27.998  27.332  1.00  0.00     0.074 A 
ATOM     38  C   UNL A   1      48.830  29.009  27.397  1.00  0.00     0.031 C 
ATOM     39  C   UNL A   1      48.012  26.700  27.005  1.00  0.00     0.037 A 
BRANCH  26  40
ATOM     40  C   UNL A   1      42.953  23.117  27.106  1.00  0.00     0.057 A 
ATOM     41  C   UNL A   1      42.699  22.294  28.209  1.00  0.00     0.134 A 
ATOM     42  C   UNL A   1      42.524  22.669  25.850  1.00  0.00     0.134 A 
ATOM     43  F   UNL A   1      43.067  22.674  29.442  1.00  0.00    -0.206 F 
ATOM     44  C   UNL A   1      42.038  21.073  28.070  1.00  0.00     0.040 A 
ATOM     45  C   UNL A   1      41.843  21.458  25.701  1.00  0.00     0.040 A 
ATOM     46  F   UNL A   1      42.701  23.429  24.758  1.00  0.00    -0.206 F 
ATOM     47  C   UNL A   1      41.601  20.655  26.815  1.00  0.00     0.006 A 
ENDBRANCH  26  40
BRANCH  27  48
ATOM     48  C   UNL A   1      46.563  32.400  28.508  1.00  0.00     0.057 A 
ATOM     49  C   UNL A   1      47.036  32.800  29.765  1.00  0.00     0.134 A 
ATOM     50  C   UNL A   1      46.660  33.325  27.463  1.00  0.00     0.134 A 
ATOM     51  F   UNL A   1      46.977  31.961  30.811  1.00  0.00    -0.206 F 
ATOM     52  C   UNL A   1      47.581  34.067  29.977  1.00  0.00     0.040 A 
ATOM     53  C   UNL A   1      47.226  34.588  27.655  1.00  0.00     0.040 A 
ATOM     54  F   UNL A   1      46.247  32.997  26.230  1.00  0.00    -0.206 F 
ATOM     55  C   UNL A   1      47.686  34.962  28.916  1.00  0.00     0.006 A 
ENDBRANCH  27  48
BRANCH  39  56
ATOM     56  C   UNL A   1      49.424  26.318  26.679  1.00  0.00     0.057 A 
ATOM     57  C   UNL A   1      50.294  25.888  27.688  1.00  0.00     0.134 A 
ATOM     58  C   UNL A   1      49.932  26.410  25.378  1.00  0.00     0.134 A 
ATOM     59  F   UNL A   1      49.871  25.790  28.958  1.00  0.00    -0.206 F 
ATOM     60  C   UNL A   1      51.621  25.563  27.415  1.00  0.00     0.040 A 
ATOM     61  C   UNL A   1      51.250  26.058  25.087  1.00  0.00     0.040 A 
ATOM     62  F   UNL A   1      49.144  26.804  24.366  1.00  0.00    -0.206 F 
ATOM     63  C   UNL A   1      52.101  25.640  26.109  1.00  0.00     0.006 A 
ENDBRANCH  39  56
ENDBRANCH  13  14
ENDBRANCH   6   8
ENDBRANCH   5   6
ENDBRANCH   4   5
ENDBRANCH   3   4
ENDBRANCH   2   3
ENDBRANCH   1   2
BRANCH   1  64
ATOM     64  C   UNL A   1      33.686  34.251  29.049  1.00  0.00     0.261 C 
BRANCH  64  65
ATOM     65  O   UNL A   1      33.583  32.941  28.472  1.00  0.00    -0.460 OA
BRANCH  65  66
ATOM     66  C   UNL A   1      32.542  32.766  27.615  1.00  0.00     0.338 C 
ATOM     67  O   UNL A   1      31.737  33.586  27.234  1.00  0.00    -0.246 OA
BRANCH  66  68
ATOM     68  C   UNL A   1      32.699  31.425  27.019  1.00  0.00     0.062 A 
ATOM     69  C   UNL A   1      33.889  30.717  27.149  1.00  0.00     0.038 A 
ATOM     70  C   UNL A   1      31.655  30.924  26.232  1.00  0.00     0.022 A 
ATOM     71  C   UNL A   1      34.012  29.492  26.504  1.00  0.00     0.065 A 
ATOM     72  C   UNL A   1      31.811  29.734  25.512  1.00  0.00    -0.015 A 
ATOM     73  Cl  UNL A   1      35.485  28.608  26.714  1.00  0.00    -0.082 Cl
ATOM     74  C   UNL A   1      32.983  28.986  25.678  1.00  0.00     0.057 A 
ATOM     75  C   UNL A   1      30.719  29.278  24.584  1.00  0.00     0.049 C 
ATOM     76  N   UNL A   1      33.094  27.731  25.115  1.00  0.00    -0.376 N 
ATOM     77  C   UNL A   1      30.762  29.854  23.188  1.00  0.00    -0.023 C 
ATOM     78  C   UNL A   1      30.731  27.769  24.288  1.00  0.00     0.031 C 
ATOM     79  C   UNL A   1      32.173  27.239  24.114  1.00  0.00     0.114 C 
ATOM     80  H   UNL A   1      33.830  27.146  25.406  1.00  0.00     0.161 HD
ATOM     81  C   UNL A   1      30.312  28.964  22.291  1.00  0.00    -0.030 C 
ATOM     82  C   UNL A   1      29.947  27.674  22.961  1.00  0.00     0.034 C 
BRANCH  79  83
ATOM     83  C   UNL A   1      32.206  25.722  24.171  1.00  0.00    -0.025 A 
ATOM     84  C   UNL A   1      32.951  24.955  23.253  1.00  0.00     0.007 A 
ATOM     85  C   UNL A   1      31.472  25.069  25.161  1.00  0.00     0.007 A 
ATOM     86  C   UNL A   1      33.006  23.564  23.364  1.00  0.00     0.022 A 
ATOM     87  C   UNL A   1      31.494  23.684  25.241  1.00  0.00     0.022 A 
ATOM     88  C   UNL A   1      32.292  22.933  24.382  1.00  0.00     0.082 A 
BRANCH  88  89
ATOM     89  S   UNL A   1      32.462  21.181  24.638  1.00  0.00     0.243 S 
ATOM     90  O   UNL A   1      31.385  20.784  25.515  1.00  0.00    -0.207 OA
ATOM     91  O   UNL A   1      32.638  20.590  23.327  1.00  0.00    -0.207 OA
BRANCH  89  92
ATOM     92  N   UNL A   1      33.920  21.011  25.455  1.00  0.00    -0.193 NA
ATOM     93  C   UNL A   1      34.290  21.846  26.617  1.00  0.00     0.131 C 
ATOM     94  C   UNL A   1      35.013  20.180  24.918  1.00  0.00     0.131 C 
ATOM     95  C   UNL A   1      35.658  22.530  26.443  1.00  0.00     0.177 C 
ATOM     96  C   UNL A   1      36.258  21.039  24.693  1.00  0.00     0.177 C 
ATOM     97  O   UNL A   1      36.671  21.663  25.916  1.00  0.00    -0.379 OA
ENDBRANCH  89  92
ENDBRANCH  88  89
ENDBRANCH  79  83
ENDBRANCH  66  68
ENDBRANCH  65  66
ENDBRANCH  64  65
ENDBRANCH   1  64
TORSDOF 17
ENDMDL
