MODEL 1
REMARK VINA RESULT:     -10.9      0.000      0.000
REMARK SMILES CC1(C)C(=O)N([C@H]2COC[C@@H]2C(=O)OCCOCCOC(=O)c2ccc(-c3c4nc(c(-c5c(F)cccc5F)c5ccc([nH]5)c(-c5c(F)cccc5F)c5nc(c(-c6c(F)cccc6F)c6ccc3[nH]6)C=C5)C=C4)cc2)S1(=O)=O
REMARK SMILES IDX 18 1 17 2 16 3 15 4 14 5 12 6 13 7 11 8 7 9 8 10 9 11 10 12
REMARK SMILES IDX 6 13 1 14 2 15 3 16 4 17 77 18 5 19 78 20 79 21 19 22 20 23
REMARK SMILES IDX 21 24 22 25 23 26 24 27 76 28 25 29 75 30 26 31 27 32 28 33
REMARK SMILES IDX 69 34 29 35 74 36 68 37 70 38 30 39 73 40 67 41 66 42 31 44
REMARK SMILES IDX 57 45 40 46 56 47 41 48 44 49 55 50 71 51 42 52 43 53 54 55
REMARK SMILES IDX 72 56 45 57 32 58 33 59 38 60 34 61 35 62 37 63 39 64 36 65
REMARK SMILES IDX 58 66 59 67 64 68 60 69 61 70 63 71 65 72 62 73 46 74 47 75
REMARK SMILES IDX 52 76 48 77 49 78 51 79 53 80 50 81
REMARK H PARENT 70 43 44 54
REMARK Flexibility Score: inf
ROOT
ATOM      1  C   UNL A   1      41.788  20.990  26.508  1.00  0.00     0.202 C 
ENDROOT
BRANCH   1   2
ATOM      2  O   UNL A   1      40.528  20.871  25.854  1.00  0.00    -0.374 OA
BRANCH   2   3
ATOM      3  C   UNL A   1      39.501  21.813  26.146  1.00  0.00     0.202 C 
BRANCH   3   4
ATOM      4  C   UNL A   1      38.119  21.593  25.526  1.00  0.00     0.261 C 
BRANCH   4   5
ATOM      5  O   UNL A   1      37.638  22.775  24.869  1.00  0.00    -0.463 OA
BRANCH   5   6
ATOM      6  C   UNL A   1      36.458  23.259  25.346  1.00  0.00     0.313 C 
ATOM      7  O   UNL A   1      36.076  23.167  26.503  1.00  0.00    -0.252 OA
BRANCH   6   8
ATOM      8  C   UNL A   1      35.728  24.013  24.257  1.00  0.00     0.151 C 
ATOM      9  C   UNL A   1      34.447  24.601  24.820  1.00  0.00     0.145 C 
ATOM     10  C   UNL A   1      33.458  23.457  24.637  1.00  0.00     0.187 C 
ATOM     11  O   UNL A   1      33.906  22.674  23.520  1.00  0.00    -0.378 OA
ATOM     12  C   UNL A   1      35.268  23.010  23.224  1.00  0.00     0.177 C 
BRANCH   9  13
ATOM     13  N   UNL A   1      34.018  25.852  24.172  1.00  0.00    -0.231 N 
ATOM     14  C   UNL A   1      31.598  28.308  23.762  1.00  0.00     0.041 C 
ATOM     15  C   UNL A   1      32.977  27.692  23.533  1.00  0.00     0.165 C 
ATOM     16  C   UNL A   1      33.912  28.682  22.842  1.00  0.00     0.041 C 
ATOM     17  C   UNL A   1      33.594  27.039  24.794  1.00  0.00     0.259 C 
ATOM     18  S   UNL A   1      32.970  26.039  22.906  1.00  0.00     0.252 S 
ATOM     19  O   UNL A   1      33.800  27.364  25.944  1.00  0.00    -0.272 OA
ATOM     20  O   UNL A   1      31.734  25.351  23.180  1.00  0.00    -0.205 OA
ATOM     21  O   UNL A   1      33.711  25.883  21.678  1.00  0.00    -0.205 OA
ENDBRANCH   9  13
ENDBRANCH   6   8
ENDBRANCH   5   6
ENDBRANCH   4   5
ENDBRANCH   3   4
ENDBRANCH   2   3
ENDBRANCH   1   2
BRANCH   1  22
ATOM     22  C   UNL A   1      42.978  21.577  25.737  1.00  0.00     0.261 C 
BRANCH  22  23
ATOM     23  O   UNL A   1      42.649  22.745  24.968  1.00  0.00    -0.460 OA
BRANCH  23  24
ATOM     24  C   UNL A   1      43.498  23.787  25.149  1.00  0.00     0.338 C 
ATOM     25  O   UNL A   1      44.565  23.982  24.591  1.00  0.00    -0.246 OA
BRANCH  24  26
ATOM     26  C   UNL A   1      42.870  24.801  26.014  1.00  0.00     0.060 A 
ATOM     27  C   UNL A   1      43.564  26.000  26.220  1.00  0.00     0.016 A 
ATOM     28  C   UNL A   1      41.677  24.541  26.688  1.00  0.00     0.016 A 
ATOM     29  C   UNL A   1      43.086  26.931  27.138  1.00  0.00     0.010 A 
ATOM     30  C   UNL A   1      41.205  25.474  27.616  1.00  0.00     0.010 A 
ATOM     31  C   UNL A   1      41.925  26.656  27.870  1.00  0.00    -0.014 A 
BRANCH  31  32
ATOM     32  C   UNL A   1      41.542  27.542  28.995  1.00  0.00     0.031 A 
ATOM     33  C   UNL A   1      42.313  27.466  30.284  1.00  0.00     0.074 A 
ATOM     34  C   UNL A   1      40.535  28.422  28.860  1.00  0.00     0.049 A 
ATOM     35  N   UNL A   1      42.119  28.110  31.406  1.00  0.00    -0.248 NA
ATOM     36  C   UNL A   1      43.454  26.537  30.312  1.00  0.00     0.031 C 
ATOM     37  C   UNL A   1      39.743  28.618  27.647  1.00  0.00     0.029 A 
ATOM     38  N   UNL A   1      40.004  29.312  29.758  1.00  0.00    -0.354 N 
ATOM     39  C   UNL A   1      43.104  27.657  32.276  1.00  0.00     0.074 A 
ATOM     40  C   UNL A   1      43.872  26.661  31.562  1.00  0.00     0.031 C 
ATOM     41  C   UNL A   1      38.817  29.563  27.881  1.00  0.00     0.029 A 
ATOM     42  C   UNL A   1      38.927  30.009  29.268  1.00  0.00     0.049 A 
ATOM     43  H   UNL A   1      40.361  29.440  30.667  1.00  0.00     0.167 HD
ATOM     44  C   UNL A   1      43.349  28.045  33.550  1.00  0.00     0.037 A 
ATOM     45  C   UNL A   1      38.109  30.887  29.879  1.00  0.00     0.037 A 
ATOM     46  C   UNL A   1      42.580  29.038  34.255  1.00  0.00     0.049 A 
ATOM     47  C   UNL A   1      38.354  31.242  31.322  1.00  0.00     0.074 A 
ATOM     48  C   UNL A   1      42.763  29.516  35.541  1.00  0.00     0.029 A 
ATOM     49  N   UNL A   1      41.476  29.697  33.736  1.00  0.00    -0.354 N 
ATOM     50  N   UNL A   1      39.303  30.831  32.128  1.00  0.00    -0.248 NA
ATOM     51  C   UNL A   1      37.414  32.188  31.940  1.00  0.00     0.031 C 
ATOM     52  C   UNL A   1      41.732  30.419  35.823  1.00  0.00     0.029 A 
ATOM     53  C   UNL A   1      40.947  30.554  34.689  1.00  0.00     0.049 A 
ATOM     54  H   UNL A   1      41.120  29.576  32.827  1.00  0.00     0.167 HD
ATOM     55  C   UNL A   1      39.094  31.489  33.334  1.00  0.00     0.074 A 
ATOM     56  C   UNL A   1      37.936  32.339  33.148  1.00  0.00     0.031 C 
ATOM     57  C   UNL A   1      39.797  31.400  34.489  1.00  0.00     0.037 A 
BRANCH  44  58
ATOM     58  C   UNL A   1      44.479  27.371  34.277  1.00  0.00     0.057 A 
ATOM     59  C   UNL A   1      45.770  27.912  34.311  1.00  0.00     0.134 A 
ATOM     60  C   UNL A   1      44.259  26.181  34.984  1.00  0.00     0.134 A 
ATOM     61  F   UNL A   1      46.052  29.043  33.647  1.00  0.00    -0.206 F 
ATOM     62  C   UNL A   1      46.808  27.282  35.001  1.00  0.00     0.040 A 
ATOM     63  C   UNL A   1      45.282  25.558  35.702  1.00  0.00     0.040 A 
ATOM     64  F   UNL A   1      43.046  25.610  34.998  1.00  0.00    -0.206 F 
ATOM     65  C   UNL A   1      46.562  26.105  35.705  1.00  0.00     0.006 A 
ENDBRANCH  44  58
BRANCH  45  66
ATOM     66  C   UNL A   1      36.966  31.480  29.138  1.00  0.00     0.057 A 
ATOM     67  C   UNL A   1      37.010  32.798  28.669  1.00  0.00     0.134 A 
ATOM     68  C   UNL A   1      35.793  30.753  28.903  1.00  0.00     0.134 A 
ATOM     69  F   UNL A   1      38.097  33.554  28.881  1.00  0.00    -0.206 F 
ATOM     70  C   UNL A   1      35.923  33.378  28.013  1.00  0.00     0.040 A 
ATOM     71  C   UNL A   1      34.709  31.310  28.223  1.00  0.00     0.040 A 
ATOM     72  F   UNL A   1      35.686  29.483  29.325  1.00  0.00    -0.206 F 
ATOM     73  C   UNL A   1      34.769  32.631  27.784  1.00  0.00     0.006 A 
ENDBRANCH  45  66
BRANCH  57  74
ATOM     74  C   UNL A   1      39.363  32.275  35.632  1.00  0.00     0.057 A 
ATOM     75  C   UNL A   1      39.827  33.588  35.783  1.00  0.00     0.134 A 
ATOM     76  C   UNL A   1      38.435  31.807  36.573  1.00  0.00     0.134 A 
ATOM     77  F   UNL A   1      40.725  34.095  34.926  1.00  0.00    -0.206 F 
ATOM     78  C   UNL A   1      39.405  34.394  36.844  1.00  0.00     0.040 A 
ATOM     79  C   UNL A   1      37.982  32.614  37.618  1.00  0.00     0.040 A 
ATOM     80  F   UNL A   1      37.940  30.564  36.483  1.00  0.00    -0.206 F 
ATOM     81  C   UNL A   1      38.473  33.909  37.760  1.00  0.00     0.006 A 
ENDBRANCH  57  74
ENDBRANCH  31  32
ENDBRANCH  24  26
ENDBRANCH  23  24
ENDBRANCH  22  23
ENDBRANCH   1  22
TORSDOF 15
ENDMDL
MODEL 2
REMARK VINA RESULT:     -10.8      2.518      8.139
REMARK SMILES CC1(C)C(=O)N([C@H]2COC[C@@H]2C(=O)OCCOCCOC(=O)c2ccc(-c3c4nc(c(-c5c(F)cccc5F)c5ccc([nH]5)c(-c5c(F)cccc5F)c5nc(c(-c6c(F)cccc6F)c6ccc3[nH]6)C=C5)C=C4)cc2)S1(=O)=O
REMARK SMILES IDX 18 1 17 2 16 3 15 4 14 5 12 6 13 7 11 8 7 9 8 10 9 11 10 12
REMARK SMILES IDX 6 13 1 14 2 15 3 16 4 17 77 18 5 19 78 20 79 21 19 22 20 23
REMARK SMILES IDX 21 24 22 25 23 26 24 27 76 28 25 29 75 30 26 31 27 32 28 33
REMARK SMILES IDX 69 34 29 35 74 36 68 37 70 38 30 39 73 40 67 41 66 42 31 44
REMARK SMILES IDX 57 45 40 46 56 47 41 48 44 49 55 50 71 51 42 52 43 53 54 55
REMARK SMILES IDX 72 56 45 57 32 58 33 59 38 60 34 61 35 62 37 63 39 64 36 65
REMARK SMILES IDX 58 66 59 67 64 68 60 69 61 70 63 71 65 72 62 73 46 74 47 75
REMARK SMILES IDX 52 76 48 77 49 78 51 79 53 80 50 81
REMARK H PARENT 70 43 44 54
REMARK Flexibility Score: inf
ROOT
ATOM      1  C   UNL A   1      31.417  32.165  26.784  1.00  0.00     0.202 C 
ENDROOT
BRANCH   1   2
ATOM      2  O   UNL A   1      31.966  30.874  27.036  1.00  0.00    -0.374 OA
BRANCH   2   3
ATOM      3  C   UNL A   1      32.337  30.050  25.935  1.00  0.00     0.202 C 
BRANCH   3   4
ATOM      4  C   UNL A   1      31.273  29.724  24.884  1.00  0.00     0.261 C 
BRANCH   4   5
ATOM      5  O   UNL A   1      31.094  28.308  24.731  1.00  0.00    -0.463 OA
BRANCH   5   6
ATOM      6  C   UNL A   1      30.991  27.877  23.444  1.00  0.00     0.313 C 
ATOM      7  O   UNL A   1      30.788  28.594  22.475  1.00  0.00    -0.252 OA
BRANCH   6   8
ATOM      8  C   UNL A   1      31.259  26.390  23.371  1.00  0.00     0.151 C 
ATOM      9  C   UNL A   1      32.517  26.063  24.155  1.00  0.00     0.145 C 
ATOM     10  C   UNL A   1      33.609  26.272  23.114  1.00  0.00     0.187 C 
ATOM     11  O   UNL A   1      33.029  26.030  21.824  1.00  0.00    -0.378 OA
ATOM     12  C   UNL A   1      31.600  26.048  21.939  1.00  0.00     0.177 C 
BRANCH   9  13
ATOM     13  N   UNL A   1      32.527  24.716  24.749  1.00  0.00    -0.231 N 
ATOM     14  C   UNL A   1      33.383  22.645  27.402  1.00  0.00     0.041 C 
ATOM     15  C   UNL A   1      32.720  22.948  26.059  1.00  0.00     0.165 C 
ATOM     16  C   UNL A   1      31.829  21.790  25.613  1.00  0.00     0.041 C 
ATOM     17  C   UNL A   1      32.015  24.326  25.999  1.00  0.00     0.259 C 
ATOM     18  S   UNL A   1      33.785  23.646  24.833  1.00  0.00     0.252 S 
ATOM     19  O   UNL A   1      31.207  24.932  26.669  1.00  0.00    -0.272 OA
ATOM     20  O   UNL A   1      34.942  24.285  25.407  1.00  0.00    -0.205 OA
ATOM     21  O   UNL A   1      33.822  22.893  23.603  1.00  0.00    -0.205 OA
ENDBRANCH   9  13
ENDBRANCH   6   8
ENDBRANCH   5   6
ENDBRANCH   4   5
ENDBRANCH   3   4
ENDBRANCH   2   3
ENDBRANCH   1   2
BRANCH   1  22
ATOM     22  C   UNL A   1      32.316  33.400  26.930  1.00  0.00     0.261 C 
BRANCH  22  23
ATOM     23  O   UNL A   1      32.265  34.001  28.234  1.00  0.00    -0.460 OA
BRANCH  23  24
ATOM     24  C   UNL A   1      33.360  34.734  28.551  1.00  0.00     0.338 C 
ATOM     25  O   UNL A   1      33.419  35.938  28.743  1.00  0.00    -0.246 OA
BRANCH  24  26
ATOM     26  C   UNL A   1      34.500  33.842  28.825  1.00  0.00     0.060 A 
ATOM     27  C   UNL A   1      34.234  32.623  29.460  1.00  0.00     0.016 A 
ATOM     28  C   UNL A   1      35.811  34.237  28.555  1.00  0.00     0.016 A 
ATOM     29  C   UNL A   1      35.286  31.808  29.870  1.00  0.00     0.010 A 
ATOM     30  C   UNL A   1      36.865  33.420  28.976  1.00  0.00     0.010 A 
ATOM     31  C   UNL A   1      36.608  32.220  29.665  1.00  0.00    -0.014 A 
BRANCH  31  32
ATOM     32  C   UNL A   1      37.717  31.461  30.292  1.00  0.00     0.031 A 
ATOM     33  C   UNL A   1      38.050  31.710  31.737  1.00  0.00     0.074 A 
ATOM     34  C   UNL A   1      38.400  30.543  29.588  1.00  0.00     0.049 A 
ATOM     35  N   UNL A   1      39.006  31.197  32.468  1.00  0.00    -0.248 NA
ATOM     36  C   UNL A   1      37.193  32.669  32.452  1.00  0.00     0.031 C 
ATOM     37  C   UNL A   1      38.142  30.184  28.194  1.00  0.00     0.029 A 
ATOM     38  N   UNL A   1      39.458  29.750  29.951  1.00  0.00    -0.354 N 
ATOM     39  C   UNL A   1      38.873  31.776  33.724  1.00  0.00     0.074 A 
ATOM     40  C   UNL A   1      37.765  32.704  33.646  1.00  0.00     0.031 C 
ATOM     41  C   UNL A   1      39.027  29.247  27.816  1.00  0.00     0.029 A 
ATOM     42  C   UNL A   1      39.936  28.970  28.926  1.00  0.00     0.049 A 
ATOM     43  H   UNL A   1      39.839  29.739  30.859  1.00  0.00     0.167 HD
ATOM     44  C   UNL A   1      39.603  31.548  34.842  1.00  0.00     0.037 A 
ATOM     45  C   UNL A   1      41.001  28.147  28.884  1.00  0.00     0.037 A 
ATOM     46  C   UNL A   1      40.705  30.623  34.913  1.00  0.00     0.049 A 
ATOM     47  C   UNL A   1      41.846  27.970  30.119  1.00  0.00     0.074 A 
ATOM     48  C   UNL A   1      41.493  30.304  36.005  1.00  0.00     0.029 A 
ATOM     49  N   UNL A   1      41.179  29.876  33.845  1.00  0.00    -0.354 N 
ATOM     50  N   UNL A   1      41.696  28.500  31.309  1.00  0.00    -0.248 NA
ATOM     51  C   UNL A   1      43.007  27.077  30.003  1.00  0.00     0.031 C 
ATOM     52  C   UNL A   1      42.484  29.412  35.583  1.00  0.00     0.029 A 
ATOM     53  C   UNL A   1      42.271  29.122  34.244  1.00  0.00     0.049 A 
ATOM     54  H   UNL A   1      40.798  29.880  32.938  1.00  0.00     0.167 HD
ATOM     55  C   UNL A   1      42.722  27.982  32.090  1.00  0.00     0.074 A 
ATOM     56  C   UNL A   1      43.478  27.084  31.242  1.00  0.00     0.031 C 
ATOM     57  C   UNL A   1      43.011  28.226  33.392  1.00  0.00     0.037 A 
BRANCH  44  58
ATOM     58  C   UNL A   1      39.253  32.335  36.074  1.00  0.00     0.057 A 
ATOM     59  C   UNL A   1      39.831  33.581  36.349  1.00  0.00     0.134 A 
ATOM     60  C   UNL A   1      38.297  31.853  36.977  1.00  0.00     0.134 A 
ATOM     61  F   UNL A   1      40.761  34.096  35.531  1.00  0.00    -0.206 F 
ATOM     62  C   UNL A   1      39.488  34.308  37.491  1.00  0.00     0.040 A 
ATOM     63  C   UNL A   1      37.924  32.585  38.107  1.00  0.00     0.040 A 
ATOM     64  F   UNL A   1      37.700  30.669  36.773  1.00  0.00    -0.206 F 
ATOM     65  C   UNL A   1      38.526  33.813  38.369  1.00  0.00     0.006 A 
ENDBRANCH  44  58
BRANCH  45  66
ATOM     66  C   UNL A   1      41.345  27.438  27.624  1.00  0.00     0.057 A 
ATOM     67  C   UNL A   1      40.911  26.129  27.385  1.00  0.00     0.134 A 
ATOM     68  C   UNL A   1      42.138  28.043  26.641  1.00  0.00     0.134 A 
ATOM     69  F   UNL A   1      40.167  25.488  28.298  1.00  0.00    -0.206 F 
ATOM     70  C   UNL A   1      41.269  25.440  26.226  1.00  0.00     0.040 A 
ATOM     71  C   UNL A   1      42.480  27.376  25.463  1.00  0.00     0.040 A 
ATOM     72  F   UNL A   1      42.586  29.297  26.807  1.00  0.00    -0.206 F 
ATOM     73  C   UNL A   1      42.053  26.067  25.258  1.00  0.00     0.006 A 
ENDBRANCH  45  66
BRANCH  57  74
ATOM     74  C   UNL A   1      44.169  27.479  33.995  1.00  0.00     0.057 A 
ATOM     75  C   UNL A   1      45.462  28.015  34.031  1.00  0.00     0.134 A 
ATOM     76  C   UNL A   1      43.974  26.222  34.583  1.00  0.00     0.134 A 
ATOM     77  F   UNL A   1      45.721  29.207  33.477  1.00  0.00    -0.206 F 
ATOM     78  C   UNL A   1      46.526  27.313  34.605  1.00  0.00     0.040 A 
ATOM     79  C   UNL A   1      45.022  25.527  35.189  1.00  0.00     0.040 A 
ATOM     80  F   UNL A   1      42.758  25.655  34.595  1.00  0.00    -0.206 F 
ATOM     81  C   UNL A   1      46.305  26.069  35.194  1.00  0.00     0.006 A 
ENDBRANCH  57  74
ENDBRANCH  31  32
ENDBRANCH  24  26
ENDBRANCH  23  24
ENDBRANCH  22  23
ENDBRANCH   1  22
TORSDOF 15
ENDMDL
MODEL 3
REMARK VINA RESULT:     -10.7      3.623      4.872
REMARK SMILES CC1(C)C(=O)N([C@H]2COC[C@@H]2C(=O)OCCOCCOC(=O)c2ccc(-c3c4nc(c(-c5c(F)cccc5F)c5ccc([nH]5)c(-c5c(F)cccc5F)c5nc(c(-c6c(F)cccc6F)c6ccc3[nH]6)C=C5)C=C4)cc2)S1(=O)=O
REMARK SMILES IDX 18 1 17 2 16 3 15 4 14 5 12 6 13 7 11 8 7 9 8 10 9 11 10 12
REMARK SMILES IDX 6 13 1 14 2 15 3 16 4 17 77 18 5 19 78 20 79 21 19 22 20 23
REMARK SMILES IDX 21 24 22 25 23 26 24 27 76 28 25 29 75 30 26 31 27 32 28 33
REMARK SMILES IDX 69 34 29 35 74 36 68 37 70 38 30 39 73 40 67 41 66 42 31 44
REMARK SMILES IDX 57 45 40 46 56 47 41 48 44 49 55 50 71 51 42 52 43 53 54 55
REMARK SMILES IDX 72 56 45 57 32 58 33 59 38 60 34 61 35 62 37 63 39 64 36 65
REMARK SMILES IDX 58 66 59 67 64 68 60 69 61 70 63 71 65 72 62 73 46 74 47 75
REMARK SMILES IDX 52 76 48 77 49 78 51 79 53 80 50 81
REMARK H PARENT 70 43 44 54
REMARK Flexibility Score: inf
ROOT
ATOM      1  C   UNL A   1      38.123  21.206  25.349  1.00  0.00     0.202 C 
ENDROOT
BRANCH   1   2
ATOM      2  O   UNL A   1      38.584  22.294  26.146  1.00  0.00    -0.374 OA
BRANCH   2   3
ATOM      3  C   UNL A   1      38.001  23.581  25.969  1.00  0.00     0.202 C 
BRANCH   3   4
ATOM      4  C   UNL A   1      36.625  23.667  25.303  1.00  0.00     0.261 C 
BRANCH   4   5
ATOM      5  O   UNL A   1      35.564  23.621  26.270  1.00  0.00    -0.463 OA
BRANCH   5   6
ATOM      6  C   UNL A   1      34.608  22.682  26.030  1.00  0.00     0.313 C 
ATOM      7  O   UNL A   1      34.644  21.524  26.420  1.00  0.00    -0.252 OA
BRANCH   6   8
ATOM      8  C   UNL A   1      33.443  23.303  25.291  1.00  0.00     0.151 C 
ATOM      9  C   UNL A   1      32.759  24.319  26.188  1.00  0.00     0.145 C 
ATOM     10  C   UNL A   1      31.763  23.457  26.952  1.00  0.00     0.187 C 
ATOM     11  O   UNL A   1      31.436  22.334  26.120  1.00  0.00    -0.378 OA
ATOM     12  C   UNL A   1      32.405  22.228  25.069  1.00  0.00     0.177 C 
BRANCH   9  13
ATOM     13  N   UNL A   1      32.128  25.437  25.465  1.00  0.00    -0.231 N 
ATOM     14  C   UNL A   1      31.853  28.859  24.942  1.00  0.00     0.041 C 
ATOM     15  C   UNL A   1      31.541  27.396  24.631  1.00  0.00     0.165 C 
ATOM     16  C   UNL A   1      30.782  27.265  23.312  1.00  0.00     0.041 C 
ATOM     17  C   UNL A   1      32.766  26.454  24.732  1.00  0.00     0.259 C 
ATOM     18  S   UNL A   1      30.931  26.448  25.993  1.00  0.00     0.252 S 
ATOM     19  O   UNL A   1      33.896  26.428  24.296  1.00  0.00    -0.272 OA
ATOM     20  O   UNL A   1      31.290  27.019  27.266  1.00  0.00    -0.205 OA
ATOM     21  O   UNL A   1      29.659  25.818  25.736  1.00  0.00    -0.205 OA
ENDBRANCH   9  13
ENDBRANCH   6   8
ENDBRANCH   5   6
ENDBRANCH   4   5
ENDBRANCH   3   4
ENDBRANCH   2   3
ENDBRANCH   1   2
BRANCH   1  22
ATOM     22  C   UNL A   1      38.975  19.932  25.259  1.00  0.00     0.261 C 
BRANCH  22  23
ATOM     23  O   UNL A   1      39.814  19.715  26.405  1.00  0.00    -0.460 OA
BRANCH  23  24
ATOM     24  C   UNL A   1      41.142  19.723  26.130  1.00  0.00     0.338 C 
ATOM     25  O   UNL A   1      41.767  18.917  25.461  1.00  0.00    -0.246 OA
BRANCH  24  26
ATOM     26  C   UNL A   1      41.746  20.976  26.612  1.00  0.00     0.060 A 
ATOM     27  C   UNL A   1      41.674  21.250  27.984  1.00  0.00     0.016 A 
ATOM     28  C   UNL A   1      42.283  21.910  25.725  1.00  0.00     0.016 A 
ATOM     29  C   UNL A   1      42.100  22.482  28.472  1.00  0.00     0.010 A 
ATOM     30  C   UNL A   1      42.702  23.150  26.217  1.00  0.00     0.010 A 
ATOM     31  C   UNL A   1      42.581  23.454  27.586  1.00  0.00    -0.014 A 
BRANCH  31  32
ATOM     32  C   UNL A   1      42.827  24.832  28.075  1.00  0.00     0.031 A 
ATOM     33  C   UNL A   1      44.229  25.242  28.436  1.00  0.00     0.074 A 
ATOM     34  C   UNL A   1      41.818  25.714  28.170  1.00  0.00     0.049 A 
ATOM     35  N   UNL A   1      44.661  26.375  28.927  1.00  0.00    -0.248 NA
ATOM     36  C   UNL A   1      45.282  24.238  28.216  1.00  0.00     0.031 C 
ATOM     37  C   UNL A   1      40.426  25.447  27.810  1.00  0.00     0.029 A 
ATOM     38  N   UNL A   1      41.811  27.014  28.608  1.00  0.00    -0.354 N 
ATOM     39  C   UNL A   1      46.032  26.217  29.086  1.00  0.00     0.074 A 
ATOM     40  C   UNL A   1      46.354  24.870  28.670  1.00  0.00     0.031 C 
ATOM     41  C   UNL A   1      39.696  26.549  28.051  1.00  0.00     0.029 A 
ATOM     42  C   UNL A   1      40.560  27.582  28.618  1.00  0.00     0.049 A 
ATOM     43  H   UNL A   1      42.624  27.495  28.887  1.00  0.00     0.167 HD
ATOM     44  C   UNL A   1      46.940  27.119  29.530  1.00  0.00     0.037 A 
ATOM     45  C   UNL A   1      40.158  28.788  29.060  1.00  0.00     0.037 A 
ATOM     46  C   UNL A   1      46.613  28.459  29.943  1.00  0.00     0.049 A 
ATOM     47  C   UNL A   1      41.175  29.745  29.624  1.00  0.00     0.074 A 
ATOM     48  C   UNL A   1      47.464  29.456  30.387  1.00  0.00     0.029 A 
ATOM     49  N   UNL A   1      45.331  28.987  29.970  1.00  0.00    -0.354 N 
ATOM     50  N   UNL A   1      42.473  29.599  29.745  1.00  0.00    -0.248 NA
ATOM     51  C   UNL A   1      40.671  31.036  30.111  1.00  0.00     0.031 C 
ATOM     52  C   UNL A   1      46.691  30.566  30.743  1.00  0.00     0.029 A 
ATOM     53  C   UNL A   1      45.364  30.284  30.457  1.00  0.00     0.049 A 
ATOM     54  H   UNL A   1      44.517  28.511  29.688  1.00  0.00     0.167 HD
ATOM     55  C   UNL A   1      42.943  30.788  30.290  1.00  0.00     0.074 A 
ATOM     56  C   UNL A   1      41.792  31.650  30.462  1.00  0.00     0.031 C 
ATOM     57  C   UNL A   1      44.212  31.135  30.617  1.00  0.00     0.037 A 
BRANCH  44  58
ATOM     58  C   UNL A   1      48.373  26.676  29.622  1.00  0.00     0.057 A 
ATOM     59  C   UNL A   1      49.286  26.884  28.580  1.00  0.00     0.134 A 
ATOM     60  C   UNL A   1      48.854  26.064  30.787  1.00  0.00     0.134 A 
ATOM     61  F   UNL A   1      48.889  27.455  27.432  1.00  0.00    -0.206 F 
ATOM     62  C   UNL A   1      50.618  26.478  28.683  1.00  0.00     0.040 A 
ATOM     63  C   UNL A   1      50.191  25.681  30.913  1.00  0.00     0.040 A 
ATOM     64  F   UNL A   1      48.037  25.838  31.827  1.00  0.00    -0.206 F 
ATOM     65  C   UNL A   1      51.075  25.881  29.857  1.00  0.00     0.006 A 
ENDBRANCH  44  58
BRANCH  45  66
ATOM     66  C   UNL A   1      38.719  29.159  29.007  1.00  0.00     0.057 A 
ATOM     67  C   UNL A   1      37.896  29.034  30.132  1.00  0.00     0.134 A 
ATOM     68  C   UNL A   1      38.128  29.621  27.825  1.00  0.00     0.134 A 
ATOM     69  F   UNL A   1      38.397  28.576  31.288  1.00  0.00    -0.206 F 
ATOM     70  C   UNL A   1      36.534  29.334  30.078  1.00  0.00     0.040 A 
ATOM     71  C   UNL A   1      36.774  29.953  27.764  1.00  0.00     0.040 A 
ATOM     72  F   UNL A   1      38.863  29.765  26.711  1.00  0.00    -0.206 F 
ATOM     73  C   UNL A   1      35.971  29.801  28.891  1.00  0.00     0.006 A 
ENDBRANCH  45  66
BRANCH  57  74
ATOM     74  C   UNL A   1      44.432  32.522  31.154  1.00  0.00     0.057 A 
ATOM     75  C   UNL A   1      44.434  32.798  32.527  1.00  0.00     0.134 A 
ATOM     76  C   UNL A   1      44.687  33.590  30.282  1.00  0.00     0.134 A 
ATOM     77  F   UNL A   1      44.185  31.826  33.416  1.00  0.00    -0.206 F 
ATOM     78  C   UNL A   1      44.651  34.090  33.012  1.00  0.00     0.040 A 
ATOM     79  C   UNL A   1      44.939  34.878  30.755  1.00  0.00     0.040 A 
ATOM     80  F   UNL A   1      44.713  33.395  28.955  1.00  0.00    -0.206 F 
ATOM     81  C   UNL A   1      44.913  35.133  32.124  1.00  0.00     0.006 A 
ENDBRANCH  57  74
ENDBRANCH  31  32
ENDBRANCH  24  26
ENDBRANCH  23  24
ENDBRANCH  22  23
ENDBRANCH   1  22
TORSDOF 15
ENDMDL
