MODEL 1
REMARK VINA RESULT:     -10.1      0.000      0.000
REMARK SMILES O=C(NC[C@@H]1CC[C@H](C(=O)OCCOCCOC(=O)c2ccc(-c3c4nc(c(-c5c(F)cccc5F)c5ccc([nH]5)c(-c5c(F)cccc5F)c5nc(c(-c6c(F)cccc6F)c6ccc3[nH]6)C=C5)C=C4)cc2)O1)c1ccc(CO)cc1
REMARK SMILES IDX 12 1 11 2 9 3 10 4 8 5 5 6 6 7 74 8 7 9 4 10 3 11 1 12 2 13
REMARK SMILES IDX 75 15 76 16 82 17 77 18 81 19 78 20 79 21 80 22 13 24 14 25
REMARK SMILES IDX 15 26 16 27 17 28 18 29 19 30 20 31 21 32 73 33 22 34 72 35
REMARK SMILES IDX 23 36 24 37 25 38 66 39 26 40 71 41 65 42 67 43 27 44 70 45
REMARK SMILES IDX 64 46 63 47 28 49 54 50 37 51 53 52 38 53 41 54 52 55 68 56
REMARK SMILES IDX 39 57 40 58 51 60 69 61 42 62 29 63 30 64 35 65 31 66 32 67
REMARK SMILES IDX 34 68 36 69 33 70 55 71 56 72 61 73 57 74 58 75 60 76 62 77
REMARK SMILES IDX 59 78 43 79 44 80 49 81 45 82 46 83 48 84 50 85 47 86
REMARK H PARENT 3 14 80 23 67 48 41 59
REMARK Flexibility Score: inf
ROOT
ATOM      1  C   UNL A   1      36.850  23.702  25.825  1.00  0.00     0.261 C 
ENDROOT
BRANCH   1   2
ATOM      2  O   UNL A   1      35.531  23.145  25.969  1.00  0.00    -0.461 OA
BRANCH   2   3
ATOM      3  C   UNL A   1      34.869  22.896  24.805  1.00  0.00     0.335 C 
ATOM      4  O   UNL A   1      35.217  23.306  23.702  1.00  0.00    -0.249 OA
BRANCH   3   5
ATOM      5  C   UNL A   1      33.598  22.067  25.011  1.00  0.00     0.228 C 
ATOM      6  C   UNL A   1      31.523  22.751  24.184  1.00  0.00     0.138 C 
ATOM      7  C   UNL A   1      31.646  23.295  25.598  1.00  0.00     0.037 C 
ATOM      8  O   UNL A   1      32.785  22.167  23.835  1.00  0.00    -0.361 OA
ATOM      9  C   UNL A   1      32.711  22.413  26.197  1.00  0.00     0.047 C 
BRANCH   6  10
ATOM     10  C   UNL A   1      31.093  23.770  23.119  1.00  0.00     0.148 C 
BRANCH  10  11
ATOM     11  N   UNL A   1      32.205  24.394  22.405  1.00  0.00    -0.349 N 
ATOM     12  O   UNL A   1      33.639  25.984  21.746  1.00  0.00    -0.269 OA
ATOM     13  C   UNL A   1      32.879  25.568  22.618  1.00  0.00     0.251 C 
ATOM     14  H   UNL A   1      32.529  23.877  21.631  1.00  0.00     0.163 HD
BRANCH  13  15
ATOM     15  C   UNL A   1      32.707  26.352  23.860  1.00  0.00     0.039 A 
ATOM     16  C   UNL A   1      33.637  26.300  24.900  1.00  0.00     0.014 A 
ATOM     17  C   UNL A   1      31.627  27.237  23.943  1.00  0.00     0.014 A 
ATOM     18  C   UNL A   1      33.434  27.057  26.056  1.00  0.00     0.007 A 
ATOM     19  C   UNL A   1      31.430  28.005  25.092  1.00  0.00     0.007 A 
ATOM     20  C   UNL A   1      32.325  27.910  26.165  1.00  0.00    -0.023 A 
BRANCH  20  21
ATOM     21  C   UNL A   1      32.077  28.667  27.440  1.00  0.00     0.191 C 
BRANCH  21  22
ATOM     22  O   UNL A   1      31.404  27.834  28.376  1.00  0.00    -0.392 OA
ATOM     23  H   UNL A   1      30.699  27.344  27.924  1.00  0.00     0.211 HD
ENDBRANCH  21  22
ENDBRANCH  20  21
ENDBRANCH  13  15
ENDBRANCH  10  11
ENDBRANCH   6  10
ENDBRANCH   3   5
ENDBRANCH   2   3
ENDBRANCH   1   2
BRANCH   1  24
ATOM     24  C   UNL A   1      37.948  22.665  26.069  1.00  0.00     0.202 C 
BRANCH  24  25
ATOM     25  O   UNL A   1      38.242  21.780  24.990  1.00  0.00    -0.374 OA
BRANCH  25  26
ATOM     26  C   UNL A   1      37.804  20.428  25.107  1.00  0.00     0.202 C 
BRANCH  26  27
ATOM     27  C   UNL A   1      38.888  19.376  25.376  1.00  0.00     0.261 C 
BRANCH  27  28
ATOM     28  O   UNL A   1      39.743  19.720  26.483  1.00  0.00    -0.460 OA
BRANCH  28  29
ATOM     29  C   UNL A   1      41.068  19.603  26.223  1.00  0.00     0.338 C 
ATOM     30  O   UNL A   1      41.646  18.635  25.750  1.00  0.00    -0.246 OA
BRANCH  29  31
ATOM     31  C   UNL A   1      41.767  20.882  26.444  1.00  0.00     0.060 A 
ATOM     32  C   UNL A   1      42.112  21.206  27.762  1.00  0.00     0.016 A 
ATOM     33  C   UNL A   1      41.954  21.808  25.415  1.00  0.00     0.016 A 
ATOM     34  C   UNL A   1      42.597  22.477  28.064  1.00  0.00     0.010 A 
ATOM     35  C   UNL A   1      42.436  23.089  25.724  1.00  0.00     0.010 A 
ATOM     36  C   UNL A   1      42.723  23.442  27.056  1.00  0.00    -0.014 A 
BRANCH  36  37
ATOM     37  C   UNL A   1      43.025  24.844  27.440  1.00  0.00     0.031 A 
ATOM     38  C   UNL A   1      44.390  25.415  27.157  1.00  0.00     0.074 A 
ATOM     39  C   UNL A   1      42.066  25.633  27.961  1.00  0.00     0.049 A 
ATOM     40  N   UNL A   1      44.840  26.630  27.349  1.00  0.00    -0.248 NA
ATOM     41  C   UNL A   1      45.379  24.493  26.574  1.00  0.00     0.031 C 
ATOM     42  C   UNL A   1      40.696  25.218  28.253  1.00  0.00     0.029 A 
ATOM     43  N   UNL A   1      42.103  26.957  28.322  1.00  0.00    -0.354 N 
ATOM     44  C   UNL A   1      46.154  26.624  26.900  1.00  0.00     0.074 A 
ATOM     45  C   UNL A   1      46.444  25.275  26.462  1.00  0.00     0.031 C 
ATOM     46  C   UNL A   1      40.017  26.270  28.744  1.00  0.00     0.029 A 
ATOM     47  C   UNL A   1      40.910  27.426  28.815  1.00  0.00     0.049 A 
ATOM     48  H   UNL A   1      42.908  27.517  28.235  1.00  0.00     0.167 HD
ATOM     49  C   UNL A   1      47.035  27.651  26.839  1.00  0.00     0.037 A 
ATOM     50  C   UNL A   1      40.577  28.648  29.274  1.00  0.00     0.037 A 
ATOM     51  C   UNL A   1      46.756  28.995  27.272  1.00  0.00     0.049 A 
ATOM     52  C   UNL A   1      41.597  29.755  29.253  1.00  0.00     0.074 A 
ATOM     53  C   UNL A   1      47.591  30.100  27.249  1.00  0.00     0.029 A 
ATOM     54  N   UNL A   1      45.550  29.417  27.807  1.00  0.00    -0.354 N 
ATOM     55  N   UNL A   1      42.830  29.740  28.807  1.00  0.00    -0.248 NA
ATOM     56  C   UNL A   1      41.173  31.055  29.797  1.00  0.00     0.031 C 
ATOM     57  C   UNL A   1      46.900  31.184  27.801  1.00  0.00     0.029 A 
ATOM     58  C   UNL A   1      45.623  30.762  28.133  1.00  0.00     0.049 A 
ATOM     59  H   UNL A   1      44.758  28.848  27.935  1.00  0.00     0.167 HD
ATOM     60  C   UNL A   1      43.317  31.029  28.992  1.00  0.00     0.074 A 
ATOM     61  C   UNL A   1      42.244  31.804  29.577  1.00  0.00     0.031 C 
ATOM     62  C   UNL A   1      44.547  31.524  28.708  1.00  0.00     0.037 A 
BRANCH  49  63
ATOM     63  C   UNL A   1      48.397  27.361  26.283  1.00  0.00     0.057 A 
ATOM     64  C   UNL A   1      48.666  27.464  24.913  1.00  0.00     0.134 A 
ATOM     65  C   UNL A   1      49.463  27.032  27.131  1.00  0.00     0.134 A 
ATOM     66  F   UNL A   1      47.686  27.764  24.048  1.00  0.00    -0.206 F 
ATOM     67  C   UNL A   1      49.946  27.237  24.403  1.00  0.00     0.040 A 
ATOM     68  C   UNL A   1      50.750  26.824  26.634  1.00  0.00     0.040 A 
ATOM     69  F   UNL A   1      49.272  26.923  28.454  1.00  0.00    -0.206 F 
ATOM     70  C   UNL A   1      50.994  26.924  25.266  1.00  0.00     0.006 A 
ENDBRANCH  49  63
BRANCH  50  71
ATOM     71  C   UNL A   1      39.213  28.901  29.800  1.00  0.00     0.057 A 
ATOM     72  C   UNL A   1      38.202  29.416  28.982  1.00  0.00     0.134 A 
ATOM     73  C   UNL A   1      38.906  28.682  31.148  1.00  0.00     0.134 A 
ATOM     74  F   UNL A   1      38.446  29.675  27.689  1.00  0.00    -0.206 F 
ATOM     75  C   UNL A   1      36.938  29.725  29.489  1.00  0.00     0.040 A 
ATOM     76  C   UNL A   1      37.640  28.963  31.663  1.00  0.00     0.040 A 
ATOM     77  F   UNL A   1      39.835  28.197  31.985  1.00  0.00    -0.206 F 
ATOM     78  C   UNL A   1      36.654  29.495  30.834  1.00  0.00     0.006 A 
ENDBRANCH  50  71
BRANCH  62  79
ATOM     79  C   UNL A   1      44.782  32.977  28.997  1.00  0.00     0.057 A 
ATOM     80  C   UNL A   1      45.365  33.405  30.197  1.00  0.00     0.134 A 
ATOM     81  C   UNL A   1      44.442  33.958  28.057  1.00  0.00     0.134 A 
ATOM     82  F   UNL A   1      45.703  32.515  31.143  1.00  0.00    -0.206 F 
ATOM     83  C   UNL A   1      45.575  34.759  30.464  1.00  0.00     0.040 A 
ATOM     84  C   UNL A   1      44.668  35.313  28.302  1.00  0.00     0.040 A 
ATOM     85  F   UNL A   1      43.889  33.616  26.884  1.00  0.00    -0.206 F 
ATOM     86  C   UNL A   1      45.229  35.718  29.512  1.00  0.00     0.006 A 
ENDBRANCH  62  79
ENDBRANCH  36  37
ENDBRANCH  29  31
ENDBRANCH  28  29
ENDBRANCH  27  28
ENDBRANCH  26  27
ENDBRANCH  25  26
ENDBRANCH  24  25
ENDBRANCH   1  24
TORSDOF 19
ENDMDL
MODEL 2
REMARK VINA RESULT:     -10.0      2.331      3.309
REMARK SMILES O=C(NC[C@@H]1CC[C@H](C(=O)OCCOCCOC(=O)c2ccc(-c3c4nc(c(-c5c(F)cccc5F)c5ccc([nH]5)c(-c5c(F)cccc5F)c5nc(c(-c6c(F)cccc6F)c6ccc3[nH]6)C=C5)C=C4)cc2)O1)c1ccc(CO)cc1
REMARK SMILES IDX 12 1 11 2 9 3 10 4 8 5 5 6 6 7 74 8 7 9 4 10 3 11 1 12 2 13
REMARK SMILES IDX 75 15 76 16 82 17 77 18 81 19 78 20 79 21 80 22 13 24 14 25
REMARK SMILES IDX 15 26 16 27 17 28 18 29 19 30 20 31 21 32 73 33 22 34 72 35
REMARK SMILES IDX 23 36 24 37 25 38 66 39 26 40 71 41 65 42 67 43 27 44 70 45
REMARK SMILES IDX 64 46 63 47 28 49 54 50 37 51 53 52 38 53 41 54 52 55 68 56
REMARK SMILES IDX 39 57 40 58 51 60 69 61 42 62 29 63 30 64 35 65 31 66 32 67
REMARK SMILES IDX 34 68 36 69 33 70 55 71 56 72 61 73 57 74 58 75 60 76 62 77
REMARK SMILES IDX 59 78 43 79 44 80 49 81 45 82 46 83 48 84 50 85 47 86
REMARK H PARENT 3 14 80 23 67 48 41 59
REMARK Flexibility Score: inf
ROOT
ATOM      1  C   UNL A   1      32.989  21.877  26.135  1.00  0.00     0.261 C 
ENDROOT
BRANCH   1   2
ATOM      2  O   UNL A   1      32.288  23.009  26.681  1.00  0.00    -0.461 OA
BRANCH   2   3
ATOM      3  C   UNL A   1      32.106  24.054  25.827  1.00  0.00     0.335 C 
ATOM      4  O   UNL A   1      31.269  24.085  24.929  1.00  0.00    -0.249 OA
BRANCH   3   5
ATOM      5  C   UNL A   1      33.091  25.200  26.070  1.00  0.00     0.228 C 
ATOM      6  C   UNL A   1      32.760  27.335  25.184  1.00  0.00     0.138 C 
ATOM      7  C   UNL A   1      33.592  26.555  24.179  1.00  0.00     0.037 C 
ATOM      8  O   UNL A   1      32.357  26.421  26.213  1.00  0.00    -0.361 OA
ATOM      9  C   UNL A   1      34.166  25.445  25.022  1.00  0.00     0.047 C 
BRANCH   6  10
ATOM     10  C   UNL A   1      31.536  28.061  24.606  1.00  0.00     0.148 C 
BRANCH  10  11
ATOM     11  N   UNL A   1      30.431  27.175  24.242  1.00  0.00    -0.349 N 
ATOM     12  O   UNL A   1      28.363  26.541  23.658  1.00  0.00    -0.269 OA
ATOM     13  C   UNL A   1      29.215  27.428  23.665  1.00  0.00     0.251 C 
ATOM     14  H   UNL A   1      30.591  26.226  24.449  1.00  0.00     0.163 HD
BRANCH  13  15
ATOM     15  C   UNL A   1      28.895  28.739  23.060  1.00  0.00     0.039 A 
ATOM     16  C   UNL A   1      27.808  29.504  23.487  1.00  0.00     0.014 A 
ATOM     17  C   UNL A   1      29.770  29.259  22.100  1.00  0.00     0.014 A 
ATOM     18  C   UNL A   1      27.543  30.737  22.887  1.00  0.00     0.007 A 
ATOM     19  C   UNL A   1      29.514  30.497  21.508  1.00  0.00     0.007 A 
ATOM     20  C   UNL A   1      28.389  31.240  21.887  1.00  0.00    -0.023 A 
BRANCH  20  21
ATOM     21  C   UNL A   1      28.057  32.534  21.198  1.00  0.00     0.191 C 
BRANCH  21  22
ATOM     22  O   UNL A   1      28.029  33.595  22.144  1.00  0.00    -0.392 OA
ATOM     23  H   UNL A   1      27.262  33.488  22.727  1.00  0.00     0.211 HD
ENDBRANCH  21  22
ENDBRANCH  20  21
ENDBRANCH  13  15
ENDBRANCH  10  11
ENDBRANCH   6  10
ENDBRANCH   3   5
ENDBRANCH   2   3
ENDBRANCH   1   2
BRANCH   1  24
ATOM     24  C   UNL A   1      34.187  21.467  26.993  1.00  0.00     0.202 C 
BRANCH  24  25
ATOM     25  O   UNL A   1      35.481  21.722  26.448  1.00  0.00    -0.374 OA
BRANCH  25  26
ATOM     26  C   UNL A   1      35.771  21.186  25.160  1.00  0.00     0.202 C 
BRANCH  26  27
ATOM     27  C   UNL A   1      37.109  20.449  25.008  1.00  0.00     0.261 C 
BRANCH  27  28
ATOM     28  O   UNL A   1      38.243  21.338  25.012  1.00  0.00    -0.460 OA
BRANCH  28  29
ATOM     29  C   UNL A   1      39.178  21.045  25.949  1.00  0.00     0.338 C 
ATOM     30  O   UNL A   1      39.713  19.963  26.147  1.00  0.00    -0.246 OA
BRANCH  29  31
ATOM     31  C   UNL A   1      39.621  22.261  26.656  1.00  0.00     0.060 A 
ATOM     32  C   UNL A   1      39.030  23.473  26.278  1.00  0.00     0.016 A 
ATOM     33  C   UNL A   1      40.684  22.243  27.560  1.00  0.00     0.016 A 
ATOM     34  C   UNL A   1      39.537  24.677  26.764  1.00  0.00     0.010 A 
ATOM     35  C   UNL A   1      41.197  23.456  28.042  1.00  0.00     0.010 A 
ATOM     36  C   UNL A   1      40.650  24.681  27.616  1.00  0.00    -0.014 A 
BRANCH  36  37
ATOM     37  C   UNL A   1      41.302  25.976  27.935  1.00  0.00     0.031 A 
ATOM     38  C   UNL A   1      42.700  26.245  27.444  1.00  0.00     0.074 A 
ATOM     39  C   UNL A   1      40.626  26.941  28.587  1.00  0.00     0.049 A 
ATOM     40  N   UNL A   1      43.426  27.330  27.552  1.00  0.00    -0.248 NA
ATOM     41  C   UNL A   1      43.368  25.146  26.727  1.00  0.00     0.031 C 
ATOM     42  C   UNL A   1      39.258  26.825  29.087  1.00  0.00     0.029 A 
ATOM     43  N   UNL A   1      41.002  28.218  28.924  1.00  0.00    -0.354 N 
ATOM     44  C   UNL A   1      44.626  27.051  26.910  1.00  0.00     0.074 A 
ATOM     45  C   UNL A   1      44.548  25.682  26.448  1.00  0.00     0.031 C 
ATOM     46  C   UNL A   1      38.905  27.988  29.663  1.00  0.00     0.029 A 
ATOM     47  C   UNL A   1      40.026  28.922  29.587  1.00  0.00     0.049 A 
ATOM     48  H   UNL A   1      41.887  28.593  28.711  1.00  0.00     0.167 HD
ATOM     49  C   UNL A   1      45.689  27.866  26.706  1.00  0.00     0.037 A 
ATOM     50  C   UNL A   1      40.039  30.176  30.078  1.00  0.00     0.037 A 
ATOM     51  C   UNL A   1      45.776  29.228  27.161  1.00  0.00     0.049 A 
ATOM     52  C   UNL A   1      41.260  31.038  29.892  1.00  0.00     0.074 A 
ATOM     53  C   UNL A   1      46.816  30.128  27.001  1.00  0.00     0.029 A 
ATOM     54  N   UNL A   1      44.783  29.888  27.868  1.00  0.00    -0.354 N 
ATOM     55  N   UNL A   1      42.379  30.767  29.265  1.00  0.00    -0.248 NA
ATOM     56  C   UNL A   1      41.214  32.386  30.480  1.00  0.00     0.031 C 
ATOM     57  C   UNL A   1      46.467  31.322  27.640  1.00  0.00     0.029 A 
ATOM     58  C   UNL A   1      45.194  31.177  28.165  1.00  0.00     0.049 A 
ATOM     59  H   UNL A   1      43.915  29.500  28.120  1.00  0.00     0.167 HD
ATOM     60  C   UNL A   1      43.156  31.916  29.360  1.00  0.00     0.074 A 
ATOM     61  C   UNL A   1      42.375  32.891  30.092  1.00  0.00     0.031 C 
ATOM     62  C   UNL A   1      44.406  32.141  28.888  1.00  0.00     0.037 A 
BRANCH  49  63
ATOM     63  C   UNL A   1      46.857  27.302  25.953  1.00  0.00     0.057 A 
ATOM     64  C   UNL A   1      46.995  27.483  24.572  1.00  0.00     0.134 A 
ATOM     65  C   UNL A   1      47.880  26.620  26.624  1.00  0.00     0.134 A 
ATOM     66  F   UNL A   1      46.044  28.118  23.871  1.00  0.00    -0.206 F 
ATOM     67  C   UNL A   1      48.106  26.996  23.881  1.00  0.00     0.040 A 
ATOM     68  C   UNL A   1      49.005  26.146  25.947  1.00  0.00     0.040 A 
ATOM     69  F   UNL A   1      47.810  26.417  27.949  1.00  0.00    -0.206 F 
ATOM     70  C   UNL A   1      49.119  26.332  24.570  1.00  0.00     0.006 A 
ENDBRANCH  49  63
BRANCH  50  71
ATOM     71  C   UNL A   1      38.857  30.706  30.802  1.00  0.00     0.057 A 
ATOM     72  C   UNL A   1      38.679  30.473  32.170  1.00  0.00     0.134 A 
ATOM     73  C   UNL A   1      37.854  31.412  30.130  1.00  0.00     0.134 A 
ATOM     74  F   UNL A   1      39.593  29.776  32.862  1.00  0.00    -0.206 F 
ATOM     75  C   UNL A   1      37.534  30.906  32.841  1.00  0.00     0.040 A 
ATOM     76  C   UNL A   1      36.715  31.873  30.793  1.00  0.00     0.040 A 
ATOM     77  F   UNL A   1      37.963  31.661  28.816  1.00  0.00    -0.206 F 
ATOM     78  C   UNL A   1      36.549  31.611  32.152  1.00  0.00     0.006 A 
ENDBRANCH  50  71
BRANCH  62  79
ATOM     79  C   UNL A   1      44.991  33.503  29.123  1.00  0.00     0.057 A 
ATOM     80  C   UNL A   1      45.779  33.782  30.247  1.00  0.00     0.134 A 
ATOM     81  C   UNL A   1      44.783  34.539  28.205  1.00  0.00     0.134 A 
ATOM     82  F   UNL A   1      46.005  32.835  31.171  1.00  0.00    -0.206 F 
ATOM     83  C   UNL A   1      46.314  35.053  30.465  1.00  0.00     0.040 A 
ATOM     84  C   UNL A   1      45.333  35.807  28.398  1.00  0.00     0.040 A 
ATOM     85  F   UNL A   1      44.047  34.335  27.102  1.00  0.00    -0.206 F 
ATOM     86  C   UNL A   1      46.095  36.069  29.535  1.00  0.00     0.006 A 
ENDBRANCH  62  79
ENDBRANCH  36  37
ENDBRANCH  29  31
ENDBRANCH  28  29
ENDBRANCH  27  28
ENDBRANCH  26  27
ENDBRANCH  25  26
ENDBRANCH  24  25
ENDBRANCH   1  24
TORSDOF 19
ENDMDL
MODEL 3
REMARK VINA RESULT:      -9.9      1.526      2.640
REMARK SMILES O=C(NC[C@@H]1CC[C@H](C(=O)OCCOCCOC(=O)c2ccc(-c3c4nc(c(-c5c(F)cccc5F)c5ccc([nH]5)c(-c5c(F)cccc5F)c5nc(c(-c6c(F)cccc6F)c6ccc3[nH]6)C=C5)C=C4)cc2)O1)c1ccc(CO)cc1
REMARK SMILES IDX 12 1 11 2 9 3 10 4 8 5 5 6 6 7 74 8 7 9 4 10 3 11 1 12 2 13
REMARK SMILES IDX 75 15 76 16 82 17 77 18 81 19 78 20 79 21 80 22 13 24 14 25
REMARK SMILES IDX 15 26 16 27 17 28 18 29 19 30 20 31 21 32 73 33 22 34 72 35
REMARK SMILES IDX 23 36 24 37 25 38 66 39 26 40 71 41 65 42 67 43 27 44 70 45
REMARK SMILES IDX 64 46 63 47 28 49 54 50 37 51 53 52 38 53 41 54 52 55 68 56
REMARK SMILES IDX 39 57 40 58 51 60 69 61 42 62 29 63 30 64 35 65 31 66 32 67
REMARK SMILES IDX 34 68 36 69 33 70 55 71 56 72 61 73 57 74 58 75 60 76 62 77
REMARK SMILES IDX 59 78 43 79 44 80 49 81 45 82 46 83 48 84 50 85 47 86
REMARK H PARENT 3 14 80 23 67 48 41 59
REMARK Flexibility Score: inf
ROOT
ATOM      1  C   UNL A   1      34.117  23.671  25.618  1.00  0.00     0.261 C 
ENDROOT
BRANCH   1   2
ATOM      2  O   UNL A   1      34.388  24.530  24.496  1.00  0.00    -0.461 OA
BRANCH   2   3
ATOM      3  C   UNL A   1      33.534  24.406  23.443  1.00  0.00     0.335 C 
ATOM      4  O   UNL A   1      32.838  23.420  23.220  1.00  0.00    -0.249 OA
BRANCH   3   5
ATOM      5  C   UNL A   1      33.552  25.625  22.517  1.00  0.00     0.228 C 
ATOM      6  C   UNL A   1      31.935  27.306  22.644  1.00  0.00     0.138 C 
ATOM      7  C   UNL A   1      31.443  26.284  21.632  1.00  0.00     0.037 C 
ATOM      8  O   UNL A   1      33.119  26.774  23.254  1.00  0.00    -0.361 OA
ATOM      9  C   UNL A   1      32.712  25.565  21.250  1.00  0.00     0.047 C 
BRANCH   6  10
ATOM     10  C   UNL A   1      30.918  27.715  23.719  1.00  0.00     0.148 C 
BRANCH  10  11
ATOM     11  N   UNL A   1      30.858  26.807  24.862  1.00  0.00    -0.349 N 
ATOM     12  O   UNL A   1      31.479  25.784  26.757  1.00  0.00    -0.269 OA
ATOM     13  C   UNL A   1      31.556  26.782  26.042  1.00  0.00     0.251 C 
ATOM     14  H   UNL A   1      30.197  26.083  24.769  1.00  0.00     0.163 HD
BRANCH  13  15
ATOM     15  C   UNL A   1      32.405  27.914  26.470  1.00  0.00     0.039 A 
ATOM     16  C   UNL A   1      33.799  27.853  26.419  1.00  0.00     0.014 A 
ATOM     17  C   UNL A   1      31.779  29.107  26.847  1.00  0.00     0.014 A 
ATOM     18  C   UNL A   1      34.561  28.947  26.835  1.00  0.00     0.007 A 
ATOM     19  C   UNL A   1      32.540  30.206  27.251  1.00  0.00     0.007 A 
ATOM     20  C   UNL A   1      33.938  30.129  27.261  1.00  0.00    -0.023 A 
BRANCH  20  21
ATOM     21  C   UNL A   1      34.766  31.276  27.774  1.00  0.00     0.191 C 
BRANCH  21  22
ATOM     22  O   UNL A   1      33.993  32.072  28.663  1.00  0.00    -0.392 OA
ATOM     23  H   UNL A   1      33.181  31.598  28.899  1.00  0.00     0.211 HD
ENDBRANCH  21  22
ENDBRANCH  20  21
ENDBRANCH  13  15
ENDBRANCH  10  11
ENDBRANCH   6  10
ENDBRANCH   3   5
ENDBRANCH   2   3
ENDBRANCH   1   2
BRANCH   1  24
ATOM     24  C   UNL A   1      35.326  22.813  25.997  1.00  0.00     0.202 C 
BRANCH  24  25
ATOM     25  O   UNL A   1      35.969  22.111  24.935  1.00  0.00    -0.374 OA
BRANCH  25  26
ATOM     26  C   UNL A   1      35.959  20.686  24.985  1.00  0.00     0.202 C 
BRANCH  26  27
ATOM     27  C   UNL A   1      37.327  19.992  25.054  1.00  0.00     0.261 C 
BRANCH  27  28
ATOM     28  O   UNL A   1      38.430  20.918  24.998  1.00  0.00    -0.460 OA
BRANCH  28  29
ATOM     29  C   UNL A   1      39.417  20.665  25.892  1.00  0.00     0.338 C 
ATOM     30  O   UNL A   1      40.028  19.616  26.042  1.00  0.00    -0.246 OA
BRANCH  29  31
ATOM     31  C   UNL A   1      39.807  21.891  26.613  1.00  0.00     0.060 A 
ATOM     32  C   UNL A   1      39.194  23.088  26.222  1.00  0.00     0.016 A 
ATOM     33  C   UNL A   1      40.846  21.899  27.545  1.00  0.00     0.016 A 
ATOM     34  C   UNL A   1      39.654  24.303  26.724  1.00  0.00     0.010 A 
ATOM     35  C   UNL A   1      41.311  23.125  28.044  1.00  0.00     0.010 A 
ATOM     36  C   UNL A   1      40.743  24.335  27.606  1.00  0.00    -0.014 A 
BRANCH  36  37
ATOM     37  C   UNL A   1      41.350  25.647  27.946  1.00  0.00     0.031 A 
ATOM     38  C   UNL A   1      42.740  25.970  27.462  1.00  0.00     0.074 A 
ATOM     39  C   UNL A   1      40.641  26.579  28.610  1.00  0.00     0.049 A 
ATOM     40  N   UNL A   1      43.428  27.077  27.588  1.00  0.00    -0.248 NA
ATOM     41  C   UNL A   1      43.446  24.904  26.731  1.00  0.00     0.031 C 
ATOM     42  C   UNL A   1      39.277  26.410  29.105  1.00  0.00     0.029 A 
ATOM     43  N   UNL A   1      40.974  27.862  28.966  1.00  0.00    -0.354 N 
ATOM     44  C   UNL A   1      44.638  26.848  26.944  1.00  0.00     0.074 A 
ATOM     45  C   UNL A   1      44.608  25.484  26.462  1.00  0.00     0.031 C 
ATOM     46  C   UNL A   1      38.883  27.551  29.697  1.00  0.00     0.029 A 
ATOM     47  C   UNL A   1      39.973  28.523  29.636  1.00  0.00     0.049 A 
ATOM     48  H   UNL A   1      41.846  28.271  28.761  1.00  0.00     0.167 HD
ATOM     49  C   UNL A   1      45.674  27.700  26.755  1.00  0.00     0.037 A 
ATOM     50  C   UNL A   1      39.943  29.770  30.145  1.00  0.00     0.037 A 
ATOM     51  C   UNL A   1      45.714  29.058  27.231  1.00  0.00     0.049 A 
ATOM     52  C   UNL A   1      41.134  30.675  29.975  1.00  0.00     0.074 A 
ATOM     53  C   UNL A   1      46.724  29.994  27.086  1.00  0.00     0.029 A 
ATOM     54  N   UNL A   1      44.698  29.674  27.944  1.00  0.00    -0.354 N 
ATOM     55  N   UNL A   1      42.263  30.451  29.347  1.00  0.00    -0.248 NA
ATOM     56  C   UNL A   1      41.042  32.012  30.583  1.00  0.00     0.031 C 
ATOM     57  C   UNL A   1      46.334  31.167  27.741  1.00  0.00     0.029 A 
ATOM     58  C   UNL A   1      45.065  30.972  28.261  1.00  0.00     0.049 A 
ATOM     59  H   UNL A   1      43.843  29.253  28.188  1.00  0.00     0.167 HD
ATOM     60  C   UNL A   1      43.000  31.624  29.461  1.00  0.00     0.074 A 
ATOM     61  C   UNL A   1      42.186  32.562  30.205  1.00  0.00     0.031 C 
ATOM     62  C   UNL A   1      44.244  31.898  28.995  1.00  0.00     0.037 A 
BRANCH  49  63
ATOM     63  C   UNL A   1      46.862  27.187  25.997  1.00  0.00     0.057 A 
ATOM     64  C   UNL A   1      47.880  26.467  26.632  1.00  0.00     0.134 A 
ATOM     65  C   UNL A   1      46.960  27.366  24.611  1.00  0.00     0.134 A 
ATOM     66  F   UNL A   1      47.851  26.272  27.959  1.00  0.00    -0.206 F 
ATOM     67  C   UNL A   1      48.963  25.951  25.916  1.00  0.00     0.040 A 
ATOM     68  C   UNL A   1      48.026  26.837  23.883  1.00  0.00     0.040 A 
ATOM     69  F   UNL A   1      46.013  28.043  23.943  1.00  0.00    -0.206 F 
ATOM     70  C   UNL A   1      49.033  26.130  24.536  1.00  0.00     0.006 A 
ENDBRANCH  49  63
BRANCH  50  71
ATOM     71  C   UNL A   1      38.742  30.249  30.874  1.00  0.00     0.057 A 
ATOM     72  C   UNL A   1      37.756  31.007  30.232  1.00  0.00     0.134 A 
ATOM     73  C   UNL A   1      38.579  30.002  32.242  1.00  0.00     0.134 A 
ATOM     74  F   UNL A   1      37.872  31.302  28.929  1.00  0.00    -0.206 F 
ATOM     75  C   UNL A   1      36.662  31.522  30.929  1.00  0.00     0.040 A 
ATOM     76  C   UNL A   1      37.477  30.489  32.946  1.00  0.00     0.040 A 
ATOM     77  F   UNL A   1      39.493  29.288  32.915  1.00  0.00    -0.206 F 
ATOM     78  C   UNL A   1      36.519  31.260  32.291  1.00  0.00     0.006 A 
ENDBRANCH  50  71
BRANCH  62  79
ATOM     79  C   UNL A   1      44.782  33.275  29.252  1.00  0.00     0.057 A 
ATOM     80  C   UNL A   1      45.558  33.564  30.381  1.00  0.00     0.134 A 
ATOM     81  C   UNL A   1      44.541  34.317  28.348  1.00  0.00     0.134 A 
ATOM     82  F   UNL A   1      45.815  32.612  31.292  1.00  0.00    -0.206 F 
ATOM     83  C   UNL A   1      46.050  34.849  30.619  1.00  0.00     0.040 A 
ATOM     84  C   UNL A   1      45.047  35.600  28.562  1.00  0.00     0.040 A 
ATOM     85  F   UNL A   1      43.814  34.105  27.241  1.00  0.00    -0.206 F 
ATOM     86  C   UNL A   1      45.798  35.870  29.704  1.00  0.00     0.006 A 
ENDBRANCH  62  79
ENDBRANCH  36  37
ENDBRANCH  29  31
ENDBRANCH  28  29
ENDBRANCH  27  28
ENDBRANCH  26  27
ENDBRANCH  25  26
ENDBRANCH  24  25
ENDBRANCH   1  24
TORSDOF 19
ENDMDL
