MODEL 1
REMARK VINA RESULT:     -11.4      0.000      0.000
REMARK SMILES CCCCc1cc(S(F)(F)(F)(F)F)cc2c1O[C@@H](C(F)(F)F)C(C(=O)OCCOCCOC(=O)c1ccc(-c3c4nc(c(-c5c(F)cccc5F)c5ccc([nH]5)c(-c5c(F)cccc5F)c5nc(c(-c6c(F)cccc6F)c6ccc3[nH]6)C=C5)C=C4)cc1)=C2
REMARK SMILES IDX 28 1 27 2 26 3 24 4 25 5 23 6 5 7 6 8 16 9 7 10 15 11 17 12
REMARK SMILES IDX 14 13 89 14 18 15 4 16 3 17 2 18 1 19 8 20 9 21 10 22 11 23
REMARK SMILES IDX 12 24 13 25 19 26 20 27 21 28 22 29 29 30 30 31 31 32 32 33
REMARK SMILES IDX 33 34 34 35 35 36 36 37 88 38 37 39 87 40 38 41 39 42 40 43
REMARK SMILES IDX 81 44 41 45 86 46 80 47 82 48 42 49 85 50 79 51 78 52 43 54
REMARK SMILES IDX 69 55 52 56 68 57 53 58 56 59 67 60 83 61 54 62 55 63 66 65
REMARK SMILES IDX 84 66 57 67 44 68 45 69 50 70 46 71 47 72 49 73 51 74 48 75
REMARK SMILES IDX 70 76 71 77 76 78 72 79 73 80 75 81 77 82 74 83 58 84 59 85
REMARK SMILES IDX 64 86 60 87 61 88 63 89 65 90 62 91
REMARK H PARENT 82 53 56 64
REMARK Flexibility Score: inf
ROOT
ATOM      1  C   UNL A   1      30.545  26.732  26.001  1.00  0.00     0.202 C 
ENDROOT
BRANCH   1   2
ATOM      2  C   UNL A   1      30.287  25.291  25.595  1.00  0.00     0.261 C 
BRANCH   2   3
ATOM      3  O   UNL A   1      30.108  25.220  24.188  1.00  0.00    -0.460 OA
BRANCH   3   4
ATOM      4  C   UNL A   1      31.178  24.796  23.357  1.00  0.00     0.338 C 
ATOM      5  O   UNL A   1      31.316  25.291  22.194  1.00  0.00    -0.246 OA
BRANCH   4   6
ATOM      6  C   UNL A   1      32.160  23.748  23.857  1.00  0.00     0.087 C 
ATOM      7  C   UNL A   1      35.135  20.979  24.818  1.00  0.00    -0.004 A 
ATOM      8  C   UNL A   1      34.855  19.625  24.785  1.00  0.00     0.032 A 
ATOM      9  C   UNL A   1      34.154  21.866  24.446  1.00  0.00     0.131 A 
ATOM     10  C   UNL A   1      33.626  19.170  24.386  1.00  0.00     0.108 A 
ATOM     11  C   UNL A   1      32.896  21.443  24.055  1.00  0.00     0.019 A 
ATOM     12  O   UNL A   1      34.482  23.197  24.377  1.00  0.00    -0.475 OA
ATOM     13  C   UNL A   1      32.649  20.075  24.028  1.00  0.00     0.036 A 
ATOM     14  C   UNL A   1      31.941  22.457  23.643  1.00  0.00     0.027 C 
ATOM     15  C   UNL A   1      33.414  24.157  24.616  1.00  0.00     0.316 C 
BRANCH   7  16
ATOM     16  C   UNL A   1      36.503  21.476  25.258  1.00  0.00     0.039 C 
BRANCH  16  17
ATOM     17  C   UNL A   1      37.535  20.383  25.036  1.00  0.00     0.005 C 
BRANCH  17  18
ATOM     18  C   UNL A   1      38.899  20.876  25.491  1.00  0.00    -0.003 C 
ATOM     19  C   UNL A   1      38.759  22.258  26.109  1.00  0.00     0.004 C 
ENDBRANCH  17  18
ENDBRANCH  16  17
ENDBRANCH   7  16
BRANCH  10  20
ATOM     20  S   UNL A   1      33.288  17.393  24.327  1.00  0.00     0.310 S 
ATOM     21  F   UNL A   1      34.783  17.031  24.712  1.00  0.00    -0.094 F 
ATOM     22  F   UNL A   1      33.746  17.380  22.819  1.00  0.00    -0.094 F 
ATOM     23  F   UNL A   1      32.995  15.866  24.280  1.00  0.00    -0.094 F 
ATOM     24  F   UNL A   1      32.967  17.399  25.873  1.00  0.00    -0.094 F 
ATOM     25  F   UNL A   1      33.688  18.920  24.418  1.00  0.00    -0.094 F 
ENDBRANCH  10  20
BRANCH  15  26
ATOM     26  C   UNL A   1      33.862  25.527  24.134  1.00  0.00     0.430 C 
ATOM     27  F   UNL A   1      34.964  25.889  24.784  1.00  0.00    -0.167 F 
ATOM     28  F   UNL A   1      34.114  25.477  22.829  1.00  0.00    -0.167 F 
ATOM     29  F   UNL A   1      32.898  26.415  24.365  1.00  0.00    -0.167 F 
ENDBRANCH  15  26
ENDBRANCH   4   6
ENDBRANCH   3   4
ENDBRANCH   2   3
ENDBRANCH   1   2
BRANCH   1  30
ATOM     30  O   UNL A   1      31.489  26.763  27.061  1.00  0.00    -0.374 OA
BRANCH  30  31
ATOM     31  C   UNL A   1      31.798  28.113  27.379  1.00  0.00     0.202 C 
BRANCH  31  32
ATOM     32  C   UNL A   1      33.296  28.335  27.249  1.00  0.00     0.261 C 
BRANCH  32  33
ATOM     33  O   UNL A   1      33.539  29.653  26.779  1.00  0.00    -0.460 OA
BRANCH  33  34
ATOM     34  C   UNL A   1      34.377  30.527  27.519  1.00  0.00     0.338 C 
ATOM     35  O   UNL A   1      34.024  31.733  27.715  1.00  0.00    -0.246 OA
BRANCH  34  36
ATOM     36  C   UNL A   1      35.697  30.022  28.078  1.00  0.00     0.060 A 
ATOM     37  C   UNL A   1      35.729  29.463  29.345  1.00  0.00     0.016 A 
ATOM     38  C   UNL A   1      36.799  30.124  27.343  1.00  0.00     0.016 A 
ATOM     39  C   UNL A   1      37.033  29.302  29.869  1.00  0.00     0.010 A 
ATOM     40  C   UNL A   1      38.027  29.821  27.878  1.00  0.00     0.010 A 
ATOM     41  C   UNL A   1      38.138  29.321  29.146  1.00  0.00    -0.014 A 
BRANCH  41  42
ATOM     42  C   UNL A   1      39.462  28.812  29.694  1.00  0.00     0.031 A 
ATOM     43  C   UNL A   1      40.045  27.705  29.078  1.00  0.00     0.074 A 
ATOM     44  C   UNL A   1      40.014  29.478  30.774  1.00  0.00     0.049 A 
ATOM     45  N   UNL A   1      41.209  27.126  29.377  1.00  0.00    -0.248 NA
ATOM     46  C   UNL A   1      39.443  26.974  27.952  1.00  0.00     0.031 C 
ATOM     47  C   UNL A   1      39.436  30.602  31.396  1.00  0.00     0.029 A 
ATOM     48  N   UNL A   1      41.190  29.191  31.433  1.00  0.00    -0.354 N 
ATOM     49  C   UNL A   1      41.442  26.102  28.554  1.00  0.00     0.074 A 
ATOM     50  C   UNL A   1      40.305  25.986  27.629  1.00  0.00     0.031 C 
ATOM     51  C   UNL A   1      40.244  30.980  32.421  1.00  0.00     0.029 A 
ATOM     52  C   UNL A   1      41.342  30.099  32.457  1.00  0.00     0.049 A 
ATOM     53  H   UNL A   1      41.813  28.462  31.209  1.00  0.00     0.167 HD
ATOM     54  C   UNL A   1      42.557  25.262  28.536  1.00  0.00     0.037 A 
ATOM     55  C   UNL A   1      42.372  30.170  33.382  1.00  0.00     0.037 A 
ATOM     56  C   UNL A   1      43.607  25.361  29.434  1.00  0.00     0.049 A 
ATOM     57  C   UNL A   1      43.459  29.293  33.401  1.00  0.00     0.074 A 
ATOM     58  C   UNL A   1      44.741  24.526  29.426  1.00  0.00     0.029 A 
ATOM     59  N   UNL A   1      43.747  26.252  30.474  1.00  0.00    -0.354 N 
ATOM     60  N   UNL A   1      43.709  28.294  32.553  1.00  0.00    -0.248 NA
ATOM     61  C   UNL A   1      44.539  29.339  34.396  1.00  0.00     0.031 C 
ATOM     62  C   UNL A   1      45.550  24.905  30.451  1.00  0.00     0.029 A 
ATOM     63  C   UNL A   1      44.933  25.980  31.118  1.00  0.00     0.049 A 
ATOM     64  H   UNL A   1      43.109  26.962  30.715  1.00  0.00     0.167 HD
ATOM     65  C   UNL A   1      44.854  27.691  32.879  1.00  0.00     0.074 A 
ATOM     66  C   UNL A   1      45.401  28.349  34.074  1.00  0.00     0.031 C 
ATOM     67  C   UNL A   1      45.467  26.619  32.227  1.00  0.00     0.037 A 
BRANCH  54  68
ATOM     68  C   UNL A   1      42.621  24.178  27.472  1.00  0.00     0.057 A 
ATOM     69  C   UNL A   1      43.154  24.450  26.224  1.00  0.00     0.134 A 
ATOM     70  C   UNL A   1      42.239  22.951  27.806  1.00  0.00     0.134 A 
ATOM     71  F   UNL A   1      43.776  25.589  25.933  1.00  0.00    -0.206 F 
ATOM     72  C   UNL A   1      42.977  23.406  25.284  1.00  0.00     0.040 A 
ATOM     73  C   UNL A   1      42.219  21.945  26.870  1.00  0.00     0.040 A 
ATOM     74  F   UNL A   1      41.872  22.692  29.058  1.00  0.00    -0.206 F 
ATOM     75  C   UNL A   1      42.676  22.160  25.598  1.00  0.00     0.006 A 
ENDBRANCH  54  68
BRANCH  55  76
ATOM     76  C   UNL A   1      42.315  31.264  34.435  1.00  0.00     0.057 A 
ATOM     77  C   UNL A   1      42.924  32.485  34.193  1.00  0.00     0.134 A 
ATOM     78  C   UNL A   1      41.757  30.995  35.609  1.00  0.00     0.134 A 
ATOM     79  F   UNL A   1      43.268  32.895  32.975  1.00  0.00    -0.206 F 
ATOM     80  C   UNL A   1      43.148  33.255  35.359  1.00  0.00     0.040 A 
ATOM     81  C   UNL A   1      41.902  31.858  36.669  1.00  0.00     0.040 A 
ATOM     82  F   UNL A   1      41.051  29.878  35.762  1.00  0.00    -0.206 F 
ATOM     83  C   UNL A   1      42.543  33.056  36.516  1.00  0.00     0.006 A 
ENDBRANCH  55  76
BRANCH  67  84
ATOM     84  C   UNL A   1      46.799  26.123  32.764  1.00  0.00     0.057 A 
ATOM     85  C   UNL A   1      47.973  26.691  32.295  1.00  0.00     0.134 A 
ATOM     86  C   UNL A   1      46.817  25.154  33.672  1.00  0.00     0.134 A 
ATOM     87  F   UNL A   1      48.002  27.817  31.588  1.00  0.00    -0.206 F 
ATOM     88  C   UNL A   1      49.137  25.963  32.636  1.00  0.00     0.040 A 
ATOM     89  C   UNL A   1      48.004  24.581  34.060  1.00  0.00     0.040 A 
ATOM     90  F   UNL A   1      45.675  24.736  34.212  1.00  0.00    -0.206 F 
ATOM     91  C   UNL A   1      49.199  25.052  33.591  1.00  0.00     0.006 A 
ENDBRANCH  67  84
ENDBRANCH  41  42
ENDBRANCH  34  36
ENDBRANCH  33  34
ENDBRANCH  32  33
ENDBRANCH  31  32
ENDBRANCH  30  31
ENDBRANCH   1  30
TORSDOF 19
ENDMDL
MODEL 2
REMARK VINA RESULT:     -11.4      3.730      7.196
REMARK SMILES CCCCc1cc(S(F)(F)(F)(F)F)cc2c1O[C@@H](C(F)(F)F)C(C(=O)OCCOCCOC(=O)c1ccc(-c3c4nc(c(-c5c(F)cccc5F)c5ccc([nH]5)c(-c5c(F)cccc5F)c5nc(c(-c6c(F)cccc6F)c6ccc3[nH]6)C=C5)C=C4)cc1)=C2
REMARK SMILES IDX 28 1 27 2 26 3 24 4 25 5 23 6 5 7 6 8 16 9 7 10 15 11 17 12
REMARK SMILES IDX 14 13 89 14 18 15 4 16 3 17 2 18 1 19 8 20 9 21 10 22 11 23
REMARK SMILES IDX 12 24 13 25 19 26 20 27 21 28 22 29 29 30 30 31 31 32 32 33
REMARK SMILES IDX 33 34 34 35 35 36 36 37 88 38 37 39 87 40 38 41 39 42 40 43
REMARK SMILES IDX 81 44 41 45 86 46 80 47 82 48 42 49 85 50 79 51 78 52 43 54
REMARK SMILES IDX 69 55 52 56 68 57 53 58 56 59 67 60 83 61 54 62 55 63 66 65
REMARK SMILES IDX 84 66 57 67 44 68 45 69 50 70 46 71 47 72 49 73 51 74 48 75
REMARK SMILES IDX 70 76 71 77 76 78 72 79 73 80 75 81 77 82 74 83 58 84 59 85
REMARK SMILES IDX 64 86 60 87 61 88 63 89 65 90 62 91
REMARK H PARENT 82 53 56 64
REMARK Flexibility Score: inf
ROOT
ATOM      1  C   UNL A   1      32.754  30.761  27.100  1.00  0.00     0.202 C 
ENDROOT
BRANCH   1   2
ATOM      2  C   UNL A   1      32.845  29.261  26.874  1.00  0.00     0.261 C 
BRANCH   2   3
ATOM      3  O   UNL A   1      31.801  28.849  26.004  1.00  0.00    -0.460 OA
BRANCH   3   4
ATOM      4  C   UNL A   1      32.108  28.381  24.700  1.00  0.00     0.338 C 
ATOM      5  O   UNL A   1      32.096  29.185  23.715  1.00  0.00    -0.246 OA
BRANCH   4   6
ATOM      6  C   UNL A   1      32.450  26.916  24.479  1.00  0.00     0.087 C 
ATOM      7  C   UNL A   1      33.109  22.795  24.287  1.00  0.00    -0.004 A 
ATOM      8  C   UNL A   1      34.375  22.288  24.514  1.00  0.00     0.032 A 
ATOM      9  C   UNL A   1      32.909  24.149  24.408  1.00  0.00     0.131 A 
ATOM     10  C   UNL A   1      35.413  23.113  24.860  1.00  0.00     0.108 A 
ATOM     11  C   UNL A   1      33.937  25.014  24.738  1.00  0.00     0.019 A 
ATOM     12  O   UNL A   1      31.626  24.624  24.290  1.00  0.00    -0.475 OA
ATOM     13  C   UNL A   1      35.197  24.471  24.965  1.00  0.00     0.036 A 
ATOM     14  C   UNL A   1      33.615  26.424  24.880  1.00  0.00     0.027 C 
ATOM     15  C   UNL A   1      31.464  25.981  23.791  1.00  0.00     0.316 C 
BRANCH   7  16
ATOM     16  C   UNL A   1      31.961  21.874  23.909  1.00  0.00     0.039 C 
BRANCH  16  17
ATOM     17  C   UNL A   1      32.514  20.520  23.494  1.00  0.00     0.005 C 
BRANCH  17  18
ATOM     18  C   UNL A   1      32.413  19.553  24.662  1.00  0.00    -0.003 C 
ATOM     19  C   UNL A   1      32.667  18.137  24.171  1.00  0.00     0.004 C 
ENDBRANCH  17  18
ENDBRANCH  16  17
ENDBRANCH   7  16
BRANCH  10  20
ATOM     20  S   UNL A   1      37.057  22.425  25.177  1.00  0.00     0.310 S 
ATOM     21  F   UNL A   1      37.777  23.710  24.590  1.00  0.00    -0.094 F 
ATOM     22  F   UNL A   1      37.066  21.837  23.714  1.00  0.00    -0.094 F 
ATOM     23  F   UNL A   1      38.469  21.834  25.452  1.00  0.00    -0.094 F 
ATOM     24  F   UNL A   1      37.088  23.137  26.585  1.00  0.00    -0.094 F 
ATOM     25  F   UNL A   1      35.673  23.123  24.869  1.00  0.00    -0.094 F 
ENDBRANCH  10  20
BRANCH  15  26
ATOM     26  C   UNL A   1      30.049  26.452  24.083  1.00  0.00     0.430 C 
ATOM     27  F   UNL A   1      29.182  25.524  23.687  1.00  0.00    -0.167 F 
ATOM     28  F   UNL A   1      29.910  26.658  25.389  1.00  0.00    -0.167 F 
ATOM     29  F   UNL A   1      29.814  27.586  23.428  1.00  0.00    -0.167 F 
ENDBRANCH  15  26
ENDBRANCH   4   6
ENDBRANCH   3   4
ENDBRANCH   2   3
ENDBRANCH   1   2
BRANCH   1  30
ATOM     30  O   UNL A   1      34.059  31.298  27.251  1.00  0.00    -0.374 OA
BRANCH  30  31
ATOM     31  C   UNL A   1      33.998  32.474  28.044  1.00  0.00     0.202 C 
BRANCH  31  32
ATOM     32  C   UNL A   1      34.841  32.287  29.295  1.00  0.00     0.261 C 
BRANCH  32  33
ATOM     33  O   UNL A   1      35.368  30.968  29.317  1.00  0.00    -0.460 OA
BRANCH  33  34
ATOM     34  C   UNL A   1      36.318  30.600  30.306  1.00  0.00     0.338 C 
ATOM     35  O   UNL A   1      36.008  30.656  31.537  1.00  0.00    -0.246 OA
BRANCH  34  36
ATOM     36  C   UNL A   1      37.706  30.138  29.892  1.00  0.00     0.060 A 
ATOM     37  C   UNL A   1      38.073  30.203  28.558  1.00  0.00     0.016 A 
ATOM     38  C   UNL A   1      38.543  29.680  30.815  1.00  0.00     0.016 A 
ATOM     39  C   UNL A   1      39.253  29.485  28.252  1.00  0.00     0.010 A 
ATOM     40  C   UNL A   1      39.741  29.113  30.453  1.00  0.00     0.010 A 
ATOM     41  C   UNL A   1      40.141  29.089  29.146  1.00  0.00    -0.014 A 
BRANCH  41  42
ATOM     42  C   UNL A   1      41.533  28.631  28.742  1.00  0.00     0.031 A 
ATOM     43  C   UNL A   1      42.561  29.576  28.744  1.00  0.00     0.074 A 
ATOM     44  C   UNL A   1      41.704  27.303  28.395  1.00  0.00     0.049 A 
ATOM     45  N   UNL A   1      43.849  29.377  28.459  1.00  0.00    -0.248 NA
ATOM     46  C   UNL A   1      42.376  30.996  29.078  1.00  0.00     0.031 C 
ATOM     47  C   UNL A   1      40.673  26.342  28.399  1.00  0.00     0.029 A 
ATOM     48  N   UNL A   1      42.863  26.676  27.993  1.00  0.00    -0.354 N 
ATOM     49  C   UNL A   1      44.532  30.517  28.588  1.00  0.00     0.074 A 
ATOM     50  C   UNL A   1      43.592  31.576  28.983  1.00  0.00     0.031 C 
ATOM     51  C   UNL A   1      41.200  25.157  27.994  1.00  0.00     0.029 A 
ATOM     52  C   UNL A   1      42.569  25.356  27.732  1.00  0.00     0.049 A 
ATOM     53  H   UNL A   1      43.748  27.099  27.909  1.00  0.00     0.167 HD
ATOM     54  C   UNL A   1      45.900  30.714  28.395  1.00  0.00     0.037 A 
ATOM     55  C   UNL A   1      43.432  24.367  27.287  1.00  0.00     0.037 A 
ATOM     56  C   UNL A   1      46.771  29.714  27.991  1.00  0.00     0.049 A 
ATOM     57  C   UNL A   1      44.790  24.577  27.037  1.00  0.00     0.074 A 
ATOM     58  C   UNL A   1      48.154  29.895  27.799  1.00  0.00     0.029 A 
ATOM     59  N   UNL A   1      46.473  28.401  27.706  1.00  0.00    -0.354 N 
ATOM     60  N   UNL A   1      45.479  25.708  27.204  1.00  0.00    -0.248 NA
ATOM     61  C   UNL A   1      45.707  23.545  26.534  1.00  0.00     0.031 C 
ATOM     62  C   UNL A   1      48.681  28.709  27.395  1.00  0.00     0.029 A 
ATOM     63  C   UNL A   1      47.636  27.769  27.326  1.00  0.00     0.049 A 
ATOM     64  H   UNL A   1      45.582  27.985  27.763  1.00  0.00     0.167 HD
ATOM     65  C   UNL A   1      46.759  25.517  26.879  1.00  0.00     0.074 A 
ATOM     66  C   UNL A   1      46.924  24.126  26.436  1.00  0.00     0.031 C 
ATOM     67  C   UNL A   1      47.799  26.448  26.937  1.00  0.00     0.037 A 
BRANCH  54  68
ATOM     68  C   UNL A   1      46.466  32.103  28.641  1.00  0.00     0.057 A 
ATOM     69  C   UNL A   1      46.505  33.036  27.619  1.00  0.00     0.134 A 
ATOM     70  C   UNL A   1      46.831  32.420  29.877  1.00  0.00     0.134 A 
ATOM     71  F   UNL A   1      45.920  32.846  26.440  1.00  0.00    -0.206 F 
ATOM     72  C   UNL A   1      47.225  34.212  27.942  1.00  0.00     0.040 A 
ATOM     73  C   UNL A   1      47.405  33.639  30.147  1.00  0.00     0.040 A 
ATOM     74  F   UNL A   1      46.641  31.549  30.865  1.00  0.00    -0.206 F 
ATOM     75  C   UNL A   1      47.530  34.588  29.170  1.00  0.00     0.006 A 
ENDBRANCH  54  68
BRANCH  55  76
ATOM     76  C   UNL A   1      42.869  22.974  27.057  1.00  0.00     0.057 A 
ATOM     77  C   UNL A   1      42.502  22.581  25.780  1.00  0.00     0.134 A 
ATOM     78  C   UNL A   1      42.655  22.189  28.106  1.00  0.00     0.134 A 
ATOM     79  F   UNL A   1      42.916  23.208  24.682  1.00  0.00    -0.206 F 
ATOM     80  C   UNL A   1      41.647  21.454  25.751  1.00  0.00     0.040 A 
ATOM     81  C   UNL A   1      41.925  21.031  27.978  1.00  0.00     0.040 A 
ATOM     82  F   UNL A   1      43.152  22.525  29.294  1.00  0.00    -0.206 F 
ATOM     83  C   UNL A   1      41.480  20.614  26.755  1.00  0.00     0.006 A 
ENDBRANCH  55  76
BRANCH  67  84
ATOM     84  C   UNL A   1      49.194  25.985  26.551  1.00  0.00     0.057 A 
ATOM     85  C   UNL A   1      49.971  25.321  27.487  1.00  0.00     0.134 A 
ATOM     86  C   UNL A   1      49.646  26.224  25.326  1.00  0.00     0.134 A 
ATOM     87  F   UNL A   1      49.482  24.839  28.626  1.00  0.00    -0.206 F 
ATOM     88  C   UNL A   1      51.332  25.203  27.120  1.00  0.00     0.040 A 
ATOM     89  C   UNL A   1      50.953  25.958  24.998  1.00  0.00     0.040 A 
ATOM     90  F   UNL A   1      48.825  26.727  24.408  1.00  0.00    -0.206 F 
ATOM     91  C   UNL A   1      51.795  25.357  25.893  1.00  0.00     0.006 A 
ENDBRANCH  67  84
ENDBRANCH  41  42
ENDBRANCH  34  36
ENDBRANCH  33  34
ENDBRANCH  32  33
ENDBRANCH  31  32
ENDBRANCH  30  31
ENDBRANCH   1  30
TORSDOF 19
ENDMDL
MODEL 3
REMARK VINA RESULT:     -11.1      5.410      9.274
REMARK SMILES CCCCc1cc(S(F)(F)(F)(F)F)cc2c1O[C@@H](C(F)(F)F)C(C(=O)OCCOCCOC(=O)c1ccc(-c3c4nc(c(-c5c(F)cccc5F)c5ccc([nH]5)c(-c5c(F)cccc5F)c5nc(c(-c6c(F)cccc6F)c6ccc3[nH]6)C=C5)C=C4)cc1)=C2
REMARK SMILES IDX 28 1 27 2 26 3 24 4 25 5 23 6 5 7 6 8 16 9 7 10 15 11 17 12
REMARK SMILES IDX 14 13 89 14 18 15 4 16 3 17 2 18 1 19 8 20 9 21 10 22 11 23
REMARK SMILES IDX 12 24 13 25 19 26 20 27 21 28 22 29 29 30 30 31 31 32 32 33
REMARK SMILES IDX 33 34 34 35 35 36 36 37 88 38 37 39 87 40 38 41 39 42 40 43
REMARK SMILES IDX 81 44 41 45 86 46 80 47 82 48 42 49 85 50 79 51 78 52 43 54
REMARK SMILES IDX 69 55 52 56 68 57 53 58 56 59 67 60 83 61 54 62 55 63 66 65
REMARK SMILES IDX 84 66 57 67 44 68 45 69 50 70 46 71 47 72 49 73 51 74 48 75
REMARK SMILES IDX 70 76 71 77 76 78 72 79 73 80 75 81 77 82 74 83 58 84 59 85
REMARK SMILES IDX 64 86 60 87 61 88 63 89 65 90 62 91
REMARK H PARENT 82 53 56 64
REMARK Flexibility Score: inf
ROOT
ATOM      1  C   UNL A   1      32.989  35.668  29.624  1.00  0.00     0.202 C 
ENDROOT
BRANCH   1   2
ATOM      2  C   UNL A   1      32.577  35.779  31.082  1.00  0.00     0.261 C 
BRANCH   2   3
ATOM      3  O   UNL A   1      33.424  34.961  31.877  1.00  0.00    -0.460 OA
BRANCH   3   4
ATOM      4  C   UNL A   1      34.569  35.522  32.501  1.00  0.00     0.338 C 
ATOM      5  O   UNL A   1      34.721  36.784  32.537  1.00  0.00    -0.246 OA
BRANCH   4   6
ATOM      6  C   UNL A   1      35.616  34.613  33.126  1.00  0.00     0.087 C 
ATOM      7  C   UNL A   1      38.188  31.729  34.713  1.00  0.00    -0.004 A 
ATOM      8  C   UNL A   1      38.386  31.657  36.079  1.00  0.00     0.032 A 
ATOM      9  C   UNL A   1      37.296  32.652  34.221  1.00  0.00     0.131 A 
ATOM     10  C   UNL A   1      37.705  32.485  36.933  1.00  0.00     0.108 A 
ATOM     11  C   UNL A   1      36.605  33.516  35.053  1.00  0.00     0.019 A 
ATOM     12  O   UNL A   1      37.027  32.635  32.875  1.00  0.00    -0.475 OA
ATOM     13  C   UNL A   1      36.824  33.414  36.422  1.00  0.00     0.036 A 
ATOM     14  C   UNL A   1      35.656  34.429  34.439  1.00  0.00     0.027 C 
ATOM     15  C   UNL A   1      36.642  33.896  32.259  1.00  0.00     0.316 C 
BRANCH   7  16
ATOM     16  C   UNL A   1      38.942  30.804  33.771  1.00  0.00     0.039 C 
BRANCH  16  17
ATOM     17  C   UNL A   1      40.001  30.041  34.550  1.00  0.00     0.005 C 
BRANCH  17  18
ATOM     18  C   UNL A   1      40.690  29.048  33.629  1.00  0.00    -0.003 C 
ATOM     19  C   UNL A   1      39.642  28.227  32.895  1.00  0.00     0.004 C 
ENDBRANCH  17  18
ENDBRANCH  16  17
ENDBRANCH   7  16
BRANCH  10  20
ATOM     20  S   UNL A   1      37.961  32.359  38.721  1.00  0.00     0.310 S 
ATOM     21  F   UNL A   1      36.611  33.129  39.032  1.00  0.00    -0.094 F 
ATOM     22  F   UNL A   1      38.675  33.763  38.693  1.00  0.00    -0.094 F 
ATOM     23  F   UNL A   1      38.181  32.247  40.256  1.00  0.00    -0.094 F 
ATOM     24  F   UNL A   1      37.122  31.022  38.751  1.00  0.00    -0.094 F 
ATOM     25  F   UNL A   1      37.634  32.513  37.182  1.00  0.00    -0.094 F 
ENDBRANCH  10  20
BRANCH  15  26
ATOM     26  C   UNL A   1      36.031  33.617  30.896  1.00  0.00     0.430 C 
ATOM     27  F   UNL A   1      35.891  34.759  30.229  1.00  0.00    -0.167 F 
ATOM     28  F   UNL A   1      36.827  32.800  30.212  1.00  0.00    -0.167 F 
ATOM     29  F   UNL A   1      34.840  33.046  31.053  1.00  0.00    -0.167 F 
ENDBRANCH  15  26
ENDBRANCH   4   6
ENDBRANCH   3   4
ENDBRANCH   2   3
ENDBRANCH   1   2
BRANCH   1  30
ATOM     30  O   UNL A   1      32.666  34.373  29.138  1.00  0.00    -0.374 OA
BRANCH  30  31
ATOM     31  C   UNL A   1      33.555  34.028  28.086  1.00  0.00     0.202 C 
BRANCH  31  32
ATOM     32  C   UNL A   1      33.384  32.559  27.738  1.00  0.00     0.261 C 
BRANCH  32  33
ATOM     33  O   UNL A   1      34.227  31.774  28.570  1.00  0.00    -0.460 OA
BRANCH  33  34
ATOM     34  C   UNL A   1      34.708  30.520  28.111  1.00  0.00     0.338 C 
ATOM     35  O   UNL A   1      33.939  29.741  27.466  1.00  0.00    -0.246 OA
BRANCH  34  36
ATOM     36  C   UNL A   1      36.145  30.109  28.391  1.00  0.00     0.060 A 
ATOM     37  C   UNL A   1      37.116  30.336  27.430  1.00  0.00     0.016 A 
ATOM     38  C   UNL A   1      36.445  29.537  29.551  1.00  0.00     0.016 A 
ATOM     39  C   UNL A   1      38.334  29.658  27.673  1.00  0.00     0.010 A 
ATOM     40  C   UNL A   1      37.697  29.015  29.771  1.00  0.00     0.010 A 
ATOM     41  C   UNL A   1      38.688  29.151  28.840  1.00  0.00    -0.014 A 
BRANCH  41  42
ATOM     42  C   UNL A   1      40.123  28.742  29.131  1.00  0.00     0.031 A 
ATOM     43  C   UNL A   1      40.562  27.504  28.660  1.00  0.00     0.074 A 
ATOM     44  C   UNL A   1      40.915  29.622  29.848  1.00  0.00     0.049 A 
ATOM     45  N   UNL A   1      41.780  26.975  28.775  1.00  0.00    -0.248 NA
ATOM     46  C   UNL A   1      39.712  26.552  27.929  1.00  0.00     0.031 C 
ATOM     47  C   UNL A   1      40.483  30.877  30.319  1.00  0.00     0.029 A 
ATOM     48  N   UNL A   1      42.229  29.458  30.229  1.00  0.00    -0.354 N 
ATOM     49  C   UNL A   1      41.823  25.780  28.181  1.00  0.00     0.074 A 
ATOM     50  C   UNL A   1      40.491  25.489  27.632  1.00  0.00     0.031 C 
ATOM     51  C   UNL A   1      41.517  31.457  30.985  1.00  0.00     0.029 A 
ATOM     52  C   UNL A   1      42.612  30.574  30.940  1.00  0.00     0.049 A 
ATOM     53  H   UNL A   1      42.796  28.679  30.027  1.00  0.00     0.167 HD
ATOM     54  C   UNL A   1      42.921  24.925  28.071  1.00  0.00     0.037 A 
ATOM     55  C   UNL A   1      43.843  30.825  31.525  1.00  0.00     0.037 A 
ATOM     56  C   UNL A   1      44.164  25.196  28.620  1.00  0.00     0.049 A 
ATOM     57  C   UNL A   1      44.925  29.943  31.467  1.00  0.00     0.074 A 
ATOM     58  C   UNL A   1      45.282  24.346  28.513  1.00  0.00     0.029 A 
ATOM     59  N   UNL A   1      44.540  26.299  29.352  1.00  0.00    -0.354 N 
ATOM     60  N   UNL A   1      44.978  28.767  30.839  1.00  0.00    -0.248 NA
ATOM     61  C   UNL A   1      46.223  30.184  32.111  1.00  0.00     0.031 C 
ATOM     62  C   UNL A   1      46.316  24.927  29.179  1.00  0.00     0.029 A 
ATOM     63  C   UNL A   1      45.860  26.146  29.714  1.00  0.00     0.049 A 
ATOM     64  H   UNL A   1      43.965  27.065  29.578  1.00  0.00     0.167 HD
ATOM     65  C   UNL A   1      46.186  28.220  30.989  1.00  0.00     0.074 A 
ATOM     66  C   UNL A   1      47.002  29.120  31.816  1.00  0.00     0.031 C 
ATOM     67  C   UNL A   1      46.642  27.007  30.468  1.00  0.00     0.037 A 
BRANCH  54  68
ATOM     68  C   UNL A   1      42.741  23.622  27.308  1.00  0.00     0.057 A 
ATOM     69  C   UNL A   1      42.307  22.480  27.959  1.00  0.00     0.134 A 
ATOM     70  C   UNL A   1      42.922  23.638  25.993  1.00  0.00     0.134 A 
ATOM     71  F   UNL A   1      41.874  22.483  29.217  1.00  0.00    -0.206 F 
ATOM     72  C   UNL A   1      42.367  21.309  27.167  1.00  0.00     0.040 A 
ATOM     73  C   UNL A   1      42.832  22.479  25.260  1.00  0.00     0.040 A 
ATOM     74  F   UNL A   1      43.193  24.786  25.378  1.00  0.00    -0.206 F 
ATOM     75  C   UNL A   1      42.466  21.301  25.850  1.00  0.00     0.006 A 
ENDBRANCH  54  68
BRANCH  55  76
ATOM     76  C   UNL A   1      44.027  32.135  32.274  1.00  0.00     0.057 A 
ATOM     77  C   UNL A   1      43.658  32.224  33.607  1.00  0.00     0.134 A 
ATOM     78  C   UNL A   1      44.458  33.199  31.607  1.00  0.00     0.134 A 
ATOM     79  F   UNL A   1      43.465  31.158  34.378  1.00  0.00    -0.206 F 
ATOM     80  C   UNL A   1      43.503  33.552  34.070  1.00  0.00     0.040 A 
ATOM     81  C   UNL A   1      44.403  34.450  32.173  1.00  0.00     0.040 A 
ATOM     82  F   UNL A   1      44.947  33.053  30.378  1.00  0.00    -0.206 F 
ATOM     83  C   UNL A   1      43.992  34.619  33.466  1.00  0.00     0.006 A 
ENDBRANCH  55  76
BRANCH  67  84
ATOM     84  C   UNL A   1      48.082  26.608  30.744  1.00  0.00     0.057 A 
ATOM     85  C   UNL A   1      49.081  27.038  29.885  1.00  0.00     0.134 A 
ATOM     86  C   UNL A   1      48.360  25.854  31.800  1.00  0.00     0.134 A 
ATOM     87  F   UNL A   1      48.895  27.988  28.973  1.00  0.00    -0.206 F 
ATOM     88  C   UNL A   1      50.317  26.374  30.067  1.00  0.00     0.040 A 
ATOM     89  C   UNL A   1      49.624  25.350  31.988  1.00  0.00     0.040 A 
ATOM     90  F   UNL A   1      47.404  25.584  32.686  1.00  0.00    -0.206 F 
ATOM     91  C   UNL A   1      50.647  25.685  31.144  1.00  0.00     0.006 A 
ENDBRANCH  67  84
ENDBRANCH  41  42
ENDBRANCH  34  36
ENDBRANCH  33  34
ENDBRANCH  32  33
ENDBRANCH  31  32
ENDBRANCH  30  31
ENDBRANCH   1  30
TORSDOF 19
ENDMDL
