MODEL 1
REMARK VINA RESULT:     -11.9      0.000      0.000
REMARK SMILES C[C@@H](C(=O)OCCOCCOC(=O)c1ccc(-c2c3nc(c(-c4c(F)cccc4F)c4ccc([nH]4)c(-c4c(F)cccc4F)c4nc(c(-c5c(F)cccc5F)c5ccc2[nH]5)C=C4)C=C3)cc1)c1cc(/C=C/S(C)(=O)=O)cc(C(=O)c2ccccc2)c1
REMARK SMILES IDX 7 1 6 2 5 3 3 4 4 5 2 6 1 7 68 8 69 9 87 10 70 11 78 12
REMARK SMILES IDX 77 13 71 14 72 15 73 16 74 17 75 18 76 19 79 20 80 21 81 22
REMARK SMILES IDX 82 23 86 24 83 25 85 26 84 27 8 28 9 29 10 30 11 31 12 32
REMARK SMILES IDX 13 33 14 34 15 35 67 36 16 37 66 38 17 39 18 40 19 41 60 42
REMARK SMILES IDX 20 43 65 44 59 45 61 46 21 47 64 48 58 49 57 50 22 52 48 53
REMARK SMILES IDX 31 54 47 55 32 56 35 57 46 58 62 59 33 60 34 61 45 63 63 64
REMARK SMILES IDX 36 65 23 66 24 67 29 68 25 69 26 70 28 71 30 72 27 73 49 74
REMARK SMILES IDX 50 75 55 76 51 77 52 78 54 79 56 80 53 81 37 82 38 83 43 84
REMARK SMILES IDX 39 85 40 86 42 87 44 88 41 89
REMARK H PARENT 61 51 35 62
REMARK Flexibility Score: inf
ROOT
ATOM      1  C   UNL A   1      34.148  33.909  28.710  1.00  0.00     0.202 C 
ENDROOT
BRANCH   1   2
ATOM      2  C   UNL A   1      33.278  33.179  27.683  1.00  0.00     0.261 C 
BRANCH   2   3
ATOM      3  O   UNL A   1      33.764  31.837  27.490  1.00  0.00    -0.463 OA
BRANCH   3   4
ATOM      4  C   UNL A   1      32.835  30.924  27.100  1.00  0.00     0.313 C 
ATOM      5  O   UNL A   1      31.727  31.209  26.659  1.00  0.00    -0.252 OA
BRANCH   4   6
ATOM      6  C   UNL A   1      33.327  29.481  27.253  1.00  0.00     0.126 C 
ATOM      7  C   UNL A   1      34.815  29.322  27.576  1.00  0.00     0.025 C 
BRANCH   6   8
ATOM      8  C   UNL A   1      32.867  28.629  26.071  1.00  0.00    -0.033 A 
ATOM      9  C   UNL A   1      31.736  29.056  25.356  1.00  0.00     0.012 A 
ATOM     10  C   UNL A   1      33.543  27.485  25.623  1.00  0.00     0.016 A 
ATOM     11  C   UNL A   1      31.258  28.370  24.232  1.00  0.00    -0.024 A 
ATOM     12  C   UNL A   1      33.083  26.770  24.506  1.00  0.00     0.023 A 
ATOM     13  C   UNL A   1      31.945  27.222  23.817  1.00  0.00     0.020 A 
BRANCH  11  14
ATOM     14  C   UNL A   1      30.033  28.784  23.522  1.00  0.00     0.020 C 
ATOM     15  C   UNL A   1      29.668  30.060  23.320  1.00  0.00     0.106 C 
BRANCH  15  16
ATOM     16  S   UNL A   1      28.134  30.450  22.612  1.00  0.00     0.168 S 
ATOM     17  C   UNL A   1      28.201  32.228  22.647  1.00  0.00     0.163 C 
ATOM     18  O   UNL A   1      28.157  30.050  21.221  1.00  0.00    -0.225 OA
ATOM     19  O   UNL A   1      27.048  30.045  23.488  1.00  0.00    -0.225 OA
ENDBRANCH  15  16
ENDBRANCH  11  14
BRANCH  12  20
ATOM     20  C   UNL A   1      33.792  25.565  23.975  1.00  0.00     0.193 C 
ATOM     21  O   UNL A   1      34.017  25.467  22.771  1.00  0.00    -0.289 OA
BRANCH  20  22
ATOM     22  C   UNL A   1      34.282  24.481  24.860  1.00  0.00     0.022 A 
ATOM     23  C   UNL A   1      33.377  23.886  25.746  1.00  0.00     0.012 A 
ATOM     24  C   UNL A   1      35.622  24.078  24.854  1.00  0.00     0.012 A 
ATOM     25  C   UNL A   1      33.799  22.856  26.586  1.00  0.00     0.001 A 
ATOM     26  C   UNL A   1      36.039  23.044  25.694  1.00  0.00     0.001 A 
ATOM     27  C   UNL A   1      35.127  22.429  26.553  1.00  0.00     0.000 A 
ENDBRANCH  20  22
ENDBRANCH  12  20
ENDBRANCH   6   8
ENDBRANCH   4   6
ENDBRANCH   3   4
ENDBRANCH   2   3
ENDBRANCH   1   2
BRANCH   1  28
ATOM     28  O   UNL A   1      33.752  33.770  30.076  1.00  0.00    -0.374 OA
BRANCH  28  29
ATOM     29  C   UNL A   1      34.352  34.646  31.027  1.00  0.00     0.202 C 
BRANCH  29  30
ATOM     30  C   UNL A   1      34.670  34.043  32.401  1.00  0.00     0.261 C 
BRANCH  30  31
ATOM     31  O   UNL A   1      34.985  32.641  32.318  1.00  0.00    -0.460 OA
BRANCH  31  32
ATOM     32  C   UNL A   1      36.081  32.270  33.023  1.00  0.00     0.338 C 
ATOM     33  O   UNL A   1      36.271  32.399  34.223  1.00  0.00    -0.246 OA
BRANCH  32  34
ATOM     34  C   UNL A   1      37.003  31.504  32.165  1.00  0.00     0.060 A 
ATOM     35  C   UNL A   1      37.962  30.709  32.807  1.00  0.00     0.016 A 
ATOM     36  C   UNL A   1      36.995  31.624  30.774  1.00  0.00     0.016 A 
ATOM     37  C   UNL A   1      38.950  30.072  32.062  1.00  0.00     0.010 A 
ATOM     38  C   UNL A   1      37.996  30.991  30.028  1.00  0.00     0.010 A 
ATOM     39  C   UNL A   1      38.999  30.244  30.673  1.00  0.00    -0.014 A 
BRANCH  39  40
ATOM     40  C   UNL A   1      40.191  29.772  29.928  1.00  0.00     0.031 A 
ATOM     41  C   UNL A   1      41.334  30.725  29.705  1.00  0.00     0.074 A 
ATOM     42  C   UNL A   1      40.281  28.501  29.504  1.00  0.00     0.049 A 
ATOM     43  N   UNL A   1      42.467  30.531  29.079  1.00  0.00    -0.248 NA
ATOM     44  C   UNL A   1      41.179  32.077  30.265  1.00  0.00     0.031 C 
ATOM     45  C   UNL A   1      39.259  27.472  29.695  1.00  0.00     0.029 A 
ATOM     46  N   UNL A   1      41.282  27.859  28.819  1.00  0.00    -0.354 N 
ATOM     47  C   UNL A   1      43.160  31.730  29.174  1.00  0.00     0.074 A 
ATOM     48  C   UNL A   1      42.308  32.657  29.887  1.00  0.00     0.031 C 
ATOM     49  C   UNL A   1      39.684  26.328  29.131  1.00  0.00     0.029 A 
ATOM     50  C   UNL A   1      40.993  26.551  28.520  1.00  0.00     0.049 A 
ATOM     51  H   UNL A   1      42.128  28.296  28.568  1.00  0.00     0.167 HD
ATOM     52  C   UNL A   1      44.399  32.029  28.719  1.00  0.00     0.037 A 
ATOM     53  C   UNL A   1      41.698  25.644  27.817  1.00  0.00     0.037 A 
ATOM     54  C   UNL A   1      45.246  31.110  28.005  1.00  0.00     0.049 A 
ATOM     55  C   UNL A   1      43.047  26.019  27.264  1.00  0.00     0.074 A 
ATOM     56  C   UNL A   1      46.517  31.322  27.500  1.00  0.00     0.029 A 
ATOM     57  N   UNL A   1      44.904  29.803  27.695  1.00  0.00    -0.354 N 
ATOM     58  N   UNL A   1      43.695  27.155  27.364  1.00  0.00    -0.248 NA
ATOM     59  C   UNL A   1      43.764  24.985  26.503  1.00  0.00     0.031 C 
ATOM     60  C   UNL A   1      46.929  30.154  26.850  1.00  0.00     0.029 A 
ATOM     61  C   UNL A   1      45.933  29.201  26.990  1.00  0.00     0.049 A 
ATOM     62  H   UNL A   1      44.057  29.367  27.940  1.00  0.00     0.167 HD
ATOM     63  C   UNL A   1      44.901  26.965  26.702  1.00  0.00     0.074 A 
ATOM     64  C   UNL A   1      44.902  25.602  26.213  1.00  0.00     0.031 C 
ATOM     65  C   UNL A   1      45.918  27.842  26.514  1.00  0.00     0.037 A 
BRANCH  52  66
ATOM     66  C   UNL A   1      44.907  33.418  28.966  1.00  0.00     0.057 A 
ATOM     67  C   UNL A   1      45.728  33.717  30.061  1.00  0.00     0.134 A 
ATOM     68  C   UNL A   1      44.599  34.461  28.084  1.00  0.00     0.134 A 
ATOM     69  F   UNL A   1      46.047  32.766  30.951  1.00  0.00    -0.206 F 
ATOM     70  C   UNL A   1      46.211  35.009  30.279  1.00  0.00     0.040 A 
ATOM     71  C   UNL A   1      45.093  35.751  28.279  1.00  0.00     0.040 A 
ATOM     72  F   UNL A   1      43.818  34.241  27.015  1.00  0.00    -0.206 F 
ATOM     73  C   UNL A   1      45.899  36.028  29.382  1.00  0.00     0.006 A 
ENDBRANCH  52  66
BRANCH  53  74
ATOM     74  C   UNL A   1      41.135  24.291  27.582  1.00  0.00     0.057 A 
ATOM     75  C   UNL A   1      41.610  23.173  28.275  1.00  0.00     0.134 A 
ATOM     76  C   UNL A   1      40.113  24.086  26.646  1.00  0.00     0.134 A 
ATOM     77  F   UNL A   1      42.604  23.304  29.166  1.00  0.00    -0.206 F 
ATOM     78  C   UNL A   1      41.100  21.896  28.037  1.00  0.00     0.040 A 
ATOM     79  C   UNL A   1      39.579  22.818  26.415  1.00  0.00     0.040 A 
ATOM     80  F   UNL A   1      39.615  25.118  25.951  1.00  0.00    -0.206 F 
ATOM     81  C   UNL A   1      40.077  21.717  27.108  1.00  0.00     0.006 A 
ENDBRANCH  53  74
BRANCH  65  82
ATOM     82  C   UNL A   1      47.126  27.348  25.774  1.00  0.00     0.057 A 
ATOM     83  C   UNL A   1      48.147  26.640  26.419  1.00  0.00     0.134 A 
ATOM     84  C   UNL A   1      47.244  27.542  24.391  1.00  0.00     0.134 A 
ATOM     85  F   UNL A   1      48.098  26.431  27.743  1.00  0.00    -0.206 F 
ATOM     86  C   UNL A   1      49.254  26.159  25.717  1.00  0.00     0.040 A 
ATOM     87  C   UNL A   1      48.334  27.046  23.676  1.00  0.00     0.040 A 
ATOM     88  F   UNL A   1      46.294  28.203  23.712  1.00  0.00    -0.206 F 
ATOM     89  C   UNL A   1      49.346  26.356  24.341  1.00  0.00     0.006 A 
ENDBRANCH  65  82
ENDBRANCH  39  40
ENDBRANCH  32  34
ENDBRANCH  31  32
ENDBRANCH  30  31
ENDBRANCH  29  30
ENDBRANCH  28  29
ENDBRANCH   1  28
TORSDOF 19
ENDMDL
MODEL 2
REMARK VINA RESULT:     -11.5      1.517      3.722
REMARK SMILES C[C@@H](C(=O)OCCOCCOC(=O)c1ccc(-c2c3nc(c(-c4c(F)cccc4F)c4ccc([nH]4)c(-c4c(F)cccc4F)c4nc(c(-c5c(F)cccc5F)c5ccc2[nH]5)C=C4)C=C3)cc1)c1cc(/C=C/S(C)(=O)=O)cc(C(=O)c2ccccc2)c1
REMARK SMILES IDX 7 1 6 2 5 3 3 4 4 5 2 6 1 7 68 8 69 9 87 10 70 11 78 12
REMARK SMILES IDX 77 13 71 14 72 15 73 16 74 17 75 18 76 19 79 20 80 21 81 22
REMARK SMILES IDX 82 23 86 24 83 25 85 26 84 27 8 28 9 29 10 30 11 31 12 32
REMARK SMILES IDX 13 33 14 34 15 35 67 36 16 37 66 38 17 39 18 40 19 41 60 42
REMARK SMILES IDX 20 43 65 44 59 45 61 46 21 47 64 48 58 49 57 50 22 52 48 53
REMARK SMILES IDX 31 54 47 55 32 56 35 57 46 58 62 59 33 60 34 61 45 63 63 64
REMARK SMILES IDX 36 65 23 66 24 67 29 68 25 69 26 70 28 71 30 72 27 73 49 74
REMARK SMILES IDX 50 75 55 76 51 77 52 78 54 79 56 80 53 81 37 82 38 83 43 84
REMARK SMILES IDX 39 85 40 86 42 87 44 88 41 89
REMARK H PARENT 61 51 35 62
REMARK Flexibility Score: inf
ROOT
ATOM      1  C   UNL A   1      33.845  33.897  28.493  1.00  0.00     0.202 C 
ENDROOT
BRANCH   1   2
ATOM      2  C   UNL A   1      32.906  33.098  27.586  1.00  0.00     0.261 C 
BRANCH   2   3
ATOM      3  O   UNL A   1      33.532  31.863  27.194  1.00  0.00    -0.463 OA
BRANCH   3   4
ATOM      4  C   UNL A   1      32.687  30.830  26.933  1.00  0.00     0.313 C 
ATOM      5  O   UNL A   1      31.554  30.960  26.483  1.00  0.00    -0.252 OA
BRANCH   4   6
ATOM      6  C   UNL A   1      33.309  29.466  27.247  1.00  0.00     0.126 C 
ATOM      7  C   UNL A   1      34.790  29.489  27.633  1.00  0.00     0.025 C 
BRANCH   6   8
ATOM      8  C   UNL A   1      32.985  28.462  26.141  1.00  0.00    -0.033 A 
ATOM      9  C   UNL A   1      33.557  27.183  26.228  1.00  0.00     0.012 A 
ATOM     10  C   UNL A   1      32.104  28.724  25.082  1.00  0.00     0.016 A 
ATOM     11  C   UNL A   1      33.291  26.177  25.290  1.00  0.00    -0.024 A 
ATOM     12  C   UNL A   1      31.824  27.741  24.120  1.00  0.00     0.023 A 
ATOM     13  C   UNL A   1      32.419  26.473  24.235  1.00  0.00     0.020 A 
BRANCH  11  14
ATOM     14  C   UNL A   1      33.943  24.855  25.348  1.00  0.00     0.020 C 
ATOM     15  C   UNL A   1      34.808  24.394  24.431  1.00  0.00     0.106 C 
BRANCH  15  16
ATOM     16  S   UNL A   1      35.404  22.768  24.500  1.00  0.00     0.168 S 
ATOM     17  C   UNL A   1      33.935  21.863  24.064  1.00  0.00     0.163 C 
ATOM     18  O   UNL A   1      36.353  22.582  23.423  1.00  0.00    -0.225 OA
ATOM     19  O   UNL A   1      35.742  22.403  25.865  1.00  0.00    -0.225 OA
ENDBRANCH  15  16
ENDBRANCH  11  14
BRANCH  12  20
ATOM     20  C   UNL A   1      30.866  27.968  22.994  1.00  0.00     0.193 C 
ATOM     21  O   UNL A   1      31.037  27.396  21.920  1.00  0.00    -0.289 OA
BRANCH  20  22
ATOM     22  C   UNL A   1      29.672  28.836  23.132  1.00  0.00     0.022 A 
ATOM     23  C   UNL A   1      29.868  30.200  23.375  1.00  0.00     0.012 A 
ATOM     24  C   UNL A   1      28.375  28.316  23.068  1.00  0.00     0.012 A 
ATOM     25  C   UNL A   1      28.769  31.051  23.501  1.00  0.00     0.001 A 
ATOM     26  C   UNL A   1      27.278  29.171  23.190  1.00  0.00     0.001 A 
ATOM     27  C   UNL A   1      27.476  30.537  23.399  1.00  0.00     0.000 A 
ENDBRANCH  20  22
ENDBRANCH  12  20
ENDBRANCH   6   8
ENDBRANCH   4   6
ENDBRANCH   3   4
ENDBRANCH   2   3
ENDBRANCH   1   2
BRANCH   1  28
ATOM     28  O   UNL A   1      33.817  33.553  29.880  1.00  0.00    -0.374 OA
BRANCH  28  29
ATOM     29  C   UNL A   1      34.180  34.565  30.817  1.00  0.00     0.202 C 
BRANCH  29  30
ATOM     30  C   UNL A   1      34.684  34.079  32.181  1.00  0.00     0.261 C 
BRANCH  30  31
ATOM     31  O   UNL A   1      34.966  32.668  32.185  1.00  0.00    -0.460 OA
BRANCH  31  32
ATOM     32  C   UNL A   1      36.048  32.314  32.920  1.00  0.00     0.338 C 
ATOM     33  O   UNL A   1      36.214  32.473  34.119  1.00  0.00    -0.246 OA
BRANCH  32  34
ATOM     34  C   UNL A   1      36.986  31.528  32.099  1.00  0.00     0.060 A 
ATOM     35  C   UNL A   1      37.988  30.819  32.776  1.00  0.00     0.016 A 
ATOM     36  C   UNL A   1      36.950  31.549  30.704  1.00  0.00     0.016 A 
ATOM     37  C   UNL A   1      38.989  30.171  32.057  1.00  0.00     0.010 A 
ATOM     38  C   UNL A   1      37.964  30.906  29.984  1.00  0.00     0.010 A 
ATOM     39  C   UNL A   1      39.007  30.247  30.659  1.00  0.00    -0.014 A 
BRANCH  39  40
ATOM     40  C   UNL A   1      40.206  29.772  29.926  1.00  0.00     0.031 A 
ATOM     41  C   UNL A   1      41.351  30.724  29.708  1.00  0.00     0.074 A 
ATOM     42  C   UNL A   1      40.298  28.499  29.507  1.00  0.00     0.049 A 
ATOM     43  N   UNL A   1      42.488  30.527  29.092  1.00  0.00    -0.248 NA
ATOM     44  C   UNL A   1      41.191  32.078  30.262  1.00  0.00     0.031 C 
ATOM     45  C   UNL A   1      39.276  27.471  29.694  1.00  0.00     0.029 A 
ATOM     46  N   UNL A   1      41.305  27.855  28.834  1.00  0.00    -0.354 N 
ATOM     47  C   UNL A   1      43.180  31.727  29.188  1.00  0.00     0.074 A 
ATOM     48  C   UNL A   1      42.323  32.657  29.891  1.00  0.00     0.031 C 
ATOM     49  C   UNL A   1      39.705  26.325  29.139  1.00  0.00     0.029 A 
ATOM     50  C   UNL A   1      41.019  26.546  28.537  1.00  0.00     0.049 A 
ATOM     51  H   UNL A   1      42.153  28.290  28.587  1.00  0.00     0.167 HD
ATOM     52  C   UNL A   1      44.424  32.024  28.741  1.00  0.00     0.037 A 
ATOM     53  C   UNL A   1      41.729  25.635  27.843  1.00  0.00     0.037 A 
ATOM     54  C   UNL A   1      45.276  31.102  28.038  1.00  0.00     0.049 A 
ATOM     55  C   UNL A   1      43.082  26.009  27.300  1.00  0.00     0.074 A 
ATOM     56  C   UNL A   1      46.551  31.312  27.542  1.00  0.00     0.029 A 
ATOM     57  N   UNL A   1      44.936  29.794  27.731  1.00  0.00    -0.354 N 
ATOM     58  N   UNL A   1      43.730  27.144  27.401  1.00  0.00    -0.248 NA
ATOM     59  C   UNL A   1      43.805  24.971  26.548  1.00  0.00     0.031 C 
ATOM     60  C   UNL A   1      46.968  30.141  26.901  1.00  0.00     0.029 A 
ATOM     61  C   UNL A   1      45.971  29.189  27.036  1.00  0.00     0.049 A 
ATOM     62  H   UNL A   1      44.087  29.359  27.971  1.00  0.00     0.167 HD
ATOM     63  C   UNL A   1      44.941  26.952  26.749  1.00  0.00     0.074 A 
ATOM     64  C   UNL A   1      44.945  25.587  26.265  1.00  0.00     0.031 C 
ATOM     65  C   UNL A   1      45.959  27.828  26.565  1.00  0.00     0.037 A 
BRANCH  52  66
ATOM     66  C   UNL A   1      44.929  33.414  28.988  1.00  0.00     0.057 A 
ATOM     67  C   UNL A   1      45.680  33.733  30.127  1.00  0.00     0.134 A 
ATOM     68  C   UNL A   1      44.692  34.437  28.061  1.00  0.00     0.134 A 
ATOM     69  F   UNL A   1      45.928  32.801  31.059  1.00  0.00    -0.206 F 
ATOM     70  C   UNL A   1      46.162  35.025  30.345  1.00  0.00     0.040 A 
ATOM     71  C   UNL A   1      45.187  35.727  28.257  1.00  0.00     0.040 A 
ATOM     72  F   UNL A   1      43.982  34.197  26.949  1.00  0.00    -0.206 F 
ATOM     73  C   UNL A   1      45.921  36.024  29.403  1.00  0.00     0.006 A 
ENDBRANCH  52  66
BRANCH  53  74
ATOM     74  C   UNL A   1      41.168  24.282  27.609  1.00  0.00     0.057 A 
ATOM     75  C   UNL A   1      41.644  23.165  28.304  1.00  0.00     0.134 A 
ATOM     76  C   UNL A   1      40.146  24.074  26.673  1.00  0.00     0.134 A 
ATOM     77  F   UNL A   1      42.637  23.298  29.195  1.00  0.00    -0.206 F 
ATOM     78  C   UNL A   1      41.135  21.887  28.066  1.00  0.00     0.040 A 
ATOM     79  C   UNL A   1      39.614  22.806  26.442  1.00  0.00     0.040 A 
ATOM     80  F   UNL A   1      39.648  25.105  25.976  1.00  0.00    -0.206 F 
ATOM     81  C   UNL A   1      40.113  21.706  27.136  1.00  0.00     0.006 A 
ENDBRANCH  53  74
BRANCH  65  82
ATOM     82  C   UNL A   1      47.173  27.331  25.837  1.00  0.00     0.057 A 
ATOM     83  C   UNL A   1      48.186  26.619  26.491  1.00  0.00     0.134 A 
ATOM     84  C   UNL A   1      47.305  27.526  24.456  1.00  0.00     0.134 A 
ATOM     85  F   UNL A   1      48.122  26.409  27.814  1.00  0.00    -0.206 F 
ATOM     86  C   UNL A   1      49.298  26.136  25.801  1.00  0.00     0.040 A 
ATOM     87  C   UNL A   1      48.401  27.028  23.751  1.00  0.00     0.040 A 
ATOM     88  F   UNL A   1      46.365  28.191  23.768  1.00  0.00    -0.206 F 
ATOM     89  C   UNL A   1      49.405  26.333  24.425  1.00  0.00     0.006 A 
ENDBRANCH  65  82
ENDBRANCH  39  40
ENDBRANCH  32  34
ENDBRANCH  31  32
ENDBRANCH  30  31
ENDBRANCH  29  30
ENDBRANCH  28  29
ENDBRANCH   1  28
TORSDOF 19
ENDMDL
MODEL 3
REMARK VINA RESULT:     -10.9      5.434     10.956
REMARK SMILES C[C@@H](C(=O)OCCOCCOC(=O)c1ccc(-c2c3nc(c(-c4c(F)cccc4F)c4ccc([nH]4)c(-c4c(F)cccc4F)c4nc(c(-c5c(F)cccc5F)c5ccc2[nH]5)C=C4)C=C3)cc1)c1cc(/C=C/S(C)(=O)=O)cc(C(=O)c2ccccc2)c1
REMARK SMILES IDX 7 1 6 2 5 3 3 4 4 5 2 6 1 7 68 8 69 9 87 10 70 11 78 12
REMARK SMILES IDX 77 13 71 14 72 15 73 16 74 17 75 18 76 19 79 20 80 21 81 22
REMARK SMILES IDX 82 23 86 24 83 25 85 26 84 27 8 28 9 29 10 30 11 31 12 32
REMARK SMILES IDX 13 33 14 34 15 35 67 36 16 37 66 38 17 39 18 40 19 41 60 42
REMARK SMILES IDX 20 43 65 44 59 45 61 46 21 47 64 48 58 49 57 50 22 52 48 53
REMARK SMILES IDX 31 54 47 55 32 56 35 57 46 58 62 59 33 60 34 61 45 63 63 64
REMARK SMILES IDX 36 65 23 66 24 67 29 68 25 69 26 70 28 71 30 72 27 73 49 74
REMARK SMILES IDX 50 75 55 76 51 77 52 78 54 79 56 80 53 81 37 82 38 83 43 84
REMARK SMILES IDX 39 85 40 86 42 87 44 88 41 89
REMARK H PARENT 61 51 35 62
REMARK Flexibility Score: inf
ROOT
ATOM      1  C   UNL A   1      44.746  21.612  25.413  1.00  0.00     0.202 C 
ENDROOT
BRANCH   1   2
ATOM      2  C   UNL A   1      43.796  20.413  25.394  1.00  0.00     0.261 C 
BRANCH   2   3
ATOM      3  O   UNL A   1      42.434  20.860  25.525  1.00  0.00    -0.463 OA
BRANCH   3   4
ATOM      4  C   UNL A   1      41.892  20.749  26.767  1.00  0.00     0.313 C 
ATOM      5  O   UNL A   1      42.533  20.820  27.810  1.00  0.00    -0.252 OA
BRANCH   4   6
ATOM      6  C   UNL A   1      40.375  20.539  26.731  1.00  0.00     0.126 C 
ATOM      7  C   UNL A   1      39.882  19.441  25.786  1.00  0.00     0.025 C 
BRANCH   6   8
ATOM      8  C   UNL A   1      39.654  21.874  26.541  1.00  0.00    -0.033 A 
ATOM      9  C   UNL A   1      38.504  21.889  25.736  1.00  0.00     0.012 A 
ATOM     10  C   UNL A   1      40.038  23.066  27.172  1.00  0.00     0.016 A 
ATOM     11  C   UNL A   1      37.747  23.050  25.532  1.00  0.00    -0.024 A 
ATOM     12  C   UNL A   1      39.307  24.249  26.980  1.00  0.00     0.023 A 
ATOM     13  C   UNL A   1      38.164  24.229  26.163  1.00  0.00     0.020 A 
BRANCH  11  14
ATOM     14  C   UNL A   1      36.576  23.078  24.635  1.00  0.00     0.020 C 
ATOM     15  C   UNL A   1      35.313  23.282  25.042  1.00  0.00     0.106 C 
BRANCH  15  16
ATOM     16  S   UNL A   1      33.984  23.141  23.938  1.00  0.00     0.168 S 
ATOM     17  C   UNL A   1      33.511  21.448  24.210  1.00  0.00     0.163 C 
ATOM     18  O   UNL A   1      32.899  23.969  24.422  1.00  0.00    -0.225 OA
ATOM     19  O   UNL A   1      34.445  23.243  22.565  1.00  0.00    -0.225 OA
ENDBRANCH  15  16
ENDBRANCH  11  14
BRANCH  12  20
ATOM     20  C   UNL A   1      39.663  25.533  27.659  1.00  0.00     0.193 C 
ATOM     21  O   UNL A   1      39.364  25.705  28.838  1.00  0.00    -0.289 OA
BRANCH  20  22
ATOM     22  C   UNL A   1      40.411  26.612  26.971  1.00  0.00     0.022 A 
ATOM     23  C   UNL A   1      41.335  26.253  25.983  1.00  0.00     0.012 A 
ATOM     24  C   UNL A   1      40.241  27.957  27.315  1.00  0.00     0.012 A 
ATOM     25  C   UNL A   1      42.051  27.241  25.306  1.00  0.00     0.001 A 
ATOM     26  C   UNL A   1      40.957  28.943  26.632  1.00  0.00     0.001 A 
ATOM     27  C   UNL A   1      41.854  28.585  25.624  1.00  0.00     0.000 A 
ENDBRANCH  20  22
ENDBRANCH  12  20
ENDBRANCH   6   8
ENDBRANCH   4   6
ENDBRANCH   3   4
ENDBRANCH   2   3
ENDBRANCH   1   2
BRANCH   1  28
ATOM     28  O   UNL A   1      44.129  22.900  25.346  1.00  0.00    -0.374 OA
BRANCH  28  29
ATOM     29  C   UNL A   1      44.799  23.913  24.599  1.00  0.00     0.202 C 
BRANCH  29  30
ATOM     30  C   UNL A   1      45.238  25.157  25.381  1.00  0.00     0.261 C 
BRANCH  30  31
ATOM     31  O   UNL A   1      44.353  25.448  26.478  1.00  0.00    -0.460 OA
BRANCH  31  32
ATOM     32  C   UNL A   1      44.980  25.715  27.649  1.00  0.00     0.338 C 
ATOM     33  O   UNL A   1      46.111  25.391  27.976  1.00  0.00    -0.246 OA
BRANCH  32  34
ATOM     34  C   UNL A   1      44.164  26.629  28.468  1.00  0.00     0.060 A 
ATOM     35  C   UNL A   1      44.467  27.995  28.398  1.00  0.00     0.016 A 
ATOM     36  C   UNL A   1      43.186  26.163  29.349  1.00  0.00     0.016 A 
ATOM     37  C   UNL A   1      43.831  28.895  29.248  1.00  0.00     0.010 A 
ATOM     38  C   UNL A   1      42.555  27.068  30.211  1.00  0.00     0.010 A 
ATOM     39  C   UNL A   1      42.903  28.432  30.189  1.00  0.00    -0.014 A 
BRANCH  39  40
ATOM     40  C   UNL A   1      42.425  29.354  31.247  1.00  0.00     0.031 A 
ATOM     41  C   UNL A   1      43.264  29.542  32.482  1.00  0.00     0.074 A 
ATOM     42  C   UNL A   1      41.291  30.056  31.089  1.00  0.00     0.049 A 
ATOM     43  N   UNL A   1      43.040  30.290  33.532  1.00  0.00    -0.248 NA
ATOM     44  C   UNL A   1      44.526  28.785  32.539  1.00  0.00     0.031 C 
ATOM     45  C   UNL A   1      40.414  29.994  29.921  1.00  0.00     0.029 A 
ATOM     46  N   UNL A   1      40.681  30.961  31.921  1.00  0.00    -0.354 N 
ATOM     47  C   UNL A   1      44.131  30.099  34.370  1.00  0.00     0.074 A 
ATOM     48  C   UNL A   1      45.000  29.140  33.723  1.00  0.00     0.031 C 
ATOM     49  C   UNL A   1      39.371  30.820  30.116  1.00  0.00     0.029 A 
ATOM     50  C   UNL A   1      39.496  31.448  31.430  1.00  0.00     0.049 A 
ATOM     51  H   UNL A   1      41.059  31.235  32.788  1.00  0.00     0.167 HD
ATOM     52  C   UNL A   1      44.391  30.680  35.565  1.00  0.00     0.037 A 
ATOM     53  C   UNL A   1      38.605  32.292  31.987  1.00  0.00     0.037 A 
ATOM     54  C   UNL A   1      43.526  31.631  36.212  1.00  0.00     0.049 A 
ATOM     55  C   UNL A   1      38.885  32.875  33.346  1.00  0.00     0.074 A 
ATOM     56  C   UNL A   1      43.702  32.271  37.426  1.00  0.00     0.029 A 
ATOM     57  N   UNL A   1      42.319  32.075  35.695  1.00  0.00    -0.354 N 
ATOM     58  N   UNL A   1      39.922  32.692  34.126  1.00  0.00    -0.248 NA
ATOM     59  C   UNL A   1      37.871  33.786  33.899  1.00  0.00     0.031 C 
ATOM     60  C   UNL A   1      42.582  33.076  37.661  1.00  0.00     0.029 A 
ATOM     61  C   UNL A   1      41.731  32.970  36.574  1.00  0.00     0.049 A 
ATOM     62  H   UNL A   1      41.937  31.797  34.832  1.00  0.00     0.167 HD
ATOM     63  C   UNL A   1      39.698  33.480  35.249  1.00  0.00     0.074 A 
ATOM     64  C   UNL A   1      38.432  34.152  35.044  1.00  0.00     0.031 C 
ATOM     65  C   UNL A   1      40.471  33.632  36.352  1.00  0.00     0.037 A 
BRANCH  52  66
ATOM     66  C   UNL A   1      45.661  30.287  36.259  1.00  0.00     0.057 A 
ATOM     67  C   UNL A   1      46.842  31.024  36.104  1.00  0.00     0.134 A 
ATOM     68  C   UNL A   1      45.696  29.180  37.116  1.00  0.00     0.134 A 
ATOM     69  F   UNL A   1      46.878  32.086  35.285  1.00  0.00    -0.206 F 
ATOM     70  C   UNL A   1      48.019  30.664  36.764  1.00  0.00     0.040 A 
ATOM     71  C   UNL A   1      46.860  28.823  37.798  1.00  0.00     0.040 A 
ATOM     72  F   UNL A   1      44.598  28.434  37.309  1.00  0.00    -0.206 F 
ATOM     73  C   UNL A   1      48.026  29.564  37.619  1.00  0.00     0.006 A 
ENDBRANCH  52  66
BRANCH  53  74
ATOM     74  C   UNL A   1      37.352  32.625  31.264  1.00  0.00     0.057 A 
ATOM     75  C   UNL A   1      37.316  33.637  30.299  1.00  0.00     0.134 A 
ATOM     76  C   UNL A   1      36.158  31.944  31.534  1.00  0.00     0.134 A 
ATOM     77  F   UNL A   1      38.422  34.339  30.015  1.00  0.00    -0.206 F 
ATOM     78  C   UNL A   1      36.134  33.970  29.637  1.00  0.00     0.040 A 
ATOM     79  C   UNL A   1      34.975  32.252  30.862  1.00  0.00     0.040 A 
ATOM     80  F   UNL A   1      36.130  30.964  32.447  1.00  0.00    -0.206 F 
ATOM     81  C   UNL A   1      34.959  33.273  29.914  1.00  0.00     0.006 A 
ENDBRANCH  53  74
BRANCH  65  82
ATOM     82  C   UNL A   1      39.986  34.581  37.408  1.00  0.00     0.057 A 
ATOM     83  C   UNL A   1      39.260  34.137  38.520  1.00  0.00     0.134 A 
ATOM     84  C   UNL A   1      40.290  35.946  37.334  1.00  0.00     0.134 A 
ATOM     85  F   UNL A   1      38.928  32.843  38.643  1.00  0.00    -0.206 F 
ATOM     86  C   UNL A   1      38.836  35.023  39.512  1.00  0.00     0.040 A 
ATOM     87  C   UNL A   1      39.891  36.837  38.331  1.00  0.00     0.040 A 
ATOM     88  F   UNL A   1      40.991  36.434  36.299  1.00  0.00    -0.206 F 
ATOM     89  C   UNL A   1      39.157  36.376  39.423  1.00  0.00     0.006 A 
ENDBRANCH  65  82
ENDBRANCH  39  40
ENDBRANCH  32  34
ENDBRANCH  31  32
ENDBRANCH  30  31
ENDBRANCH  29  30
ENDBRANCH  28  29
ENDBRANCH   1  28
TORSDOF 19
ENDMDL
