MODEL 1
REMARK VINA RESULT:     -12.1      0.000      0.000
REMARK SMILES CCOc1ccc(-c2cc(Cl)cc3c2O[C@@H](C(F)(F)F)C(C(=O)OCCOCCOC(=O)c2ccc(-c4c5nc(c(-c6c(F)cccc6F)c6ccc([nH]6)c(-c6c(F)cccc6F)c6nc(c(-c7c(F)cccc7F)c7ccc4[nH]7)C=C6)C=C5)cc2)=C3)cc1
REMARK SMILES IDX 26 1 25 2 24 3 22 4 23 5 21 6 8 7 9 8 14 9 10 10 13 11 15 12
REMARK SMILES IDX 11 13 12 14 87 15 16 16 7 17 4 18 5 19 89 20 6 21 88 22 3 23
REMARK SMILES IDX 2 24 1 25 17 26 18 27 19 28 20 29 27 30 28 31 29 32 30 33
REMARK SMILES IDX 31 34 32 35 33 36 34 37 86 38 35 39 85 40 36 41 37 42 38 43
REMARK SMILES IDX 79 44 39 45 84 46 78 47 80 48 40 49 83 50 77 51 76 52 41 54
REMARK SMILES IDX 67 55 50 56 66 57 51 58 54 59 65 60 81 61 52 62 53 63 64 65
REMARK SMILES IDX 82 66 55 67 42 68 43 69 48 70 44 71 45 72 47 73 49 74 46 75
REMARK SMILES IDX 68 76 69 77 74 78 70 79 71 80 73 81 75 82 72 83 56 84 57 85
REMARK SMILES IDX 62 86 58 87 59 88 61 89 63 90 60 91
REMARK H PARENT 80 53 54 64
REMARK Flexibility Score: inf
ROOT
ATOM      1  C   UNL A   1      32.554  30.134  27.221  1.00  0.00     0.202 C 
ENDROOT
BRANCH   1   2
ATOM      2  C   UNL A   1      32.565  28.635  26.881  1.00  0.00     0.261 C 
BRANCH   2   3
ATOM      3  O   UNL A   1      32.904  28.368  25.512  1.00  0.00    -0.460 OA
BRANCH   3   4
ATOM      4  C   UNL A   1      32.350  27.264  24.976  1.00  0.00     0.338 C 
ATOM      5  O   UNL A   1      31.153  27.100  24.777  1.00  0.00    -0.246 OA
BRANCH   4   6
ATOM      6  C   UNL A   1      33.365  26.305  24.480  1.00  0.00     0.087 C 
ATOM      7  C   UNL A   1      32.216  22.312  24.269  1.00  0.00     0.026 A 
ATOM      8  C   UNL A   1      31.127  22.213  25.163  1.00  0.00     0.033 A 
ATOM      9  C   UNL A   1      32.851  23.574  24.245  1.00  0.00     0.135 A 
ATOM     10  C   UNL A   1      30.980  23.124  26.209  1.00  0.00     0.042 A 
ATOM     11  C   UNL A   1      32.882  24.336  25.424  1.00  0.00     0.019 A 
ATOM     12  O   UNL A   1      32.934  24.287  23.029  1.00  0.00    -0.475 OA
ATOM     13  Cl  UNL A   1      29.690  22.932  27.328  1.00  0.00    -0.084 Cl
ATOM     14  C   UNL A   1      31.922  24.124  26.405  1.00  0.00     0.032 A 
ATOM     15  C   UNL A   1      33.776  25.513  25.484  1.00  0.00     0.027 C 
ATOM     16  C   UNL A   1      33.456  25.681  23.102  1.00  0.00     0.316 C 
BRANCH   7  17
ATOM     17  C   UNL A   1      32.957  21.000  24.103  1.00  0.00    -0.014 A 
ATOM     18  C   UNL A   1      34.089  18.383  24.446  1.00  0.00     0.119 A 
ATOM     19  C   UNL A   1      32.859  18.550  23.815  1.00  0.00     0.047 A 
ATOM     20  C   UNL A   1      34.786  19.514  24.855  1.00  0.00     0.047 A 
ATOM     21  C   UNL A   1      32.307  19.835  23.640  1.00  0.00     0.013 A 
ATOM     22  C   UNL A   1      34.228  20.801  24.685  1.00  0.00     0.013 A 
BRANCH  18  23
ATOM     23  O   UNL A   1      34.614  17.122  24.483  1.00  0.00    -0.494 OA
BRANCH  23  24
ATOM     24  C   UNL A   1      33.731  16.045  24.145  1.00  0.00     0.226 C 
ATOM     25  C   UNL A   1      33.102  15.413  25.378  1.00  0.00     0.049 C 
ENDBRANCH  23  24
ENDBRANCH  18  23
ENDBRANCH   7  17
BRANCH  16  26
ATOM     26  C   UNL A   1      33.081  26.627  21.938  1.00  0.00     0.430 C 
ATOM     27  F   UNL A   1      33.260  25.972  20.757  1.00  0.00    -0.167 F 
ATOM     28  F   UNL A   1      31.778  26.988  21.979  1.00  0.00    -0.167 F 
ATOM     29  F   UNL A   1      33.805  27.759  21.862  1.00  0.00    -0.167 F 
ENDBRANCH  16  26
ENDBRANCH   4   6
ENDBRANCH   3   4
ENDBRANCH   2   3
ENDBRANCH   1   2
BRANCH   1  30
ATOM     30  O   UNL A   1      31.938  31.034  26.309  1.00  0.00    -0.374 OA
BRANCH  30  31
ATOM     31  C   UNL A   1      31.313  32.203  26.831  1.00  0.00     0.202 C 
BRANCH  31  32
ATOM     32  C   UNL A   1      32.138  33.489  26.952  1.00  0.00     0.261 C 
BRANCH  32  33
ATOM     33  O   UNL A   1      32.419  33.870  28.307  1.00  0.00    -0.460 OA
BRANCH  33  34
ATOM     34  C   UNL A   1      33.541  34.606  28.465  1.00  0.00     0.338 C 
ATOM     35  O   UNL A   1      33.638  35.828  28.484  1.00  0.00    -0.246 OA
BRANCH  34  36
ATOM     36  C   UNL A   1      34.677  33.728  28.775  1.00  0.00     0.060 A 
ATOM     37  C   UNL A   1      34.408  32.459  29.299  1.00  0.00     0.016 A 
ATOM     38  C   UNL A   1      35.989  34.188  28.651  1.00  0.00     0.016 A 
ATOM     39  C   UNL A   1      35.454  31.652  29.736  1.00  0.00     0.010 A 
ATOM     40  C   UNL A   1      37.037  33.381  29.097  1.00  0.00     0.010 A 
ATOM     41  C   UNL A   1      36.772  32.123  29.669  1.00  0.00    -0.014 A 
BRANCH  41  42
ATOM     42  C   UNL A   1      37.863  31.355  30.313  1.00  0.00     0.031 A 
ATOM     43  C   UNL A   1      38.184  31.614  31.759  1.00  0.00     0.074 A 
ATOM     44  C   UNL A   1      38.545  30.429  29.618  1.00  0.00     0.049 A 
ATOM     45  N   UNL A   1      39.137  31.111  32.499  1.00  0.00    -0.248 NA
ATOM     46  C   UNL A   1      37.315  32.571  32.463  1.00  0.00     0.031 C 
ATOM     47  C   UNL A   1      38.295  30.065  28.224  1.00  0.00     0.029 A 
ATOM     48  N   UNL A   1      39.600  29.633  29.990  1.00  0.00    -0.354 N 
ATOM     49  C   UNL A   1      38.989  31.694  33.752  1.00  0.00     0.074 A 
ATOM     50  C   UNL A   1      37.874  32.612  33.664  1.00  0.00     0.031 C 
ATOM     51  C   UNL A   1      39.182  29.126  27.853  1.00  0.00     0.029 A 
ATOM     52  C   UNL A   1      40.084  28.853  28.969  1.00  0.00     0.049 A 
ATOM     53  H   UNL A   1      39.971  29.622  30.901  1.00  0.00     0.167 HD
ATOM     54  C   UNL A   1      39.712  31.474  34.875  1.00  0.00     0.037 A 
ATOM     55  C   UNL A   1      41.153  28.035  28.936  1.00  0.00     0.037 A 
ATOM     56  C   UNL A   1      40.821  30.558  34.954  1.00  0.00     0.049 A 
ATOM     57  C   UNL A   1      41.989  27.869  30.178  1.00  0.00     0.074 A 
ATOM     58  C   UNL A   1      41.612  30.255  36.048  1.00  0.00     0.029 A 
ATOM     59  N   UNL A   1      41.297  29.803  33.894  1.00  0.00    -0.354 N 
ATOM     60  N   UNL A   1      41.828  28.407  31.363  1.00  0.00    -0.248 NA
ATOM     61  C   UNL A   1      43.154  26.978  30.078  1.00  0.00     0.031 C 
ATOM     62  C   UNL A   1      42.601  29.357  35.636  1.00  0.00     0.029 A 
ATOM     63  C   UNL A   1      42.388  29.053  34.301  1.00  0.00     0.049 A 
ATOM     64  H   UNL A   1      40.917  29.801  32.985  1.00  0.00     0.167 HD
ATOM     65  C   UNL A   1      42.847  27.895  32.157  1.00  0.00     0.074 A 
ATOM     66  C   UNL A   1      43.612  26.992  31.322  1.00  0.00     0.031 C 
ATOM     67  C   UNL A   1      43.128  28.148  33.459  1.00  0.00     0.037 A 
BRANCH  54  68
ATOM     68  C   UNL A   1      39.343  32.249  36.107  1.00  0.00     0.057 A 
ATOM     69  C   UNL A   1      39.915  33.494  36.398  1.00  0.00     0.134 A 
ATOM     70  C   UNL A   1      38.366  31.767  36.987  1.00  0.00     0.134 A 
ATOM     71  F   UNL A   1      40.866  34.008  35.603  1.00  0.00    -0.206 F 
ATOM     72  C   UNL A   1      39.539  34.224  37.527  1.00  0.00     0.040 A 
ATOM     73  C   UNL A   1      37.962  32.499  38.104  1.00  0.00     0.040 A 
ATOM     74  F   UNL A   1      37.774  30.583  36.766  1.00  0.00    -0.206 F 
ATOM     75  C   UNL A   1      38.553  33.730  38.379  1.00  0.00     0.006 A 
ENDBRANCH  54  68
BRANCH  55  76
ATOM     76  C   UNL A   1      41.516  27.325  27.682  1.00  0.00     0.057 A 
ATOM     77  C   UNL A   1      42.288  27.944  26.693  1.00  0.00     0.134 A 
ATOM     78  C   UNL A   1      41.065  26.023  27.425  1.00  0.00     0.134 A 
ATOM     79  F   UNL A   1      42.731  29.198  26.869  1.00  0.00    -0.206 F 
ATOM     80  C   UNL A   1      42.575  27.309  25.483  1.00  0.00     0.040 A 
ATOM     81  C   UNL A   1      41.370  25.365  26.233  1.00  0.00     0.040 A 
ATOM     82  F   UNL A   1      40.323  25.371  28.332  1.00  0.00    -0.206 F 
ATOM     83  C   UNL A   1      42.118  26.012  25.252  1.00  0.00     0.006 A 
ENDBRANCH  55  76
BRANCH  67  84
ATOM     84  C   UNL A   1      44.277  27.401  34.075  1.00  0.00     0.057 A 
ATOM     85  C   UNL A   1      44.118  26.133  34.650  1.00  0.00     0.134 A 
ATOM     86  C   UNL A   1      45.568  27.944  34.054  1.00  0.00     0.134 A 
ATOM     87  F   UNL A   1      42.906  25.562  34.713  1.00  0.00    -0.206 F 
ATOM     88  C   UNL A   1      45.198  25.445  35.207  1.00  0.00     0.040 A 
ATOM     89  C   UNL A   1      46.660  27.252  34.579  1.00  0.00     0.040 A 
ATOM     90  F   UNL A   1      45.793  29.149  33.509  1.00  0.00    -0.206 F 
ATOM     91  C   UNL A   1      46.474  26.002  35.165  1.00  0.00     0.006 A 
ENDBRANCH  67  84
ENDBRANCH  41  42
ENDBRANCH  34  36
ENDBRANCH  33  34
ENDBRANCH  32  33
ENDBRANCH  31  32
ENDBRANCH  30  31
ENDBRANCH   1  30
TORSDOF 18
ENDMDL
MODEL 2
REMARK VINA RESULT:     -12.0      0.687      6.051
REMARK SMILES CCOc1ccc(-c2cc(Cl)cc3c2O[C@@H](C(F)(F)F)C(C(=O)OCCOCCOC(=O)c2ccc(-c4c5nc(c(-c6c(F)cccc6F)c6ccc([nH]6)c(-c6c(F)cccc6F)c6nc(c(-c7c(F)cccc7F)c7ccc4[nH]7)C=C6)C=C5)cc2)=C3)cc1
REMARK SMILES IDX 26 1 25 2 24 3 22 4 23 5 21 6 8 7 9 8 14 9 10 10 13 11 15 12
REMARK SMILES IDX 11 13 12 14 87 15 16 16 7 17 4 18 5 19 89 20 6 21 88 22 3 23
REMARK SMILES IDX 2 24 1 25 17 26 18 27 19 28 20 29 27 30 28 31 29 32 30 33
REMARK SMILES IDX 31 34 32 35 33 36 34 37 86 38 35 39 85 40 36 41 37 42 38 43
REMARK SMILES IDX 79 44 39 45 84 46 78 47 80 48 40 49 83 50 77 51 76 52 41 54
REMARK SMILES IDX 67 55 50 56 66 57 51 58 54 59 65 60 81 61 52 62 53 63 64 65
REMARK SMILES IDX 82 66 55 67 42 68 43 69 48 70 44 71 45 72 47 73 49 74 46 75
REMARK SMILES IDX 68 76 69 77 74 78 70 79 71 80 73 81 75 82 72 83 56 84 57 85
REMARK SMILES IDX 62 86 58 87 59 88 61 89 63 90 60 91
REMARK H PARENT 80 53 54 64
REMARK Flexibility Score: inf
ROOT
ATOM      1  C   UNL A   1      32.713  29.949  27.212  1.00  0.00     0.202 C 
ENDROOT
BRANCH   1   2
ATOM      2  C   UNL A   1      32.814  28.432  26.980  1.00  0.00     0.261 C 
BRANCH   2   3
ATOM      3  O   UNL A   1      33.253  28.090  25.658  1.00  0.00    -0.460 OA
BRANCH   3   4
ATOM      4  C   UNL A   1      32.602  27.067  25.071  1.00  0.00     0.338 C 
ATOM      5  O   UNL A   1      31.392  27.009  24.893  1.00  0.00    -0.246 OA
BRANCH   4   6
ATOM      6  C   UNL A   1      33.528  26.064  24.494  1.00  0.00     0.087 C 
ATOM      7  C   UNL A   1      32.108  22.166  24.193  1.00  0.00     0.026 A 
ATOM      8  C   UNL A   1      31.055  22.103  25.132  1.00  0.00     0.033 A 
ATOM      9  C   UNL A   1      32.823  23.384  24.185  1.00  0.00     0.135 A 
ATOM     10  C   UNL A   1      31.015  22.980  26.216  1.00  0.00     0.042 A 
ATOM     11  C   UNL A   1      32.957  24.095  25.388  1.00  0.00     0.019 A 
ATOM     12  O   UNL A   1      32.900  24.137  22.992  1.00  0.00    -0.475 OA
ATOM     13  Cl  UNL A   1      29.767  22.828  27.386  1.00  0.00    -0.084 Cl
ATOM     14  C   UNL A   1      32.030  23.908  26.404  1.00  0.00     0.032 A 
ATOM     15  C   UNL A   1      33.930  25.209  25.448  1.00  0.00     0.027 C 
ATOM     16  C   UNL A   1      33.516  25.490  23.092  1.00  0.00     0.316 C 
BRANCH   7  17
ATOM     17  C   UNL A   1      32.752  20.816  23.944  1.00  0.00    -0.014 A 
ATOM     18  C   UNL A   1      33.522  18.050  24.004  1.00  0.00     0.119 A 
ATOM     19  C   UNL A   1      32.526  18.493  23.138  1.00  0.00     0.047 A 
ATOM     20  C   UNL A   1      34.178  18.984  24.798  1.00  0.00     0.047 A 
ATOM     21  C   UNL A   1      32.152  19.852  23.104  1.00  0.00     0.013 A 
ATOM     22  C   UNL A   1      33.798  20.344  24.767  1.00  0.00     0.013 A 
BRANCH  18  23
ATOM     23  O   UNL A   1      33.909  16.743  23.905  1.00  0.00    -0.494 OA
BRANCH  23  24
ATOM     24  C   UNL A   1      34.002  16.003  25.130  1.00  0.00     0.226 C 
ATOM     25  C   UNL A   1      32.784  15.120  25.357  1.00  0.00     0.049 C 
ENDBRANCH  23  24
ENDBRANCH  18  23
ENDBRANCH   7  17
BRANCH  16  26
ATOM     26  C   UNL A   1      33.155  26.503  21.981  1.00  0.00     0.430 C 
ATOM     27  F   UNL A   1      34.035  27.542  22.023  1.00  0.00    -0.167 F 
ATOM     28  F   UNL A   1      33.265  25.961  20.747  1.00  0.00    -0.167 F 
ATOM     29  F   UNL A   1      31.923  27.039  22.071  1.00  0.00    -0.167 F 
ENDBRANCH  16  26
ENDBRANCH   4   6
ENDBRANCH   3   4
ENDBRANCH   2   3
ENDBRANCH   1   2
BRANCH   1  30
ATOM     30  O   UNL A   1      31.931  30.723  26.312  1.00  0.00    -0.374 OA
BRANCH  30  31
ATOM     31  C   UNL A   1      31.410  31.969  26.769  1.00  0.00     0.202 C 
BRANCH  31  32
ATOM     32  C   UNL A   1      32.377  33.136  26.990  1.00  0.00     0.261 C 
BRANCH  32  33
ATOM     33  O   UNL A   1      32.150  33.851  28.214  1.00  0.00    -0.460 OA
BRANCH  33  34
ATOM     34  C   UNL A   1      33.155  34.679  28.579  1.00  0.00     0.338 C 
ATOM     35  O   UNL A   1      33.113  35.897  28.706  1.00  0.00    -0.246 OA
BRANCH  34  36
ATOM     36  C   UNL A   1      34.333  33.894  28.969  1.00  0.00     0.060 A 
ATOM     37  C   UNL A   1      34.136  32.750  29.751  1.00  0.00     0.016 A 
ATOM     38  C   UNL A   1      35.620  34.336  28.660  1.00  0.00     0.016 A 
ATOM     39  C   UNL A   1      35.232  32.059  30.259  1.00  0.00     0.010 A 
ATOM     40  C   UNL A   1      36.718  33.646  29.176  1.00  0.00     0.010 A 
ATOM     41  C   UNL A   1      36.529  32.523  30.003  1.00  0.00    -0.014 A 
BRANCH  41  42
ATOM     42  C   UNL A   1      37.682  31.912  30.702  1.00  0.00     0.031 A 
ATOM     43  C   UNL A   1      38.460  30.823  30.015  1.00  0.00     0.074 A 
ATOM     44  C   UNL A   1      38.038  32.335  31.927  1.00  0.00     0.049 A 
ATOM     45  N   UNL A   1      39.455  30.104  30.465  1.00  0.00    -0.248 NA
ATOM     46  C   UNL A   1      38.058  30.500  28.636  1.00  0.00     0.031 C 
ATOM     47  C   UNL A   1      37.384  33.410  32.672  1.00  0.00     0.029 A 
ATOM     48  N   UNL A   1      39.034  31.900  32.765  1.00  0.00    -0.354 N 
ATOM     49  C   UNL A   1      39.794  29.240  29.431  1.00  0.00     0.074 A 
ATOM     50  C   UNL A   1      38.879  29.502  28.341  1.00  0.00     0.031 C 
ATOM     51  C   UNL A   1      37.988  33.542  33.866  1.00  0.00     0.029 A 
ATOM     52  C   UNL A   1      39.042  32.537  33.982  1.00  0.00     0.049 A 
ATOM     53  H   UNL A   1      39.680  31.201  32.517  1.00  0.00     0.167 HD
ATOM     54  C   UNL A   1      40.787  28.320  29.392  1.00  0.00     0.037 A 
ATOM     55  C   UNL A   1      39.798  32.311  35.073  1.00  0.00     0.037 A 
ATOM     56  C   UNL A   1      41.693  28.066  30.482  1.00  0.00     0.049 A 
ATOM     57  C   UNL A   1      40.842  31.226  35.031  1.00  0.00     0.074 A 
ATOM     58  C   UNL A   1      42.740  27.162  30.539  1.00  0.00     0.029 A 
ATOM     59  N   UNL A   1      41.656  28.714  31.707  1.00  0.00    -0.354 N 
ATOM     60  N   UNL A   1      41.170  30.430  34.042  1.00  0.00    -0.248 NA
ATOM     61  C   UNL A   1      41.624  31.012  36.257  1.00  0.00     0.031 C 
ATOM     62  C   UNL A   1      43.301  27.226  31.818  1.00  0.00     0.029 A 
ATOM     63  C   UNL A   1      42.646  28.212  32.536  1.00  0.00     0.049 A 
ATOM     64  H   UNL A   1      41.020  29.425  31.952  1.00  0.00     0.167 HD
ATOM     65  C   UNL A   1      42.216  29.646  34.514  1.00  0.00     0.074 A 
ATOM     66  C   UNL A   1      42.478  30.074  35.872  1.00  0.00     0.031 C 
ATOM     67  C   UNL A   1      42.900  28.661  33.881  1.00  0.00     0.037 A 
BRANCH  54  68
ATOM     68  C   UNL A   1      40.935  27.504  28.141  1.00  0.00     0.057 A 
ATOM     69  C   UNL A   1      40.268  26.285  27.969  1.00  0.00     0.134 A 
ATOM     70  C   UNL A   1      41.715  27.969  27.074  1.00  0.00     0.134 A 
ATOM     71  F   UNL A   1      39.515  25.776  28.956  1.00  0.00    -0.206 F 
ATOM     72  C   UNL A   1      40.383  25.550  26.787  1.00  0.00     0.040 A 
ATOM     73  C   UNL A   1      41.816  27.257  25.878  1.00  0.00     0.040 A 
ATOM     74  F   UNL A   1      42.377  29.132  27.170  1.00  0.00    -0.206 F 
ATOM     75  C   UNL A   1      41.152  26.042  25.734  1.00  0.00     0.006 A 
ENDBRANCH  54  68
BRANCH  55  76
ATOM     76  C   UNL A   1      39.585  33.106  36.311  1.00  0.00     0.057 A 
ATOM     77  C   UNL A   1      38.674  32.698  37.291  1.00  0.00     0.134 A 
ATOM     78  C   UNL A   1      40.261  34.315  36.525  1.00  0.00     0.134 A 
ATOM     79  F   UNL A   1      37.978  31.562  37.133  1.00  0.00    -0.206 F 
ATOM     80  C   UNL A   1      38.418  33.474  38.423  1.00  0.00     0.040 A 
ATOM     81  C   UNL A   1      40.038  35.086  37.667  1.00  0.00     0.040 A 
ATOM     82  F   UNL A   1      41.150  34.763  35.627  1.00  0.00    -0.206 F 
ATOM     83  C   UNL A   1      39.105  34.672  38.615  1.00  0.00     0.006 A 
ENDBRANCH  55  76
BRANCH  67  84
ATOM     84  C   UNL A   1      44.029  28.013  34.632  1.00  0.00     0.057 A 
ATOM     85  C   UNL A   1      45.330  28.532  34.614  1.00  0.00     0.134 A 
ATOM     86  C   UNL A   1      43.798  26.877  35.419  1.00  0.00     0.134 A 
ATOM     87  F   UNL A   1      45.621  29.611  33.872  1.00  0.00    -0.206 F 
ATOM     88  C   UNL A   1      46.366  27.928  35.327  1.00  0.00     0.040 A 
ATOM     89  C   UNL A   1      44.819  26.283  36.161  1.00  0.00     0.040 A 
ATOM     90  F   UNL A   1      42.573  26.334  35.491  1.00  0.00    -0.206 F 
ATOM     91  C   UNL A   1      46.109  26.803  36.110  1.00  0.00     0.006 A 
ENDBRANCH  67  84
ENDBRANCH  41  42
ENDBRANCH  34  36
ENDBRANCH  33  34
ENDBRANCH  32  33
ENDBRANCH  31  32
ENDBRANCH  30  31
ENDBRANCH   1  30
TORSDOF 18
ENDMDL
MODEL 3
REMARK VINA RESULT:     -11.9      1.548      2.265
REMARK SMILES CCOc1ccc(-c2cc(Cl)cc3c2O[C@@H](C(F)(F)F)C(C(=O)OCCOCCOC(=O)c2ccc(-c4c5nc(c(-c6c(F)cccc6F)c6ccc([nH]6)c(-c6c(F)cccc6F)c6nc(c(-c7c(F)cccc7F)c7ccc4[nH]7)C=C6)C=C5)cc2)=C3)cc1
REMARK SMILES IDX 26 1 25 2 24 3 22 4 23 5 21 6 8 7 9 8 14 9 10 10 13 11 15 12
REMARK SMILES IDX 11 13 12 14 87 15 16 16 7 17 4 18 5 19 89 20 6 21 88 22 3 23
REMARK SMILES IDX 2 24 1 25 17 26 18 27 19 28 20 29 27 30 28 31 29 32 30 33
REMARK SMILES IDX 31 34 32 35 33 36 34 37 86 38 35 39 85 40 36 41 37 42 38 43
REMARK SMILES IDX 79 44 39 45 84 46 78 47 80 48 40 49 83 50 77 51 76 52 41 54
REMARK SMILES IDX 67 55 50 56 66 57 51 58 54 59 65 60 81 61 52 62 53 63 64 65
REMARK SMILES IDX 82 66 55 67 42 68 43 69 48 70 44 71 45 72 47 73 49 74 46 75
REMARK SMILES IDX 68 76 69 77 74 78 70 79 71 80 73 81 75 82 72 83 56 84 57 85
REMARK SMILES IDX 62 86 58 87 59 88 61 89 63 90 60 91
REMARK H PARENT 80 53 54 64
REMARK Flexibility Score: inf
ROOT
ATOM      1  C   UNL A   1      31.291  29.702  24.913  1.00  0.00     0.202 C 
ENDROOT
BRANCH   1   2
ATOM      2  C   UNL A   1      31.818  28.644  23.931  1.00  0.00     0.261 C 
BRANCH   2   3
ATOM      3  O   UNL A   1      33.146  28.197  24.240  1.00  0.00    -0.460 OA
BRANCH   3   4
ATOM      4  C   UNL A   1      33.229  27.070  24.973  1.00  0.00     0.338 C 
ATOM      5  O   UNL A   1      33.631  27.006  26.127  1.00  0.00    -0.246 OA
BRANCH   4   6
ATOM      6  C   UNL A   1      32.614  25.906  24.292  1.00  0.00     0.087 C 
ATOM      7  C   UNL A   1      33.971  22.143  25.435  1.00  0.00     0.026 A 
ATOM      8  C   UNL A   1      35.238  22.387  26.009  1.00  0.00     0.033 A 
ATOM      9  C   UNL A   1      33.347  23.278  24.871  1.00  0.00     0.135 A 
ATOM     10  C   UNL A   1      35.967  23.526  25.668  1.00  0.00     0.042 A 
ATOM     11  C   UNL A   1      34.152  24.283  24.312  1.00  0.00     0.019 A 
ATOM     12  O   UNL A   1      32.074  23.675  25.338  1.00  0.00    -0.475 OA
ATOM     13  Cl  UNL A   1      37.539  23.756  26.321  1.00  0.00    -0.084 Cl
ATOM     14  C   UNL A   1      35.468  24.422  24.732  1.00  0.00     0.032 A 
ATOM     15  C   UNL A   1      33.511  25.324  23.480  1.00  0.00     0.027 C 
ATOM     16  C   UNL A   1      31.548  24.973  24.831  1.00  0.00     0.316 C 
BRANCH   7  17
ATOM     17  C   UNL A   1      33.850  20.748  24.854  1.00  0.00    -0.014 A 
ATOM     18  C   UNL A   1      33.587  17.917  24.452  1.00  0.00     0.119 A 
ATOM     19  C   UNL A   1      32.465  18.741  24.469  1.00  0.00     0.047 A 
ATOM     20  C   UNL A   1      34.843  18.499  24.576  1.00  0.00     0.047 A 
ATOM     21  C   UNL A   1      32.595  20.132  24.659  1.00  0.00     0.013 A 
ATOM     22  C   UNL A   1      34.971  19.892  24.773  1.00  0.00     0.013 A 
BRANCH  18  23
ATOM     23  O   UNL A   1      33.396  16.597  24.154  1.00  0.00    -0.494 OA
BRANCH  23  24
ATOM     24  C   UNL A   1      33.603  15.658  25.218  1.00  0.00     0.226 C 
ATOM     25  C   UNL A   1      32.291  15.104  25.754  1.00  0.00     0.049 C 
ENDBRANCH  23  24
ENDBRANCH  18  23
ENDBRANCH   7  17
BRANCH  16  26
ATOM     26  C   UNL A   1      30.456  25.663  25.682  1.00  0.00     0.430 C 
ATOM     27  F   UNL A   1      29.580  26.295  24.854  1.00  0.00    -0.167 F 
ATOM     28  F   UNL A   1      29.730  24.769  26.393  1.00  0.00    -0.167 F 
ATOM     29  F   UNL A   1      30.903  26.590  26.549  1.00  0.00    -0.167 F 
ENDBRANCH  16  26
ENDBRANCH   4   6
ENDBRANCH   3   4
ENDBRANCH   2   3
ENDBRANCH   1   2
BRANCH   1  30
ATOM     30  O   UNL A   1      32.229  30.439  25.687  1.00  0.00    -0.374 OA
BRANCH  30  31
ATOM     31  C   UNL A   1      31.767  31.094  26.865  1.00  0.00     0.202 C 
BRANCH  31  32
ATOM     32  C   UNL A   1      31.598  32.617  26.844  1.00  0.00     0.261 C 
BRANCH  32  33
ATOM     33  O   UNL A   1      32.838  33.334  26.754  1.00  0.00    -0.460 OA
BRANCH  33  34
ATOM     34  C   UNL A   1      33.320  33.780  27.936  1.00  0.00     0.338 C 
ATOM     35  O   UNL A   1      32.796  34.578  28.704  1.00  0.00    -0.246 OA
BRANCH  34  36
ATOM     36  C   UNL A   1      34.544  33.048  28.285  1.00  0.00     0.060 A 
ATOM     37  C   UNL A   1      34.436  31.688  28.597  1.00  0.00     0.016 A 
ATOM     38  C   UNL A   1      35.764  33.715  28.408  1.00  0.00     0.016 A 
ATOM     39  C   UNL A   1      35.546  30.993  29.068  1.00  0.00     0.010 A 
ATOM     40  C   UNL A   1      36.874  33.019  28.888  1.00  0.00     0.010 A 
ATOM     41  C   UNL A   1      36.763  31.663  29.249  1.00  0.00    -0.014 A 
BRANCH  41  42
ATOM     42  C   UNL A   1      37.885  30.982  29.934  1.00  0.00     0.031 A 
ATOM     43  C   UNL A   1      38.157  31.294  31.380  1.00  0.00     0.074 A 
ATOM     44  C   UNL A   1      38.641  30.086  29.276  1.00  0.00     0.049 A 
ATOM     45  N   UNL A   1      39.122  30.871  32.153  1.00  0.00    -0.248 NA
ATOM     46  C   UNL A   1      37.213  32.210  32.042  1.00  0.00     0.031 C 
ATOM     47  C   UNL A   1      38.445  29.674  27.887  1.00  0.00     0.029 A 
ATOM     48  N   UNL A   1      39.734  29.368  29.691  1.00  0.00    -0.354 N 
ATOM     49  C   UNL A   1      38.909  31.471  33.387  1.00  0.00     0.074 A 
ATOM     50  C   UNL A   1      37.740  32.314  33.253  1.00  0.00     0.031 C 
ATOM     51  C   UNL A   1      39.399  28.785  27.558  1.00  0.00     0.029 A 
ATOM     52  C   UNL A   1      40.290  28.597  28.700  1.00  0.00     0.049 A 
ATOM     53  H   UNL A   1      40.085  29.402  30.610  1.00  0.00     0.167 HD
ATOM     54  C   UNL A   1      39.619  31.324  34.531  1.00  0.00     0.037 A 
ATOM     55  C   UNL A   1      41.410  27.848  28.709  1.00  0.00     0.037 A 
ATOM     56  C   UNL A   1      40.782  30.483  34.656  1.00  0.00     0.049 A 
ATOM     57  C   UNL A   1      42.226  27.764  29.973  1.00  0.00     0.074 A 
ATOM     58  C   UNL A   1      41.565  30.256  35.773  1.00  0.00     0.029 A 
ATOM     59  N   UNL A   1      41.329  29.736  33.624  1.00  0.00    -0.354 N 
ATOM     60  N   UNL A   1      42.005  28.318  31.141  1.00  0.00    -0.248 NA
ATOM     61  C   UNL A   1      43.447  26.948  29.919  1.00  0.00     0.031 C 
ATOM     62  C   UNL A   1      42.618  29.414  35.404  1.00  0.00     0.029 A 
ATOM     63  C   UNL A   1      42.455  29.066  34.073  1.00  0.00     0.049 A 
ATOM     64  H   UNL A   1      40.970  29.688  32.708  1.00  0.00     0.167 HD
ATOM     65  C   UNL A   1      43.036  27.891  31.968  1.00  0.00     0.074 A 
ATOM     66  C   UNL A   1      43.875  27.019  31.172  1.00  0.00     0.031 C 
ATOM     67  C   UNL A   1      43.270  28.191  33.270  1.00  0.00     0.037 A 
BRANCH  54  68
ATOM     68  C   UNL A   1      39.173  32.102  35.735  1.00  0.00     0.057 A 
ATOM     69  C   UNL A   1      39.582  33.423  35.957  1.00  0.00     0.134 A 
ATOM     70  C   UNL A   1      38.283  31.539  36.659  1.00  0.00     0.134 A 
ATOM     71  F   UNL A   1      40.444  34.018  35.118  1.00  0.00    -0.206 F 
ATOM     72  C   UNL A   1      39.134  34.151  37.060  1.00  0.00     0.040 A 
ATOM     73  C   UNL A   1      37.807  32.265  37.751  1.00  0.00     0.040 A 
ATOM     74  F   UNL A   1      37.847  30.279  36.505  1.00  0.00    -0.206 F 
ATOM     75  C   UNL A   1      38.236  33.574  37.957  1.00  0.00     0.006 A 
ENDBRANCH  54  68
BRANCH  55  76
ATOM     76  C   UNL A   1      41.845  27.134  27.481  1.00  0.00     0.057 A 
ATOM     77  C   UNL A   1      41.482  25.804  27.245  1.00  0.00     0.134 A 
ATOM     78  C   UNL A   1      42.669  27.753  26.532  1.00  0.00     0.134 A 
ATOM     79  F   UNL A   1      40.713  25.148  28.127  1.00  0.00    -0.206 F 
ATOM     80  C   UNL A   1      41.944  25.105  26.128  1.00  0.00     0.040 A 
ATOM     81  C   UNL A   1      43.113  27.077  25.395  1.00  0.00     0.040 A 
ATOM     82  F   UNL A   1      43.052  29.028  26.695  1.00  0.00    -0.206 F 
ATOM     83  C   UNL A   1      42.760  25.744  25.196  1.00  0.00     0.006 A 
ENDBRANCH  55  76
BRANCH  67  84
ATOM     84  C   UNL A   1      44.449  27.534  33.928  1.00  0.00     0.057 A 
ATOM     85  C   UNL A   1      45.707  28.148  33.986  1.00  0.00     0.134 A 
ATOM     86  C   UNL A   1      44.312  26.285  34.548  1.00  0.00     0.134 A 
ATOM     87  F   UNL A   1      45.910  29.339  33.402  1.00  0.00    -0.206 F 
ATOM     88  C   UNL A   1      46.791  27.532  34.612  1.00  0.00     0.040 A 
ATOM     89  C   UNL A   1      45.380  25.674  35.205  1.00  0.00     0.040 A 
ATOM     90  F   UNL A   1      43.132  25.646  34.540  1.00  0.00    -0.206 F 
ATOM     91  C   UNL A   1      46.626  26.294  35.231  1.00  0.00     0.006 A 
ENDBRANCH  67  84
ENDBRANCH  41  42
ENDBRANCH  34  36
ENDBRANCH  33  34
ENDBRANCH  32  33
ENDBRANCH  31  32
ENDBRANCH  30  31
ENDBRANCH   1  30
TORSDOF 18
ENDMDL
