MODEL 1
REMARK VINA RESULT:      -9.7      0.000      0.000
REMARK SMILES COc1ccc(S(=O)(=O)N(C)CCCC(=O)OCCOCCOC(=O)c2ccc(-c3c4nc(c(-c5c(F)cccc5F)c5ccc([nH]5)c(-c5c(F)cccc5F)c5nc(c(-c6c(F)cccc6F)c6ccc3[nH]6)C=C5)C=C4)cc2)cc1
REMARK SMILES IDX 18 1 17 2 15 3 16 4 14 5 13 6 12 7 10 8 11 9 7 10 8 11 9 12
REMARK SMILES IDX 6 13 3 14 4 15 81 16 5 17 80 18 2 19 1 20 19 21 20 22 21 23
REMARK SMILES IDX 22 24 23 25 24 26 25 27 26 28 27 29 79 30 28 31 78 32 29 33
REMARK SMILES IDX 30 34 31 35 72 36 32 37 77 38 71 39 73 40 33 41 76 42 70 43
REMARK SMILES IDX 69 44 34 46 60 47 43 48 59 49 44 50 47 51 58 52 74 53 45 54
REMARK SMILES IDX 46 55 57 57 75 58 48 59 35 60 36 61 41 62 37 63 38 64 40 65
REMARK SMILES IDX 42 66 39 67 61 68 62 69 67 70 63 71 64 72 66 73 68 74 65 75
REMARK SMILES IDX 49 76 50 77 55 78 51 79 52 80 54 81 56 82 53 83
REMARK H PARENT 73 45 47 56
REMARK Flexibility Score: inf
ROOT
ATOM      1  C   UNL A   1      35.049  31.912  27.755  1.00  0.00     0.261 C 
ENDROOT
BRANCH   1   2
ATOM      2  O   UNL A   1      33.714  31.409  27.572  1.00  0.00    -0.463 OA
BRANCH   2   3
ATOM      3  C   UNL A   1      33.607  30.105  27.214  1.00  0.00     0.305 C 
ATOM      4  O   UNL A   1      34.548  29.345  27.023  1.00  0.00    -0.252 OA
BRANCH   3   5
ATOM      5  C   UNL A   1      32.166  29.633  27.187  1.00  0.00     0.124 C 
BRANCH   5   6
ATOM      6  C   UNL A   1      31.863  28.138  27.330  1.00  0.00     0.028 C 
BRANCH   6   7
ATOM      7  C   UNL A   1      31.943  27.205  26.113  1.00  0.00     0.103 C 
BRANCH   7   8
ATOM      8  N   UNL A   1      30.648  26.724  25.539  1.00  0.00    -0.201 NA
ATOM      9  C   UNL A   1      30.173  25.457  26.125  1.00  0.00     0.124 C 
BRANCH   8  10
ATOM     10  S   UNL A   1      30.503  26.946  23.856  1.00  0.00     0.242 S 
ATOM     11  O   UNL A   1      29.694  25.851  23.367  1.00  0.00    -0.207 OA
ATOM     12  O   UNL A   1      31.824  27.201  23.322  1.00  0.00    -0.207 OA
BRANCH  10  13
ATOM     13  C   UNL A   1      29.557  28.403  23.542  1.00  0.00     0.082 A 
ATOM     14  C   UNL A   1      28.242  30.808  23.078  1.00  0.00     0.118 A 
ATOM     15  C   UNL A   1      29.517  30.817  23.638  1.00  0.00     0.048 A 
ATOM     16  C   UNL A   1      27.629  29.595  22.737  1.00  0.00     0.048 A 
ATOM     17  C   UNL A   1      30.173  29.617  23.877  1.00  0.00     0.025 A 
ATOM     18  C   UNL A   1      28.283  28.380  22.980  1.00  0.00     0.025 A 
BRANCH  14  19
ATOM     19  O   UNL A   1      27.701  32.043  22.854  1.00  0.00    -0.497 OA
ATOM     20  C   UNL A   1      28.030  32.603  21.588  1.00  0.00     0.278 C 
ENDBRANCH  14  19
ENDBRANCH  10  13
ENDBRANCH   8  10
ENDBRANCH   7   8
ENDBRANCH   6   7
ENDBRANCH   5   6
ENDBRANCH   3   5
ENDBRANCH   2   3
ENDBRANCH   1   2
BRANCH   1  21
ATOM     21  C   UNL A   1      35.030  33.159  28.639  1.00  0.00     0.202 C 
BRANCH  21  22
ATOM     22  O   UNL A   1      34.533  32.993  29.968  1.00  0.00    -0.374 OA
BRANCH  22  23
ATOM     23  C   UNL A   1      34.528  34.127  30.830  1.00  0.00     0.202 C 
BRANCH  23  24
ATOM     24  C   UNL A   1      35.053  33.921  32.256  1.00  0.00     0.261 C 
BRANCH  24  25
ATOM     25  O   UNL A   1      36.459  33.623  32.313  1.00  0.00    -0.460 OA
BRANCH  25  26
ATOM     26  C   UNL A   1      36.750  32.440  32.912  1.00  0.00     0.338 C 
ATOM     27  O   UNL A   1      36.273  31.995  33.943  1.00  0.00    -0.246 OA
BRANCH  26  28
ATOM     28  C   UNL A   1      37.675  31.648  32.083  1.00  0.00     0.060 A 
ATOM     29  C   UNL A   1      38.788  31.080  32.717  1.00  0.00     0.016 A 
ATOM     30  C   UNL A   1      37.534  31.579  30.695  1.00  0.00     0.016 A 
ATOM     31  C   UNL A   1      39.796  30.487  31.959  1.00  0.00     0.010 A 
ATOM     32  C   UNL A   1      38.552  30.992  29.937  1.00  0.00     0.010 A 
ATOM     33  C   UNL A   1      39.704  30.480  30.561  1.00  0.00    -0.014 A 
BRANCH  33  34
ATOM     34  C   UNL A   1      40.877  30.083  29.744  1.00  0.00     0.031 A 
ATOM     35  C   UNL A   1      40.944  28.683  29.199  1.00  0.00     0.074 A 
ATOM     36  C   UNL A   1      41.861  30.959  29.477  1.00  0.00     0.049 A 
ATOM     37  N   UNL A   1      41.913  28.089  28.550  1.00  0.00    -0.248 NA
ATOM     38  C   UNL A   1      39.758  27.838  29.417  1.00  0.00     0.031 C 
ATOM     39  C   UNL A   1      41.882  32.360  29.891  1.00  0.00     0.029 A 
ATOM     40  N   UNL A   1      43.041  30.788  28.798  1.00  0.00    -0.354 N 
ATOM     41  C   UNL A   1      41.459  26.802  28.289  1.00  0.00     0.074 A 
ATOM     42  C   UNL A   1      40.138  26.693  28.869  1.00  0.00     0.031 C 
ATOM     43  C   UNL A   1      43.029  32.920  29.470  1.00  0.00     0.029 A 
ATOM     44  C   UNL A   1      43.838  31.907  28.794  1.00  0.00     0.049 A 
ATOM     45  H   UNL A   1      43.293  29.945  28.356  1.00  0.00     0.167 HD
ATOM     46  C   UNL A   1      42.085  25.805  27.622  1.00  0.00     0.037 A 
ATOM     47  C   UNL A   1      45.089  32.080  28.325  1.00  0.00     0.037 A 
ATOM     48  C   UNL A   1      43.397  25.916  27.042  1.00  0.00     0.049 A 
ATOM     49  C   UNL A   1      45.803  30.928  27.672  1.00  0.00     0.074 A 
ATOM     50  C   UNL A   1      44.117  24.960  26.349  1.00  0.00     0.029 A 
ATOM     51  N   UNL A   1      44.185  27.054  27.093  1.00  0.00    -0.354 N 
ATOM     52  N   UNL A   1      45.370  29.713  27.436  1.00  0.00    -0.248 NA
ATOM     53  C   UNL A   1      47.184  31.167  27.225  1.00  0.00     0.031 C 
ATOM     54  C   UNL A   1      45.360  25.506  26.014  1.00  0.00     0.029 A 
ATOM     55  C   UNL A   1      45.394  26.818  26.461  1.00  0.00     0.049 A 
ATOM     56  H   UNL A   1      43.924  27.904  27.515  1.00  0.00     0.167 HD
ATOM     57  C   UNL A   1      46.408  29.056  26.786  1.00  0.00     0.074 A 
ATOM     58  C   UNL A   1      47.493  30.006  26.663  1.00  0.00     0.031 C 
ATOM     59  C   UNL A   1      46.456  27.782  26.328  1.00  0.00     0.037 A 
BRANCH  46  60
ATOM     60  C   UNL A   1      41.365  24.494  27.502  1.00  0.00     0.057 A 
ATOM     61  C   UNL A   1      40.322  24.306  26.587  1.00  0.00     0.134 A 
ATOM     62  C   UNL A   1      41.747  23.397  28.283  1.00  0.00     0.134 A 
ATOM     63  F   UNL A   1      39.900  25.320  25.817  1.00  0.00    -0.206 F 
ATOM     64  C   UNL A   1      39.670  23.077  26.467  1.00  0.00     0.040 A 
ATOM     65  C   UNL A   1      41.118  22.157  28.157  1.00  0.00     0.040 A 
ATOM     66  F   UNL A   1      42.742  23.510  29.176  1.00  0.00    -0.206 F 
ATOM     67  C   UNL A   1      40.074  21.996  27.250  1.00  0.00     0.006 A 
ENDBRANCH  46  60
BRANCH  47  68
ATOM     68  C   UNL A   1      45.764  33.394  28.479  1.00  0.00     0.057 A 
ATOM     69  C   UNL A   1      46.501  33.698  29.628  1.00  0.00     0.134 A 
ATOM     70  C   UNL A   1      45.665  34.384  27.494  1.00  0.00     0.134 A 
ATOM     71  F   UNL A   1      46.609  32.800  30.619  1.00  0.00    -0.206 F 
ATOM     72  C   UNL A   1      47.107  34.945  29.800  1.00  0.00     0.040 A 
ATOM     73  C   UNL A   1      46.285  35.625  27.641  1.00  0.00     0.040 A 
ATOM     74  F   UNL A   1      44.969  34.156  26.371  1.00  0.00    -0.206 F 
ATOM     75  C   UNL A   1      47.003  35.911  28.800  1.00  0.00     0.006 A 
ENDBRANCH  47  68
BRANCH  59  76
ATOM     76  C   UNL A   1      47.697  27.348  25.608  1.00  0.00     0.057 A 
ATOM     77  C   UNL A   1      48.775  26.759  26.280  1.00  0.00     0.134 A 
ATOM     78  C   UNL A   1      47.783  27.458  24.213  1.00  0.00     0.134 A 
ATOM     79  F   UNL A   1      48.758  26.636  27.615  1.00  0.00    -0.206 F 
ATOM     80  C   UNL A   1      49.900  26.303  25.590  1.00  0.00     0.040 A 
ATOM     81  C   UNL A   1      48.892  26.986  23.512  1.00  0.00     0.040 A 
ATOM     82  F   UNL A   1      46.780  28.006  23.510  1.00  0.00    -0.206 F 
ATOM     83  C   UNL A   1      49.956  26.407  24.201  1.00  0.00     0.006 A 
ENDBRANCH  59  76
ENDBRANCH  33  34
ENDBRANCH  26  28
ENDBRANCH  25  26
ENDBRANCH  24  25
ENDBRANCH  23  24
ENDBRANCH  22  23
ENDBRANCH  21  22
ENDBRANCH   1  21
TORSDOF 20
ENDMDL
MODEL 2
REMARK VINA RESULT:      -9.6      4.811      9.967
REMARK SMILES COc1ccc(S(=O)(=O)N(C)CCCC(=O)OCCOCCOC(=O)c2ccc(-c3c4nc(c(-c5c(F)cccc5F)c5ccc([nH]5)c(-c5c(F)cccc5F)c5nc(c(-c6c(F)cccc6F)c6ccc3[nH]6)C=C5)C=C4)cc2)cc1
REMARK SMILES IDX 18 1 17 2 15 3 16 4 14 5 13 6 12 7 10 8 11 9 7 10 8 11 9 12
REMARK SMILES IDX 6 13 3 14 4 15 81 16 5 17 80 18 2 19 1 20 19 21 20 22 21 23
REMARK SMILES IDX 22 24 23 25 24 26 25 27 26 28 27 29 79 30 28 31 78 32 29 33
REMARK SMILES IDX 30 34 31 35 72 36 32 37 77 38 71 39 73 40 33 41 76 42 70 43
REMARK SMILES IDX 69 44 34 46 60 47 43 48 59 49 44 50 47 51 58 52 74 53 45 54
REMARK SMILES IDX 46 55 57 57 75 58 48 59 35 60 36 61 41 62 37 63 38 64 40 65
REMARK SMILES IDX 42 66 39 67 61 68 62 69 67 70 63 71 64 72 66 73 68 74 65 75
REMARK SMILES IDX 49 76 50 77 55 78 51 79 52 80 54 81 56 82 53 83
REMARK H PARENT 73 45 47 56
REMARK Flexibility Score: inf
ROOT
ATOM      1  C   UNL A   1      38.917  21.458  25.907  1.00  0.00     0.261 C 
ENDROOT
BRANCH   1   2
ATOM      2  O   UNL A   1      38.012  20.792  25.011  1.00  0.00    -0.463 OA
BRANCH   2   3
ATOM      3  C   UNL A   1      36.906  21.489  24.645  1.00  0.00     0.305 C 
ATOM      4  O   UNL A   1      36.850  22.288  23.719  1.00  0.00    -0.252 OA
BRANCH   3   5
ATOM      5  C   UNL A   1      35.682  21.084  25.442  1.00  0.00     0.124 C 
BRANCH   5   6
ATOM      6  C   UNL A   1      34.291  21.463  24.925  1.00  0.00     0.028 C 
BRANCH   6   7
ATOM      7  C   UNL A   1      33.038  21.158  25.759  1.00  0.00     0.103 C 
BRANCH   7   8
ATOM      8  N   UNL A   1      31.844  22.032  25.537  1.00  0.00    -0.201 NA
ATOM      9  C   UNL A   1      31.733  22.548  24.160  1.00  0.00     0.124 C 
BRANCH   8  10
ATOM     10  S   UNL A   1      31.498  23.086  26.830  1.00  0.00     0.242 S 
ATOM     11  O   UNL A   1      32.566  22.920  27.790  1.00  0.00    -0.207 OA
ATOM     12  O   UNL A   1      30.113  22.896  27.205  1.00  0.00    -0.207 OA
BRANCH  10  13
ATOM     13  C   UNL A   1      31.629  24.754  26.269  1.00  0.00     0.082 A 
ATOM     14  C   UNL A   1      32.039  27.350  25.360  1.00  0.00     0.118 A 
ATOM     15  C   UNL A   1      33.132  26.564  25.714  1.00  0.00     0.048 A 
ATOM     16  C   UNL A   1      30.740  26.834  25.448  1.00  0.00     0.048 A 
ATOM     17  C   UNL A   1      32.930  25.269  26.174  1.00  0.00     0.025 A 
ATOM     18  C   UNL A   1      30.527  25.530  25.917  1.00  0.00     0.025 A 
BRANCH  14  19
ATOM     19  O   UNL A   1      32.351  28.595  24.888  1.00  0.00    -0.497 OA
ATOM     20  C   UNL A   1      33.624  29.073  25.303  1.00  0.00     0.278 C 
ENDBRANCH  14  19
ENDBRANCH  10  13
ENDBRANCH   8  10
ENDBRANCH   7   8
ENDBRANCH   6   7
ENDBRANCH   5   6
ENDBRANCH   3   5
ENDBRANCH   2   3
ENDBRANCH   1   2
BRANCH   1  21
ATOM     21  C   UNL A   1      40.164  20.602  26.136  1.00  0.00     0.202 C 
BRANCH  21  22
ATOM     22  O   UNL A   1      41.173  21.157  26.980  1.00  0.00    -0.374 OA
BRANCH  22  23
ATOM     23  C   UNL A   1      42.531  21.064  26.555  1.00  0.00     0.202 C 
BRANCH  23  24
ATOM     24  C   UNL A   1      43.522  22.061  27.168  1.00  0.00     0.261 C 
BRANCH  24  25
ATOM     25  O   UNL A   1      44.198  22.872  26.191  1.00  0.00    -0.460 OA
BRANCH  25  26
ATOM     26  C   UNL A   1      43.365  23.595  25.401  1.00  0.00     0.338 C 
ATOM     27  O   UNL A   1      43.055  23.362  24.243  1.00  0.00    -0.246 OA
BRANCH  26  28
ATOM     28  C   UNL A   1      42.748  24.697  26.160  1.00  0.00     0.060 A 
ATOM     29  C   UNL A   1      43.526  25.838  26.394  1.00  0.00     0.016 A 
ATOM     30  C   UNL A   1      41.488  24.560  26.748  1.00  0.00     0.016 A 
ATOM     31  C   UNL A   1      43.071  26.826  27.266  1.00  0.00     0.010 A 
ATOM     32  C   UNL A   1      41.039  25.549  27.629  1.00  0.00     0.010 A 
ATOM     33  C   UNL A   1      41.844  26.665  27.923  1.00  0.00    -0.014 A 
BRANCH  33  34
ATOM     34  C   UNL A   1      41.473  27.577  29.031  1.00  0.00     0.031 A 
ATOM     35  C   UNL A   1      42.247  27.512  30.318  1.00  0.00     0.074 A 
ATOM     36  C   UNL A   1      40.471  28.463  28.891  1.00  0.00     0.049 A 
ATOM     37  N   UNL A   1      42.038  28.138  31.448  1.00  0.00    -0.248 NA
ATOM     38  C   UNL A   1      43.418  26.619  30.334  1.00  0.00     0.031 C 
ATOM     39  C   UNL A   1      39.688  28.669  27.674  1.00  0.00     0.029 A 
ATOM     40  N   UNL A   1      39.937  29.349  29.793  1.00  0.00    -0.354 N 
ATOM     41  C   UNL A   1      43.041  27.710  32.309  1.00  0.00     0.074 A 
ATOM     42  C   UNL A   1      43.846  26.754  31.580  1.00  0.00     0.031 C 
ATOM     43  C   UNL A   1      38.760  29.613  27.910  1.00  0.00     0.029 A 
ATOM     44  C   UNL A   1      38.859  30.045  29.303  1.00  0.00     0.049 A 
ATOM     45  H   UNL A   1      40.292  29.473  30.702  1.00  0.00     0.167 HD
ATOM     46  C   UNL A   1      43.272  28.084  33.589  1.00  0.00     0.037 A 
ATOM     47  C   UNL A   1      38.030  30.909  29.921  1.00  0.00     0.037 A 
ATOM     48  C   UNL A   1      42.472  29.038  34.312  1.00  0.00     0.049 A 
ATOM     49  C   UNL A   1      38.249  31.237  31.374  1.00  0.00     0.074 A 
ATOM     50  C   UNL A   1      42.625  29.481  35.614  1.00  0.00     0.029 A 
ATOM     51  N   UNL A   1      41.367  29.692  33.792  1.00  0.00    -0.354 N 
ATOM     52  N   UNL A   1      39.194  30.823  32.183  1.00  0.00    -0.248 NA
ATOM     53  C   UNL A   1      37.281  32.148  32.003  1.00  0.00     0.031 C 
ATOM     54  C   UNL A   1      41.587  30.375  35.896  1.00  0.00     0.029 A 
ATOM     55  C   UNL A   1      40.815  30.521  34.754  1.00  0.00     0.049 A 
ATOM     56  H   UNL A   1      41.026  29.585  32.875  1.00  0.00     0.167 HD
ATOM     57  C   UNL A   1      38.956  31.446  33.401  1.00  0.00     0.074 A 
ATOM     58  C   UNL A   1      37.777  32.268  33.228  1.00  0.00     0.031 C 
ATOM     59  C   UNL A   1      39.653  31.349  34.559  1.00  0.00     0.037 A 
BRANCH  46  60
ATOM     60  C   UNL A   1      44.426  27.442  34.300  1.00  0.00     0.057 A 
ATOM     61  C   UNL A   1      45.684  28.054  34.366  1.00  0.00     0.134 A 
ATOM     62  C   UNL A   1      44.265  26.218  34.959  1.00  0.00     0.134 A 
ATOM     63  F   UNL A   1      45.907  29.221  33.745  1.00  0.00    -0.206 F 
ATOM     64  C   UNL A   1      46.748  27.459  35.047  1.00  0.00     0.040 A 
ATOM     65  C   UNL A   1      45.314  25.624  35.663  1.00  0.00     0.040 A 
ATOM     66  F   UNL A   1      43.083  25.583  34.938  1.00  0.00    -0.206 F 
ATOM     67  C   UNL A   1      46.562  26.243  35.704  1.00  0.00     0.006 A 
ENDBRANCH  46  60
BRANCH  47  68
ATOM     68  C   UNL A   1      36.894  31.508  29.177  1.00  0.00     0.057 A 
ATOM     69  C   UNL A   1      35.757  30.756  28.863  1.00  0.00     0.134 A 
ATOM     70  C   UNL A   1      36.929  32.838  28.741  1.00  0.00     0.134 A 
ATOM     71  F   UNL A   1      35.677  29.468  29.230  1.00  0.00    -0.206 F 
ATOM     72  C   UNL A   1      34.700  31.299  28.129  1.00  0.00     0.040 A 
ATOM     73  C   UNL A   1      35.870  33.401  28.028  1.00  0.00     0.040 A 
ATOM     74  F   UNL A   1      37.992  33.612  29.007  1.00  0.00    -0.206 F 
ATOM     75  C   UNL A   1      34.754  32.629  27.715  1.00  0.00     0.006 A 
ENDBRANCH  47  68
BRANCH  59  76
ATOM     76  C   UNL A   1      39.198  32.185  35.717  1.00  0.00     0.057 A 
ATOM     77  C   UNL A   1      38.351  31.677  36.709  1.00  0.00     0.134 A 
ATOM     78  C   UNL A   1      39.671  33.495  35.876  1.00  0.00     0.134 A 
ATOM     79  F   UNL A   1      37.856  30.435  36.608  1.00  0.00    -0.206 F 
ATOM     80  C   UNL A   1      37.984  32.445  37.815  1.00  0.00     0.040 A 
ATOM     81  C   UNL A   1      39.329  34.264  36.987  1.00  0.00     0.040 A 
ATOM     82  F   UNL A   1      40.492  34.038  34.964  1.00  0.00    -0.206 F 
ATOM     83  C   UNL A   1      38.481  33.739  37.961  1.00  0.00     0.006 A 
ENDBRANCH  59  76
ENDBRANCH  33  34
ENDBRANCH  26  28
ENDBRANCH  25  26
ENDBRANCH  24  25
ENDBRANCH  23  24
ENDBRANCH  22  23
ENDBRANCH  21  22
ENDBRANCH   1  21
TORSDOF 20
ENDMDL
MODEL 3
REMARK VINA RESULT:      -9.5      4.388      6.988
REMARK SMILES COc1ccc(S(=O)(=O)N(C)CCCC(=O)OCCOCCOC(=O)c2ccc(-c3c4nc(c(-c5c(F)cccc5F)c5ccc([nH]5)c(-c5c(F)cccc5F)c5nc(c(-c6c(F)cccc6F)c6ccc3[nH]6)C=C5)C=C4)cc2)cc1
REMARK SMILES IDX 18 1 17 2 15 3 16 4 14 5 13 6 12 7 10 8 11 9 7 10 8 11 9 12
REMARK SMILES IDX 6 13 3 14 4 15 81 16 5 17 80 18 2 19 1 20 19 21 20 22 21 23
REMARK SMILES IDX 22 24 23 25 24 26 25 27 26 28 27 29 79 30 28 31 78 32 29 33
REMARK SMILES IDX 30 34 31 35 72 36 32 37 77 38 71 39 73 40 33 41 76 42 70 43
REMARK SMILES IDX 69 44 34 46 60 47 43 48 59 49 44 50 47 51 58 52 74 53 45 54
REMARK SMILES IDX 46 55 57 57 75 58 48 59 35 60 36 61 41 62 37 63 38 64 40 65
REMARK SMILES IDX 42 66 39 67 61 68 62 69 67 70 63 71 64 72 66 73 68 74 65 75
REMARK SMILES IDX 49 76 50 77 55 78 51 79 52 80 54 81 56 82 53 83
REMARK H PARENT 73 45 47 56
REMARK Flexibility Score: inf
ROOT
ATOM      1  C   UNL A   1      31.686  29.062  24.403  1.00  0.00     0.261 C 
ENDROOT
BRANCH   1   2
ATOM      2  O   UNL A   1      30.281  29.136  24.108  1.00  0.00    -0.463 OA
BRANCH   2   3
ATOM      3  C   UNL A   1      29.848  28.400  23.054  1.00  0.00     0.305 C 
ATOM      4  O   UNL A   1      30.249  28.511  21.902  1.00  0.00    -0.252 OA
BRANCH   3   5
ATOM      5  C   UNL A   1      28.876  27.314  23.472  1.00  0.00     0.124 C 
BRANCH   5   6
ATOM      6  C   UNL A   1      29.292  26.310  24.552  1.00  0.00     0.028 C 
BRANCH   6   7
ATOM      7  C   UNL A   1      30.292  25.189  24.233  1.00  0.00     0.103 C 
BRANCH   7   8
ATOM      8  N   UNL A   1      31.742  25.493  24.437  1.00  0.00    -0.201 NA
ATOM      9  C   UNL A   1      32.523  25.531  23.187  1.00  0.00     0.124 C 
BRANCH   8  10
ATOM     10  S   UNL A   1      32.431  24.740  25.801  1.00  0.00     0.242 S 
ATOM     11  O   UNL A   1      31.365  24.587  26.767  1.00  0.00    -0.207 OA
ATOM     12  O   UNL A   1      33.652  25.444  26.134  1.00  0.00    -0.207 OA
BRANCH  10  13
ATOM     13  C   UNL A   1      32.914  23.097  25.375  1.00  0.00     0.082 A 
ATOM     14  C   UNL A   1      33.473  20.462  24.684  1.00  0.00     0.118 A 
ATOM     15  C   UNL A   1      32.172  20.824  25.022  1.00  0.00     0.048 A 
ATOM     16  C   UNL A   1      34.494  21.422  24.678  1.00  0.00     0.048 A 
ATOM     17  C   UNL A   1      31.891  22.138  25.374  1.00  0.00     0.025 A 
ATOM     18  C   UNL A   1      34.220  22.748  25.037  1.00  0.00     0.025 A 
BRANCH  14  19
ATOM     19  O   UNL A   1      33.634  19.154  24.321  1.00  0.00    -0.497 OA
ATOM     20  C   UNL A   1      32.555  18.622  23.563  1.00  0.00     0.278 C 
ENDBRANCH  14  19
ENDBRANCH  10  13
ENDBRANCH   8  10
ENDBRANCH   7   8
ENDBRANCH   6   7
ENDBRANCH   5   6
ENDBRANCH   3   5
ENDBRANCH   2   3
ENDBRANCH   1   2
BRANCH   1  21
ATOM     21  C   UNL A   1      31.920  29.197  25.908  1.00  0.00     0.202 C 
BRANCH  21  22
ATOM     22  O   UNL A   1      32.322  30.484  26.379  1.00  0.00    -0.374 OA
BRANCH  22  23
ATOM     23  C   UNL A   1      31.379  31.550  26.309  1.00  0.00     0.202 C 
BRANCH  23  24
ATOM     24  C   UNL A   1      31.778  32.877  26.966  1.00  0.00     0.261 C 
BRANCH  24  25
ATOM     25  O   UNL A   1      33.081  32.848  27.573  1.00  0.00    -0.460 OA
BRANCH  25  26
ATOM     26  C   UNL A   1      33.338  33.907  28.382  1.00  0.00     0.338 C 
ATOM     27  O   UNL A   1      32.641  34.894  28.553  1.00  0.00    -0.246 OA
BRANCH  26  28
ATOM     28  C   UNL A   1      34.566  33.683  29.165  1.00  0.00     0.060 A 
ATOM     29  C   UNL A   1      35.774  34.134  28.618  1.00  0.00     0.016 A 
ATOM     30  C   UNL A   1      34.554  32.925  30.338  1.00  0.00     0.016 A 
ATOM     31  C   UNL A   1      36.984  33.782  29.214  1.00  0.00     0.010 A 
ATOM     32  C   UNL A   1      35.769  32.565  30.928  1.00  0.00     0.010 A 
ATOM     33  C   UNL A   1      36.989  32.958  30.347  1.00  0.00    -0.014 A 
BRANCH  33  34
ATOM     34  C   UNL A   1      38.264  32.376  30.833  1.00  0.00     0.031 A 
ATOM     35  C   UNL A   1      38.784  31.122  30.188  1.00  0.00     0.074 A 
ATOM     36  C   UNL A   1      38.958  32.963  31.823  1.00  0.00     0.049 A 
ATOM     37  N   UNL A   1      39.816  30.385  30.512  1.00  0.00    -0.248 NA
ATOM     38  C   UNL A   1      38.039  30.630  29.017  1.00  0.00     0.031 C 
ATOM     39  C   UNL A   1      38.595  34.214  32.485  1.00  0.00     0.029 A 
ATOM     40  N   UNL A   1      40.114  32.570  32.451  1.00  0.00    -0.354 N 
ATOM     41  C   UNL A   1      39.840  29.342  29.595  1.00  0.00     0.074 A 
ATOM     42  C   UNL A   1      38.707  29.527  28.714  1.00  0.00     0.031 C 
ATOM     43  C   UNL A   1      39.503  34.480  33.440  1.00  0.00     0.029 A 
ATOM     44  C   UNL A   1      40.486  33.398  33.482  1.00  0.00     0.049 A 
ATOM     45  H   UNL A   1      40.626  31.772  32.188  1.00  0.00     0.167 HD
ATOM     46  C   UNL A   1      40.729  28.326  29.494  1.00  0.00     0.037 A 
ATOM     47  C   UNL A   1      41.487  33.276  34.375  1.00  0.00     0.037 A 
ATOM     48  C   UNL A   1      41.857  28.146  30.368  1.00  0.00     0.049 A 
ATOM     49  C   UNL A   1      42.406  32.087  34.302  1.00  0.00     0.074 A 
ATOM     50  C   UNL A   1      42.813  27.147  30.347  1.00  0.00     0.029 A 
ATOM     51  N   UNL A   1      42.177  28.986  31.423  1.00  0.00    -0.354 N 
ATOM     52  N   UNL A   1      42.417  31.101  33.437  1.00  0.00    -0.248 NA
ATOM     53  C   UNL A   1      43.449  31.987  35.335  1.00  0.00     0.031 C 
ATOM     54  C   UNL A   1      43.691  27.359  31.415  1.00  0.00     0.029 A 
ATOM     55  C   UNL A   1      43.305  28.516  32.073  1.00  0.00     0.049 A 
ATOM     56  H   UNL A   1      41.677  29.797  31.672  1.00  0.00     0.167 HD
ATOM     57  C   UNL A   1      43.483  30.287  33.799  1.00  0.00     0.074 A 
ATOM     58  C   UNL A   1      44.097  30.891  34.962  1.00  0.00     0.031 C 
ATOM     59  C   UNL A   1      43.917  29.142  33.217  1.00  0.00     0.037 A 
BRANCH  46  60
ATOM     60  C   UNL A   1      40.503  27.315  28.409  1.00  0.00     0.057 A 
ATOM     61  C   UNL A   1      41.155  27.401  27.173  1.00  0.00     0.134 A 
ATOM     62  C   UNL A   1      39.654  26.222  28.620  1.00  0.00     0.134 A 
ATOM     63  F   UNL A   1      41.971  28.430  26.903  1.00  0.00    -0.206 F 
ATOM     64  C   UNL A   1      40.954  26.444  26.176  1.00  0.00     0.040 A 
ATOM     65  C   UNL A   1      39.463  25.246  27.640  1.00  0.00     0.040 A 
ATOM     66  F   UNL A   1      39.004  26.078  29.785  1.00  0.00    -0.206 F 
ATOM     67  C   UNL A   1      40.112  25.359  26.411  1.00  0.00     0.006 A 
ENDBRANCH  46  60
BRANCH  47  68
ATOM     68  C   UNL A   1      41.661  34.298  35.438  1.00  0.00     0.057 A 
ATOM     69  C   UNL A   1      42.512  35.393  35.256  1.00  0.00     0.134 A 
ATOM     70  C   UNL A   1      41.002  34.190  36.668  1.00  0.00     0.134 A 
ATOM     71  F   UNL A   1      43.193  35.537  34.109  1.00  0.00    -0.206 F 
ATOM     72  C   UNL A   1      42.713  36.339  36.264  1.00  0.00     0.040 A 
ATOM     73  C   UNL A   1      41.174  35.140  37.675  1.00  0.00     0.040 A 
ATOM     74  F   UNL A   1      40.175  33.161  36.906  1.00  0.00    -0.206 F 
ATOM     75  C   UNL A   1      42.037  36.215  37.477  1.00  0.00     0.006 A 
ENDBRANCH  47  68
BRANCH  59  76
ATOM     76  C   UNL A   1      45.138  28.490  33.791  1.00  0.00     0.057 A 
ATOM     77  C   UNL A   1      46.428  28.842  33.375  1.00  0.00     0.134 A 
ATOM     78  C   UNL A   1      45.023  27.548  34.822  1.00  0.00     0.134 A 
ATOM     79  F   UNL A   1      46.605  29.729  32.385  1.00  0.00    -0.206 F 
ATOM     80  C   UNL A   1      47.561  28.274  33.960  1.00  0.00     0.040 A 
ATOM     81  C   UNL A   1      46.147  26.989  35.429  1.00  0.00     0.040 A 
ATOM     82  F   UNL A   1      43.815  27.174  35.270  1.00  0.00    -0.206 F 
ATOM     83  C   UNL A   1      47.422  27.352  34.997  1.00  0.00     0.006 A 
ENDBRANCH  59  76
ENDBRANCH  33  34
ENDBRANCH  26  28
ENDBRANCH  25  26
ENDBRANCH  24  25
ENDBRANCH  23  24
ENDBRANCH  22  23
ENDBRANCH  21  22
ENDBRANCH   1  21
TORSDOF 20
ENDMDL
