MODEL 1
REMARK VINA RESULT:     -12.3      0.000      0.000
REMARK SMILES CN(C)S(=O)(=O)c1ccc(-n2c(CCC(=O)OCCOCCOC(=O)c3ccc(-c4c5nc(c(-c6c(F)cccc6F)c6ccc([nH]6)c(-c6c(F)cccc6F)c6nc(c(-c7c(F)cccc7F)c7ccc4[nH]7)C=C6)C=C5)cc3)ccc2-c2ccc(F)cc2)cc1
REMARK SMILES IDX 18 1 17 2 15 3 16 4 14 5 13 6 12 7 11 8 82 9 80 10 81 11
REMARK SMILES IDX 10 12 7 13 8 14 91 15 9 16 90 17 4 18 5 19 6 20 2 21 1 22
REMARK SMILES IDX 3 23 83 24 84 25 89 26 85 27 88 28 86 29 87 30 19 31 20 32
REMARK SMILES IDX 21 33 22 34 23 35 24 36 25 37 26 38 27 39 79 40 28 41 78 42
REMARK SMILES IDX 29 43 30 44 31 45 72 46 32 47 77 48 71 49 73 50 33 51 76 52
REMARK SMILES IDX 70 53 69 54 34 56 60 57 43 58 59 59 44 60 47 61 58 62 74 63
REMARK SMILES IDX 45 64 46 65 57 67 75 68 48 69 35 70 36 71 41 72 37 73 38 74
REMARK SMILES IDX 40 75 42 76 39 77 61 78 62 79 67 80 63 81 64 82 66 83 68 84
REMARK SMILES IDX 65 85 49 86 50 87 55 88 51 89 52 90 54 91 56 92 53 93
REMARK H PARENT 73 55 47 66
REMARK Flexibility Score: inf
ROOT
ATOM      1  C   UNL A   1      30.330  26.152  25.957  1.00  0.00     0.261 C 
ENDROOT
BRANCH   1   2
ATOM      2  O   UNL A   1      30.589  24.456  25.718  1.00  0.00    -0.463 OA
BRANCH   2   3
ATOM      3  C   UNL A   1      30.386  23.454  26.627  1.00  0.00     0.306 C 
ATOM      4  O   UNL A   1      29.487  23.509  27.461  1.00  0.00    -0.252 OA
BRANCH   3   5
ATOM      5  C   UNL A   1      31.314  22.184  26.518  1.00  0.00     0.129 C 
BRANCH   5   6
ATOM      6  C   UNL A   1      31.481  21.279  25.269  1.00  0.00     0.066 C 
BRANCH   6   7
ATOM      7  C   UNL A   1      32.890  20.946  24.981  1.00  0.00     0.024 A 
ATOM      8  N   UNL A   1      33.860  21.907  24.763  1.00  0.00    -0.314 N 
ATOM      9  C   UNL A   1      35.108  21.256  24.948  1.00  0.00     0.053 A 
ATOM     10  C   UNL A   1      33.473  19.698  24.928  1.00  0.00     0.024 A 
ATOM     11  C   UNL A   1      34.861  19.892  24.935  1.00  0.00     0.029 A 
BRANCH   8  12
ATOM     12  C   UNL A   1      33.610  23.326  24.614  1.00  0.00     0.046 A 
ATOM     13  C   UNL A   1      33.943  26.816  23.698  1.00  0.00     0.082 A 
ATOM     14  C   UNL A   1      33.625  25.572  22.469  1.00  0.00     0.024 A 
ATOM     15  C   UNL A   1      34.109  26.373  25.428  1.00  0.00     0.024 A 
ATOM     16  C   UNL A   1      33.418  23.878  22.920  1.00  0.00     0.028 A 
ATOM     17  C   UNL A   1      33.916  24.616  25.908  1.00  0.00     0.028 A 
BRANCH  13  18
ATOM     18  S   UNL A   1      33.246  28.412  23.249  1.00  0.00     0.242 S 
ATOM     19  O   UNL A   1      33.500  28.625  21.842  1.00  0.00    -0.207 OA
ATOM     20  O   UNL A   1      33.709  29.359  24.243  1.00  0.00    -0.207 OA
BRANCH  18  21
ATOM     21  N   UNL A   1      31.564  28.257  23.455  1.00  0.00    -0.204 NA
ATOM     22  C   UNL A   1      30.972  29.563  23.864  1.00  0.00     0.124 C 
ATOM     23  C   UNL A   1      30.864  27.693  22.283  1.00  0.00     0.124 C 
ENDBRANCH  18  21
ENDBRANCH  13  18
ENDBRANCH   8  12
BRANCH   9  24
ATOM     24  C   UNL A   1      36.434  21.854  25.202  1.00  0.00    -0.001 A 
ATOM     25  C   UNL A   1      36.535  23.224  25.489  1.00  0.00     0.013 A 
ATOM     26  C   UNL A   1      37.608  21.077  25.215  1.00  0.00     0.013 A 
ATOM     27  C   UNL A   1      37.750  23.771  25.915  1.00  0.00     0.040 A 
ATOM     28  C   UNL A   1      38.813  21.617  25.683  1.00  0.00     0.040 A 
ATOM     29  C   UNL A   1      38.867  22.956  26.044  1.00  0.00     0.123 A 
ATOM     30  F   UNL A   1      40.002  23.466  26.537  1.00  0.00    -0.207 F 
ENDBRANCH   9  24
ENDBRANCH   6   7
ENDBRANCH   5   6
ENDBRANCH   3   5
ENDBRANCH   2   3
ENDBRANCH   1   2
BRANCH   1  31
ATOM     31  C   UNL A   1      31.413  27.371  27.439  1.00  0.00     0.202 C 
BRANCH  31  32
ATOM     32  O   UNL A   1      32.359  28.643  27.209  1.00  0.00    -0.374 OA
BRANCH  32  33
ATOM     33  C   UNL A   1      31.795  29.955  27.032  1.00  0.00     0.202 C 
BRANCH  33  34
ATOM     34  C   UNL A   1      32.668  31.171  27.279  1.00  0.00     0.261 C 
BRANCH  34  35
ATOM     35  O   UNL A   1      34.042  30.863  27.188  1.00  0.00    -0.460 OA
BRANCH  35  36
ATOM     36  C   UNL A   1      34.741  31.113  28.318  1.00  0.00     0.338 C 
ATOM     37  O   UNL A   1      34.649  32.068  29.066  1.00  0.00    -0.246 OA
BRANCH  36  38
ATOM     38  C   UNL A   1      35.743  30.053  28.456  1.00  0.00     0.060 A 
ATOM     39  C   UNL A   1      36.023  29.642  29.758  1.00  0.00     0.016 A 
ATOM     40  C   UNL A   1      36.649  29.909  27.400  1.00  0.00     0.016 A 
ATOM     41  C   UNL A   1      37.339  29.405  30.066  1.00  0.00     0.010 A 
ATOM     42  C   UNL A   1      37.970  29.792  27.723  1.00  0.00     0.010 A 
ATOM     43  C   UNL A   1      38.302  29.610  29.067  1.00  0.00    -0.014 A 
BRANCH  43  44
ATOM     44  C   UNL A   1      39.700  29.374  29.408  1.00  0.00     0.031 A 
ATOM     45  C   UNL A   1      40.220  30.764  29.969  1.00  0.00     0.074 A 
ATOM     46  C   UNL A   1      40.135  28.092  29.101  1.00  0.00     0.049 A 
ATOM     47  N   UNL A   1      41.396  31.305  29.948  1.00  0.00    -0.248 NA
ATOM     48  C   UNL A   1      39.250  31.744  30.593  1.00  0.00     0.031 C 
ATOM     49  C   UNL A   1      39.284  26.940  28.668  1.00  0.00     0.029 A 
ATOM     50  N   UNL A   1      41.347  27.433  29.125  1.00  0.00    -0.354 N 
ATOM     51  C   UNL A   1      41.360  32.456  30.784  1.00  0.00     0.074 A 
ATOM     52  C   UNL A   1      39.994  32.769  31.008  1.00  0.00     0.031 C 
ATOM     53  C   UNL A   1      40.023  25.847  28.325  1.00  0.00     0.029 A 
ATOM     54  C   UNL A   1      41.430  26.121  28.530  1.00  0.00     0.049 A 
ATOM     55  H   UNL A   1      42.138  27.848  29.539  1.00  0.00     0.167 HD
ATOM     56  C   UNL A   1      42.469  32.917  31.430  1.00  0.00     0.037 A 
ATOM     57  C   UNL A   1      42.573  25.392  28.211  1.00  0.00     0.037 A 
ATOM     58  C   UNL A   1      43.559  32.121  31.019  1.00  0.00     0.049 A 
ATOM     59  C   UNL A   1      43.661  26.203  28.777  1.00  0.00     0.074 A 
ATOM     60  C   UNL A   1      44.323  32.136  29.894  1.00  0.00     0.029 A 
ATOM     61  N   UNL A   1      43.693  30.928  31.682  1.00  0.00    -0.354 N 
ATOM     62  N   UNL A   1      43.808  26.446  30.043  1.00  0.00    -0.248 NA
ATOM     63  C   UNL A   1      44.269  27.114  27.815  1.00  0.00     0.031 C 
ATOM     64  C   UNL A   1      44.687  30.791  29.731  1.00  0.00     0.029 A 
ATOM     65  C   UNL A   1      44.156  30.017  30.777  1.00  0.00     0.049 A 
ATOM     66  H   UNL A   1      43.492  30.760  32.630  1.00  0.00     0.167 HD
ATOM     67  C   UNL A   1      44.208  27.761  30.046  1.00  0.00     0.074 A 
ATOM     68  C   UNL A   1      44.412  28.125  28.649  1.00  0.00     0.031 C 
ATOM     69  C   UNL A   1      43.922  28.622  31.056  1.00  0.00     0.037 A 
BRANCH  56  70
ATOM     70  C   UNL A   1      42.723  33.784  32.629  1.00  0.00     0.057 A 
ATOM     71  C   UNL A   1      42.100  33.408  33.848  1.00  0.00     0.134 A 
ATOM     72  C   UNL A   1      43.154  35.110  32.552  1.00  0.00     0.134 A 
ATOM     73  F   UNL A   1      41.685  32.147  34.057  1.00  0.00    -0.206 F 
ATOM     74  C   UNL A   1      41.779  34.325  34.849  1.00  0.00     0.040 A 
ATOM     75  C   UNL A   1      42.891  36.027  33.581  1.00  0.00     0.040 A 
ATOM     76  F   UNL A   1      43.744  35.588  31.449  1.00  0.00    -0.206 F 
ATOM     77  C   UNL A   1      42.162  35.649  34.708  1.00  0.00     0.006 A 
ENDBRANCH  56  70
BRANCH  57  78
ATOM     78  C   UNL A   1      43.054  24.253  27.303  1.00  0.00     0.057 A 
ATOM     79  C   UNL A   1      43.419  22.971  27.703  1.00  0.00     0.134 A 
ATOM     80  C   UNL A   1      43.075  24.418  25.874  1.00  0.00     0.134 A 
ATOM     81  F   UNL A   1      43.591  22.686  28.999  1.00  0.00    -0.206 F 
ATOM     82  C   UNL A   1      43.653  21.925  26.768  1.00  0.00     0.040 A 
ATOM     83  C   UNL A   1      43.221  23.380  24.944  1.00  0.00     0.040 A 
ATOM     84  F   UNL A   1      42.962  25.620  25.292  1.00  0.00    -0.206 F 
ATOM     85  C   UNL A   1      43.497  22.111  25.394  1.00  0.00     0.006 A 
ENDBRANCH  57  78
BRANCH  69  86
ATOM     86  C   UNL A   1      43.123  28.023  32.234  1.00  0.00     0.057 A 
ATOM     87  C   UNL A   1      41.831  28.473  32.530  1.00  0.00     0.134 A 
ATOM     88  C   UNL A   1      43.640  27.098  33.170  1.00  0.00     0.134 A 
ATOM     89  F   UNL A   1      41.222  29.340  31.710  1.00  0.00    -0.206 F 
ATOM     90  C   UNL A   1      41.118  28.050  33.670  1.00  0.00     0.040 A 
ATOM     91  C   UNL A   1      42.948  26.673  34.322  1.00  0.00     0.040 A 
ATOM     92  F   UNL A   1      44.844  26.554  32.999  1.00  0.00    -0.206 F 
ATOM     93  C   UNL A   1      41.675  27.153  34.576  1.00  0.00     0.006 A 
ENDBRANCH  69  86
ENDBRANCH  43  44
ENDBRANCH  36  38
ENDBRANCH  35  36
ENDBRANCH  34  35
ENDBRANCH  33  34
ENDBRANCH  32  33
ENDBRANCH  31  32
ENDBRANCH   1  31
TORSDOF 20
ENDMDL
MODEL 2
REMARK VINA RESULT:     -11.9      6.189     11.981
REMARK SMILES CN(C)S(=O)(=O)c1ccc(-n2c(CCC(=O)OCCOCCOC(=O)c3ccc(-c4c5nc(c(-c6c(F)cccc6F)c6ccc([nH]6)c(-c6c(F)cccc6F)c6nc(c(-c7c(F)cccc7F)c7ccc4[nH]7)C=C6)C=C5)cc3)ccc2-c2ccc(F)cc2)cc1
REMARK SMILES IDX 18 1 17 2 15 3 16 4 14 5 13 6 12 7 11 8 82 9 80 10 81 11
REMARK SMILES IDX 10 12 7 13 8 14 91 15 9 16 90 17 4 18 5 19 6 20 2 21 1 22
REMARK SMILES IDX 3 23 83 24 84 25 89 26 85 27 88 28 86 29 87 30 19 31 20 32
REMARK SMILES IDX 21 33 22 34 23 35 24 36 25 37 26 38 27 39 79 40 28 41 78 42
REMARK SMILES IDX 29 43 30 44 31 45 72 46 32 47 77 48 71 49 73 50 33 51 76 52
REMARK SMILES IDX 70 53 69 54 34 56 60 57 43 58 59 59 44 60 47 61 58 62 74 63
REMARK SMILES IDX 45 64 46 65 57 67 75 68 48 69 35 70 36 71 41 72 37 73 38 74
REMARK SMILES IDX 40 75 42 76 39 77 61 78 62 79 67 80 63 81 64 82 66 83 68 84
REMARK SMILES IDX 65 85 49 86 50 87 55 88 51 89 52 90 54 91 56 92 53 93
REMARK H PARENT 73 55 47 66
REMARK Flexibility Score: inf
ROOT
ATOM      1  C   UNL A   1      44.864  28.605  35.425  1.00  0.00     0.261 C 
ENDROOT
BRANCH   1   2
ATOM      2  O   UNL A   1      43.263  29.196  35.127  1.00  0.00    -0.463 OA
BRANCH   2   3
ATOM      3  C   UNL A   1      42.083  28.580  35.443  1.00  0.00     0.306 C 
ATOM      4  O   UNL A   1      41.708  28.457  36.605  1.00  0.00    -0.252 OA
BRANCH   3   5
ATOM      5  C   UNL A   1      41.184  28.090  34.245  1.00  0.00     0.129 C 
BRANCH   5   6
ATOM      6  C   UNL A   1      40.854  28.895  32.961  1.00  0.00     0.066 C 
BRANCH   6   7
ATOM      7  C   UNL A   1      39.412  28.918  32.646  1.00  0.00     0.024 A 
ATOM      8  N   UNL A   1      38.624  30.042  32.816  1.00  0.00    -0.314 N 
ATOM      9  C   UNL A   1      37.458  29.826  32.034  1.00  0.00     0.053 A 
ATOM     10  C   UNL A   1      38.644  27.905  32.113  1.00  0.00     0.024 A 
ATOM     11  C   UNL A   1      37.431  28.479  31.705  1.00  0.00     0.029 A 
BRANCH   8  12
ATOM     12  C   UNL A   1      39.042  31.263  33.472  1.00  0.00     0.046 A 
ATOM     13  C   UNL A   1      39.025  34.329  35.403  1.00  0.00     0.082 A 
ATOM     14  C   UNL A   1      38.815  32.749  36.190  1.00  0.00     0.024 A 
ATOM     15  C   UNL A   1      39.250  34.446  33.627  1.00  0.00     0.024 A 
ATOM     16  C   UNL A   1      38.869  31.253  35.255  1.00  0.00     0.028 A 
ATOM     17  C   UNL A   1      39.288  32.901  32.643  1.00  0.00     0.028 A 
BRANCH  13  18
ATOM     18  S   UNL A   1      39.819  35.528  36.483  1.00  0.00     0.242 S 
ATOM     19  O   UNL A   1      39.246  35.382  37.801  1.00  0.00    -0.207 OA
ATOM     20  O   UNL A   1      39.779  36.800  35.788  1.00  0.00    -0.207 OA
BRANCH  18  21
ATOM     21  N   UNL A   1      41.452  35.061  36.572  1.00  0.00    -0.204 NA
ATOM     22  C   UNL A   1      42.309  36.038  35.841  1.00  0.00     0.124 C 
ATOM     23  C   UNL A   1      41.941  34.842  37.948  1.00  0.00     0.124 C 
ENDBRANCH  18  21
ENDBRANCH  13  18
ENDBRANCH   8  12
BRANCH   9  24
ATOM     24  C   UNL A   1      36.472  30.815  31.554  1.00  0.00    -0.001 A 
ATOM     25  C   UNL A   1      35.751  31.584  32.479  1.00  0.00     0.013 A 
ATOM     26  C   UNL A   1      36.266  31.049  30.181  1.00  0.00     0.013 A 
ATOM     27  C   UNL A   1      34.955  32.650  32.048  1.00  0.00     0.040 A 
ATOM     28  C   UNL A   1      35.504  32.143  29.753  1.00  0.00     0.040 A 
ATOM     29  C   UNL A   1      34.869  32.943  30.693  1.00  0.00     0.123 A 
ATOM     30  F   UNL A   1      34.179  34.019  30.293  1.00  0.00    -0.207 F 
ENDBRANCH   9  24
ENDBRANCH   6   7
ENDBRANCH   5   6
ENDBRANCH   3   5
ENDBRANCH   2   3
ENDBRANCH   1   2
BRANCH   1  31
ATOM     31  C   UNL A   1      45.411  27.331  37.138  1.00  0.00     0.202 C 
BRANCH  31  32
ATOM     32  O   UNL A   1      44.573  26.158  37.837  1.00  0.00    -0.374 OA
BRANCH  32  33
ATOM     33  C   UNL A   1      45.242  25.029  38.427  1.00  0.00     0.202 C 
BRANCH  33  34
ATOM     34  C   UNL A   1      45.324  23.731  37.646  1.00  0.00     0.261 C 
BRANCH  34  35
ATOM     35  O   UNL A   1      45.945  23.907  36.391  1.00  0.00    -0.460 OA
BRANCH  35  36
ATOM     36  C   UNL A   1      45.142  23.642  35.335  1.00  0.00     0.338 C 
ATOM     37  O   UNL A   1      44.605  22.592  35.042  1.00  0.00    -0.246 OA
BRANCH  36  38
ATOM     38  C   UNL A   1      45.098  24.850  34.507  1.00  0.00     0.060 A 
ATOM     39  C   UNL A   1      43.828  25.338  34.205  1.00  0.00     0.016 A 
ATOM     40  C   UNL A   1      46.220  25.103  33.711  1.00  0.00     0.016 A 
ATOM     41  C   UNL A   1      43.622  25.787  32.924  1.00  0.00     0.010 A 
ATOM     42  C   UNL A   1      45.998  25.435  32.406  1.00  0.00     0.010 A 
ATOM     43  C   UNL A   1      44.686  25.706  32.014  1.00  0.00    -0.014 A 
BRANCH  43  44
ATOM     44  C   UNL A   1      44.453  26.168  30.651  1.00  0.00     0.031 A 
ATOM     45  C   UNL A   1      44.326  24.842  29.789  1.00  0.00     0.074 A 
ATOM     46  C   UNL A   1      44.471  27.551  30.525  1.00  0.00     0.049 A 
ATOM     47  N   UNL A   1      44.614  24.599  28.551  1.00  0.00    -0.248 NA
ATOM     48  C   UNL A   1      43.868  23.554  30.439  1.00  0.00     0.031 C 
ATOM     49  C   UNL A   1      44.499  28.549  31.640  1.00  0.00     0.029 A 
ATOM     50  N   UNL A   1      44.414  28.444  29.475  1.00  0.00    -0.354 N 
ATOM     51  C   UNL A   1      44.100  23.311  28.230  1.00  0.00     0.074 A 
ATOM     52  C   UNL A   1      43.813  22.656  29.455  1.00  0.00     0.031 C 
ATOM     53  C   UNL A   1      44.633  29.828  31.189  1.00  0.00     0.029 A 
ATOM     54  C   UNL A   1      44.661  29.840  29.742  1.00  0.00     0.049 A 
ATOM     55  H   UNL A   1      44.210  28.135  28.562  1.00  0.00     0.167 HD
ATOM     56  C   UNL A   1      43.719  22.979  26.963  1.00  0.00     0.037 A 
ATOM     57  C   UNL A   1      44.909  30.861  28.827  1.00  0.00     0.037 A 
ATOM     58  C   UNL A   1      44.032  24.072  26.127  1.00  0.00     0.049 A 
ATOM     59  C   UNL A   1      44.693  30.209  27.527  1.00  0.00     0.074 A 
ATOM     60  C   UNL A   1      45.203  24.483  25.568  1.00  0.00     0.029 A 
ATOM     61  N   UNL A   1      43.108  25.084  26.118  1.00  0.00    -0.354 N 
ATOM     62  N   UNL A   1      43.555  29.727  27.132  1.00  0.00    -0.248 NA
ATOM     63  C   UNL A   1      45.916  29.699  26.920  1.00  0.00     0.031 C 
ATOM     64  C   UNL A   1      45.057  25.877  25.500  1.00  0.00     0.029 A 
ATOM     65  C   UNL A   1      43.797  26.255  25.992  1.00  0.00     0.049 A 
ATOM     66  H   UNL A   1      42.132  24.984  26.191  1.00  0.00     0.167 HD
ATOM     67  C   UNL A   1      43.930  28.570  26.493  1.00  0.00     0.074 A 
ATOM     68  C   UNL A   1      45.388  28.585  26.453  1.00  0.00     0.031 C 
ATOM     69  C   UNL A   1      43.147  27.463  26.440  1.00  0.00     0.037 A 
BRANCH  56  70
ATOM     70  C   UNL A   1      42.817  21.945  26.356  1.00  0.00     0.057 A 
ATOM     71  C   UNL A   1      41.447  21.975  26.732  1.00  0.00     0.134 A 
ATOM     72  C   UNL A   1      43.269  20.743  25.810  1.00  0.00     0.134 A 
ATOM     73  F   UNL A   1      40.887  23.092  27.226  1.00  0.00    -0.206 F 
ATOM     74  C   UNL A   1      40.634  20.842  26.720  1.00  0.00     0.040 A 
ATOM     75  C   UNL A   1      42.440  19.613  25.736  1.00  0.00     0.040 A 
ATOM     76  F   UNL A   1      44.544  20.586  25.429  1.00  0.00    -0.206 F 
ATOM     77  C   UNL A   1      41.138  19.647  26.235  1.00  0.00     0.006 A 
ENDBRANCH  56  70
BRANCH  57  78
ATOM     78  C   UNL A   1      45.545  32.253  28.727  1.00  0.00     0.057 A 
ATOM     79  C   UNL A   1      44.991  33.376  28.122  1.00  0.00     0.134 A 
ATOM     80  C   UNL A   1      46.800  32.529  29.374  1.00  0.00     0.134 A 
ATOM     81  F   UNL A   1      43.900  33.268  27.356  1.00  0.00    -0.206 F 
ATOM     82  C   UNL A   1      45.565  34.670  28.261  1.00  0.00     0.040 A 
ATOM     83  C   UNL A   1      47.332  33.808  29.589  1.00  0.00     0.040 A 
ATOM     84  F   UNL A   1      47.598  31.555  29.833  1.00  0.00    -0.206 F 
ATOM     85  C   UNL A   1      46.699  34.899  29.041  1.00  0.00     0.006 A 
ENDBRANCH  57  78
BRANCH  69  86
ATOM     86  C   UNL A   1      41.775  27.585  27.137  1.00  0.00     0.057 A 
ATOM     87  C   UNL A   1      40.825  28.515  26.700  1.00  0.00     0.134 A 
ATOM     88  C   UNL A   1      41.407  26.896  28.316  1.00  0.00     0.134 A 
ATOM     89  F   UNL A   1      41.048  29.222  25.583  1.00  0.00    -0.206 F 
ATOM     90  C   UNL A   1      39.616  28.752  27.384  1.00  0.00     0.040 A 
ATOM     91  C   UNL A   1      40.209  27.127  29.022  1.00  0.00     0.040 A 
ATOM     92  F   UNL A   1      42.195  25.952  28.831  1.00  0.00    -0.206 F 
ATOM     93  C   UNL A   1      39.305  28.064  28.553  1.00  0.00     0.006 A 
ENDBRANCH  69  86
ENDBRANCH  43  44
ENDBRANCH  36  38
ENDBRANCH  35  36
ENDBRANCH  34  35
ENDBRANCH  33  34
ENDBRANCH  32  33
ENDBRANCH  31  32
ENDBRANCH   1  31
TORSDOF 20
ENDMDL
MODEL 3
REMARK VINA RESULT:     -11.7      2.983      8.086
REMARK SMILES CN(C)S(=O)(=O)c1ccc(-n2c(CCC(=O)OCCOCCOC(=O)c3ccc(-c4c5nc(c(-c6c(F)cccc6F)c6ccc([nH]6)c(-c6c(F)cccc6F)c6nc(c(-c7c(F)cccc7F)c7ccc4[nH]7)C=C6)C=C5)cc3)ccc2-c2ccc(F)cc2)cc1
REMARK SMILES IDX 18 1 17 2 15 3 16 4 14 5 13 6 12 7 11 8 82 9 80 10 81 11
REMARK SMILES IDX 10 12 7 13 8 14 91 15 9 16 90 17 4 18 5 19 6 20 2 21 1 22
REMARK SMILES IDX 3 23 83 24 84 25 89 26 85 27 88 28 86 29 87 30 19 31 20 32
REMARK SMILES IDX 21 33 22 34 23 35 24 36 25 37 26 38 27 39 79 40 28 41 78 42
REMARK SMILES IDX 29 43 30 44 31 45 72 46 32 47 77 48 71 49 73 50 33 51 76 52
REMARK SMILES IDX 70 53 69 54 34 56 60 57 43 58 59 59 44 60 47 61 58 62 74 63
REMARK SMILES IDX 45 64 46 65 57 67 75 68 48 69 35 70 36 71 41 72 37 73 38 74
REMARK SMILES IDX 40 75 42 76 39 77 61 78 62 79 67 80 63 81 64 82 66 83 68 84
REMARK SMILES IDX 65 85 49 86 50 87 55 88 51 89 52 90 54 91 56 92 53 93
REMARK H PARENT 73 55 47 66
REMARK Flexibility Score: inf
ROOT
ATOM      1  C   UNL A   1      32.214  29.154  23.771  1.00  0.00     0.261 C 
ENDROOT
BRANCH   1   2
ATOM      2  O   UNL A   1      31.214  27.984  22.976  1.00  0.00    -0.463 OA
BRANCH   2   3
ATOM      3  C   UNL A   1      29.936  27.627  23.309  1.00  0.00     0.306 C 
ATOM      4  O   UNL A   1      28.961  28.105  22.736  1.00  0.00    -0.252 OA
BRANCH   3   5
ATOM      5  C   UNL A   1      29.763  26.521  24.418  1.00  0.00     0.129 C 
BRANCH   5   6
ATOM      6  C   UNL A   1      30.548  25.187  24.508  1.00  0.00     0.066 C 
BRANCH   6   7
ATOM      7  C   UNL A   1      31.858  25.330  25.173  1.00  0.00     0.024 A 
ATOM      8  N   UNL A   1      32.779  24.301  25.249  1.00  0.00    -0.314 N 
ATOM      9  C   UNL A   1      34.026  24.910  25.553  1.00  0.00     0.053 A 
ATOM     10  C   UNL A   1      32.393  26.457  25.760  1.00  0.00     0.024 A 
ATOM     11  C   UNL A   1      33.756  26.203  25.972  1.00  0.00     0.029 A 
BRANCH   8  12
ATOM     12  C   UNL A   1      32.531  22.928  24.860  1.00  0.00     0.046 A 
ATOM     13  C   UNL A   1      33.010  19.487  23.831  1.00  0.00     0.082 A 
ATOM     14  C   UNL A   1      33.489  20.034  25.453  1.00  0.00     0.024 A 
ATOM     15  C   UNL A   1      32.274  20.629  22.659  1.00  0.00     0.024 A 
ATOM     16  C   UNL A   1      33.214  21.699  25.970  1.00  0.00     0.028 A 
ATOM     17  C   UNL A   1      32.002  22.365  23.176  1.00  0.00     0.028 A 
BRANCH  13  18
ATOM     18  S   UNL A   1      32.525  17.755  23.812  1.00  0.00     0.242 S 
ATOM     19  O   UNL A   1      32.161  17.414  22.455  1.00  0.00    -0.207 OA
ATOM     20  O   UNL A   1      31.590  17.575  24.904  1.00  0.00    -0.207 OA
BRANCH  18  21
ATOM     21  N   UNL A   1      33.928  16.877  24.208  1.00  0.00    -0.204 NA
ATOM     22  C   UNL A   1      33.625  15.873  25.268  1.00  0.00     0.124 C 
ATOM     23  C   UNL A   1      34.593  16.250  23.049  1.00  0.00     0.124 C 
ENDBRANCH  18  21
ENDBRANCH  13  18
ENDBRANCH   8  12
BRANCH   9  24
ATOM     24  C   UNL A   1      35.387  24.360  25.391  1.00  0.00    -0.001 A 
ATOM     25  C   UNL A   1      36.296  24.430  26.456  1.00  0.00     0.013 A 
ATOM     26  C   UNL A   1      35.788  23.715  24.206  1.00  0.00     0.013 A 
ATOM     27  C   UNL A   1      37.519  23.753  26.391  1.00  0.00     0.040 A 
ATOM     28  C   UNL A   1      36.994  23.002  24.158  1.00  0.00     0.040 A 
ATOM     29  C   UNL A   1      37.839  23.015  25.258  1.00  0.00     0.123 A 
ATOM     30  F   UNL A   1      38.969  22.297  25.237  1.00  0.00    -0.207 F 
ENDBRANCH   9  24
ENDBRANCH   6   7
ENDBRANCH   5   6
ENDBRANCH   3   5
ENDBRANCH   2   3
ENDBRANCH   1   2
BRANCH   1  31
ATOM     31  C   UNL A   1      31.653  30.199  25.629  1.00  0.00     0.202 C 
BRANCH  31  32
ATOM     32  O   UNL A   1      32.448  30.296  27.016  1.00  0.00    -0.374 OA
BRANCH  32  33
ATOM     33  C   UNL A   1      33.866  30.541  27.034  1.00  0.00     0.202 C 
BRANCH  33  34
ATOM     34  C   UNL A   1      34.394  31.747  27.788  1.00  0.00     0.261 C 
BRANCH  34  35
ATOM     35  O   UNL A   1      33.369  32.436  28.471  1.00  0.00    -0.460 OA
BRANCH  35  36
ATOM     36  C   UNL A   1      33.548  33.776  28.530  1.00  0.00     0.338 C 
ATOM     37  O   UNL A   1      33.031  34.636  27.842  1.00  0.00    -0.246 OA
BRANCH  36  38
ATOM     38  C   UNL A   1      34.584  34.034  29.532  1.00  0.00     0.060 A 
ATOM     39  C   UNL A   1      35.836  34.395  29.038  1.00  0.00     0.016 A 
ATOM     40  C   UNL A   1      34.403  33.440  30.785  1.00  0.00     0.016 A 
ATOM     41  C   UNL A   1      36.932  33.845  29.654  1.00  0.00     0.010 A 
ATOM     42  C   UNL A   1      35.474  32.795  31.331  1.00  0.00     0.010 A 
ATOM     43  C   UNL A   1      36.717  32.952  30.714  1.00  0.00    -0.014 A 
BRANCH  43  44
ATOM     44  C   UNL A   1      37.886  32.357  31.352  1.00  0.00     0.031 A 
ATOM     45  C   UNL A   1      38.115  30.988  30.583  1.00  0.00     0.074 A 
ATOM     46  C   UNL A   1      38.376  33.106  32.415  1.00  0.00     0.049 A 
ATOM     47  N   UNL A   1      38.617  29.864  30.979  1.00  0.00    -0.248 NA
ATOM     48  C   UNL A   1      37.635  30.828  29.157  1.00  0.00     0.031 C 
ATOM     49  C   UNL A   1      37.957  34.489  32.801  1.00  0.00     0.029 A 
ATOM     50  N   UNL A   1      39.354  32.930  33.372  1.00  0.00    -0.354 N 
ATOM     51  C   UNL A   1      38.792  29.039  29.832  1.00  0.00     0.074 A 
ATOM     52  C   UNL A   1      38.022  29.607  28.785  1.00  0.00     0.031 C 
ATOM     53  C   UNL A   1      38.538  34.903  33.963  1.00  0.00     0.029 A 
ATOM     54  C   UNL A   1      39.436  33.880  34.455  1.00  0.00     0.049 A 
ATOM     55  H   UNL A   1      39.981  32.173  33.318  1.00  0.00     0.167 HD
ATOM     56  C   UNL A   1      39.762  28.082  29.769  1.00  0.00     0.037 A 
ATOM     57  C   UNL A   1      40.151  33.767  35.646  1.00  0.00     0.037 A 
ATOM     58  C   UNL A   1      40.402  28.046  31.026  1.00  0.00     0.049 A 
ATOM     59  C   UNL A   1      40.927  32.532  35.459  1.00  0.00     0.074 A 
ATOM     60  C   UNL A   1      40.048  27.477  32.210  1.00  0.00     0.029 A 
ATOM     61  N   UNL A   1      41.376  28.992  31.213  1.00  0.00    -0.354 N 
ATOM     62  N   UNL A   1      41.839  32.374  34.550  1.00  0.00    -0.248 NA
ATOM     63  C   UNL A   1      40.284  31.349  36.017  1.00  0.00     0.031 C 
ATOM     64  C   UNL A   1      40.622  28.331  33.164  1.00  0.00     0.029 A 
ATOM     65  C   UNL A   1      41.324  29.366  32.524  1.00  0.00     0.049 A 
ATOM     66  H   UNL A   1      41.995  29.337  30.530  1.00  0.00     0.167 HD
ATOM     67  C   UNL A   1      41.621  31.081  34.136  1.00  0.00     0.074 A 
ATOM     68  C   UNL A   1      40.614  30.533  35.035  1.00  0.00     0.031 C 
ATOM     69  C   UNL A   1      41.873  30.654  32.872  1.00  0.00     0.037 A 
BRANCH  56  70
ATOM     70  C   UNL A   1      40.472  27.352  28.666  1.00  0.00     0.057 A 
ATOM     71  C   UNL A   1      40.240  25.954  28.557  1.00  0.00     0.134 A 
ATOM     72  C   UNL A   1      41.621  27.827  28.033  1.00  0.00     0.134 A 
ATOM     73  F   UNL A   1      39.143  25.388  29.086  1.00  0.00    -0.206 F 
ATOM     74  C   UNL A   1      41.170  25.074  28.003  1.00  0.00     0.040 A 
ATOM     75  C   UNL A   1      42.533  26.955  27.419  1.00  0.00     0.040 A 
ATOM     76  F   UNL A   1      41.955  29.123  28.076  1.00  0.00    -0.206 F 
ATOM     77  C   UNL A   1      42.334  25.575  27.445  1.00  0.00     0.006 A 
ENDBRANCH  56  70
BRANCH  57  78
ATOM     78  C   UNL A   1      40.187  34.314  37.078  1.00  0.00     0.057 A 
ATOM     79  C   UNL A   1      39.118  34.391  37.965  1.00  0.00     0.134 A 
ATOM     80  C   UNL A   1      41.432  34.729  37.669  1.00  0.00     0.134 A 
ATOM     81  F   UNL A   1      37.867  34.179  37.540  1.00  0.00    -0.206 F 
ATOM     82  C   UNL A   1      39.295  34.721  39.336  1.00  0.00     0.040 A 
ATOM     83  C   UNL A   1      41.635  34.975  39.033  1.00  0.00     0.040 A 
ATOM     84  F   UNL A   1      42.538  34.931  36.939  1.00  0.00    -0.206 F 
ATOM     85  C   UNL A   1      40.556  34.955  39.886  1.00  0.00     0.006 A 
ENDBRANCH  57  78
BRANCH  69  86
ATOM     86  C   UNL A   1      42.447  31.718  31.912  1.00  0.00     0.057 A 
ATOM     87  C   UNL A   1      43.714  32.271  32.125  1.00  0.00     0.134 A 
ATOM     88  C   UNL A   1      41.730  32.311  30.848  1.00  0.00     0.134 A 
ATOM     89  F   UNL A   1      44.501  31.785  33.094  1.00  0.00    -0.206 F 
ATOM     90  C   UNL A   1      44.223  33.336  31.353  1.00  0.00     0.040 A 
ATOM     91  C   UNL A   1      42.215  33.385  30.073  1.00  0.00     0.040 A 
ATOM     92  F   UNL A   1      40.523  31.864  30.503  1.00  0.00    -0.206 F 
ATOM     93  C   UNL A   1      43.472  33.903  30.327  1.00  0.00     0.006 A 
ENDBRANCH  69  86
ENDBRANCH  43  44
ENDBRANCH  36  38
ENDBRANCH  35  36
ENDBRANCH  34  35
ENDBRANCH  33  34
ENDBRANCH  32  33
ENDBRANCH  31  32
ENDBRANCH   1  31
TORSDOF 20
ENDMDL
