MODEL 1
REMARK VINA RESULT:     -10.6      0.000      0.000
REMARK SMILES C[NH2+][C@]1(C(=O)OCCOCCOC(=O)c2ccc(-c3c4nc(c(-c5c(F)cccc5F)c5ccc([nH]5)c(-c5c(F)cccc5F)c5nc(c(-c6c(F)cccc6F)c6ccc3[nH]6)C=C5)C=C4)cc2)CCC[C@@H]([N@H+]2CC[C@@H](C)C2)C1
REMARK SMILES IDX 10 1 9 2 8 3 7 4 6 5 4 6 5 7 3 8 69 9 79 10 70 11 72 12
REMARK SMILES IDX 71 13 2 14 1 15 73 18 74 19 78 20 75 22 76 23 77 24 11 25
REMARK SMILES IDX 12 26 13 27 14 28 15 29 16 30 68 31 17 32 67 33 18 34 19 35
REMARK SMILES IDX 20 36 61 37 21 38 66 39 60 40 62 41 22 42 65 43 59 44 58 45
REMARK SMILES IDX 23 47 49 48 32 49 48 50 33 51 36 52 47 53 63 54 34 55 35 56
REMARK SMILES IDX 46 58 64 59 37 60 24 61 25 62 30 63 26 64 27 65 29 66 31 67
REMARK SMILES IDX 28 68 50 69 51 70 56 71 52 72 53 73 55 74 57 75 54 76 38 77
REMARK SMILES IDX 39 78 44 79 40 80 41 81 43 82 45 83 42 84
REMARK H PARENT 2 16 2 17 73 21 62 46 36 57
REMARK Flexibility Score: inf
ROOT
ATOM      1  C   UNL A   1      38.219  21.207  25.382  1.00  0.00     0.202 C 
ENDROOT
BRANCH   1   2
ATOM      2  O   UNL A   1      37.117  21.296  24.483  1.00  0.00    -0.374 OA
BRANCH   2   3
ATOM      3  C   UNL A   1      36.825  22.558  23.887  1.00  0.00     0.202 C 
BRANCH   3   4
ATOM      4  C   UNL A   1      36.422  23.701  24.817  1.00  0.00     0.261 C 
BRANCH   4   5
ATOM      5  O   UNL A   1      34.997  23.844  24.899  1.00  0.00    -0.459 OA
BRANCH   5   6
ATOM      6  C   UNL A   1      34.396  23.056  25.834  1.00  0.00     0.368 C 
ATOM      7  O   UNL A   1      34.763  22.960  27.002  1.00  0.00    -0.245 OA
BRANCH   6   8
ATOM      8  C   UNL A   1      33.265  22.184  25.226  1.00  0.00     0.199 C 
ATOM      9  C   UNL A   1      33.145  22.165  23.691  1.00  0.00     0.081 C 
ATOM     10  C   UNL A   1      33.711  20.786  25.668  1.00  0.00     0.146 C 
ATOM     11  C   UNL A   1      32.155  21.086  23.222  1.00  0.00     0.013 C 
ATOM     12  C   UNL A   1      32.836  19.616  25.219  1.00  0.00     0.190 C 
ATOM     13  C   UNL A   1      32.558  19.685  23.700  1.00  0.00     0.065 C 
BRANCH   8  14
ATOM     14  N   UNL A   1      31.963  22.526  25.874  1.00  0.00    -0.334 N 
ATOM     15  C   UNL A   1      31.568  23.925  25.717  1.00  0.00     0.331 C 
ATOM     16  H   UNL A   1      31.237  21.939  25.463  1.00  0.00     0.347 HD
ATOM     17  H   UNL A   1      32.080  22.362  26.873  1.00  0.00     0.347 HD
ENDBRANCH   8  14
BRANCH  12  18
ATOM     18  N   UNL A   1      33.407  18.316  25.645  1.00  0.00    -0.332 N 
ATOM     19  C   UNL A   1      32.511  17.155  25.569  1.00  0.00     0.262 C 
ATOM     20  C   UNL A   1      34.671  17.952  24.981  1.00  0.00     0.265 C 
ATOM     21  H   UNL A   1      33.579  18.517  26.631  1.00  0.00     0.348 HD
ATOM     22  C   UNL A   1      33.328  15.999  24.999  1.00  0.00     0.070 C 
ATOM     23  C   UNL A   1      34.423  16.670  24.182  1.00  0.00     0.047 C 
ATOM     24  C   UNL A   1      33.998  16.873  22.725  1.00  0.00     0.014 C 
ENDBRANCH  12  18
ENDBRANCH   6   8
ENDBRANCH   5   6
ENDBRANCH   4   5
ENDBRANCH   3   4
ENDBRANCH   2   3
ENDBRANCH   1   2
BRANCH   1  25
ATOM     25  C   UNL A   1      39.046  19.917  25.382  1.00  0.00     0.261 C 
BRANCH  25  26
ATOM     26  O   UNL A   1      39.883  19.791  26.542  1.00  0.00    -0.460 OA
BRANCH  26  27
ATOM     27  C   UNL A   1      41.198  19.653  26.260  1.00  0.00     0.338 C 
ATOM     28  O   UNL A   1      41.753  18.676  25.768  1.00  0.00    -0.246 OA
BRANCH  27  29
ATOM     29  C   UNL A   1      41.909  20.926  26.462  1.00  0.00     0.060 A 
ATOM     30  C   UNL A   1      42.203  21.291  27.782  1.00  0.00     0.016 A 
ATOM     31  C   UNL A   1      42.196  21.789  25.402  1.00  0.00     0.016 A 
ATOM     32  C   UNL A   1      42.720  22.551  28.057  1.00  0.00     0.010 A 
ATOM     33  C   UNL A   1      42.706  23.061  25.681  1.00  0.00     0.010 A 
ATOM     34  C   UNL A   1      42.926  23.461  27.013  1.00  0.00    -0.014 A 
BRANCH  34  35
ATOM     35  C   UNL A   1      43.191  24.880  27.343  1.00  0.00     0.031 A 
ATOM     36  C   UNL A   1      44.558  25.443  27.062  1.00  0.00     0.074 A 
ATOM     37  C   UNL A   1      42.216  25.668  27.827  1.00  0.00     0.049 A 
ATOM     38  N   UNL A   1      45.015  26.652  27.265  1.00  0.00    -0.248 NA
ATOM     39  C   UNL A   1      45.539  24.519  26.471  1.00  0.00     0.031 C 
ATOM     40  C   UNL A   1      40.844  25.245  28.094  1.00  0.00     0.029 A 
ATOM     41  N   UNL A   1      42.237  26.993  28.177  1.00  0.00    -0.354 N 
ATOM     42  C   UNL A   1      46.333  26.633  26.828  1.00  0.00     0.074 A 
ATOM     43  C   UNL A   1      46.614  25.287  26.379  1.00  0.00     0.031 C 
ATOM     44  C   UNL A   1      40.154  26.292  28.578  1.00  0.00     0.029 A 
ATOM     45  C   UNL A   1      41.043  27.447  28.677  1.00  0.00     0.049 A 
ATOM     46  H   UNL A   1      43.034  27.564  28.079  1.00  0.00     0.167 HD
ATOM     47  C   UNL A   1      47.227  27.649  26.794  1.00  0.00     0.037 A 
ATOM     48  C   UNL A   1      40.714  28.655  29.173  1.00  0.00     0.037 A 
ATOM     49  C   UNL A   1      46.946  28.987  27.242  1.00  0.00     0.049 A 
ATOM     50  C   UNL A   1      41.746  29.751  29.189  1.00  0.00     0.074 A 
ATOM     51  C   UNL A   1      47.780  30.091  27.242  1.00  0.00     0.029 A 
ATOM     52  N   UNL A   1      45.735  29.399  27.776  1.00  0.00    -0.354 N 
ATOM     53  N   UNL A   1      42.984  29.728  28.758  1.00  0.00    -0.248 NA
ATOM     54  C   UNL A   1      41.333  31.042  29.757  1.00  0.00     0.031 C 
ATOM     55  C   UNL A   1      47.086  31.161  27.816  1.00  0.00     0.029 A 
ATOM     56  C   UNL A   1      45.805  30.736  28.131  1.00  0.00     0.049 A 
ATOM     57  H   UNL A   1      44.941  28.826  27.886  1.00  0.00     0.167 HD
ATOM     58  C   UNL A   1      43.489  31.004  28.979  1.00  0.00     0.074 A 
ATOM     59  C   UNL A   1      42.419  31.779  29.572  1.00  0.00     0.031 C 
ATOM     60  C   UNL A   1      44.727  31.491  28.716  1.00  0.00     0.037 A 
BRANCH  47  61
ATOM     61  C   UNL A   1      48.601  27.342  26.274  1.00  0.00     0.057 A 
ATOM     62  C   UNL A   1      48.910  27.418  24.910  1.00  0.00     0.134 A 
ATOM     63  C   UNL A   1      49.633  26.989  27.152  1.00  0.00     0.134 A 
ATOM     64  F   UNL A   1      47.961  27.735  24.015  1.00  0.00    -0.206 F 
ATOM     65  C   UNL A   1      50.191  27.132  24.436  1.00  0.00     0.040 A 
ATOM     66  C   UNL A   1      50.924  26.725  26.693  1.00  0.00     0.040 A 
ATOM     67  F   UNL A   1      49.405  26.901  28.472  1.00  0.00    -0.206 F 
ATOM     68  C   UNL A   1      51.204  26.791  25.329  1.00  0.00     0.006 A 
ENDBRANCH  47  61
BRANCH  48  69
ATOM     69  C   UNL A   1      39.350  28.889  29.710  1.00  0.00     0.057 A 
ATOM     70  C   UNL A   1      38.322  29.375  28.896  1.00  0.00     0.134 A 
ATOM     71  C   UNL A   1      39.050  28.645  31.055  1.00  0.00     0.134 A 
ATOM     72  F   UNL A   1      38.554  29.649  27.604  1.00  0.00    -0.206 F 
ATOM     73  C   UNL A   1      37.045  29.624  29.404  1.00  0.00     0.040 A 
ATOM     74  C   UNL A   1      37.772  28.867  31.571  1.00  0.00     0.040 A 
ATOM     75  F   UNL A   1      39.992  28.177  31.887  1.00  0.00    -0.206 F 
ATOM     76  C   UNL A   1      36.766  29.365  30.745  1.00  0.00     0.006 A 
ENDBRANCH  48  69
BRANCH  60  77
ATOM     77  C   UNL A   1      44.980  32.934  29.036  1.00  0.00     0.057 A 
ATOM     78  C   UNL A   1      45.551  33.331  30.252  1.00  0.00     0.134 A 
ATOM     79  C   UNL A   1      44.687  33.934  28.100  1.00  0.00     0.134 A 
ATOM     80  F   UNL A   1      45.843  32.423  31.194  1.00  0.00    -0.206 F 
ATOM     81  C   UNL A   1      45.803  34.675  30.532  1.00  0.00     0.040 A 
ATOM     82  C   UNL A   1      44.957  35.277  28.360  1.00  0.00     0.040 A 
ATOM     83  F   UNL A   1      44.147  33.619  26.913  1.00  0.00    -0.206 F 
ATOM     84  C   UNL A   1      45.512  35.652  29.582  1.00  0.00     0.006 A 
ENDBRANCH  60  77
ENDBRANCH  34  35
ENDBRANCH  27  29
ENDBRANCH  26  27
ENDBRANCH  25  26
ENDBRANCH   1  25
TORSDOF 16
ENDMDL
MODEL 2
REMARK VINA RESULT:     -10.6      5.590      9.566
REMARK SMILES C[NH2+][C@]1(C(=O)OCCOCCOC(=O)c2ccc(-c3c4nc(c(-c5c(F)cccc5F)c5ccc([nH]5)c(-c5c(F)cccc5F)c5nc(c(-c6c(F)cccc6F)c6ccc3[nH]6)C=C5)C=C4)cc2)CCC[C@@H]([N@H+]2CC[C@@H](C)C2)C1
REMARK SMILES IDX 10 1 9 2 8 3 7 4 6 5 4 6 5 7 3 8 69 9 79 10 70 11 72 12
REMARK SMILES IDX 71 13 2 14 1 15 73 18 74 19 78 20 75 22 76 23 77 24 11 25
REMARK SMILES IDX 12 26 13 27 14 28 15 29 16 30 68 31 17 32 67 33 18 34 19 35
REMARK SMILES IDX 20 36 61 37 21 38 66 39 60 40 62 41 22 42 65 43 59 44 58 45
REMARK SMILES IDX 23 47 49 48 32 49 48 50 33 51 36 52 47 53 63 54 34 55 35 56
REMARK SMILES IDX 46 58 64 59 37 60 24 61 25 62 30 63 26 64 27 65 29 66 31 67
REMARK SMILES IDX 28 68 50 69 51 70 56 71 52 72 53 73 55 74 57 75 54 76 38 77
REMARK SMILES IDX 39 78 44 79 40 80 41 81 43 82 45 83 42 84
REMARK H PARENT 2 16 2 17 73 21 62 46 36 57
REMARK Flexibility Score: inf
ROOT
ATOM      1  C   UNL A   1      31.439  31.374  26.237  1.00  0.00     0.202 C 
ENDROOT
BRANCH   1   2
ATOM      2  O   UNL A   1      32.550  30.492  26.370  1.00  0.00    -0.374 OA
BRANCH   2   3
ATOM      3  C   UNL A   1      32.340  29.221  26.981  1.00  0.00     0.202 C 
BRANCH   3   4
ATOM      4  C   UNL A   1      33.362  28.123  26.693  1.00  0.00     0.261 C 
BRANCH   4   5
ATOM      5  O   UNL A   1      32.924  27.247  25.644  1.00  0.00    -0.459 OA
BRANCH   5   6
ATOM      6  C   UNL A   1      32.976  27.783  24.393  1.00  0.00     0.368 C 
ATOM      7  O   UNL A   1      33.901  28.471  23.969  1.00  0.00    -0.245 OA
BRANCH   6   8
ATOM      8  C   UNL A   1      31.668  27.537  23.595  1.00  0.00     0.199 C 
ATOM      9  C   UNL A   1      30.449  27.029  24.387  1.00  0.00     0.081 C 
ATOM     10  C   UNL A   1      31.347  28.959  23.122  1.00  0.00     0.146 C 
ATOM     11  C   UNL A   1      29.173  27.062  23.531  1.00  0.00     0.013 C 
ATOM     12  C   UNL A   1      30.070  29.134  22.301  1.00  0.00     0.190 C 
ATOM     13  C   UNL A   1      28.865  28.470  23.005  1.00  0.00     0.065 C 
BRANCH   8  14
ATOM     14  N   UNL A   1      31.956  26.667  22.415  1.00  0.00    -0.334 N 
ATOM     15  C   UNL A   1      33.049  25.719  22.624  1.00  0.00     0.331 C 
ATOM     16  H   UNL A   1      31.112  26.139  22.192  1.00  0.00     0.347 HD
ATOM     17  H   UNL A   1      32.242  27.285  21.656  1.00  0.00     0.347 HD
ENDBRANCH   8  14
BRANCH  12  18
ATOM     18  N   UNL A   1      29.831  30.559  21.966  1.00  0.00    -0.332 N 
ATOM     19  C   UNL A   1      28.723  30.834  21.043  1.00  0.00     0.262 C 
ATOM     20  C   UNL A   1      29.676  31.448  23.131  1.00  0.00     0.265 C 
ATOM     21  H   UNL A   1      30.704  30.771  21.482  1.00  0.00     0.348 HD
ATOM     22  C   UNL A   1      27.980  32.050  21.588  1.00  0.00     0.070 C 
ATOM     23  C   UNL A   1      28.262  32.032  23.084  1.00  0.00     0.047 C 
ATOM     24  C   UNL A   1      27.198  31.242  23.851  1.00  0.00     0.014 C 
ENDBRANCH  12  18
ENDBRANCH   6   8
ENDBRANCH   5   6
ENDBRANCH   4   5
ENDBRANCH   3   4
ENDBRANCH   2   3
ENDBRANCH   1   2
BRANCH   1  25
ATOM     25  C   UNL A   1      31.513  32.736  26.936  1.00  0.00     0.261 C 
BRANCH  25  26
ATOM     26  O   UNL A   1      32.788  33.378  26.773  1.00  0.00    -0.460 OA
BRANCH  26  27
ATOM     27  C   UNL A   1      33.304  33.874  27.920  1.00  0.00     0.338 C 
ATOM     28  O   UNL A   1      32.789  34.694  28.672  1.00  0.00    -0.246 OA
BRANCH  27  29
ATOM     29  C   UNL A   1      34.544  33.167  28.279  1.00  0.00     0.060 A 
ATOM     30  C   UNL A   1      34.418  31.845  28.728  1.00  0.00     0.016 A 
ATOM     31  C   UNL A   1      35.788  33.803  28.272  1.00  0.00     0.016 A 
ATOM     32  C   UNL A   1      35.524  31.176  29.240  1.00  0.00     0.010 A 
ATOM     33  C   UNL A   1      36.896  33.132  28.799  1.00  0.00     0.010 A 
ATOM     34  C   UNL A   1      36.756  31.835  29.325  1.00  0.00    -0.014 A 
BRANCH  34  35
ATOM     35  C   UNL A   1      37.837  31.226  30.133  1.00  0.00     0.031 A 
ATOM     36  C   UNL A   1      38.752  30.225  29.480  1.00  0.00     0.074 A 
ATOM     37  C   UNL A   1      38.040  31.601  31.408  1.00  0.00     0.049 A 
ATOM     38  N   UNL A   1      39.763  29.568  29.988  1.00  0.00    -0.248 NA
ATOM     39  C   UNL A   1      38.491  29.927  28.062  1.00  0.00     0.031 C 
ATOM     40  C   UNL A   1      37.249  32.594  32.130  1.00  0.00     0.029 A 
ATOM     41  N   UNL A   1      38.979  31.188  32.317  1.00  0.00    -0.354 N 
ATOM     42  C   UNL A   1      40.257  28.782  28.955  1.00  0.00     0.074 A 
ATOM     43  C   UNL A   1      39.417  29.017  27.801  1.00  0.00     0.031 C 
ATOM     44  C   UNL A   1      37.731  32.706  33.380  1.00  0.00     0.029 A 
ATOM     45  C   UNL A   1      38.844  31.776  33.549  1.00  0.00     0.049 A 
ATOM     46  H   UNL A   1      39.681  30.531  32.106  1.00  0.00     0.167 HD
ATOM     47  C   UNL A   1      41.322  27.947  28.964  1.00  0.00     0.037 A 
ATOM     48  C   UNL A   1      39.534  31.572  34.687  1.00  0.00     0.037 A 
ATOM     49  C   UNL A   1      42.155  27.714  30.113  1.00  0.00     0.049 A 
ATOM     50  C   UNL A   1      40.671  30.585  34.692  1.00  0.00     0.074 A 
ATOM     51  C   UNL A   1      43.264  26.893  30.224  1.00  0.00     0.029 A 
ATOM     52  N   UNL A   1      41.966  28.301  31.355  1.00  0.00    -0.354 N 
ATOM     53  N   UNL A   1      41.142  29.860  33.707  1.00  0.00    -0.248 NA
ATOM     54  C   UNL A   1      41.377  30.393  35.968  1.00  0.00     0.031 C 
ATOM     55  C   UNL A   1      43.719  26.952  31.546  1.00  0.00     0.029 A 
ATOM     56  C   UNL A   1      42.922  27.844  32.245  1.00  0.00     0.049 A 
ATOM     57  H   UNL A   1      41.255  28.949  31.571  1.00  0.00     0.167 HD
ATOM     58  C   UNL A   1      42.210  29.145  34.234  1.00  0.00     0.074 A 
ATOM     59  C   UNL A   1      42.326  29.534  35.625  1.00  0.00     0.031 C 
ATOM     60  C   UNL A   1      43.023  28.248  33.624  1.00  0.00     0.037 A 
BRANCH  47  61
ATOM     61  C   UNL A   1      41.629  27.206  27.695  1.00  0.00     0.057 A 
ATOM     62  C   UNL A   1      41.122  25.925  27.446  1.00  0.00     0.134 A 
ATOM     63  C   UNL A   1      42.423  27.793  26.701  1.00  0.00     0.134 A 
ATOM     64  F   UNL A   1      40.368  25.302  28.365  1.00  0.00    -0.206 F 
ATOM     65  C   UNL A   1      41.411  25.244  26.262  1.00  0.00     0.040 A 
ATOM     66  C   UNL A   1      42.699  27.132  25.504  1.00  0.00     0.040 A 
ATOM     67  F   UNL A   1      42.938  29.019  26.876  1.00  0.00    -0.206 F 
ATOM     68  C   UNL A   1      42.197  25.851  25.284  1.00  0.00     0.006 A 
ENDBRANCH  47  61
BRANCH  48  69
ATOM     69  C   UNL A   1      39.160  32.305  35.923  1.00  0.00     0.057 A 
ATOM     70  C   UNL A   1      39.644  33.592  36.180  1.00  0.00     0.134 A 
ATOM     71  C   UNL A   1      38.321  31.726  36.882  1.00  0.00     0.134 A 
ATOM     72  F   UNL A   1      40.469  34.190  35.309  1.00  0.00    -0.206 F 
ATOM     73  C   UNL A   1      39.317  34.273  37.354  1.00  0.00     0.040 A 
ATOM     74  C   UNL A   1      37.968  32.405  38.050  1.00  0.00     0.040 A 
ATOM     75  F   UNL A   1      37.823  30.494  36.694  1.00  0.00    -0.206 F 
ATOM     76  C   UNL A   1      38.473  33.680  38.291  1.00  0.00     0.006 A 
ENDBRANCH  48  69
BRANCH  60  77
ATOM     77  C   UNL A   1      44.127  27.650  34.446  1.00  0.00     0.057 A 
ATOM     78  C   UNL A   1      43.968  26.435  35.124  1.00  0.00     0.134 A 
ATOM     79  C   UNL A   1      45.377  28.279  34.526  1.00  0.00     0.134 A 
ATOM     80  F   UNL A   1      42.793  25.791  35.097  1.00  0.00    -0.206 F 
ATOM     81  C   UNL A   1      45.008  25.876  35.868  1.00  0.00     0.040 A 
ATOM     82  C   UNL A   1      46.430  27.718  35.247  1.00  0.00     0.040 A 
ATOM     83  F   UNL A   1      45.596  29.441  33.892  1.00  0.00    -0.206 F 
ATOM     84  C   UNL A   1      46.246  26.515  35.925  1.00  0.00     0.006 A 
ENDBRANCH  60  77
ENDBRANCH  34  35
ENDBRANCH  27  29
ENDBRANCH  26  27
ENDBRANCH  25  26
ENDBRANCH   1  25
TORSDOF 16
ENDMDL
MODEL 3
REMARK VINA RESULT:     -10.6      4.860      9.849
REMARK SMILES C[NH2+][C@]1(C(=O)OCCOCCOC(=O)c2ccc(-c3c4nc(c(-c5c(F)cccc5F)c5ccc([nH]5)c(-c5c(F)cccc5F)c5nc(c(-c6c(F)cccc6F)c6ccc3[nH]6)C=C5)C=C4)cc2)CCC[C@@H]([N@H+]2CC[C@@H](C)C2)C1
REMARK SMILES IDX 10 1 9 2 8 3 7 4 6 5 4 6 5 7 3 8 69 9 79 10 70 11 72 12
REMARK SMILES IDX 71 13 2 14 1 15 73 18 74 19 78 20 75 22 76 23 77 24 11 25
REMARK SMILES IDX 12 26 13 27 14 28 15 29 16 30 68 31 17 32 67 33 18 34 19 35
REMARK SMILES IDX 20 36 61 37 21 38 66 39 60 40 62 41 22 42 65 43 59 44 58 45
REMARK SMILES IDX 23 47 49 48 32 49 48 50 33 51 36 52 47 53 63 54 34 55 35 56
REMARK SMILES IDX 46 58 64 59 37 60 24 61 25 62 30 63 26 64 27 65 29 66 31 67
REMARK SMILES IDX 28 68 50 69 51 70 56 71 52 72 53 73 55 74 57 75 54 76 38 77
REMARK SMILES IDX 39 78 44 79 40 80 41 81 43 82 45 83 42 84
REMARK H PARENT 2 16 2 17 73 21 62 46 36 57
REMARK Flexibility Score: inf
ROOT
ATOM      1  C   UNL A   1      31.391  31.899  26.700  1.00  0.00     0.202 C 
ENDROOT
BRANCH   1   2
ATOM      2  O   UNL A   1      31.937  30.673  26.221  1.00  0.00    -0.374 OA
BRANCH   2   3
ATOM      3  C   UNL A   1      32.610  29.821  27.144  1.00  0.00     0.202 C 
BRANCH   3   4
ATOM      4  C   UNL A   1      33.975  29.272  26.733  1.00  0.00     0.261 C 
BRANCH   4   5
ATOM      5  O   UNL A   1      33.878  27.942  26.204  1.00  0.00    -0.459 OA
BRANCH   5   6
ATOM      6  C   UNL A   1      33.686  27.875  24.857  1.00  0.00     0.368 C 
ATOM      7  O   UNL A   1      33.982  28.768  24.067  1.00  0.00    -0.245 OA
BRANCH   6   8
ATOM      8  C   UNL A   1      32.926  26.590  24.436  1.00  0.00     0.199 C 
ATOM      9  C   UNL A   1      32.870  26.270  22.930  1.00  0.00     0.081 C 
ATOM     10  C   UNL A   1      33.791  25.513  25.101  1.00  0.00     0.146 C 
ATOM     11  C   UNL A   1      32.307  24.862  22.678  1.00  0.00     0.013 C 
ATOM     12  C   UNL A   1      33.365  24.062  24.881  1.00  0.00     0.190 C 
ATOM     13  C   UNL A   1      33.132  23.775  23.380  1.00  0.00     0.065 C 
BRANCH   8  14
ATOM     14  N   UNL A   1      31.563  26.588  25.047  1.00  0.00    -0.334 N 
ATOM     15  C   UNL A   1      30.685  27.648  24.552  1.00  0.00     0.331 C 
ATOM     16  H   UNL A   1      31.123  25.689  24.848  1.00  0.00     0.347 HD
ATOM     17  H   UNL A   1      31.688  26.750  26.046  1.00  0.00     0.347 HD
ENDBRANCH   8  14
BRANCH  12  18
ATOM     18  N   UNL A   1      34.317  23.115  25.510  1.00  0.00    -0.332 N 
ATOM     19  C   UNL A   1      34.313  21.743  24.986  1.00  0.00     0.262 C 
ATOM     20  C   UNL A   1      35.715  23.579  25.542  1.00  0.00     0.265 C 
ATOM     21  H   UNL A   1      33.937  23.092  26.457  1.00  0.00     0.348 HD
ATOM     22  C   UNL A   1      35.770  21.308  24.869  1.00  0.00     0.070 C 
ATOM     23  C   UNL A   1      36.547  22.606  24.703  1.00  0.00     0.047 C 
ATOM     24  C   UNL A   1      36.711  22.983  23.228  1.00  0.00     0.014 C 
ENDBRANCH  12  18
ENDBRANCH   6   8
ENDBRANCH   5   6
ENDBRANCH   4   5
ENDBRANCH   3   4
ENDBRANCH   2   3
ENDBRANCH   1   2
BRANCH   1  25
ATOM     25  C   UNL A   1      32.337  33.093  26.864  1.00  0.00     0.261 C 
BRANCH  25  26
ATOM     26  O   UNL A   1      32.201  33.741  28.138  1.00  0.00    -0.460 OA
BRANCH  26  27
ATOM     27  C   UNL A   1      33.273  34.484  28.495  1.00  0.00     0.338 C 
ATOM     28  O   UNL A   1      33.288  35.680  28.772  1.00  0.00    -0.246 OA
BRANCH  27  29
ATOM     29  C   UNL A   1      34.456  33.631  28.687  1.00  0.00     0.060 A 
ATOM     30  C   UNL A   1      34.253  32.384  29.294  1.00  0.00     0.016 A 
ATOM     31  C   UNL A   1      35.745  34.070  28.372  1.00  0.00     0.016 A 
ATOM     32  C   UNL A   1      35.342  31.601  29.656  1.00  0.00     0.010 A 
ATOM     33  C   UNL A   1      36.840  33.285  28.748  1.00  0.00     0.010 A 
ATOM     34  C   UNL A   1      36.641  32.071  29.432  1.00  0.00    -0.014 A 
BRANCH  34  35
ATOM     35  C   UNL A   1      37.776  31.375  30.081  1.00  0.00     0.031 A 
ATOM     36  C   UNL A   1      38.070  31.665  31.527  1.00  0.00     0.074 A 
ATOM     37  C   UNL A   1      38.493  30.456  29.412  1.00  0.00     0.049 A 
ATOM     38  N   UNL A   1      39.005  31.175  32.299  1.00  0.00    -0.248 NA
ATOM     39  C   UNL A   1      37.188  32.639  32.192  1.00  0.00     0.031 C 
ATOM     40  C   UNL A   1      38.270  30.058  28.024  1.00  0.00     0.029 A 
ATOM     41  N   UNL A   1      39.555  29.690  29.818  1.00  0.00    -0.354 N 
ATOM     42  C   UNL A   1      38.825  31.779  33.537  1.00  0.00     0.074 A 
ATOM     43  C   UNL A   1      37.713  32.695  33.407  1.00  0.00     0.031 C 
ATOM     44  C   UNL A   1      39.178  29.125  27.689  1.00  0.00     0.029 A 
ATOM     45  C   UNL A   1      40.057  28.882  28.830  1.00  0.00     0.049 A 
ATOM     46  H   UNL A   1      39.921  29.718  30.732  1.00  0.00     0.167 HD
ATOM     47  C   UNL A   1      39.518  31.579  34.683  1.00  0.00     0.037 A 
ATOM     48  C   UNL A   1      41.119  28.054  28.844  1.00  0.00     0.037 A 
ATOM     49  C   UNL A   1      40.624  30.669  34.810  1.00  0.00     0.049 A 
ATOM     50  C   UNL A   1      41.918  27.901  30.111  1.00  0.00     0.074 A 
ATOM     51  C   UNL A   1      41.388  30.388  35.929  1.00  0.00     0.029 A 
ATOM     52  N   UNL A   1      41.128  29.894  33.776  1.00  0.00    -0.354 N 
ATOM     53  N   UNL A   1      41.729  28.462  31.280  1.00  0.00    -0.248 NA
ATOM     54  C   UNL A   1      43.074  26.995  30.061  1.00  0.00     0.031 C 
ATOM     55  C   UNL A   1      42.381  29.474  35.561  1.00  0.00     0.029 A 
ATOM     56  C   UNL A   1      42.207  29.152  34.224  1.00  0.00     0.049 A 
ATOM     57  H   UNL A   1      40.770  29.875  32.858  1.00  0.00     0.167 HD
ATOM     58  C   UNL A   1      42.725  27.961  32.110  1.00  0.00     0.074 A 
ATOM     59  C   UNL A   1      43.508  27.040  31.312  1.00  0.00     0.031 C 
ATOM     60  C   UNL A   1      42.970  28.237  33.415  1.00  0.00     0.037 A 
BRANCH  47  61
ATOM     61  C   UNL A   1      39.110  32.382  35.884  1.00  0.00     0.057 A 
ATOM     62  C   UNL A   1      38.264  31.860  36.870  1.00  0.00     0.134 A 
ATOM     63  C   UNL A   1      39.589  33.685  36.067  1.00  0.00     0.134 A 
ATOM     64  F   UNL A   1      37.758  30.623  36.745  1.00  0.00    -0.206 F 
ATOM     65  C   UNL A   1      37.891  32.613  37.985  1.00  0.00     0.040 A 
ATOM     66  C   UNL A   1      39.243  34.439  37.189  1.00  0.00     0.040 A 
ATOM     67  F   UNL A   1      40.406  34.245  35.160  1.00  0.00    -0.206 F 
ATOM     68  C   UNL A   1      38.387  33.905  38.149  1.00  0.00     0.006 A 
ENDBRANCH  47  61
BRANCH  48  69
ATOM     69  C   UNL A   1      41.499  27.315  27.614  1.00  0.00     0.057 A 
ATOM     70  C   UNL A   1      42.293  27.907  26.626  1.00  0.00     0.134 A 
ATOM     71  C   UNL A   1      41.062  26.004  27.392  1.00  0.00     0.134 A 
ATOM     72  F   UNL A   1      42.724  29.169  26.771  1.00  0.00    -0.206 F 
ATOM     73  C   UNL A   1      42.628  27.226  25.454  1.00  0.00     0.040 A 
ATOM     74  C   UNL A   1      41.409  25.304  26.235  1.00  0.00     0.040 A 
ATOM     75  F   UNL A   1      40.298  25.380  28.301  1.00  0.00    -0.206 F 
ATOM     76  C   UNL A   1      42.189  25.918  25.259  1.00  0.00     0.006 A 
ENDBRANCH  48  69
BRANCH  60  77
ATOM     77  C   UNL A   1      44.110  27.512  34.068  1.00  0.00     0.057 A 
ATOM     78  C   UNL A   1      45.397  28.062  34.128  1.00  0.00     0.134 A 
ATOM     79  C   UNL A   1      43.906  26.268  34.680  1.00  0.00     0.134 A 
ATOM     80  F   UNL A   1      45.658  29.243  33.551  1.00  0.00    -0.206 F 
ATOM     81  C   UNL A   1      46.445  27.390  34.758  1.00  0.00     0.040 A 
ATOM     82  C   UNL A   1      44.942  25.599  35.332  1.00  0.00     0.040 A 
ATOM     83  F   UNL A   1      42.695  25.692  34.665  1.00  0.00    -0.206 F 
ATOM     84  C   UNL A   1      46.218  26.157  35.368  1.00  0.00     0.006 A 
ENDBRANCH  60  77
ENDBRANCH  34  35
ENDBRANCH  27  29
ENDBRANCH  26  27
ENDBRANCH  25  26
ENDBRANCH   1  25
TORSDOF 16
ENDMDL
