MODEL 1
REMARK VINA RESULT:     -11.4      0.000      0.000
REMARK SMILES C[C@@H](C(=O)OCCOCCOC(=O)c1ccc(-c2c3nc(c(-c4c(F)cccc4F)c4ccc([nH]4)c(-c4c(F)cccc4F)c4nc(c(-c5c(F)cccc5F)c5ccc2[nH]5)C=C4)C=C3)cc1)c1ccc(-c2cccc(OC(=O)NCCCc3ccccc3)c2)c(F)c1
REMARK SMILES IDX 5 1 3 2 4 3 2 4 1 5 68 6 69 7 93 8 70 9 91 10 71 11 92 12
REMARK SMILES IDX 72 13 73 14 90 15 74 16 76 17 75 18 77 19 78 20 79 21 80 22
REMARK SMILES IDX 81 24 82 25 83 26 84 27 85 28 89 29 86 30 88 31 87 32 6 33
REMARK SMILES IDX 7 34 8 35 9 36 10 37 11 38 12 39 13 40 14 41 15 42 67 43
REMARK SMILES IDX 16 44 66 45 17 46 18 47 19 48 60 49 20 50 65 51 59 52 61 53
REMARK SMILES IDX 21 54 64 55 58 56 57 57 22 59 48 60 31 61 47 62 32 63 35 64
REMARK SMILES IDX 46 65 62 66 33 67 34 68 45 70 63 71 36 72 23 73 24 74 29 75
REMARK SMILES IDX 25 76 26 77 28 78 30 79 27 80 49 81 50 82 55 83 51 84 52 85
REMARK SMILES IDX 54 86 56 87 53 88 37 89 38 90 43 91 39 92 40 93 42 94 44 95
REMARK SMILES IDX 41 96
REMARK H PARENT 80 23 61 58 35 69
REMARK Flexibility Score: inf
ROOT
ATOM      1  O   UNL A   1      34.585  34.525  29.662  1.00  0.00    -0.463 OA
ENDROOT
BRANCH   1   2
ATOM      2  C   UNL A   1      34.729  33.204  29.958  1.00  0.00     0.313 C 
ATOM      3  O   UNL A   1      34.058  32.610  30.795  1.00  0.00    -0.252 OA
BRANCH   2   4
ATOM      4  C   UNL A   1      35.776  32.513  29.072  1.00  0.00     0.126 C 
ATOM      5  C   UNL A   1      36.562  33.533  28.228  1.00  0.00     0.025 C 
BRANCH   4   6
ATOM      6  C   UNL A   1      35.220  31.326  28.270  1.00  0.00    -0.031 A 
ATOM      7  C   UNL A   1      35.962  30.141  28.121  1.00  0.00     0.005 A 
ATOM      8  C   UNL A   1      34.008  31.408  27.566  1.00  0.00     0.044 A 
ATOM      9  C   UNL A   1      35.522  29.094  27.300  1.00  0.00     0.012 A 
ATOM     10  C   UNL A   1      33.578  30.363  26.741  1.00  0.00     0.131 A 
ATOM     11  C   UNL A   1      34.334  29.198  26.569  1.00  0.00     0.018 A 
ATOM     12  F   UNL A   1      32.429  30.528  26.066  1.00  0.00    -0.206 F 
BRANCH  11  13
ATOM     13  C   UNL A   1      34.007  28.196  25.546  1.00  0.00    -0.012 A 
ATOM     14  C   UNL A   1      33.929  28.505  24.180  1.00  0.00     0.009 A 
ATOM     15  C   UNL A   1      33.659  26.900  25.959  1.00  0.00     0.056 A 
ATOM     16  C   UNL A   1      33.494  27.548  23.255  1.00  0.00     0.004 A 
ATOM     17  C   UNL A   1      33.198  25.960  25.044  1.00  0.00     0.133 A 
ATOM     18  C   UNL A   1      33.119  26.276  23.689  1.00  0.00     0.047 A 
BRANCH  17  19
ATOM     19  O   UNL A   1      32.796  24.652  25.398  1.00  0.00    -0.410 OA
BRANCH  19  20
ATOM     20  C   UNL A   1      31.614  24.323  26.057  1.00  0.00     0.412 C 
ATOM     21  O   UNL A   1      31.389  24.425  27.260  1.00  0.00    -0.224 OA
ATOM     22  N   UNL A   1      30.642  23.863  25.218  1.00  0.00    -0.321 N 
ATOM     23  H   UNL A   1      29.829  23.494  25.632  1.00  0.00     0.167 HD
BRANCH  22  24
ATOM     24  C   UNL A   1      30.705  23.870  23.777  1.00  0.00     0.120 C 
BRANCH  24  25
ATOM     25  C   UNL A   1      30.126  25.128  23.130  1.00  0.00     0.026 C 
BRANCH  25  26
ATOM     26  C   UNL A   1      29.481  26.184  24.038  1.00  0.00     0.037 C 
BRANCH  26  27
ATOM     27  C   UNL A   1      29.085  27.536  23.490  1.00  0.00    -0.048 A 
ATOM     28  C   UNL A   1      29.982  28.505  23.031  1.00  0.00     0.004 A 
ATOM     29  C   UNL A   1      27.717  27.865  23.506  1.00  0.00     0.004 A 
ATOM     30  C   UNL A   1      29.533  29.762  22.612  1.00  0.00     0.000 A 
ATOM     31  C   UNL A   1      27.265  29.114  23.078  1.00  0.00     0.000 A 
ATOM     32  C   UNL A   1      28.176  30.068  22.637  1.00  0.00     0.000 A 
ENDBRANCH  26  27
ENDBRANCH  25  26
ENDBRANCH  24  25
ENDBRANCH  22  24
ENDBRANCH  19  20
ENDBRANCH  17  19
ENDBRANCH  11  13
ENDBRANCH   4   6
ENDBRANCH   2   4
ENDBRANCH   1   2
BRANCH   1  33
ATOM     33  C   UNL A   1      33.284  35.077  29.900  1.00  0.00     0.261 C 
BRANCH  33  34
ATOM     34  C   UNL A   1      33.200  35.730  31.284  1.00  0.00     0.202 C 
BRANCH  34  35
ATOM     35  O   UNL A   1      34.392  35.775  32.064  1.00  0.00    -0.374 OA
BRANCH  35  36
ATOM     36  C   UNL A   1      34.404  35.102  33.323  1.00  0.00     0.202 C 
BRANCH  36  37
ATOM     37  C   UNL A   1      35.746  34.579  33.858  1.00  0.00     0.261 C 
BRANCH  37  38
ATOM     38  O   UNL A   1      36.358  33.594  33.002  1.00  0.00    -0.460 OA
BRANCH  38  39
ATOM     39  C   UNL A   1      37.073  32.644  33.656  1.00  0.00     0.338 C 
ATOM     40  O   UNL A   1      36.974  32.316  34.827  1.00  0.00    -0.246 OA
BRANCH  39  41
ATOM     41  C   UNL A   1      37.899  31.879  32.703  1.00  0.00     0.060 A 
ATOM     42  C   UNL A   1      38.700  30.852  33.218  1.00  0.00     0.016 A 
ATOM     43  C   UNL A   1      37.976  32.235  31.357  1.00  0.00     0.016 A 
ATOM     44  C   UNL A   1      39.616  30.202  32.396  1.00  0.00     0.010 A 
ATOM     45  C   UNL A   1      38.906  31.587  30.534  1.00  0.00     0.010 A 
ATOM     46  C   UNL A   1      39.754  30.592  31.058  1.00  0.00    -0.014 A 
BRANCH  46  47
ATOM     47  C   UNL A   1      40.881  30.059  30.254  1.00  0.00     0.031 A 
ATOM     48  C   UNL A   1      42.072  30.938  29.986  1.00  0.00     0.074 A 
ATOM     49  C   UNL A   1      40.862  28.793  29.801  1.00  0.00     0.049 A 
ATOM     50  N   UNL A   1      43.142  30.692  29.275  1.00  0.00    -0.248 NA
ATOM     51  C   UNL A   1      42.051  32.274  30.600  1.00  0.00     0.031 C 
ATOM     52  C   UNL A   1      39.787  27.829  30.033  1.00  0.00     0.029 A 
ATOM     53  N   UNL A   1      41.774  28.105  29.042  1.00  0.00    -0.354 N 
ATOM     54  C   UNL A   1      43.919  31.843  29.351  1.00  0.00     0.074 A 
ATOM     55  C   UNL A   1      43.181  32.798  30.148  1.00  0.00     0.031 C 
ATOM     56  C   UNL A   1      40.097  26.676  29.417  1.00  0.00     0.029 A 
ATOM     57  C   UNL A   1      41.370  26.833  28.718  1.00  0.00     0.049 A 
ATOM     58  H   UNL A   1      42.636  28.486  28.757  1.00  0.00     0.167 HD
ATOM     59  C   UNL A   1      45.140  32.076  28.815  1.00  0.00     0.037 A 
ATOM     60  C   UNL A   1      41.951  25.911  27.925  1.00  0.00     0.037 A 
ATOM     61  C   UNL A   1      45.872  31.122  28.021  1.00  0.00     0.049 A 
ATOM     62  C   UNL A   1      43.272  26.223  27.274  1.00  0.00     0.074 A 
ATOM     63  C   UNL A   1      47.121  31.261  27.441  1.00  0.00     0.029 A 
ATOM     64  N   UNL A   1      45.415  29.856  27.688  1.00  0.00    -0.354 N 
ATOM     65  N   UNL A   1      44.006  27.307  27.366  1.00  0.00    -0.248 NA
ATOM     66  C   UNL A   1      43.849  25.182  26.411  1.00  0.00     0.031 C 
ATOM     67  C   UNL A   1      47.395  30.099  26.712  1.00  0.00     0.029 A 
ATOM     68  C   UNL A   1      46.346  29.213  26.889  1.00  0.00     0.049 A 
ATOM     69  H   UNL A   1      44.556  29.471  27.978  1.00  0.00     0.167 HD
ATOM     70  C   UNL A   1      45.141  27.065  26.600  1.00  0.00     0.074 A 
ATOM     71  C   UNL A   1      45.005  25.728  26.062  1.00  0.00     0.031 C 
ATOM     72  C   UNL A   1      46.202  27.877  26.365  1.00  0.00     0.037 A 
BRANCH  59  73
ATOM     73  C   UNL A   1      45.752  33.428  29.047  1.00  0.00     0.057 A 
ATOM     74  C   UNL A   1      46.598  33.684  30.134  1.00  0.00     0.134 A 
ATOM     75  C   UNL A   1      45.519  34.479  28.151  1.00  0.00     0.134 A 
ATOM     76  F   UNL A   1      46.853  32.726  31.038  1.00  0.00    -0.206 F 
ATOM     77  C   UNL A   1      47.169  34.942  30.335  1.00  0.00     0.040 A 
ATOM     78  C   UNL A   1      46.108  35.734  28.325  1.00  0.00     0.040 A 
ATOM     79  F   UNL A   1      44.725  34.303  27.084  1.00  0.00    -0.206 F 
ATOM     80  C   UNL A   1      46.930  35.969  29.424  1.00  0.00     0.006 A 
ENDBRANCH  59  73
BRANCH  60  81
ATOM     81  C   UNL A   1      41.276  24.611  27.682  1.00  0.00     0.057 A 
ATOM     82  C   UNL A   1      41.687  23.442  28.333  1.00  0.00     0.134 A 
ATOM     83  C   UNL A   1      40.215  24.501  26.773  1.00  0.00     0.134 A 
ATOM     84  F   UNL A   1      42.713  23.477  29.197  1.00  0.00    -0.206 F 
ATOM     85  C   UNL A   1      41.085  22.210  28.076  1.00  0.00     0.040 A 
ATOM     86  C   UNL A   1      39.583  23.281  26.527  1.00  0.00     0.040 A 
ATOM     87  F   UNL A   1      39.771  25.583  26.116  1.00  0.00    -0.206 F 
ATOM     88  C   UNL A   1      40.025  22.129  27.173  1.00  0.00     0.006 A 
ENDBRANCH  60  81
BRANCH  72  89
ATOM     89  C   UNL A   1      47.320  27.329  25.525  1.00  0.00     0.057 A 
ATOM     90  C   UNL A   1      47.381  27.535  24.140  1.00  0.00     0.134 A 
ATOM     91  C   UNL A   1      48.372  26.617  26.118  1.00  0.00     0.134 A 
ATOM     92  F   UNL A   1      46.401  28.198  23.508  1.00  0.00    -0.206 F 
ATOM     93  C   UNL A   1      48.433  27.031  23.374  1.00  0.00     0.040 A 
ATOM     94  C   UNL A   1      49.445  26.136  25.366  1.00  0.00     0.040 A 
ATOM     95  F   UNL A   1      48.383  26.393  27.440  1.00  0.00    -0.206 F 
ATOM     96  C   UNL A   1      49.473  26.336  23.987  1.00  0.00     0.006 A 
ENDBRANCH  72  89
ENDBRANCH  46  47
ENDBRANCH  39  41
ENDBRANCH  38  39
ENDBRANCH  37  38
ENDBRANCH  36  37
ENDBRANCH  35  36
ENDBRANCH  34  35
ENDBRANCH  33  34
ENDBRANCH   1  33
TORSDOF 22
ENDMDL
MODEL 2
REMARK VINA RESULT:     -11.2      1.667      6.468
REMARK SMILES C[C@@H](C(=O)OCCOCCOC(=O)c1ccc(-c2c3nc(c(-c4c(F)cccc4F)c4ccc([nH]4)c(-c4c(F)cccc4F)c4nc(c(-c5c(F)cccc5F)c5ccc2[nH]5)C=C4)C=C3)cc1)c1ccc(-c2cccc(OC(=O)NCCCc3ccccc3)c2)c(F)c1
REMARK SMILES IDX 5 1 3 2 4 3 2 4 1 5 68 6 69 7 93 8 70 9 91 10 71 11 92 12
REMARK SMILES IDX 72 13 73 14 90 15 74 16 76 17 75 18 77 19 78 20 79 21 80 22
REMARK SMILES IDX 81 24 82 25 83 26 84 27 85 28 89 29 86 30 88 31 87 32 6 33
REMARK SMILES IDX 7 34 8 35 9 36 10 37 11 38 12 39 13 40 14 41 15 42 67 43
REMARK SMILES IDX 16 44 66 45 17 46 18 47 19 48 60 49 20 50 65 51 59 52 61 53
REMARK SMILES IDX 21 54 64 55 58 56 57 57 22 59 48 60 31 61 47 62 32 63 35 64
REMARK SMILES IDX 46 65 62 66 33 67 34 68 45 70 63 71 36 72 23 73 24 74 29 75
REMARK SMILES IDX 25 76 26 77 28 78 30 79 27 80 49 81 50 82 55 83 51 84 52 85
REMARK SMILES IDX 54 86 56 87 53 88 37 89 38 90 43 91 39 92 40 93 42 94 44 95
REMARK SMILES IDX 41 96
REMARK H PARENT 80 23 61 58 35 69
REMARK Flexibility Score: inf
ROOT
ATOM      1  O   UNL A   1      34.396  34.052  30.788  1.00  0.00    -0.463 OA
ENDROOT
BRANCH   1   2
ATOM      2  C   UNL A   1      35.435  34.262  29.933  1.00  0.00     0.313 C 
ATOM      3  O   UNL A   1      36.596  34.426  30.292  1.00  0.00    -0.252 OA
BRANCH   2   4
ATOM      4  C   UNL A   1      35.007  34.192  28.461  1.00  0.00     0.126 C 
ATOM      5  C   UNL A   1      34.307  35.487  28.014  1.00  0.00     0.025 C 
BRANCH   4   6
ATOM      6  C   UNL A   1      34.247  32.906  28.099  1.00  0.00    -0.031 A 
ATOM      7  C   UNL A   1      34.885  31.654  28.130  1.00  0.00     0.005 A 
ATOM      8  C   UNL A   1      32.927  32.933  27.620  1.00  0.00     0.044 A 
ATOM      9  C   UNL A   1      34.243  30.487  27.693  1.00  0.00     0.012 A 
ATOM     10  C   UNL A   1      32.294  31.767  27.177  1.00  0.00     0.131 A 
ATOM     11  C   UNL A   1      32.942  30.527  27.179  1.00  0.00     0.018 A 
ATOM     12  F   UNL A   1      31.046  31.876  26.693  1.00  0.00    -0.206 F 
BRANCH  11  13
ATOM     13  C   UNL A   1      32.373  29.345  26.519  1.00  0.00    -0.012 A 
ATOM     14  C   UNL A   1      31.804  28.279  27.230  1.00  0.00     0.009 A 
ATOM     15  C   UNL A   1      32.493  29.229  25.124  1.00  0.00     0.056 A 
ATOM     16  C   UNL A   1      31.386  27.119  26.566  1.00  0.00     0.004 A 
ATOM     17  C   UNL A   1      32.107  28.065  24.470  1.00  0.00     0.133 A 
ATOM     18  C   UNL A   1      31.546  27.008  25.185  1.00  0.00     0.047 A 
BRANCH  17  19
ATOM     19  O   UNL A   1      32.237  27.869  23.076  1.00  0.00    -0.410 OA
BRANCH  19  20
ATOM     20  C   UNL A   1      31.200  27.535  22.209  1.00  0.00     0.412 C 
ATOM     21  O   UNL A   1      30.196  28.201  21.970  1.00  0.00    -0.224 OA
ATOM     22  N   UNL A   1      31.391  26.341  21.579  1.00  0.00    -0.321 N 
ATOM     23  H   UNL A   1      30.640  25.986  21.051  1.00  0.00     0.167 HD
BRANCH  22  24
ATOM     24  C   UNL A   1      32.600  25.554  21.621  1.00  0.00     0.120 C 
BRANCH  24  25
ATOM     25  C   UNL A   1      32.471  24.248  22.403  1.00  0.00     0.026 C 
BRANCH  25  26
ATOM     26  C   UNL A   1      33.670  23.291  22.429  1.00  0.00     0.037 C 
BRANCH  26  27
ATOM     27  C   UNL A   1      34.770  23.456  23.453  1.00  0.00    -0.048 A 
ATOM     28  C   UNL A   1      36.066  22.950  23.321  1.00  0.00     0.004 A 
ATOM     29  C   UNL A   1      34.442  24.113  24.653  1.00  0.00     0.004 A 
ATOM     30  C   UNL A   1      37.000  23.084  24.354  1.00  0.00     0.000 A 
ATOM     31  C   UNL A   1      35.376  24.257  25.681  1.00  0.00     0.000 A 
ATOM     32  C   UNL A   1      36.656  23.735  25.534  1.00  0.00     0.000 A 
ENDBRANCH  26  27
ENDBRANCH  25  26
ENDBRANCH  24  25
ENDBRANCH  22  24
ENDBRANCH  19  20
ENDBRANCH  17  19
ENDBRANCH  11  13
ENDBRANCH   4   6
ENDBRANCH   2   4
ENDBRANCH   1   2
BRANCH   1  33
ATOM     33  C   UNL A   1      33.818  35.231  31.365  1.00  0.00     0.261 C 
BRANCH  33  34
ATOM     34  C   UNL A   1      34.440  35.545  32.730  1.00  0.00     0.202 C 
BRANCH  34  35
ATOM     35  O   UNL A   1      34.536  34.481  33.672  1.00  0.00    -0.374 OA
BRANCH  35  36
ATOM     36  C   UNL A   1      35.656  34.456  34.556  1.00  0.00     0.202 C 
BRANCH  36  37
ATOM     37  C   UNL A   1      36.625  33.265  34.473  1.00  0.00     0.261 C 
BRANCH  37  38
ATOM     38  O   UNL A   1      37.070  32.982  33.132  1.00  0.00    -0.460 OA
BRANCH  38  39
ATOM     39  C   UNL A   1      36.521  31.872  32.578  1.00  0.00     0.338 C 
ATOM     40  O   UNL A   1      35.343  31.556  32.561  1.00  0.00    -0.246 OA
BRANCH  39  41
ATOM     41  C   UNL A   1      37.532  31.137  31.796  1.00  0.00     0.060 A 
ATOM     42  C   UNL A   1      38.603  30.565  32.495  1.00  0.00     0.016 A 
ATOM     43  C   UNL A   1      37.496  31.109  30.402  1.00  0.00     0.016 A 
ATOM     44  C   UNL A   1      39.667  29.998  31.799  1.00  0.00     0.010 A 
ATOM     45  C   UNL A   1      38.573  30.547  29.704  1.00  0.00     0.010 A 
ATOM     46  C   UNL A   1      39.679  30.020  30.399  1.00  0.00    -0.014 A 
BRANCH  46  47
ATOM     47  C   UNL A   1      40.909  29.624  29.672  1.00  0.00     0.031 A 
ATOM     48  C   UNL A   1      41.032  28.220  29.147  1.00  0.00     0.074 A 
ATOM     49  C   UNL A   1      41.890  30.517  29.447  1.00  0.00     0.049 A 
ATOM     50  N   UNL A   1      42.032  27.651  28.525  1.00  0.00    -0.248 NA
ATOM     51  C   UNL A   1      39.872  27.340  29.355  1.00  0.00     0.031 C 
ATOM     52  C   UNL A   1      41.870  31.918  29.863  1.00  0.00     0.029 A 
ATOM     53  N   UNL A   1      43.100  30.370  28.816  1.00  0.00    -0.354 N 
ATOM     54  C   UNL A   1      41.626  26.346  28.271  1.00  0.00     0.074 A 
ATOM     55  C   UNL A   1      40.303  26.198  28.839  1.00  0.00     0.031 C 
ATOM     56  C   UNL A   1      43.021  32.500  29.489  1.00  0.00     0.029 A 
ATOM     57  C   UNL A   1      43.872  31.506  28.840  1.00  0.00     0.049 A 
ATOM     58  H   UNL A   1      43.387  29.531  28.388  1.00  0.00     0.167 HD
ATOM     59  C   UNL A   1      42.290  25.364  27.617  1.00  0.00     0.037 A 
ATOM     60  C   UNL A   1      45.133  31.709  28.411  1.00  0.00     0.037 A 
ATOM     61  C   UNL A   1      43.608  25.515  27.054  1.00  0.00     0.049 A 
ATOM     62  C   UNL A   1      45.883  30.579  27.757  1.00  0.00     0.074 A 
ATOM     63  C   UNL A   1      44.362  24.582  26.363  1.00  0.00     0.029 A 
ATOM     64  N   UNL A   1      44.370  26.670  27.127  1.00  0.00    -0.354 N 
ATOM     65  N   UNL A   1      45.484  29.355  27.507  1.00  0.00    -0.248 NA
ATOM     66  C   UNL A   1      47.259  30.860  27.321  1.00  0.00     0.031 C 
ATOM     67  C   UNL A   1      45.602  25.156  26.066  1.00  0.00     0.029 A 
ATOM     68  C   UNL A   1      45.597  26.466  26.516  1.00  0.00     0.049 A 
ATOM     69  H   UNL A   1      44.082  27.512  27.549  1.00  0.00     0.167 HD
ATOM     70  C   UNL A   1      46.544  28.732  26.859  1.00  0.00     0.074 A 
ATOM     71  C   UNL A   1      47.599  29.717  26.742  1.00  0.00     0.031 C 
ATOM     72  C   UNL A   1      46.637  27.459  26.401  1.00  0.00     0.037 A 
BRANCH  59  73
ATOM     73  C   UNL A   1      41.613  24.029  27.496  1.00  0.00     0.057 A 
ATOM     74  C   UNL A   1      40.578  23.801  26.580  1.00  0.00     0.134 A 
ATOM     75  C   UNL A   1      42.025  22.947  28.284  1.00  0.00     0.134 A 
ATOM     76  F   UNL A   1      40.125  24.798  25.803  1.00  0.00    -0.206 F 
ATOM     77  C   UNL A   1      39.960  22.554  26.469  1.00  0.00     0.040 A 
ATOM     78  C   UNL A   1      41.436  21.687  28.162  1.00  0.00     0.040 A 
ATOM     79  F   UNL A   1      43.015  23.092  29.177  1.00  0.00    -0.206 F 
ATOM     80  C   UNL A   1      40.395  21.490  27.257  1.00  0.00     0.006 A 
ENDBRANCH  59  73
BRANCH  60  81
ATOM     81  C   UNL A   1      45.778  33.033  28.606  1.00  0.00     0.057 A 
ATOM     82  C   UNL A   1      46.552  33.306  29.740  1.00  0.00     0.134 A 
ATOM     83  C   UNL A   1      45.617  34.065  27.673  1.00  0.00     0.134 A 
ATOM     84  F   UNL A   1      46.724  32.367  30.682  1.00  0.00    -0.206 F 
ATOM     85  C   UNL A   1      47.125  34.561  29.950  1.00  0.00     0.040 A 
ATOM     86  C   UNL A   1      46.208  35.316  27.855  1.00  0.00     0.040 A 
ATOM     87  F   UNL A   1      44.888  33.869  26.564  1.00  0.00    -0.206 F 
ATOM     88  C   UNL A   1      46.957  35.570  29.001  1.00  0.00     0.006 A 
ENDBRANCH  60  81
BRANCH  72  89
ATOM     89  C   UNL A   1      47.903  27.069  25.692  1.00  0.00     0.057 A 
ATOM     90  C   UNL A   1      48.079  27.268  24.316  1.00  0.00     0.134 A 
ATOM     91  C   UNL A   1      48.978  26.520  26.406  1.00  0.00     0.134 A 
ATOM     92  F   UNL A   1      47.087  27.778  23.571  1.00  0.00    -0.206 F 
ATOM     93  C   UNL A   1      49.266  26.914  23.674  1.00  0.00     0.040 A 
ATOM     94  C   UNL A   1      50.180  26.190  25.780  1.00  0.00     0.040 A 
ATOM     95  F   UNL A   1      48.881  26.312  27.728  1.00  0.00    -0.206 F 
ATOM     96  C   UNL A   1      50.323  26.380  24.407  1.00  0.00     0.006 A 
ENDBRANCH  72  89
ENDBRANCH  46  47
ENDBRANCH  39  41
ENDBRANCH  38  39
ENDBRANCH  37  38
ENDBRANCH  36  37
ENDBRANCH  35  36
ENDBRANCH  34  35
ENDBRANCH  33  34
ENDBRANCH   1  33
TORSDOF 22
ENDMDL
MODEL 3
REMARK VINA RESULT:     -11.1      1.219      2.300
REMARK SMILES C[C@@H](C(=O)OCCOCCOC(=O)c1ccc(-c2c3nc(c(-c4c(F)cccc4F)c4ccc([nH]4)c(-c4c(F)cccc4F)c4nc(c(-c5c(F)cccc5F)c5ccc2[nH]5)C=C4)C=C3)cc1)c1ccc(-c2cccc(OC(=O)NCCCc3ccccc3)c2)c(F)c1
REMARK SMILES IDX 5 1 3 2 4 3 2 4 1 5 68 6 69 7 93 8 70 9 91 10 71 11 92 12
REMARK SMILES IDX 72 13 73 14 90 15 74 16 76 17 75 18 77 19 78 20 79 21 80 22
REMARK SMILES IDX 81 24 82 25 83 26 84 27 85 28 89 29 86 30 88 31 87 32 6 33
REMARK SMILES IDX 7 34 8 35 9 36 10 37 11 38 12 39 13 40 14 41 15 42 67 43
REMARK SMILES IDX 16 44 66 45 17 46 18 47 19 48 60 49 20 50 65 51 59 52 61 53
REMARK SMILES IDX 21 54 64 55 58 56 57 57 22 59 48 60 31 61 47 62 32 63 35 64
REMARK SMILES IDX 46 65 62 66 33 67 34 68 45 70 63 71 36 72 23 73 24 74 29 75
REMARK SMILES IDX 25 76 26 77 28 78 30 79 27 80 49 81 50 82 55 83 51 84 52 85
REMARK SMILES IDX 54 86 56 87 53 88 37 89 38 90 43 91 39 92 40 93 42 94 44 95
REMARK SMILES IDX 41 96
REMARK H PARENT 80 23 61 58 35 69
REMARK Flexibility Score: inf
ROOT
ATOM      1  O   UNL A   1      33.593  34.589  29.287  1.00  0.00    -0.463 OA
ENDROOT
BRANCH   1   2
ATOM      2  C   UNL A   1      34.384  34.252  28.231  1.00  0.00     0.313 C 
ATOM      3  O   UNL A   1      34.437  34.886  27.182  1.00  0.00    -0.252 OA
BRANCH   2   4
ATOM      4  C   UNL A   1      35.267  33.031  28.525  1.00  0.00     0.126 C 
ATOM      5  C   UNL A   1      36.690  33.216  27.969  1.00  0.00     0.025 C 
BRANCH   4   6
ATOM      6  C   UNL A   1      34.613  31.692  28.152  1.00  0.00    -0.031 A 
ATOM      7  C   UNL A   1      35.352  30.496  28.161  1.00  0.00     0.005 A 
ATOM      8  C   UNL A   1      33.290  31.616  27.684  1.00  0.00     0.044 A 
ATOM      9  C   UNL A   1      34.804  29.286  27.714  1.00  0.00     0.012 A 
ATOM     10  C   UNL A   1      32.751  30.407  27.231  1.00  0.00     0.131 A 
ATOM     11  C   UNL A   1      33.500  29.225  27.211  1.00  0.00     0.018 A 
ATOM     12  F   UNL A   1      31.494  30.418  26.759  1.00  0.00    -0.206 F 
BRANCH  11  13
ATOM     13  C   UNL A   1      33.025  28.008  26.540  1.00  0.00    -0.012 A 
ATOM     14  C   UNL A   1      32.414  26.950  27.229  1.00  0.00     0.009 A 
ATOM     15  C   UNL A   1      33.282  27.851  25.168  1.00  0.00     0.056 A 
ATOM     16  C   UNL A   1      32.088  25.760  26.568  1.00  0.00     0.004 A 
ATOM     17  C   UNL A   1      32.988  26.658  24.519  1.00  0.00     0.133 A 
ATOM     18  C   UNL A   1      32.384  25.610  25.213  1.00  0.00     0.047 A 
BRANCH  17  19
ATOM     19  O   UNL A   1      33.256  26.421  23.152  1.00  0.00    -0.410 OA
BRANCH  19  20
ATOM     20  C   UNL A   1      33.252  27.388  22.151  1.00  0.00     0.412 C 
ATOM     21  O   UNL A   1      34.232  27.891  21.608  1.00  0.00    -0.224 OA
ATOM     22  N   UNL A   1      31.997  27.757  21.766  1.00  0.00    -0.321 N 
ATOM     23  H   UNL A   1      31.921  28.524  21.154  1.00  0.00     0.167 HD
BRANCH  22  24
ATOM     24  C   UNL A   1      30.771  27.118  22.179  1.00  0.00     0.120 C 
BRANCH  24  25
ATOM     25  C   UNL A   1      30.130  27.735  23.421  1.00  0.00     0.026 C 
BRANCH  25  26
ATOM     26  C   UNL A   1      30.318  29.237  23.670  1.00  0.00     0.037 C 
BRANCH  26  27
ATOM     27  C   UNL A   1      29.459  30.254  22.952  1.00  0.00    -0.048 A 
ATOM     28  C   UNL A   1      29.082  30.174  21.609  1.00  0.00     0.004 A 
ATOM     29  C   UNL A   1      29.066  31.394  23.676  1.00  0.00     0.004 A 
ATOM     30  C   UNL A   1      28.348  31.200  21.004  1.00  0.00     0.000 A 
ATOM     31  C   UNL A   1      28.324  32.414  23.078  1.00  0.00     0.000 A 
ATOM     32  C   UNL A   1      27.971  32.320  21.737  1.00  0.00     0.000 A 
ENDBRANCH  26  27
ENDBRANCH  25  26
ENDBRANCH  24  25
ENDBRANCH  22  24
ENDBRANCH  19  20
ENDBRANCH  17  19
ENDBRANCH  11  13
ENDBRANCH   4   6
ENDBRANCH   2   4
ENDBRANCH   1   2
BRANCH   1  33
ATOM     33  C   UNL A   1      34.179  34.415  30.583  1.00  0.00     0.261 C 
BRANCH  33  34
ATOM     34  C   UNL A   1      33.600  35.410  31.595  1.00  0.00     0.202 C 
BRANCH  34  35
ATOM     35  O   UNL A   1      34.512  36.060  32.476  1.00  0.00    -0.374 OA
BRANCH  35  36
ATOM     36  C   UNL A   1      35.260  35.258  33.390  1.00  0.00     0.202 C 
BRANCH  36  37
ATOM     37  C   UNL A   1      36.647  34.758  32.955  1.00  0.00     0.261 C 
BRANCH  37  38
ATOM     38  O   UNL A   1      37.042  33.532  33.603  1.00  0.00    -0.460 OA
BRANCH  38  39
ATOM     39  C   UNL A   1      36.426  32.420  33.128  1.00  0.00     0.338 C 
ATOM     40  O   UNL A   1      35.240  32.142  33.197  1.00  0.00    -0.246 OA
BRANCH  39  41
ATOM     41  C   UNL A   1      37.363  31.625  32.314  1.00  0.00     0.060 A 
ATOM     42  C   UNL A   1      38.385  30.940  32.984  1.00  0.00     0.016 A 
ATOM     43  C   UNL A   1      37.314  31.644  30.920  1.00  0.00     0.016 A 
ATOM     44  C   UNL A   1      39.390  30.304  32.261  1.00  0.00     0.010 A 
ATOM     45  C   UNL A   1      38.332  31.012  30.195  1.00  0.00     0.010 A 
ATOM     46  C   UNL A   1      39.393  30.369  30.862  1.00  0.00    -0.014 A 
BRANCH  46  47
ATOM     47  C   UNL A   1      40.579  29.890  30.110  1.00  0.00     0.031 A 
ATOM     48  C   UNL A   1      41.725  30.834  29.870  1.00  0.00     0.074 A 
ATOM     49  C   UNL A   1      40.651  28.618  29.681  1.00  0.00     0.049 A 
ATOM     50  N   UNL A   1      42.834  30.640  29.203  1.00  0.00    -0.248 NA
ATOM     51  C   UNL A   1      41.602  32.177  30.456  1.00  0.00     0.031 C 
ATOM     52  C   UNL A   1      39.628  27.595  29.892  1.00  0.00     0.029 A 
ATOM     53  N   UNL A   1      41.631  27.972  28.970  1.00  0.00    -0.354 N 
ATOM     54  C   UNL A   1      43.539  31.836  29.285  1.00  0.00     0.074 A 
ATOM     55  C   UNL A   1      42.715  32.759  30.036  1.00  0.00     0.031 C 
ATOM     56  C   UNL A   1      40.028  26.453  29.310  1.00  0.00     0.029 A 
ATOM     57  C   UNL A   1      41.316  26.673  28.656  1.00  0.00     0.049 A 
ATOM     58  H   UNL A   1      42.480  28.399  28.710  1.00  0.00     0.167 HD
ATOM     59  C   UNL A   1      44.763  32.133  28.791  1.00  0.00     0.037 A 
ATOM     60  C   UNL A   1      41.979  25.774  27.903  1.00  0.00     0.037 A 
ATOM     61  C   UNL A   1      45.580  31.211  28.042  1.00  0.00     0.049 A 
ATOM     62  C   UNL A   1      43.303  26.153  27.295  1.00  0.00     0.074 A 
ATOM     63  C   UNL A   1      46.840  31.414  27.507  1.00  0.00     0.029 A 
ATOM     64  N   UNL A   1      45.212  29.914  27.718  1.00  0.00    -0.354 N 
ATOM     65  N   UNL A   1      43.968  27.280  27.393  1.00  0.00    -0.248 NA
ATOM     66  C   UNL A   1      43.973  25.133  26.474  1.00  0.00     0.031 C 
ATOM     67  C   UNL A   1      47.210  30.258  26.811  1.00  0.00     0.029 A 
ATOM     68  C   UNL A   1      46.208  29.314  26.967  1.00  0.00     0.049 A 
ATOM     69  H   UNL A   1      44.366  29.484  27.983  1.00  0.00     0.167 HD
ATOM     70  C   UNL A   1      45.144  27.094  26.675  1.00  0.00     0.074 A 
ATOM     71  C   UNL A   1      45.108  25.742  26.158  1.00  0.00     0.031 C 
ATOM     72  C   UNL A   1      46.163  27.963  26.464  1.00  0.00     0.037 A 
BRANCH  59  73
ATOM     73  C   UNL A   1      45.286  33.522  29.019  1.00  0.00     0.057 A 
ATOM     74  C   UNL A   1      45.013  34.573  28.134  1.00  0.00     0.134 A 
ATOM     75  C   UNL A   1      46.045  33.820  30.158  1.00  0.00     0.134 A 
ATOM     76  F   UNL A   1      44.303  34.355  27.016  1.00  0.00    -0.206 F 
ATOM     77  C   UNL A   1      45.496  35.864  28.360  1.00  0.00     0.040 A 
ATOM     78  C   UNL A   1      46.508  35.113  30.411  1.00  0.00     0.040 A 
ATOM     79  F   UNL A   1      46.338  32.864  31.052  1.00  0.00    -0.206 F 
ATOM     80  C   UNL A   1      46.240  36.138  29.506  1.00  0.00     0.006 A 
ENDBRANCH  59  73
BRANCH  60  81
ATOM     81  C   UNL A   1      41.391  24.432  27.661  1.00  0.00     0.057 A 
ATOM     82  C   UNL A   1      40.373  24.241  26.719  1.00  0.00     0.134 A 
ATOM     83  C   UNL A   1      41.819  23.310  28.382  1.00  0.00     0.134 A 
ATOM     84  F   UNL A   1      39.904  25.281  26.014  1.00  0.00    -0.206 F 
ATOM     85  C   UNL A   1      39.787  22.990  26.518  1.00  0.00     0.040 A 
ATOM     86  C   UNL A   1      41.263  22.047  28.171  1.00  0.00     0.040 A 
ATOM     87  F   UNL A   1      42.792  23.423  29.298  1.00  0.00    -0.206 F 
ATOM     88  C   UNL A   1      40.237  21.887  27.242  1.00  0.00     0.006 A 
ENDBRANCH  60  81
BRANCH  72  89
ATOM     89  C   UNL A   1      47.343  27.468  25.675  1.00  0.00     0.057 A 
ATOM     90  C   UNL A   1      48.444  26.856  26.288  1.00  0.00     0.134 A 
ATOM     91  C   UNL A   1      47.358  27.571  24.277  1.00  0.00     0.134 A 
ATOM     92  F   UNL A   1      48.499  26.736  27.623  1.00  0.00    -0.206 F 
ATOM     93  C   UNL A   1      49.527  26.389  25.542  1.00  0.00     0.040 A 
ATOM     94  C   UNL A   1      48.421  27.080  23.519  1.00  0.00     0.040 A 
ATOM     95  F   UNL A   1      46.331  28.137  23.625  1.00  0.00    -0.206 F 
ATOM     96  C   UNL A   1      49.514  26.493  24.153  1.00  0.00     0.006 A 
ENDBRANCH  72  89
ENDBRANCH  46  47
ENDBRANCH  39  41
ENDBRANCH  38  39
ENDBRANCH  37  38
ENDBRANCH  36  37
ENDBRANCH  35  36
ENDBRANCH  34  35
ENDBRANCH  33  34
ENDBRANCH   1  33
TORSDOF 22
ENDMDL
