MODEL 1
REMARK VINA RESULT:     -12.9      0.000      0.000
REMARK SMILES O=C1O[C@@H](c2ccc(O)c(O)c2)[C@H](C(=O)OCCOCCOC(=O)c2ccc(-c3c4nc(c(-c5c(F)cccc5F)c5ccc([nH]5)c(-c5c(F)cccc5F)c5nc(c(-c6c(F)cccc6F)c6ccc3[nH]6)C=C5)C=C4)cc2)/C1=C\c1ccc(O)c(O)c1
REMARK SMILES IDX 19 1 18 2 17 3 16 4 14 5 15 6 13 7 1 8 2 9 3 10 79 11 4 12
REMARK SMILES IDX 80 13 5 14 6 15 12 16 7 17 10 18 8 19 11 20 9 22 81 24 82 25
REMARK SMILES IDX 88 26 83 27 86 28 84 29 87 30 85 32 20 34 21 35 22 36 23 37
REMARK SMILES IDX 24 38 25 39 26 40 78 41 27 42 77 43 28 44 29 45 30 46 71 47
REMARK SMILES IDX 31 48 76 49 70 50 72 51 32 52 75 53 69 54 68 55 33 57 59 58
REMARK SMILES IDX 42 59 58 60 43 61 46 62 57 63 73 64 44 65 45 66 56 68 74 69
REMARK SMILES IDX 47 70 34 71 35 72 40 73 36 74 37 75 39 76 41 77 38 78 60 79
REMARK SMILES IDX 61 80 66 81 62 82 63 83 65 84 67 85 64 86 48 87 49 88 54 89
REMARK SMILES IDX 50 90 51 91 53 92 55 93 52 94
REMARK H PARENT 11 21 9 23 87 31 85 33 72 56 46 67
REMARK Flexibility Score: inf
ROOT
ATOM      1  O   UNL A   1      40.665  21.194  26.741  1.00  0.00    -0.374 OA
ENDROOT
BRANCH   1   2
ATOM      2  C   UNL A   1      39.502  21.202  25.922  1.00  0.00     0.202 C 
BRANCH   2   3
ATOM      3  C   UNL A   1      38.531  22.375  26.054  1.00  0.00     0.261 C 
BRANCH   3   4
ATOM      4  O   UNL A   1      37.171  21.935  25.893  1.00  0.00    -0.463 OA
BRANCH   4   5
ATOM      5  C   UNL A   1      36.247  22.938  25.829  1.00  0.00     0.317 C 
ATOM      6  O   UNL A   1      36.454  24.099  26.152  1.00  0.00    -0.251 OA
BRANCH   5   7
ATOM      7  C   UNL A   1      34.943  22.402  25.261  1.00  0.00     0.182 C 
ATOM      8  O   UNL A   1      32.883  22.462  28.147  1.00  0.00    -0.247 OA
ATOM      9  C   UNL A   1      33.572  22.180  27.181  1.00  0.00     0.335 C 
ATOM     10  O   UNL A   1      34.250  21.012  27.006  1.00  0.00    -0.453 OA
ATOM     11  C   UNL A   1      33.809  23.028  25.992  1.00  0.00     0.056 C 
ATOM     12  C   UNL A   1      34.816  20.951  25.682  1.00  0.00     0.226 C 
ATOM     13  C   UNL A   1      33.065  24.121  25.753  1.00  0.00     0.020 C 
BRANCH  12  14
ATOM     14  C   UNL A   1      33.970  20.085  24.755  1.00  0.00    -0.002 A 
ATOM     15  C   UNL A   1      32.961  20.660  23.954  1.00  0.00     0.012 A 
ATOM     16  C   UNL A   1      34.219  18.708  24.624  1.00  0.00     0.057 A 
ATOM     17  C   UNL A   1      32.206  19.877  23.068  1.00  0.00     0.050 A 
ATOM     18  C   UNL A   1      33.469  17.942  23.742  1.00  0.00     0.157 A 
ATOM     19  C   UNL A   1      32.468  18.518  22.969  1.00  0.00     0.157 A 
BRANCH  18  20
ATOM     20  O   UNL A   1      33.738  16.609  23.631  1.00  0.00    -0.504 OA
ATOM     21  H   UNL A   1      34.539  16.262  23.973  1.00  0.00     0.293 HD
ENDBRANCH  18  20
BRANCH  19  22
ATOM     22  O   UNL A   1      31.778  17.703  22.116  1.00  0.00    -0.504 OA
ATOM     23  H   UNL A   1      32.158  17.455  21.296  1.00  0.00     0.293 HD
ENDBRANCH  19  22
ENDBRANCH  12  14
BRANCH  13  24
ATOM     24  C   UNL A   1      33.182  25.010  24.594  1.00  0.00    -0.021 A 
ATOM     25  C   UNL A   1      33.553  26.356  24.753  1.00  0.00     0.012 A 
ATOM     26  C   UNL A   1      32.990  24.501  23.304  1.00  0.00     0.058 A 
ATOM     27  C   UNL A   1      33.709  27.193  23.639  1.00  0.00     0.051 A 
ATOM     28  C   UNL A   1      33.138  25.343  22.205  1.00  0.00     0.157 A 
ATOM     29  C   UNL A   1      33.487  26.680  22.368  1.00  0.00     0.157 A 
BRANCH  28  30
ATOM     30  O   UNL A   1      32.904  24.849  20.953  1.00  0.00    -0.504 OA
ATOM     31  H   UNL A   1      32.769  23.929  20.830  1.00  0.00     0.293 HD
ENDBRANCH  28  30
BRANCH  29  32
ATOM     32  O   UNL A   1      33.577  27.455  21.246  1.00  0.00    -0.504 OA
ATOM     33  H   UNL A   1      34.407  27.800  20.981  1.00  0.00     0.293 HD
ENDBRANCH  29  32
ENDBRANCH  13  24
ENDBRANCH   5   7
ENDBRANCH   4   5
ENDBRANCH   3   4
ENDBRANCH   2   3
ENDBRANCH   1   2
BRANCH   1  34
ATOM     34  C   UNL A   1      41.863  20.622  26.232  1.00  0.00     0.202 C 
BRANCH  34  35
ATOM     35  C   UNL A   1      42.993  21.547  25.762  1.00  0.00     0.261 C 
BRANCH  35  36
ATOM     36  O   UNL A   1      42.537  22.732  25.102  1.00  0.00    -0.460 OA
BRANCH  36  37
ATOM     37  C   UNL A   1      43.389  23.780  25.218  1.00  0.00     0.338 C 
ATOM     38  O   UNL A   1      44.428  23.973  24.611  1.00  0.00    -0.246 OA
BRANCH  37  39
ATOM     39  C   UNL A   1      42.781  24.784  26.101  1.00  0.00     0.060 A 
ATOM     40  C   UNL A   1      43.387  26.045  26.172  1.00  0.00     0.016 A 
ATOM     41  C   UNL A   1      41.666  24.473  26.879  1.00  0.00     0.016 A 
ATOM     42  C   UNL A   1      42.891  27.001  27.051  1.00  0.00     0.010 A 
ATOM     43  C   UNL A   1      41.181  25.427  27.771  1.00  0.00     0.010 A 
ATOM     44  C   UNL A   1      41.810  26.681  27.880  1.00  0.00    -0.014 A 
BRANCH  44  45
ATOM     45  C   UNL A   1      41.432  27.592  28.979  1.00  0.00     0.031 A 
ATOM     46  C   UNL A   1      42.193  27.511  30.270  1.00  0.00     0.074 A 
ATOM     47  C   UNL A   1      40.424  28.467  28.826  1.00  0.00     0.049 A 
ATOM     48  N   UNL A   1      41.968  28.120  31.404  1.00  0.00    -0.248 NA
ATOM     49  C   UNL A   1      43.359  26.612  30.286  1.00  0.00     0.031 C 
ATOM     50  C   UNL A   1      39.654  28.662  27.599  1.00  0.00     0.029 A 
ATOM     51  N   UNL A   1      39.866  29.342  29.721  1.00  0.00    -0.354 N 
ATOM     52  C   UNL A   1      42.954  27.667  32.273  1.00  0.00     0.074 A 
ATOM     53  C   UNL A   1      43.760  26.713  31.545  1.00  0.00     0.031 C 
ATOM     54  C   UNL A   1      38.705  29.587  27.825  1.00  0.00     0.029 A 
ATOM     55  C   UNL A   1      38.777  30.013  29.221  1.00  0.00     0.049 A 
ATOM     56  H   UNL A   1      40.212  29.478  30.632  1.00  0.00     0.167 HD
ATOM     57  C   UNL A   1      43.167  28.025  33.560  1.00  0.00     0.037 A 
ATOM     58  C   UNL A   1      37.919  30.848  29.837  1.00  0.00     0.037 A 
ATOM     59  C   UNL A   1      42.358  28.980  34.270  1.00  0.00     0.049 A 
ATOM     60  C   UNL A   1      38.128  31.169  31.293  1.00  0.00     0.074 A 
ATOM     61  C   UNL A   1      42.498  29.429  35.570  1.00  0.00     0.029 A 
ATOM     62  N   UNL A   1      41.251  29.625  33.737  1.00  0.00    -0.354 N 
ATOM     63  N   UNL A   1      39.071  30.752  32.106  1.00  0.00    -0.248 NA
ATOM     64  C   UNL A   1      37.153  32.072  31.921  1.00  0.00     0.031 C 
ATOM     65  C   UNL A   1      41.440  30.301  35.844  1.00  0.00     0.029 A 
ATOM     66  C   UNL A   1      40.680  30.446  34.694  1.00  0.00     0.049 A 
ATOM     67  H   UNL A   1      40.922  29.515  32.817  1.00  0.00     0.167 HD
ATOM     68  C   UNL A   1      38.825  31.370  33.326  1.00  0.00     0.074 A 
ATOM     69  C   UNL A   1      37.646  32.192  33.146  1.00  0.00     0.031 C 
ATOM     70  C   UNL A   1      39.514  31.269  34.489  1.00  0.00     0.037 A 
BRANCH  57  71
ATOM     71  C   UNL A   1      44.294  27.356  34.290  1.00  0.00     0.057 A 
ATOM     72  C   UNL A   1      45.574  27.921  34.364  1.00  0.00     0.134 A 
ATOM     73  C   UNL A   1      44.087  26.141  34.957  1.00  0.00     0.134 A 
ATOM     74  F   UNL A   1      45.844  29.076  33.735  1.00  0.00    -0.206 F 
ATOM     75  C   UNL A   1      46.612  27.292  35.054  1.00  0.00     0.040 A 
ATOM     76  C   UNL A   1      45.108  25.517  35.674  1.00  0.00     0.040 A 
ATOM     77  F   UNL A   1      42.886  25.544  34.928  1.00  0.00    -0.206 F 
ATOM     78  C   UNL A   1      46.377  26.090  35.719  1.00  0.00     0.006 A 
ENDBRANCH  57  71
BRANCH  58  79
ATOM     79  C   UNL A   1      36.774  31.423  29.086  1.00  0.00     0.057 A 
ATOM     80  C   UNL A   1      36.772  32.761  28.679  1.00  0.00     0.134 A 
ATOM     81  C   UNL A   1      35.649  30.651  28.770  1.00  0.00     0.134 A 
ATOM     82  F   UNL A   1      37.812  33.556  28.970  1.00  0.00    -0.206 F 
ATOM     83  C   UNL A   1      35.686  33.317  28.002  1.00  0.00     0.040 A 
ATOM     84  C   UNL A   1      34.567  31.186  28.067  1.00  0.00     0.040 A 
ATOM     85  F   UNL A   1      35.589  29.359  29.127  1.00  0.00    -0.206 F 
ATOM     86  C   UNL A   1      34.582  32.527  27.689  1.00  0.00     0.006 A 
ENDBRANCH  58  79
BRANCH  70  87
ATOM     87  C   UNL A   1      39.049  32.105  35.647  1.00  0.00     0.057 A 
ATOM     88  C   UNL A   1      38.238  31.583  36.660  1.00  0.00     0.134 A 
ATOM     89  C   UNL A   1      39.485  33.430  35.782  1.00  0.00     0.134 A 
ATOM     90  F   UNL A   1      37.778  30.325  36.585  1.00  0.00    -0.206 F 
ATOM     91  C   UNL A   1      37.863  32.355  37.761  1.00  0.00     0.040 A 
ATOM     92  C   UNL A   1      39.142  34.202  36.892  1.00  0.00     0.040 A 
ATOM     93  F   UNL A   1      40.274  33.987  34.851  1.00  0.00    -0.206 F 
ATOM     94  C   UNL A   1      38.324  33.665  37.885  1.00  0.00     0.006 A 
ENDBRANCH  70  87
ENDBRANCH  44  45
ENDBRANCH  37  39
ENDBRANCH  36  37
ENDBRANCH  35  36
ENDBRANCH  34  35
ENDBRANCH   1  34
TORSDOF 20
ENDMDL
MODEL 2
REMARK VINA RESULT:     -12.6      4.451      9.762
REMARK SMILES O=C1O[C@@H](c2ccc(O)c(O)c2)[C@H](C(=O)OCCOCCOC(=O)c2ccc(-c3c4nc(c(-c5c(F)cccc5F)c5ccc([nH]5)c(-c5c(F)cccc5F)c5nc(c(-c6c(F)cccc6F)c6ccc3[nH]6)C=C5)C=C4)cc2)/C1=C\c1ccc(O)c(O)c1
REMARK SMILES IDX 19 1 18 2 17 3 16 4 14 5 15 6 13 7 1 8 2 9 3 10 79 11 4 12
REMARK SMILES IDX 80 13 5 14 6 15 12 16 7 17 10 18 8 19 11 20 9 22 81 24 82 25
REMARK SMILES IDX 88 26 83 27 86 28 84 29 87 30 85 32 20 34 21 35 22 36 23 37
REMARK SMILES IDX 24 38 25 39 26 40 78 41 27 42 77 43 28 44 29 45 30 46 71 47
REMARK SMILES IDX 31 48 76 49 70 50 72 51 32 52 75 53 69 54 68 55 33 57 59 58
REMARK SMILES IDX 42 59 58 60 43 61 46 62 57 63 73 64 44 65 45 66 56 68 74 69
REMARK SMILES IDX 47 70 34 71 35 72 40 73 36 74 37 75 39 76 41 77 38 78 60 79
REMARK SMILES IDX 61 80 66 81 62 82 63 83 65 84 67 85 64 86 48 87 49 88 54 89
REMARK SMILES IDX 50 90 51 91 53 92 55 93 52 94
REMARK H PARENT 11 21 9 23 87 31 85 33 72 56 46 67
REMARK Flexibility Score: inf
ROOT
ATOM      1  O   UNL A   1      33.464  32.780  28.383  1.00  0.00    -0.374 OA
ENDROOT
BRANCH   1   2
ATOM      2  C   UNL A   1      34.083  31.660  27.761  1.00  0.00     0.202 C 
BRANCH   2   3
ATOM      3  C   UNL A   1      33.214  30.453  27.410  1.00  0.00     0.261 C 
BRANCH   3   4
ATOM      4  O   UNL A   1      33.427  30.047  26.048  1.00  0.00    -0.463 OA
BRANCH   4   5
ATOM      5  C   UNL A   1      33.627  28.708  25.872  1.00  0.00     0.317 C 
ATOM      6  O   UNL A   1      34.579  28.081  26.315  1.00  0.00    -0.251 OA
BRANCH   5   7
ATOM      7  C   UNL A   1      32.473  28.113  25.082  1.00  0.00     0.182 C 
ATOM      8  O   UNL A   1      33.956  27.786  21.877  1.00  0.00    -0.247 OA
ATOM      9  C   UNL A   1      33.301  28.083  22.862  1.00  0.00     0.335 C 
ATOM     10  O   UNL A   1      32.681  29.279  23.069  1.00  0.00    -0.453 OA
ATOM     11  C   UNL A   1      33.024  27.218  24.030  1.00  0.00     0.056 C 
ATOM     12  C   UNL A   1      31.859  29.223  24.251  1.00  0.00     0.226 C 
ATOM     13  C   UNL A   1      33.275  25.899  23.997  1.00  0.00     0.020 C 
BRANCH  12  14
ATOM     14  C   UNL A   1      30.389  29.024  23.898  1.00  0.00    -0.002 A 
ATOM     15  C   UNL A   1      29.611  30.099  23.419  1.00  0.00     0.012 A 
ATOM     16  C   UNL A   1      29.793  27.753  23.974  1.00  0.00     0.057 A 
ATOM     17  C   UNL A   1      28.270  29.915  23.053  1.00  0.00     0.050 A 
ATOM     18  C   UNL A   1      28.466  27.581  23.605  1.00  0.00     0.157 A 
ATOM     19  C   UNL A   1      27.705  28.651  23.149  1.00  0.00     0.157 A 
BRANCH  18  20
ATOM     20  O   UNL A   1      27.915  26.335  23.683  1.00  0.00    -0.504 OA
ATOM     21  H   UNL A   1      27.014  26.234  23.921  1.00  0.00     0.293 HD
ENDBRANCH  18  20
BRANCH  19  22
ATOM     22  O   UNL A   1      26.409  28.403  22.795  1.00  0.00    -0.504 OA
ATOM     23  H   UNL A   1      25.784  29.101  22.788  1.00  0.00     0.293 HD
ENDBRANCH  19  22
ENDBRANCH  12  14
BRANCH  13  24
ATOM     24  C   UNL A   1      33.008  24.940  25.073  1.00  0.00    -0.021 A 
ATOM     25  C   UNL A   1      34.047  24.183  25.639  1.00  0.00     0.012 A 
ATOM     26  C   UNL A   1      31.713  24.823  25.594  1.00  0.00     0.058 A 
ATOM     27  C   UNL A   1      33.796  23.301  26.699  1.00  0.00     0.051 A 
ATOM     28  C   UNL A   1      31.472  23.938  26.641  1.00  0.00     0.157 A 
ATOM     29  C   UNL A   1      32.501  23.175  27.186  1.00  0.00     0.157 A 
BRANCH  28  30
ATOM     30  O   UNL A   1      30.199  23.797  27.113  1.00  0.00    -0.504 OA
ATOM     31  H   UNL A   1      29.472  24.080  26.592  1.00  0.00     0.293 HD
ENDBRANCH  28  30
BRANCH  29  32
ATOM     32  O   UNL A   1      32.183  22.300  28.186  1.00  0.00    -0.504 OA
ATOM     33  H   UNL A   1      32.258  21.377  28.041  1.00  0.00     0.293 HD
ENDBRANCH  29  32
ENDBRANCH  13  24
ENDBRANCH   5   7
ENDBRANCH   4   5
ENDBRANCH   3   4
ENDBRANCH   2   3
ENDBRANCH   1   2
BRANCH   1  34
ATOM     34  C   UNL A   1      34.281  33.763  29.004  1.00  0.00     0.202 C 
BRANCH  34  35
ATOM     35  C   UNL A   1      34.490  33.711  30.523  1.00  0.00     0.261 C 
BRANCH  35  36
ATOM     36  O   UNL A   1      34.512  32.385  31.061  1.00  0.00    -0.460 OA
BRANCH  36  37
ATOM     37  C   UNL A   1      35.453  32.205  32.020  1.00  0.00     0.338 C 
ATOM     38  O   UNL A   1      35.387  32.497  33.201  1.00  0.00    -0.246 OA
BRANCH  37  39
ATOM     39  C   UNL A   1      36.559  31.423  31.452  1.00  0.00     0.060 A 
ATOM     40  C   UNL A   1      37.566  30.985  32.322  1.00  0.00     0.016 A 
ATOM     41  C   UNL A   1      36.626  31.166  30.082  1.00  0.00     0.016 A 
ATOM     42  C   UNL A   1      38.669  30.307  31.817  1.00  0.00     0.010 A 
ATOM     43  C   UNL A   1      37.740  30.500  29.576  1.00  0.00     0.010 A 
ATOM     44  C   UNL A   1      38.777  30.097  30.437  1.00  0.00    -0.014 A 
BRANCH  44  45
ATOM     45  C   UNL A   1      40.045  29.599  29.867  1.00  0.00     0.031 A 
ATOM     46  C   UNL A   1      41.188  30.561  29.715  1.00  0.00     0.074 A 
ATOM     47  C   UNL A   1      40.167  28.317  29.486  1.00  0.00     0.049 A 
ATOM     48  N   UNL A   1      42.347  30.387  29.138  1.00  0.00    -0.248 NA
ATOM     49  C   UNL A   1      40.990  31.905  30.283  1.00  0.00     0.031 C 
ATOM     50  C   UNL A   1      39.139  27.290  29.635  1.00  0.00     0.029 A 
ATOM     51  N   UNL A   1      41.210  27.669  28.878  1.00  0.00    -0.354 N 
ATOM     52  C   UNL A   1      43.011  31.601  29.258  1.00  0.00     0.074 A 
ATOM     53  C   UNL A   1      42.116  32.512  29.938  1.00  0.00     0.031 C 
ATOM     54  C   UNL A   1      39.595  26.140  29.110  1.00  0.00     0.029 A 
ATOM     55  C   UNL A   1      40.927  26.365  28.552  1.00  0.00     0.049 A 
ATOM     56  H   UNL A   1      42.078  28.095  28.692  1.00  0.00     0.167 HD
ATOM     57  C   UNL A   1      44.258  31.921  28.844  1.00  0.00     0.037 A 
ATOM     58  C   UNL A   1      41.651  25.471  27.853  1.00  0.00     0.037 A 
ATOM     59  C   UNL A   1      45.138  31.002  28.172  1.00  0.00     0.049 A 
ATOM     60  C   UNL A   1      43.004  25.875  27.330  1.00  0.00     0.074 A 
ATOM     61  C   UNL A   1      46.429  31.216  27.727  1.00  0.00     0.029 A 
ATOM     62  N   UNL A   1      44.810  29.695  27.842  1.00  0.00    -0.354 N 
ATOM     63  N   UNL A   1      43.635  27.019  27.461  1.00  0.00    -0.248 NA
ATOM     64  C   UNL A   1      43.746  24.868  26.559  1.00  0.00     0.031 C 
ATOM     65  C   UNL A   1      46.861  30.057  27.074  1.00  0.00     0.029 A 
ATOM     66  C   UNL A   1      45.864  29.100  27.171  1.00  0.00     0.049 A 
ATOM     67  H   UNL A   1      43.955  29.256  28.055  1.00  0.00     0.167 HD
ATOM     68  C   UNL A   1      44.859  26.856  26.824  1.00  0.00     0.074 A 
ATOM     69  C   UNL A   1      44.884  25.502  26.309  1.00  0.00     0.031 C 
ATOM     70  C   UNL A   1      45.873  27.744  26.680  1.00  0.00     0.037 A 
BRANCH  57  71
ATOM     71  C   UNL A   1      44.728  33.327  29.073  1.00  0.00     0.057 A 
ATOM     72  C   UNL A   1      44.433  34.366  28.182  1.00  0.00     0.134 A 
ATOM     73  C   UNL A   1      45.463  33.652  30.221  1.00  0.00     0.134 A 
ATOM     74  F   UNL A   1      43.747  34.121  27.054  1.00  0.00    -0.206 F 
ATOM     75  C   UNL A   1      44.871  35.673  28.411  1.00  0.00     0.040 A 
ATOM     76  C   UNL A   1      45.880  34.958  30.477  1.00  0.00     0.040 A 
ATOM     77  F   UNL A   1      45.779  32.706  31.117  1.00  0.00    -0.206 F 
ATOM     78  C   UNL A   1      45.589  35.972  29.567  1.00  0.00     0.006 A 
ENDBRANCH  57  71
BRANCH  58  79
ATOM     79  C   UNL A   1      41.105  24.116  27.589  1.00  0.00     0.057 A 
ATOM     80  C   UNL A   1      41.591  22.994  28.268  1.00  0.00     0.134 A 
ATOM     81  C   UNL A   1      40.095  23.909  26.641  1.00  0.00     0.134 A 
ATOM     82  F   UNL A   1      42.572  23.125  29.172  1.00  0.00    -0.206 F 
ATOM     83  C   UNL A   1      41.105  21.712  28.002  1.00  0.00     0.040 A 
ATOM     84  C   UNL A   1      39.579  22.637  26.386  1.00  0.00     0.040 A 
ATOM     85  F   UNL A   1      39.581  24.944  25.959  1.00  0.00    -0.206 F 
ATOM     86  C   UNL A   1      40.092  21.533  27.062  1.00  0.00     0.006 A 
ENDBRANCH  58  79
BRANCH  70  87
ATOM     87  C   UNL A   1      47.118  27.272  25.985  1.00  0.00     0.057 A 
ATOM     88  C   UNL A   1      47.340  27.502  24.623  1.00  0.00     0.134 A 
ATOM     89  C   UNL A   1      48.138  26.644  26.712  1.00  0.00     0.134 A 
ATOM     90  F   UNL A   1      46.398  28.089  23.869  1.00  0.00    -0.206 F 
ATOM     91  C   UNL A   1      48.528  27.110  24.004  1.00  0.00     0.040 A 
ATOM     92  C   UNL A   1      49.342  26.275  26.112  1.00  0.00     0.040 A 
ATOM     93  F   UNL A   1      47.993  26.404  28.025  1.00  0.00    -0.206 F 
ATOM     94  C   UNL A   1      49.538  26.505  24.752  1.00  0.00     0.006 A 
ENDBRANCH  70  87
ENDBRANCH  44  45
ENDBRANCH  37  39
ENDBRANCH  36  37
ENDBRANCH  35  36
ENDBRANCH  34  35
ENDBRANCH   1  34
TORSDOF 20
ENDMDL
MODEL 3
REMARK VINA RESULT:     -12.6      1.960      7.219
REMARK SMILES O=C1O[C@@H](c2ccc(O)c(O)c2)[C@H](C(=O)OCCOCCOC(=O)c2ccc(-c3c4nc(c(-c5c(F)cccc5F)c5ccc([nH]5)c(-c5c(F)cccc5F)c5nc(c(-c6c(F)cccc6F)c6ccc3[nH]6)C=C5)C=C4)cc2)/C1=C\c1ccc(O)c(O)c1
REMARK SMILES IDX 19 1 18 2 17 3 16 4 14 5 15 6 13 7 1 8 2 9 3 10 79 11 4 12
REMARK SMILES IDX 80 13 5 14 6 15 12 16 7 17 10 18 8 19 11 20 9 22 81 24 82 25
REMARK SMILES IDX 88 26 83 27 86 28 84 29 87 30 85 32 20 34 21 35 22 36 23 37
REMARK SMILES IDX 24 38 25 39 26 40 78 41 27 42 77 43 28 44 29 45 30 46 71 47
REMARK SMILES IDX 31 48 76 49 70 50 72 51 32 52 75 53 69 54 68 55 33 57 59 58
REMARK SMILES IDX 42 59 58 60 43 61 46 62 57 63 73 64 44 65 45 66 56 68 74 69
REMARK SMILES IDX 47 70 34 71 35 72 40 73 36 74 37 75 39 76 41 77 38 78 60 79
REMARK SMILES IDX 61 80 66 81 62 82 63 83 65 84 67 85 64 86 48 87 49 88 54 89
REMARK SMILES IDX 50 90 51 91 53 92 55 93 52 94
REMARK H PARENT 11 21 9 23 87 31 85 33 72 56 46 67
REMARK Flexibility Score: inf
ROOT
ATOM      1  O   UNL A   1      33.412  28.129  25.132  1.00  0.00    -0.374 OA
ENDROOT
BRANCH   1   2
ATOM      2  C   UNL A   1      33.626  26.751  24.852  1.00  0.00     0.202 C 
BRANCH   2   3
ATOM      3  C   UNL A   1      33.353  25.735  25.961  1.00  0.00     0.261 C 
BRANCH   3   4
ATOM      4  O   UNL A   1      34.130  24.542  25.766  1.00  0.00    -0.463 OA
BRANCH   4   5
ATOM      5  C   UNL A   1      33.466  23.376  26.017  1.00  0.00     0.317 C 
ATOM      6  O   UNL A   1      32.532  23.260  26.798  1.00  0.00    -0.251 OA
BRANCH   5   7
ATOM      7  C   UNL A   1      34.033  22.263  25.151  1.00  0.00     0.182 C 
ATOM      8  O   UNL A   1      33.849  23.755  21.939  1.00  0.00    -0.247 OA
ATOM      9  C   UNL A   1      33.724  23.084  22.950  1.00  0.00     0.335 C 
ATOM     10  O   UNL A   1      32.610  22.384  23.303  1.00  0.00    -0.453 OA
ATOM     11  C   UNL A   1      34.747  22.870  23.997  1.00  0.00     0.056 C 
ATOM     12  C   UNL A   1      32.871  21.572  24.464  1.00  0.00     0.226 C 
ATOM     13  C   UNL A   1      36.031  23.211  23.799  1.00  0.00     0.020 C 
BRANCH  12  14
ATOM     14  C   UNL A   1      33.123  20.118  24.080  1.00  0.00    -0.002 A 
ATOM     15  C   UNL A   1      34.125  19.365  24.730  1.00  0.00     0.012 A 
ATOM     16  C   UNL A   1      32.321  19.473  23.123  1.00  0.00     0.057 A 
ATOM     17  C   UNL A   1      34.336  18.016  24.412  1.00  0.00     0.050 A 
ATOM     18  C   UNL A   1      32.535  18.135  22.819  1.00  0.00     0.157 A 
ATOM     19  C   UNL A   1      33.535  17.408  23.455  1.00  0.00     0.157 A 
BRANCH  18  20
ATOM     20  O   UNL A   1      31.737  17.533  21.890  1.00  0.00    -0.504 OA
ATOM     21  H   UNL A   1      31.735  17.840  21.004  1.00  0.00     0.293 HD
ENDBRANCH  18  20
BRANCH  19  22
ATOM     22  O   UNL A   1      33.680  16.094  23.110  1.00  0.00    -0.504 OA
ATOM     23  H   UNL A   1      33.885  15.458  23.766  1.00  0.00     0.293 HD
ENDBRANCH  19  22
ENDBRANCH  12  14
BRANCH  13  24
ATOM     24  C   UNL A   1      37.135  23.012  24.743  1.00  0.00    -0.021 A 
ATOM     25  C   UNL A   1      37.548  24.049  25.597  1.00  0.00     0.012 A 
ATOM     26  C   UNL A   1      37.743  21.755  24.849  1.00  0.00     0.058 A 
ATOM     27  C   UNL A   1      38.572  23.842  26.531  1.00  0.00     0.051 A 
ATOM     28  C   UNL A   1      38.765  21.562  25.773  1.00  0.00     0.157 A 
ATOM     29  C   UNL A   1      39.185  22.598  26.604  1.00  0.00     0.157 A 
BRANCH  28  30
ATOM     30  O   UNL A   1      39.383  20.347  25.837  1.00  0.00    -0.504 OA
ATOM     31  H   UNL A   1      39.945  20.069  25.140  1.00  0.00     0.293 HD
ENDBRANCH  28  30
BRANCH  29  32
ATOM     32  O   UNL A   1      40.220  22.346  27.460  1.00  0.00    -0.504 OA
ATOM     33  H   UNL A   1      40.046  22.159  28.362  1.00  0.00     0.293 HD
ENDBRANCH  29  32
ENDBRANCH  13  24
ENDBRANCH   5   7
ENDBRANCH   4   5
ENDBRANCH   3   4
ENDBRANCH   2   3
ENDBRANCH   1   2
BRANCH   1  34
ATOM     34  C   UNL A   1      32.081  28.625  25.182  1.00  0.00     0.202 C 
BRANCH  34  35
ATOM     35  C   UNL A   1      31.830  30.045  25.707  1.00  0.00     0.261 C 
BRANCH  35  36
ATOM     36  O   UNL A   1      32.302  30.262  27.040  1.00  0.00    -0.460 OA
BRANCH  36  37
ATOM     37  C   UNL A   1      32.912  31.462  27.210  1.00  0.00     0.338 C 
ATOM     38  O   UNL A   1      32.421  32.573  27.121  1.00  0.00    -0.246 OA
BRANCH  37  39
ATOM     39  C   UNL A   1      34.277  31.228  27.700  1.00  0.00     0.060 A 
ATOM     40  C   UNL A   1      34.643  29.913  28.015  1.00  0.00     0.016 A 
ATOM     41  C   UNL A   1      35.162  32.290  27.890  1.00  0.00     0.016 A 
ATOM     42  C   UNL A   1      35.898  29.655  28.553  1.00  0.00     0.010 A 
ATOM     43  C   UNL A   1      36.414  32.031  28.444  1.00  0.00     0.010 A 
ATOM     44  C   UNL A   1      36.773  30.719  28.804  1.00  0.00    -0.014 A 
BRANCH  44  45
ATOM     45  C   UNL A   1      38.000  30.490  29.592  1.00  0.00     0.031 A 
ATOM     46  C   UNL A   1      39.076  29.621  29.007  1.00  0.00     0.074 A 
ATOM     47  C   UNL A   1      38.145  31.043  30.808  1.00  0.00     0.049 A 
ATOM     48  N   UNL A   1      40.179  29.186  29.555  1.00  0.00    -0.248 NA
ATOM     49  C   UNL A   1      38.872  29.175  27.619  1.00  0.00     0.031 C 
ATOM     50  C   UNL A   1      37.186  31.941  31.448  1.00  0.00     0.029 A 
ATOM     51  N   UNL A   1      39.152  30.909  31.728  1.00  0.00    -0.354 N 
ATOM     52  C   UNL A   1      40.793  28.403  28.585  1.00  0.00     0.074 A 
ATOM     53  C   UNL A   1      39.928  28.399  27.427  1.00  0.00     0.031 C 
ATOM     54  C   UNL A   1      37.642  32.263  32.670  1.00  0.00     0.029 A 
ATOM     55  C   UNL A   1      38.901  31.560  32.911  1.00  0.00     0.049 A 
ATOM     56  H   UNL A   1      39.976  30.399  31.558  1.00  0.00     0.167 HD
ATOM     57  C   UNL A   1      41.977  27.752  28.658  1.00  0.00     0.037 A 
ATOM     58  C   UNL A   1      39.594  31.555  34.065  1.00  0.00     0.037 A 
ATOM     59  C   UNL A   1      42.829  27.768  29.818  1.00  0.00     0.049 A 
ATOM     60  C   UNL A   1      40.868  30.757  34.150  1.00  0.00     0.074 A 
ATOM     61  C   UNL A   1      44.058  27.160  29.991  1.00  0.00     0.029 A 
ATOM     62  N   UNL A   1      42.532  28.422  31.005  1.00  0.00    -0.354 N 
ATOM     63  N   UNL A   1      41.454  30.032  33.226  1.00  0.00    -0.248 NA
ATOM     64  C   UNL A   1      41.577  30.772  35.437  1.00  0.00     0.031 C 
ATOM     65  C   UNL A   1      44.478  27.395  31.304  1.00  0.00     0.029 A 
ATOM     66  C   UNL A   1      43.542  28.206  31.926  1.00  0.00     0.049 A 
ATOM     67  H   UNL A   1      41.724  28.960  31.167  1.00  0.00     0.167 HD
ATOM     68  C   UNL A   1      42.615  29.537  33.806  1.00  0.00     0.074 A 
ATOM     69  C   UNL A   1      42.653  30.047  35.162  1.00  0.00     0.031 C 
ATOM     70  C   UNL A   1      43.567  28.737  33.267  1.00  0.00     0.037 A 
BRANCH  57  71
ATOM     71  C   UNL A   1      42.400  26.943  27.468  1.00  0.00     0.057 A 
ATOM     72  C   UNL A   1      42.094  25.582  27.344  1.00  0.00     0.134 A 
ATOM     73  C   UNL A   1      43.100  27.544  26.413  1.00  0.00     0.134 A 
ATOM     74  F   UNL A   1      41.440  24.940  28.326  1.00  0.00    -0.206 F 
ATOM     75  C   UNL A   1      42.488  24.842  26.227  1.00  0.00     0.040 A 
ATOM     76  C   UNL A   1      43.473  26.824  25.278  1.00  0.00     0.040 A 
ATOM     77  F   UNL A   1      43.425  28.844  26.465  1.00  0.00    -0.206 F 
ATOM     78  C   UNL A   1      43.172  25.467  25.186  1.00  0.00     0.006 A 
ENDBRANCH  57  71
BRANCH  58  79
ATOM     79  C   UNL A   1      39.089  32.312  35.238  1.00  0.00     0.057 A 
ATOM     80  C   UNL A   1      39.377  33.671  35.402  1.00  0.00     0.134 A 
ATOM     81  C   UNL A   1      38.319  31.692  36.229  1.00  0.00     0.134 A 
ATOM     82  F   UNL A   1      40.127  34.316  34.497  1.00  0.00    -0.206 F 
ATOM     83  C   UNL A   1      38.933  34.382  36.519  1.00  0.00     0.040 A 
ATOM     84  C   UNL A   1      37.843  32.397  37.337  1.00  0.00     0.040 A 
ATOM     85  F   UNL A   1      38.002  30.392  36.130  1.00  0.00    -0.206 F 
ATOM     86  C   UNL A   1      38.159  33.746  37.487  1.00  0.00     0.006 A 
ENDBRANCH  58  79
BRANCH  70  87
ATOM     87  C   UNL A   1      44.758  28.401  34.118  1.00  0.00     0.057 A 
ATOM     88  C   UNL A   1      44.800  27.254  34.918  1.00  0.00     0.134 A 
ATOM     89  C   UNL A   1      45.906  29.204  34.074  1.00  0.00     0.134 A 
ATOM     90  F   UNL A   1      43.729  26.450  35.011  1.00  0.00    -0.206 F 
ATOM     91  C   UNL A   1      45.937  26.924  35.657  1.00  0.00     0.040 A 
ATOM     92  C   UNL A   1      47.058  28.869  34.785  1.00  0.00     0.040 A 
ATOM     93  F   UNL A   1      45.935  30.313  33.318  1.00  0.00    -0.206 F 
ATOM     94  C   UNL A   1      47.075  27.727  35.583  1.00  0.00     0.006 A 
ENDBRANCH  70  87
ENDBRANCH  44  45
ENDBRANCH  37  39
ENDBRANCH  36  37
ENDBRANCH  35  36
ENDBRANCH  34  35
ENDBRANCH   1  34
TORSDOF 20
ENDMDL
