MODEL 1
REMARK VINA RESULT:      -9.1      0.000      0.000
REMARK SMILES Cc1c(I)cccc1[C@H]([NH3+])C(=O)OCCOCCOC(=O)c1ccc(-c2c3nc(c(-c4c(F)cccc4F)c4ccc([nH]4)c(-c4c(F)cccc4F)c4nc(c(-c5c(F)cccc5F)c5ccc2[nH]5)C=C4)C=C3)cc1
REMARK SMILES IDX 17 1 16 2 15 3 14 4 13 5 11 6 12 7 9 8 8 9 1 10 2 11 3 12
REMARK SMILES IDX 4 13 5 14 7 15 6 16 10 17 18 21 19 22 20 23 21 24 22 25
REMARK SMILES IDX 23 26 75 27 24 28 74 29 25 30 26 31 27 32 68 33 28 34 73 35
REMARK SMILES IDX 67 36 69 37 29 38 72 39 66 40 65 41 30 43 56 44 39 45 55 46
REMARK SMILES IDX 40 47 43 48 54 49 70 50 41 51 42 52 53 54 71 55 44 56 31 57
REMARK SMILES IDX 32 58 37 59 33 60 34 61 36 62 38 63 35 64 57 65 58 66 63 67
REMARK SMILES IDX 59 68 60 69 62 70 64 71 61 72 45 73 46 74 51 75 47 76 48 77
REMARK SMILES IDX 50 78 52 79 49 80
REMARK H PARENT 10 18 10 19 10 20 69 42 43 53
REMARK Flexibility Score: inf
ROOT
ATOM      1  C   UNL A   1      42.005  19.841  26.482  1.00  0.00     0.202 C 
ENDROOT
BRANCH   1   2
ATOM      2  O   UNL A   1      42.419  19.157  25.303  1.00  0.00    -0.374 OA
BRANCH   2   3
ATOM      3  C   UNL A   1      43.754  18.673  25.235  1.00  0.00     0.202 C 
BRANCH   3   4
ATOM      4  C   UNL A   1      44.636  19.129  24.072  1.00  0.00     0.261 C 
BRANCH   4   5
ATOM      5  O   UNL A   1      44.578  20.531  23.788  1.00  0.00    -0.459 OA
BRANCH   5   6
ATOM      6  C   UNL A   1      45.400  21.318  24.548  1.00  0.00     0.369 C 
ATOM      7  O   UNL A   1      46.490  20.964  24.987  1.00  0.00    -0.245 OA
BRANCH   6   8
ATOM      8  C   UNL A   1      44.811  22.717  24.798  1.00  0.00     0.323 C 
BRANCH   8   9
ATOM      9  C   UNL A   1      45.175  23.404  26.128  1.00  0.00     0.025 A 
ATOM     10  C   UNL A   1      47.145  24.811  25.268  1.00  0.00     0.046 C 
ATOM     11  C   UNL A   1      46.290  24.256  26.378  1.00  0.00    -0.028 A 
ATOM     12  C   UNL A   1      46.575  24.615  27.720  1.00  0.00     0.016 A 
ATOM     13  I   UNL A   1      48.357  25.591  28.317  1.00  0.00    -0.044 I 
ATOM     14  C   UNL A   1      45.697  24.304  28.760  1.00  0.00     0.015 A 
ATOM     15  C   UNL A   1      44.270  23.181  27.199  1.00  0.00     0.011 A 
ATOM     16  C   UNL A   1      44.520  23.627  28.492  1.00  0.00     0.002 A 
ENDBRANCH   8   9
BRANCH   8  17
ATOM     17  N   UNL A   1      43.334  22.640  24.598  1.00  0.00    -0.342 N 
ATOM     18  H   UNL A   1      43.113  22.817  23.619  1.00  0.00     0.345 HD
ATOM     19  H   UNL A   1      42.874  23.339  25.182  1.00  0.00     0.345 HD
ATOM     20  H   UNL A   1      43.003  21.710  24.858  1.00  0.00     0.345 HD
ENDBRANCH   8  17
ENDBRANCH   6   8
ENDBRANCH   5   6
ENDBRANCH   4   5
ENDBRANCH   3   4
ENDBRANCH   2   3
ENDBRANCH   1   2
BRANCH   1  21
ATOM     21  C   UNL A   1      40.708  20.656  26.428  1.00  0.00     0.261 C 
BRANCH  21  22
ATOM     22  O   UNL A   1      40.924  22.025  26.048  1.00  0.00    -0.460 OA
BRANCH  22  23
ATOM     23  C   UNL A   1      39.902  22.872  26.320  1.00  0.00     0.338 C 
ATOM     24  O   UNL A   1      38.709  22.617  26.338  1.00  0.00    -0.246 OA
BRANCH  23  25
ATOM     25  C   UNL A   1      40.454  24.153  26.790  1.00  0.00     0.060 A 
ATOM     26  C   UNL A   1      40.538  25.251  25.933  1.00  0.00     0.016 A 
ATOM     27  C   UNL A   1      40.847  24.262  28.132  1.00  0.00     0.016 A 
ATOM     28  C   UNL A   1      40.999  26.470  26.430  1.00  0.00     0.010 A 
ATOM     29  C   UNL A   1      41.311  25.481  28.625  1.00  0.00     0.010 A 
ATOM     30  C   UNL A   1      41.373  26.598  27.780  1.00  0.00    -0.014 A 
BRANCH  30  31
ATOM     31  C   UNL A   1      41.722  27.929  28.329  1.00  0.00     0.031 A 
ATOM     32  C   UNL A   1      43.145  28.392  28.409  1.00  0.00     0.074 A 
ATOM     33  C   UNL A   1      40.726  28.722  28.771  1.00  0.00     0.049 A 
ATOM     34  N   UNL A   1      43.614  29.547  28.809  1.00  0.00    -0.248 NA
ATOM     35  C   UNL A   1      44.175  27.432  27.991  1.00  0.00     0.031 C 
ATOM     36  C   UNL A   1      39.307  28.365  28.772  1.00  0.00     0.029 A 
ATOM     37  N   UNL A   1      40.754  29.987  29.298  1.00  0.00    -0.354 N 
ATOM     38  C   UNL A   1      44.993  29.465  28.672  1.00  0.00     0.074 A 
ATOM     39  C   UNL A   1      45.287  28.125  28.202  1.00  0.00     0.031 C 
ATOM     40  C   UNL A   1      38.596  29.399  29.248  1.00  0.00     0.029 A 
ATOM     41  C   UNL A   1      39.511  30.475  29.617  1.00  0.00     0.049 A 
ATOM     42  H   UNL A   1      41.585  30.498  29.434  1.00  0.00     0.167 HD
ATOM     43  C   UNL A   1      45.923  30.424  28.898  1.00  0.00     0.037 A 
ATOM     44  C   UNL A   1      39.150  31.656  30.152  1.00  0.00     0.037 A 
ATOM     45  C   UNL A   1      45.623  31.745  29.396  1.00  0.00     0.049 A 
ATOM     46  C   UNL A   1      40.212  32.674  30.464  1.00  0.00     0.074 A 
ATOM     47  C   UNL A   1      46.494  32.794  29.638  1.00  0.00     0.029 A 
ATOM     48  N   UNL A   1      44.358  32.191  29.750  1.00  0.00    -0.354 N 
ATOM     49  N   UNL A   1      41.505  32.613  30.258  1.00  0.00    -0.248 NA
ATOM     50  C   UNL A   1      39.760  33.931  31.077  1.00  0.00     0.031 C 
ATOM     51  C   UNL A   1      45.764  33.851  30.194  1.00  0.00     0.029 A 
ATOM     52  C   UNL A   1      44.429  33.487  30.237  1.00  0.00     0.049 A 
ATOM     53  H   UNL A   1      43.530  31.663  29.668  1.00  0.00     0.167 HD
ATOM     54  C   UNL A   1      42.016  33.833  30.684  1.00  0.00     0.074 A 
ATOM     55  C   UNL A   1      40.890  34.619  31.145  1.00  0.00     0.031 C 
ATOM     56  C   UNL A   1      43.302  34.263  30.690  1.00  0.00     0.037 A 
BRANCH  43  57
ATOM     57  C   UNL A   1      47.358  30.073  28.620  1.00  0.00     0.057 A 
ATOM     58  C   UNL A   1      48.179  29.555  29.630  1.00  0.00     0.134 A 
ATOM     59  C   UNL A   1      47.936  30.276  27.361  1.00  0.00     0.134 A 
ATOM     60  F   UNL A   1      47.695  29.345  30.863  1.00  0.00    -0.206 F 
ATOM     61  C   UNL A   1      49.520  29.247  29.394  1.00  0.00     0.040 A 
ATOM     62  C   UNL A   1      49.269  29.945  27.104  1.00  0.00     0.040 A 
ATOM     63  F   UNL A   1      47.206  30.767  26.347  1.00  0.00    -0.206 F 
ATOM     64  C   UNL A   1      50.066  29.433  28.126  1.00  0.00     0.006 A 
ENDBRANCH  43  57
BRANCH  44  65
ATOM     65  C   UNL A   1      37.719  31.951  30.421  1.00  0.00     0.057 A 
ATOM     66  C   UNL A   1      36.924  32.621  29.484  1.00  0.00     0.134 A 
ATOM     67  C   UNL A   1      37.106  31.536  31.609  1.00  0.00     0.134 A 
ATOM     68  F   UNL A   1      37.453  33.051  28.330  1.00  0.00    -0.206 F 
ATOM     69  C   UNL A   1      35.570  32.865  29.717  1.00  0.00     0.040 A 
ATOM     70  C   UNL A   1      35.746  31.747  31.843  1.00  0.00     0.040 A 
ATOM     71  F   UNL A   1      37.812  30.876  32.539  1.00  0.00    -0.206 F 
ATOM     72  C   UNL A   1      34.975  32.417  30.894  1.00  0.00     0.006 A 
ENDBRANCH  44  65
BRANCH  56  73
ATOM     73  C   UNL A   1      43.552  35.666  31.168  1.00  0.00     0.057 A 
ATOM     74  C   UNL A   1      43.655  35.942  32.537  1.00  0.00     0.134 A 
ATOM     75  C   UNL A   1      43.672  36.746  30.284  1.00  0.00     0.134 A 
ATOM     76  F   UNL A   1      43.543  34.958  33.442  1.00  0.00    -0.206 F 
ATOM     77  C   UNL A   1      43.867  37.238  33.010  1.00  0.00     0.040 A 
ATOM     78  C   UNL A   1      43.916  38.043  30.741  1.00  0.00     0.040 A 
ATOM     79  F   UNL A   1      43.600  36.550  28.958  1.00  0.00    -0.206 F 
ATOM     80  C   UNL A   1      44.007  38.292  32.109  1.00  0.00     0.006 A 
ENDBRANCH  56  73
ENDBRANCH  30  31
ENDBRANCH  23  25
ENDBRANCH  22  23
ENDBRANCH  21  22
ENDBRANCH   1  21
TORSDOF 16
ENDMDL
MODEL 2
REMARK VINA RESULT:      -9.1      5.520     10.716
REMARK SMILES Cc1c(I)cccc1[C@H]([NH3+])C(=O)OCCOCCOC(=O)c1ccc(-c2c3nc(c(-c4c(F)cccc4F)c4ccc([nH]4)c(-c4c(F)cccc4F)c4nc(c(-c5c(F)cccc5F)c5ccc2[nH]5)C=C4)C=C3)cc1
REMARK SMILES IDX 17 1 16 2 15 3 14 4 13 5 11 6 12 7 9 8 8 9 1 10 2 11 3 12
REMARK SMILES IDX 4 13 5 14 7 15 6 16 10 17 18 21 19 22 20 23 21 24 22 25
REMARK SMILES IDX 23 26 75 27 24 28 74 29 25 30 26 31 27 32 68 33 28 34 73 35
REMARK SMILES IDX 67 36 69 37 29 38 72 39 66 40 65 41 30 43 56 44 39 45 55 46
REMARK SMILES IDX 40 47 43 48 54 49 70 50 41 51 42 52 53 54 71 55 44 56 31 57
REMARK SMILES IDX 32 58 37 59 33 60 34 61 36 62 38 63 35 64 57 65 58 66 63 67
REMARK SMILES IDX 59 68 60 69 62 70 64 71 61 72 45 73 46 74 51 75 47 76 48 77
REMARK SMILES IDX 50 78 52 79 49 80
REMARK H PARENT 10 18 10 19 10 20 69 42 43 53
REMARK Flexibility Score: inf
ROOT
ATOM      1  C   UNL A   1      33.204  36.691  31.237  1.00  0.00     0.202 C 
ENDROOT
BRANCH   1   2
ATOM      2  O   UNL A   1      33.515  35.730  32.243  1.00  0.00    -0.374 OA
BRANCH   2   3
ATOM      3  C   UNL A   1      34.796  35.782  32.855  1.00  0.00     0.202 C 
BRANCH   3   4
ATOM      4  C   UNL A   1      35.284  34.557  33.630  1.00  0.00     0.261 C 
BRANCH   4   5
ATOM      5  O   UNL A   1      36.616  34.663  34.146  1.00  0.00    -0.459 OA
BRANCH   5   6
ATOM      6  C   UNL A   1      36.901  33.846  35.205  1.00  0.00     0.369 C 
ATOM      7  O   UNL A   1      36.120  33.591  36.117  1.00  0.00    -0.245 OA
BRANCH   6   8
ATOM      8  C   UNL A   1      38.324  33.264  35.136  1.00  0.00     0.323 C 
BRANCH   8   9
ATOM      9  C   UNL A   1      38.480  31.866  34.509  1.00  0.00     0.025 A 
ATOM     10  C   UNL A   1      40.590  31.143  35.784  1.00  0.00     0.046 C 
ATOM     11  C   UNL A   1      39.555  30.952  34.705  1.00  0.00    -0.028 A 
ATOM     12  C   UNL A   1      39.625  29.806  33.872  1.00  0.00     0.016 A 
ATOM     13  I   UNL A   1      41.304  28.518  33.791  1.00  0.00    -0.044 I 
ATOM     14  C   UNL A   1      38.583  29.470  33.005  1.00  0.00     0.015 A 
ATOM     15  C   UNL A   1      37.408  31.446  33.678  1.00  0.00     0.011 A 
ATOM     16  C   UNL A   1      37.453  30.267  32.942  1.00  0.00     0.002 A 
ENDBRANCH   8   9
BRANCH   8  17
ATOM     17  N   UNL A   1      38.919  33.330  36.503  1.00  0.00    -0.342 N 
ATOM     18  H   UNL A   1      38.173  33.340  37.199  1.00  0.00     0.345 HD
ATOM     19  H   UNL A   1      39.477  34.179  36.591  1.00  0.00     0.345 HD
ATOM     20  H   UNL A   1      39.514  32.516  36.655  1.00  0.00     0.345 HD
ENDBRANCH   8  17
ENDBRANCH   6   8
ENDBRANCH   5   6
ENDBRANCH   4   5
ENDBRANCH   3   4
ENDBRANCH   2   3
ENDBRANCH   1   2
BRANCH   1  21
ATOM     21  C   UNL A   1      33.015  36.198  29.799  1.00  0.00     0.261 C 
BRANCH  21  22
ATOM     22  O   UNL A   1      32.534  34.845  29.730  1.00  0.00    -0.460 OA
BRANCH  22  23
ATOM     23  C   UNL A   1      33.075  34.086  28.746  1.00  0.00     0.338 C 
ATOM     24  O   UNL A   1      32.618  33.874  27.634  1.00  0.00    -0.246 OA
BRANCH  23  25
ATOM     25  C   UNL A   1      34.431  33.678  29.146  1.00  0.00     0.060 A 
ATOM     26  C   UNL A   1      34.639  32.940  30.312  1.00  0.00     0.016 A 
ATOM     27  C   UNL A   1      35.505  34.003  28.305  1.00  0.00     0.016 A 
ATOM     28  C   UNL A   1      35.928  32.508  30.625  1.00  0.00     0.010 A 
ATOM     29  C   UNL A   1      36.792  33.574  28.622  1.00  0.00     0.010 A 
ATOM     30  C   UNL A   1      37.010  32.807  29.776  1.00  0.00    -0.014 A 
BRANCH  30  31
ATOM     31  C   UNL A   1      38.345  32.222  30.043  1.00  0.00     0.031 A 
ATOM     32  C   UNL A   1      39.360  32.943  30.876  1.00  0.00     0.074 A 
ATOM     33  C   UNL A   1      38.637  31.022  29.507  1.00  0.00     0.049 A 
ATOM     34  N   UNL A   1      40.550  32.545  31.250  1.00  0.00    -0.248 NA
ATOM     35  C   UNL A   1      38.995  34.286  31.346  1.00  0.00     0.031 C 
ATOM     36  C   UNL A   1      37.739  30.242  28.653  1.00  0.00     0.029 A 
ATOM     37  N   UNL A   1      39.764  30.247  29.603  1.00  0.00    -0.354 N 
ATOM     38  C   UNL A   1      41.071  33.577  32.019  1.00  0.00     0.074 A 
ATOM     39  C   UNL A   1      40.087  34.642  32.011  1.00  0.00     0.031 C 
ATOM     40  C   UNL A   1      38.339  29.086  28.327  1.00  0.00     0.029 A 
ATOM     41  C   UNL A   1      39.673  29.060  28.919  1.00  0.00     0.049 A 
ATOM     42  H   UNL A   1      40.562  30.515  30.114  1.00  0.00     0.167 HD
ATOM     43  C   UNL A   1      42.251  33.622  32.683  1.00  0.00     0.037 A 
ATOM     44  C   UNL A   1      40.568  28.064  28.781  1.00  0.00     0.037 A 
ATOM     45  C   UNL A   1      43.239  32.571  32.659  1.00  0.00     0.049 A 
ATOM     46  C   UNL A   1      41.899  28.175  29.469  1.00  0.00     0.074 A 
ATOM     47  C   UNL A   1      44.456  32.514  33.316  1.00  0.00     0.029 A 
ATOM     48  N   UNL A   1      43.132  31.400  31.921  1.00  0.00    -0.354 N 
ATOM     49  N   UNL A   1      42.350  29.122  30.255  1.00  0.00    -0.248 NA
ATOM     50  C   UNL A   1      42.847  27.072  29.253  1.00  0.00     0.031 C 
ATOM     51  C   UNL A   1      45.111  31.339  32.928  1.00  0.00     0.029 A 
ATOM     52  C   UNL A   1      44.274  30.631  32.082  1.00  0.00     0.049 A 
ATOM     53  H   UNL A   1      42.359  31.153  31.363  1.00  0.00     0.167 HD
ATOM     54  C   UNL A   1      43.617  28.714  30.655  1.00  0.00     0.074 A 
ATOM     55  C   UNL A   1      43.855  27.426  30.036  1.00  0.00     0.031 C 
ATOM     56  C   UNL A   1      44.501  29.348  31.464  1.00  0.00     0.037 A 
BRANCH  43  57
ATOM     57  C   UNL A   1      42.544  34.860  33.484  1.00  0.00     0.057 A 
ATOM     58  C   UNL A   1      42.271  34.909  34.857  1.00  0.00     0.134 A 
ATOM     59  C   UNL A   1      43.069  36.015  32.891  1.00  0.00     0.134 A 
ATOM     60  F   UNL A   1      41.757  33.843  35.490  1.00  0.00    -0.206 F 
ATOM     61  C   UNL A   1      42.514  36.059  35.610  1.00  0.00     0.040 A 
ATOM     62  C   UNL A   1      43.344  37.163  33.638  1.00  0.00     0.040 A 
ATOM     63  F   UNL A   1      43.357  36.037  31.580  1.00  0.00    -0.206 F 
ATOM     64  C   UNL A   1      43.061  37.188  35.002  1.00  0.00     0.006 A 
ENDBRANCH  43  57
BRANCH  44  65
ATOM     65  C   UNL A   1      40.235  26.867  27.967  1.00  0.00     0.057 A 
ATOM     66  C   UNL A   1      40.734  26.707  26.668  1.00  0.00     0.134 A 
ATOM     67  C   UNL A   1      39.438  25.839  28.483  1.00  0.00     0.134 A 
ATOM     68  F   UNL A   1      41.497  27.659  26.113  1.00  0.00    -0.206 F 
ATOM     69  C   UNL A   1      40.455  25.566  25.915  1.00  0.00     0.040 A 
ATOM     70  C   UNL A   1      39.176  24.679  27.752  1.00  0.00     0.040 A 
ATOM     71  F   UNL A   1      38.944  25.928  29.727  1.00  0.00    -0.206 F 
ATOM     72  C   UNL A   1      39.684  24.543  26.462  1.00  0.00     0.006 A 
ENDBRANCH  44  65
BRANCH  56  73
ATOM     73  C   UNL A   1      45.789  28.633  31.764  1.00  0.00     0.057 A 
ATOM     74  C   UNL A   1      46.904  28.802  30.933  1.00  0.00     0.134 A 
ATOM     75  C   UNL A   1      45.926  27.768  32.856  1.00  0.00     0.134 A 
ATOM     76  F   UNL A   1      46.843  29.611  29.864  1.00  0.00    -0.206 F 
ATOM     77  C   UNL A   1      48.106  28.135  31.176  1.00  0.00     0.040 A 
ATOM     78  C   UNL A   1      47.133  27.119  33.129  1.00  0.00     0.040 A 
ATOM     79  F   UNL A   1      44.903  27.573  33.702  1.00  0.00    -0.206 F 
ATOM     80  C   UNL A   1      48.225  27.298  32.283  1.00  0.00     0.006 A 
ENDBRANCH  56  73
ENDBRANCH  30  31
ENDBRANCH  23  25
ENDBRANCH  22  23
ENDBRANCH  21  22
ENDBRANCH   1  21
TORSDOF 16
ENDMDL
MODEL 3
REMARK VINA RESULT:      -9.0      0.362      6.486
REMARK SMILES Cc1c(I)cccc1[C@H]([NH3+])C(=O)OCCOCCOC(=O)c1ccc(-c2c3nc(c(-c4c(F)cccc4F)c4ccc([nH]4)c(-c4c(F)cccc4F)c4nc(c(-c5c(F)cccc5F)c5ccc2[nH]5)C=C4)C=C3)cc1
REMARK SMILES IDX 17 1 16 2 15 3 14 4 13 5 11 6 12 7 9 8 8 9 1 10 2 11 3 12
REMARK SMILES IDX 4 13 5 14 7 15 6 16 10 17 18 21 19 22 20 23 21 24 22 25
REMARK SMILES IDX 23 26 75 27 24 28 74 29 25 30 26 31 27 32 68 33 28 34 73 35
REMARK SMILES IDX 67 36 69 37 29 38 72 39 66 40 65 41 30 43 56 44 39 45 55 46
REMARK SMILES IDX 40 47 43 48 54 49 70 50 41 51 42 52 53 54 71 55 44 56 31 57
REMARK SMILES IDX 32 58 37 59 33 60 34 61 36 62 38 63 35 64 57 65 58 66 63 67
REMARK SMILES IDX 59 68 60 69 62 70 64 71 61 72 45 73 46 74 51 75 47 76 48 77
REMARK SMILES IDX 50 78 52 79 49 80
REMARK H PARENT 10 18 10 19 10 20 69 42 43 53
REMARK Flexibility Score: inf
ROOT
ATOM      1  C   UNL A   1      41.464  19.648  26.510  1.00  0.00     0.202 C 
ENDROOT
BRANCH   1   2
ATOM      2  O   UNL A   1      42.249  19.589  25.322  1.00  0.00    -0.374 OA
BRANCH   2   3
ATOM      3  C   UNL A   1      43.493  18.903  25.367  1.00  0.00     0.202 C 
BRANCH   3   4
ATOM      4  C   UNL A   1      44.530  19.202  24.284  1.00  0.00     0.261 C 
BRANCH   4   5
ATOM      5  O   UNL A   1      44.528  20.553  23.807  1.00  0.00    -0.459 OA
BRANCH   5   6
ATOM      6  C   UNL A   1      45.300  21.428  24.521  1.00  0.00     0.369 C 
ATOM      7  O   UNL A   1      46.450  21.203  24.886  1.00  0.00    -0.245 OA
BRANCH   6   8
ATOM      8  C   UNL A   1      44.569  22.748  24.823  1.00  0.00     0.323 C 
BRANCH   8   9
ATOM      9  C   UNL A   1      44.874  23.425  26.173  1.00  0.00     0.025 A 
ATOM     10  C   UNL A   1      46.898  24.816  25.420  1.00  0.00     0.046 C 
ATOM     11  C   UNL A   1      45.983  24.264  26.483  1.00  0.00    -0.028 A 
ATOM     12  C   UNL A   1      46.204  24.614  27.839  1.00  0.00     0.016 A 
ATOM     13  I   UNL A   1      47.964  25.569  28.529  1.00  0.00    -0.044 I 
ATOM     14  C   UNL A   1      45.272  24.308  28.833  1.00  0.00     0.015 A 
ATOM     15  C   UNL A   1      43.914  23.207  27.196  1.00  0.00     0.011 A 
ATOM     16  C   UNL A   1      44.103  23.644  28.502  1.00  0.00     0.002 A 
ENDBRANCH   8   9
BRANCH   8  17
ATOM     17  N   UNL A   1      43.106  22.522  24.631  1.00  0.00    -0.342 N 
ATOM     18  H   UNL A   1      42.607  22.781  25.482  1.00  0.00     0.345 HD
ATOM     19  H   UNL A   1      42.938  21.538  24.425  1.00  0.00     0.345 HD
ATOM     20  H   UNL A   1      42.772  23.094  23.855  1.00  0.00     0.345 HD
ENDBRANCH   8  17
ENDBRANCH   6   8
ENDBRANCH   5   6
ENDBRANCH   4   5
ENDBRANCH   3   4
ENDBRANCH   2   3
ENDBRANCH   1   2
BRANCH   1  21
ATOM     21  C   UNL A   1      40.259  20.596  26.534  1.00  0.00     0.261 C 
BRANCH  21  22
ATOM     22  O   UNL A   1      40.593  21.935  26.133  1.00  0.00    -0.460 OA
BRANCH  22  23
ATOM     23  C   UNL A   1      39.598  22.846  26.262  1.00  0.00     0.338 C 
ATOM     24  O   UNL A   1      38.396  22.649  26.184  1.00  0.00    -0.246 OA
BRANCH  23  25
ATOM     25  C   UNL A   1      40.174  24.125  26.707  1.00  0.00     0.060 A 
ATOM     26  C   UNL A   1      40.405  25.157  25.797  1.00  0.00     0.016 A 
ATOM     27  C   UNL A   1      40.438  24.303  28.072  1.00  0.00     0.016 A 
ATOM     28  C   UNL A   1      40.885  26.382  26.263  1.00  0.00     0.010 A 
ATOM     29  C   UNL A   1      40.921  25.526  28.534  1.00  0.00     0.010 A 
ATOM     30  C   UNL A   1      41.130  26.581  27.634  1.00  0.00    -0.014 A 
BRANCH  30  31
ATOM     31  C   UNL A   1      41.500  27.926  28.133  1.00  0.00     0.031 A 
ATOM     32  C   UNL A   1      40.461  28.890  28.619  1.00  0.00     0.074 A 
ATOM     33  C   UNL A   1      42.800  28.275  28.132  1.00  0.00     0.049 A 
ATOM     34  N   UNL A   1      40.622  30.081  29.139  1.00  0.00    -0.248 NA
ATOM     35  C   UNL A   1      39.059  28.466  28.501  1.00  0.00     0.031 C 
ATOM     36  C   UNL A   1      43.896  27.430  27.654  1.00  0.00     0.029 A 
ATOM     37  N   UNL A   1      43.421  29.424  28.550  1.00  0.00    -0.354 N 
ATOM     38  C   UNL A   1      39.347  30.543  29.433  1.00  0.00     0.074 A 
ATOM     39  C   UNL A   1      38.419  29.524  28.981  1.00  0.00     0.031 C 
ATOM     40  C   UNL A   1      45.058  28.078  27.832  1.00  0.00     0.029 A 
ATOM     41  C   UNL A   1      44.786  29.394  28.403  1.00  0.00     0.049 A 
ATOM     42  H   UNL A   1      42.935  30.196  28.920  1.00  0.00     0.167 HD
ATOM     43  C   UNL A   1      38.986  31.700  30.039  1.00  0.00     0.037 A 
ATOM     44  C   UNL A   1      45.713  30.326  28.692  1.00  0.00     0.037 A 
ATOM     45  C   UNL A   1      39.915  32.723  30.456  1.00  0.00     0.049 A 
ATOM     46  C   UNL A   1      45.276  31.631  29.295  1.00  0.00     0.074 A 
ATOM     47  C   UNL A   1      39.649  33.921  31.097  1.00  0.00     0.029 A 
ATOM     48  N   UNL A   1      41.286  32.678  30.252  1.00  0.00    -0.354 N 
ATOM     49  N   UNL A   1      44.074  32.026  29.638  1.00  0.00    -0.248 NA
ATOM     50  C   UNL A   1      46.331  32.621  29.557  1.00  0.00     0.031 C 
ATOM     51  C   UNL A   1      40.851  34.626  31.227  1.00  0.00     0.029 A 
ATOM     52  C   UNL A   1      41.876  33.840  30.727  1.00  0.00     0.049 A 
ATOM     53  H   UNL A   1      41.771  31.931  29.831  1.00  0.00     0.167 HD
ATOM     54  C   UNL A   1      44.232  33.292  30.187  1.00  0.00     0.074 A 
ATOM     55  C   UNL A   1      45.648  33.593  30.145  1.00  0.00     0.031 C 
ATOM     56  C   UNL A   1      43.287  34.129  30.684  1.00  0.00     0.037 A 
BRANCH  43  57
ATOM     57  C   UNL A   1      37.519  31.927  30.276  1.00  0.00     0.057 A 
ATOM     58  C   UNL A   1      36.896  31.450  31.436  1.00  0.00     0.134 A 
ATOM     59  C   UNL A   1      36.715  32.590  29.340  1.00  0.00     0.134 A 
ATOM     60  F   UNL A   1      37.602  30.794  32.370  1.00  0.00    -0.206 F 
ATOM     61  C   UNL A   1      35.530  31.630  31.659  1.00  0.00     0.040 A 
ATOM     62  C   UNL A   1      35.353  32.803  29.565  1.00  0.00     0.040 A 
ATOM     63  F   UNL A   1      37.247  33.075  28.208  1.00  0.00    -0.206 F 
ATOM     64  C   UNL A   1      34.756  32.317  30.726  1.00  0.00     0.006 A 
ENDBRANCH  43  57
BRANCH  44  65
ATOM     65  C   UNL A   1      47.150  30.059  28.426  1.00  0.00     0.057 A 
ATOM     66  C   UNL A   1      47.999  29.574  29.428  1.00  0.00     0.134 A 
ATOM     67  C   UNL A   1      47.698  30.251  27.153  1.00  0.00     0.134 A 
ATOM     68  F   UNL A   1      47.538  29.376  30.671  1.00  0.00    -0.206 F 
ATOM     69  C   UNL A   1      49.340  29.286  29.172  1.00  0.00     0.040 A 
ATOM     70  C   UNL A   1      49.030  29.939  26.875  1.00  0.00     0.040 A 
ATOM     71  F   UNL A   1      46.931  30.699  26.148  1.00  0.00    -0.206 F 
ATOM     72  C   UNL A   1      49.856  29.457  27.889  1.00  0.00     0.006 A 
ENDBRANCH  44  65
BRANCH  56  73
ATOM     73  C   UNL A   1      43.764  35.431  31.265  1.00  0.00     0.057 A 
ATOM     74  C   UNL A   1      43.820  36.584  30.473  1.00  0.00     0.134 A 
ATOM     75  C   UNL A   1      44.184  35.544  32.596  1.00  0.00     0.134 A 
ATOM     76  F   UNL A   1      43.440  36.547  29.186  1.00  0.00    -0.206 F 
ATOM     77  C   UNL A   1      44.278  37.801  30.981  1.00  0.00     0.040 A 
ATOM     78  C   UNL A   1      44.614  36.763  33.126  1.00  0.00     0.040 A 
ATOM     79  F   UNL A   1      44.141  34.483  33.416  1.00  0.00    -0.206 F 
ATOM     80  C   UNL A   1      44.667  37.894  32.315  1.00  0.00     0.006 A 
ENDBRANCH  56  73
ENDBRANCH  30  31
ENDBRANCH  23  25
ENDBRANCH  22  23
ENDBRANCH  21  22
ENDBRANCH   1  21
TORSDOF 16
ENDMDL
