MODEL 1
REMARK VINA RESULT:     -11.9      0.000      0.000
REMARK SMILES Cc1cc(C(=O)OCCOCCOC(=O)c2ccc(-c3c4nc(c(-c5c(F)cccc5F)c5ccc([nH]5)c(-c5c(F)cccc5F)c5nc(c(-c6c(F)cccc6F)c6ccc3[nH]6)C=C5)C=C4)cc2)c2cc([C@H]([NH3+])C(F)(F)F)ccc2n1
REMARK SMILES IDX 10 1 9 2 8 3 7 4 5 5 6 6 4 7 1 8 2 9 3 10 82 11 81 12 70 13
REMARK SMILES IDX 80 14 71 15 79 16 72 17 73 18 75 19 76 20 77 21 78 22 74 23
REMARK SMILES IDX 11 27 12 28 13 29 14 30 15 31 16 32 17 33 69 34 18 35 68 36
REMARK SMILES IDX 19 37 20 38 21 39 62 40 22 41 67 42 61 43 63 44 23 45 66 46
REMARK SMILES IDX 60 47 59 48 24 50 50 51 33 52 49 53 34 54 37 55 48 56 64 57
REMARK SMILES IDX 35 58 36 59 47 61 65 62 38 63 25 64 26 65 31 66 27 67 28 68
REMARK SMILES IDX 30 69 32 70 29 71 51 72 52 73 57 74 53 75 54 76 56 77 58 78
REMARK SMILES IDX 55 79 39 80 40 81 45 82 41 83 42 84 44 85 46 86 43 87
REMARK H PARENT 74 24 74 25 74 26 63 49 37 60
REMARK Flexibility Score: inf
ROOT
ATOM      1  O   UNL A   1      31.520  30.863  26.119  1.00  0.00    -0.374 OA
ENDROOT
BRANCH   1   2
ATOM      2  C   UNL A   1      32.225  30.056  27.064  1.00  0.00     0.202 C 
BRANCH   2   3
ATOM      3  C   UNL A   1      33.697  29.785  26.741  1.00  0.00     0.261 C 
BRANCH   3   4
ATOM      4  O   UNL A   1      33.904  28.396  26.436  1.00  0.00    -0.460 OA
BRANCH   4   5
ATOM      5  C   UNL A   1      33.563  28.026  25.178  1.00  0.00     0.338 C 
ATOM      6  O   UNL A   1      34.107  28.377  24.141  1.00  0.00    -0.246 OA
BRANCH   5   7
ATOM      7  C   UNL A   1      32.496  27.004  25.236  1.00  0.00     0.071 A 
ATOM      8  C   UNL A   1      31.815  23.679  26.876  1.00  0.00     0.067 C 
ATOM      9  C   UNL A   1      31.670  24.939  26.077  1.00  0.00     0.039 A 
ATOM     10  C   UNL A   1      32.709  25.847  25.985  1.00  0.00     0.039 A 
ATOM     11  N   UNL A   1      30.462  25.159  25.511  1.00  0.00    -0.253 NA
ATOM     12  C   UNL A   1      30.263  26.267  24.778  1.00  0.00     0.071 A 
ATOM     13  C   UNL A   1      31.269  27.222  24.566  1.00  0.00     0.015 A 
ATOM     14  C   UNL A   1      29.015  26.480  24.207  1.00  0.00     0.029 A 
ATOM     15  C   UNL A   1      31.000  28.310  23.696  1.00  0.00     0.021 A 
ATOM     16  C   UNL A   1      28.739  27.586  23.392  1.00  0.00     0.012 A 
ATOM     17  C   UNL A   1      29.743  28.503  23.093  1.00  0.00     0.019 A 
BRANCH  17  18
ATOM     18  C   UNL A   1      29.548  29.719  22.192  1.00  0.00     0.318 C 
BRANCH  18  19
ATOM     19  C   UNL A   1      28.770  30.914  22.831  1.00  0.00     0.445 C 
ATOM     20  F   UNL A   1      28.985  32.051  22.120  1.00  0.00    -0.165 F 
ATOM     21  F   UNL A   1      27.433  30.697  22.823  1.00  0.00    -0.165 F 
ATOM     22  F   UNL A   1      29.139  31.162  24.108  1.00  0.00    -0.165 F 
ENDBRANCH  18  19
BRANCH  18  23
ATOM     23  N   UNL A   1      30.855  30.077  21.577  1.00  0.00    -0.344 N 
ATOM     24  H   UNL A   1      30.813  31.033  21.222  1.00  0.00     0.345 HD
ATOM     25  H   UNL A   1      31.055  29.438  20.808  1.00  0.00     0.345 HD
ATOM     26  H   UNL A   1      31.592  30.007  22.278  1.00  0.00     0.345 HD
ENDBRANCH  18  23
ENDBRANCH  17  18
ENDBRANCH   5   7
ENDBRANCH   4   5
ENDBRANCH   3   4
ENDBRANCH   2   3
ENDBRANCH   1   2
BRANCH   1  27
ATOM     27  C   UNL A   1      31.222  32.208  26.498  1.00  0.00     0.202 C 
BRANCH  27  28
ATOM     28  C   UNL A   1      32.413  33.098  26.876  1.00  0.00     0.261 C 
BRANCH  28  29
ATOM     29  O   UNL A   1      32.191  33.808  28.108  1.00  0.00    -0.460 OA
BRANCH  29  30
ATOM     30  C   UNL A   1      33.219  34.596  28.502  1.00  0.00     0.338 C 
ATOM     31  O   UNL A   1      33.187  35.793  28.744  1.00  0.00    -0.246 OA
BRANCH  30  32
ATOM     32  C   UNL A   1      34.406  33.769  28.786  1.00  0.00     0.060 A 
ATOM     33  C   UNL A   1      34.191  32.484  29.300  1.00  0.00     0.016 A 
ATOM     34  C   UNL A   1      35.704  34.261  28.624  1.00  0.00     0.016 A 
ATOM     35  C   UNL A   1      35.271  31.703  29.702  1.00  0.00     0.010 A 
ATOM     36  C   UNL A   1      36.788  33.478  29.036  1.00  0.00     0.010 A 
ATOM     37  C   UNL A   1      36.573  32.211  29.609  1.00  0.00    -0.014 A 
BRANCH  37  38
ATOM     38  C   UNL A   1      37.692  31.474  30.243  1.00  0.00     0.031 A 
ATOM     39  C   UNL A   1      38.011  31.733  31.689  1.00  0.00     0.074 A 
ATOM     40  C   UNL A   1      38.399  30.567  29.547  1.00  0.00     0.049 A 
ATOM     41  N   UNL A   1      38.958  31.224  32.434  1.00  0.00    -0.248 NA
ATOM     42  C   UNL A   1      37.145  32.696  32.387  1.00  0.00     0.031 C 
ATOM     43  C   UNL A   1      38.164  30.204  28.151  1.00  0.00     0.029 A 
ATOM     44  N   UNL A   1      39.465  29.792  29.924  1.00  0.00    -0.354 N 
ATOM     45  C   UNL A   1      38.806  31.807  33.686  1.00  0.00     0.074 A 
ATOM     46  C   UNL A   1      37.697  32.731  33.591  1.00  0.00     0.031 C 
ATOM     47  C   UNL A   1      39.071  29.283  27.784  1.00  0.00     0.029 A 
ATOM     48  C   UNL A   1      39.964  29.013  28.910  1.00  0.00     0.049 A 
ATOM     49  H   UNL A   1      39.838  29.793  30.836  1.00  0.00     0.167 HD
ATOM     50  C   UNL A   1      39.520  31.585  34.815  1.00  0.00     0.037 A 
ATOM     51  C   UNL A   1      41.031  28.192  28.888  1.00  0.00     0.037 A 
ATOM     52  C   UNL A   1      40.626  30.668  34.909  1.00  0.00     0.049 A 
ATOM     53  C   UNL A   1      41.851  28.010  30.136  1.00  0.00     0.074 A 
ATOM     54  C   UNL A   1      41.401  30.358  36.012  1.00  0.00     0.029 A 
ATOM     55  N   UNL A   1      41.118  29.918  33.851  1.00  0.00    -0.354 N 
ATOM     56  N   UNL A   1      41.684  28.545  31.322  1.00  0.00    -0.248 NA
ATOM     57  C   UNL A   1      43.007  27.106  30.045  1.00  0.00     0.031 C 
ATOM     58  C   UNL A   1      42.392  29.456  35.612  1.00  0.00     0.029 A 
ATOM     59  C   UNL A   1      42.203  29.165  34.269  1.00  0.00     0.049 A 
ATOM     60  H   UNL A   1      40.751  29.921  32.938  1.00  0.00     0.167 HD
ATOM     61  C   UNL A   1      42.695  28.026  32.122  1.00  0.00     0.074 A 
ATOM     62  C   UNL A   1      43.464  27.125  31.289  1.00  0.00     0.031 C 
ATOM     63  C   UNL A   1      42.959  28.271  33.428  1.00  0.00     0.037 A 
BRANCH  50  64
ATOM     64  C   UNL A   1      39.138  32.372  36.034  1.00  0.00     0.057 A 
ATOM     65  C   UNL A   1      38.255  31.865  36.997  1.00  0.00     0.134 A 
ATOM     66  C   UNL A   1      39.671  33.649  36.255  1.00  0.00     0.134 A 
ATOM     67  F   UNL A   1      37.698  30.655  36.837  1.00  0.00    -0.206 F 
ATOM     68  C   UNL A   1      37.893  32.612  38.121  1.00  0.00     0.040 A 
ATOM     69  C   UNL A   1      39.337  34.394  37.387  1.00  0.00     0.040 A 
ATOM     70  F   UNL A   1      40.526  34.192  35.375  1.00  0.00    -0.206 F 
ATOM     71  C   UNL A   1      38.440  33.878  38.320  1.00  0.00     0.006 A 
ENDBRANCH  50  64
BRANCH  51  72
ATOM     72  C   UNL A   1      41.391  27.485  27.634  1.00  0.00     0.057 A 
ATOM     73  C   UNL A   1      42.196  28.092  26.664  1.00  0.00     0.134 A 
ATOM     74  C   UNL A   1      40.938  26.185  27.376  1.00  0.00     0.134 A 
ATOM     75  F   UNL A   1      42.643  29.344  26.844  1.00  0.00    -0.206 F 
ATOM     76  C   UNL A   1      42.528  27.437  25.476  1.00  0.00     0.040 A 
ATOM     77  C   UNL A   1      41.281  25.510  26.205  1.00  0.00     0.040 A 
ATOM     78  F   UNL A   1      40.165  25.549  28.269  1.00  0.00    -0.206 F 
ATOM     79  C   UNL A   1      42.074  26.140  25.248  1.00  0.00     0.006 A 
ENDBRANCH  51  72
BRANCH  63  80
ATOM     80  C   UNL A   1      44.110  27.534  34.048  1.00  0.00     0.057 A 
ATOM     81  C   UNL A   1      45.398  28.082  34.101  1.00  0.00     0.134 A 
ATOM     82  C   UNL A   1      43.917  26.277  34.636  1.00  0.00     0.134 A 
ATOM     83  F   UNL A   1      45.651  29.277  33.546  1.00  0.00    -0.206 F 
ATOM     84  C   UNL A   1      46.457  27.397  34.700  1.00  0.00     0.040 A 
ATOM     85  C   UNL A   1      44.963  25.594  35.259  1.00  0.00     0.040 A 
ATOM     86  F   UNL A   1      42.706  25.700  34.628  1.00  0.00    -0.206 F 
ATOM     87  C   UNL A   1      46.238  26.152  35.287  1.00  0.00     0.006 A 
ENDBRANCH  63  80
ENDBRANCH  37  38
ENDBRANCH  30  32
ENDBRANCH  29  30
ENDBRANCH  28  29
ENDBRANCH  27  28
ENDBRANCH   1  27
TORSDOF 17
ENDMDL
MODEL 2
REMARK VINA RESULT:     -11.7      0.503      6.149
REMARK SMILES Cc1cc(C(=O)OCCOCCOC(=O)c2ccc(-c3c4nc(c(-c5c(F)cccc5F)c5ccc([nH]5)c(-c5c(F)cccc5F)c5nc(c(-c6c(F)cccc6F)c6ccc3[nH]6)C=C5)C=C4)cc2)c2cc([C@H]([NH3+])C(F)(F)F)ccc2n1
REMARK SMILES IDX 10 1 9 2 8 3 7 4 5 5 6 6 4 7 1 8 2 9 3 10 82 11 81 12 70 13
REMARK SMILES IDX 80 14 71 15 79 16 72 17 73 18 75 19 76 20 77 21 78 22 74 23
REMARK SMILES IDX 11 27 12 28 13 29 14 30 15 31 16 32 17 33 69 34 18 35 68 36
REMARK SMILES IDX 19 37 20 38 21 39 62 40 22 41 67 42 61 43 63 44 23 45 66 46
REMARK SMILES IDX 60 47 59 48 24 50 50 51 33 52 49 53 34 54 37 55 48 56 64 57
REMARK SMILES IDX 35 58 36 59 47 61 65 62 38 63 25 64 26 65 31 66 27 67 28 68
REMARK SMILES IDX 30 69 32 70 29 71 51 72 52 73 57 74 53 75 54 76 56 77 58 78
REMARK SMILES IDX 55 79 39 80 40 81 45 82 41 83 42 84 44 85 46 86 43 87
REMARK H PARENT 74 24 74 25 74 26 63 49 37 60
REMARK Flexibility Score: inf
ROOT
ATOM      1  O   UNL A   1      31.805  30.837  26.226  1.00  0.00    -0.374 OA
ENDROOT
BRANCH   1   2
ATOM      2  C   UNL A   1      32.536  30.091  27.201  1.00  0.00     0.202 C 
BRANCH   2   3
ATOM      3  C   UNL A   1      33.964  29.704  26.809  1.00  0.00     0.261 C 
BRANCH   3   4
ATOM      4  O   UNL A   1      34.028  28.324  26.412  1.00  0.00    -0.460 OA
BRANCH   4   5
ATOM      5  C   UNL A   1      33.588  28.065  25.157  1.00  0.00     0.338 C 
ATOM      6  O   UNL A   1      34.025  28.539  24.118  1.00  0.00    -0.246 OA
BRANCH   5   7
ATOM      7  C   UNL A   1      32.563  27.000  25.203  1.00  0.00     0.071 A 
ATOM      8  C   UNL A   1      32.063  23.585  26.719  1.00  0.00     0.067 C 
ATOM      9  C   UNL A   1      31.845  24.870  25.979  1.00  0.00     0.039 A 
ATOM     10  C   UNL A   1      32.844  25.823  25.895  1.00  0.00     0.039 A 
ATOM     11  N   UNL A   1      30.612  25.065  25.459  1.00  0.00    -0.253 NA
ATOM     12  C   UNL A   1      30.347  26.194  24.779  1.00  0.00     0.071 A 
ATOM     13  C   UNL A   1      31.308  27.196  24.578  1.00  0.00     0.015 A 
ATOM     14  C   UNL A   1      29.075  26.380  24.255  1.00  0.00     0.029 A 
ATOM     15  C   UNL A   1      30.970  28.307  23.764  1.00  0.00     0.021 A 
ATOM     16  C   UNL A   1      28.731  27.506  23.496  1.00  0.00     0.012 A 
ATOM     17  C   UNL A   1      29.689  28.475  23.207  1.00  0.00     0.019 A 
BRANCH  17  18
ATOM     18  C   UNL A   1      29.419  29.718  22.364  1.00  0.00     0.318 C 
BRANCH  18  19
ATOM     19  C   UNL A   1      28.730  30.904  23.113  1.00  0.00     0.445 C 
ATOM     20  F   UNL A   1      27.470  30.557  23.485  1.00  0.00    -0.165 F 
ATOM     21  F   UNL A   1      29.395  31.228  24.248  1.00  0.00    -0.165 F 
ATOM     22  F   UNL A   1      28.634  32.021  22.359  1.00  0.00    -0.165 F 
ENDBRANCH  18  19
BRANCH  18  23
ATOM     23  N   UNL A   1      30.660  30.078  21.626  1.00  0.00    -0.344 N 
ATOM     24  H   UNL A   1      31.469  29.939  22.233  1.00  0.00     0.345 HD
ATOM     25  H   UNL A   1      30.614  31.055  21.340  1.00  0.00     0.345 HD
ATOM     26  H   UNL A   1      30.750  29.486  20.801  1.00  0.00     0.345 HD
ENDBRANCH  18  23
ENDBRANCH  17  18
ENDBRANCH   5   7
ENDBRANCH   4   5
ENDBRANCH   3   4
ENDBRANCH   2   3
ENDBRANCH   1   2
BRANCH   1  27
ATOM     27  C   UNL A   1      31.359  32.142  26.599  1.00  0.00     0.202 C 
BRANCH  27  28
ATOM     28  C   UNL A   1      32.446  33.175  26.923  1.00  0.00     0.261 C 
BRANCH  28  29
ATOM     29  O   UNL A   1      32.153  33.911  28.125  1.00  0.00    -0.460 OA
BRANCH  29  30
ATOM     30  C   UNL A   1      33.155  34.713  28.558  1.00  0.00     0.338 C 
ATOM     31  O   UNL A   1      33.110  35.917  28.757  1.00  0.00    -0.246 OA
BRANCH  30  32
ATOM     32  C   UNL A   1      34.320  33.896  28.946  1.00  0.00     0.060 A 
ATOM     33  C   UNL A   1      34.086  32.782  29.763  1.00  0.00     0.016 A 
ATOM     34  C   UNL A   1      35.622  34.249  28.583  1.00  0.00     0.016 A 
ATOM     35  C   UNL A   1      35.156  32.045  30.262  1.00  0.00     0.010 A 
ATOM     36  C   UNL A   1      36.697  33.512  29.093  1.00  0.00     0.010 A 
ATOM     37  C   UNL A   1      36.468  32.430  29.962  1.00  0.00    -0.014 A 
BRANCH  37  38
ATOM     38  C   UNL A   1      37.598  31.786  30.673  1.00  0.00     0.031 A 
ATOM     39  C   UNL A   1      38.396  30.724  29.967  1.00  0.00     0.074 A 
ATOM     40  C   UNL A   1      37.926  32.157  31.923  1.00  0.00     0.049 A 
ATOM     41  N   UNL A   1      39.402  30.013  30.406  1.00  0.00    -0.248 NA
ATOM     42  C   UNL A   1      38.004  30.426  28.581  1.00  0.00     0.031 C 
ATOM     43  C   UNL A   1      37.251  33.196  32.698  1.00  0.00     0.029 A 
ATOM     44  N   UNL A   1      38.908  31.694  32.759  1.00  0.00    -0.354 N 
ATOM     45  C   UNL A   1      39.761  29.180  29.353  1.00  0.00     0.074 A 
ATOM     46  C   UNL A   1      38.845  29.451  28.267  1.00  0.00     0.031 C 
ATOM     47  C   UNL A   1      37.833  33.282  33.906  1.00  0.00     0.029 A 
ATOM     48  C   UNL A   1      38.902  32.289  33.996  1.00  0.00     0.049 A 
ATOM     49  H   UNL A   1      39.557  31.001  32.498  1.00  0.00     0.167 HD
ATOM     50  C   UNL A   1      40.769  28.278  29.294  1.00  0.00     0.037 A 
ATOM     51  C   UNL A   1      39.659  32.044  35.083  1.00  0.00     0.037 A 
ATOM     52  C   UNL A   1      41.679  28.006  30.376  1.00  0.00     0.049 A 
ATOM     53  C   UNL A   1      40.730  30.990  35.017  1.00  0.00     0.074 A 
ATOM     54  C   UNL A   1      42.744  27.123  30.408  1.00  0.00     0.029 A 
ATOM     55  N   UNL A   1      41.621  28.609  31.623  1.00  0.00    -0.354 N 
ATOM     56  N   UNL A   1      41.079  30.226  34.009  1.00  0.00    -0.248 NA
ATOM     57  C   UNL A   1      41.517  30.766  36.239  1.00  0.00     0.031 C 
ATOM     58  C   UNL A   1      43.304  27.159  31.690  1.00  0.00     0.029 A 
ATOM     59  C   UNL A   1      42.617  28.100  32.441  1.00  0.00     0.049 A 
ATOM     60  H   UNL A   1      40.969  29.297  31.889  1.00  0.00     0.167 HD
ATOM     61  C   UNL A   1      42.139  29.451  34.465  1.00  0.00     0.074 A 
ATOM     62  C   UNL A   1      42.382  29.845  35.838  1.00  0.00     0.031 C 
ATOM     63  C   UNL A   1      42.847  28.502  33.806  1.00  0.00     0.037 A 
BRANCH  50  64
ATOM     64  C   UNL A   1      40.921  27.501  28.019  1.00  0.00     0.057 A 
ATOM     65  C   UNL A   1      41.724  27.956  26.965  1.00  0.00     0.134 A 
ATOM     66  C   UNL A   1      40.264  26.275  27.848  1.00  0.00     0.134 A 
ATOM     67  F   UNL A   1      42.367  29.130  27.059  1.00  0.00    -0.206 F 
ATOM     68  C   UNL A   1      41.847  27.233  25.776  1.00  0.00     0.040 A 
ATOM     69  C   UNL A   1      40.399  25.531  26.674  1.00  0.00     0.040 A 
ATOM     70  F   UNL A   1      39.483  25.780  28.820  1.00  0.00    -0.206 F 
ATOM     71  C   UNL A   1      41.187  26.015  25.631  1.00  0.00     0.006 A 
ENDBRANCH  50  64
BRANCH  51  72
ATOM     72  C   UNL A   1      39.422  32.807  36.333  1.00  0.00     0.057 A 
ATOM     73  C   UNL A   1      40.126  33.984  36.609  1.00  0.00     0.134 A 
ATOM     74  C   UNL A   1      38.486  32.376  37.282  1.00  0.00     0.134 A 
ATOM     75  F   UNL A   1      41.050  34.435  35.749  1.00  0.00    -0.206 F 
ATOM     76  C   UNL A   1      39.916  34.700  37.790  1.00  0.00     0.040 A 
ATOM     77  C   UNL A   1      38.249  33.093  38.455  1.00  0.00     0.040 A 
ATOM     78  F   UNL A   1      37.778  31.256  37.073  1.00  0.00    -0.206 F 
ATOM     79  C   UNL A   1      38.971  34.257  38.713  1.00  0.00     0.006 A 
ENDBRANCH  51  72
BRANCH  63  80
ATOM     80  C   UNL A   1      43.973  27.843  34.549  1.00  0.00     0.057 A 
ATOM     81  C   UNL A   1      45.259  28.395  34.585  1.00  0.00     0.134 A 
ATOM     82  C   UNL A   1      43.755  26.662  35.270  1.00  0.00     0.134 A 
ATOM     83  F   UNL A   1      45.536  29.518  33.906  1.00  0.00    -0.206 F 
ATOM     84  C   UNL A   1      46.294  27.785  35.298  1.00  0.00     0.040 A 
ATOM     85  C   UNL A   1      44.774  26.057  36.006  1.00  0.00     0.040 A 
ATOM     86  F   UNL A   1      42.543  26.086  35.284  1.00  0.00    -0.206 F 
ATOM     87  C   UNL A   1      46.050  26.616  36.017  1.00  0.00     0.006 A 
ENDBRANCH  63  80
ENDBRANCH  37  38
ENDBRANCH  30  32
ENDBRANCH  29  30
ENDBRANCH  28  29
ENDBRANCH  27  28
ENDBRANCH   1  27
TORSDOF 17
ENDMDL
MODEL 3
REMARK VINA RESULT:     -11.4      1.230      6.149
REMARK SMILES Cc1cc(C(=O)OCCOCCOC(=O)c2ccc(-c3c4nc(c(-c5c(F)cccc5F)c5ccc([nH]5)c(-c5c(F)cccc5F)c5nc(c(-c6c(F)cccc6F)c6ccc3[nH]6)C=C5)C=C4)cc2)c2cc([C@H]([NH3+])C(F)(F)F)ccc2n1
REMARK SMILES IDX 10 1 9 2 8 3 7 4 5 5 6 6 4 7 1 8 2 9 3 10 82 11 81 12 70 13
REMARK SMILES IDX 80 14 71 15 79 16 72 17 73 18 75 19 76 20 77 21 78 22 74 23
REMARK SMILES IDX 11 27 12 28 13 29 14 30 15 31 16 32 17 33 69 34 18 35 68 36
REMARK SMILES IDX 19 37 20 38 21 39 62 40 22 41 67 42 61 43 63 44 23 45 66 46
REMARK SMILES IDX 60 47 59 48 24 50 50 51 33 52 49 53 34 54 37 55 48 56 64 57
REMARK SMILES IDX 35 58 36 59 47 61 65 62 38 63 25 64 26 65 31 66 27 67 28 68
REMARK SMILES IDX 30 69 32 70 29 71 51 72 52 73 57 74 53 75 54 76 56 77 58 78
REMARK SMILES IDX 55 79 39 80 40 81 45 82 41 83 42 84 44 85 46 86 43 87
REMARK H PARENT 74 24 74 25 74 26 63 49 37 60
REMARK Flexibility Score: inf
ROOT
ATOM      1  O   UNL A   1      31.911  31.008  26.309  1.00  0.00    -0.374 OA
ENDROOT
BRANCH   1   2
ATOM      2  C   UNL A   1      32.566  30.166  27.259  1.00  0.00     0.202 C 
BRANCH   2   3
ATOM      3  C   UNL A   1      33.961  29.676  26.865  1.00  0.00     0.261 C 
BRANCH   3   4
ATOM      4  O   UNL A   1      33.937  28.278  26.535  1.00  0.00    -0.460 OA
BRANCH   4   5
ATOM      5  C   UNL A   1      33.546  27.992  25.269  1.00  0.00     0.338 C 
ATOM      6  O   UNL A   1      34.033  28.432  24.238  1.00  0.00    -0.246 OA
BRANCH   5   7
ATOM      7  C   UNL A   1      32.506  26.940  25.299  1.00  0.00     0.071 A 
ATOM      8  C   UNL A   1      31.930  23.539  26.818  1.00  0.00     0.067 C 
ATOM      9  C   UNL A   1      31.744  24.824  26.069  1.00  0.00     0.039 A 
ATOM     10  C   UNL A   1      32.757  25.762  26.001  1.00  0.00     0.039 A 
ATOM     11  N   UNL A   1      30.524  25.033  25.524  1.00  0.00    -0.253 NA
ATOM     12  C   UNL A   1      30.289  26.163  24.835  1.00  0.00     0.071 A 
ATOM     13  C   UNL A   1      31.267  27.151  24.649  1.00  0.00     0.015 A 
ATOM     14  C   UNL A   1      29.029  26.364  24.286  1.00  0.00     0.029 A 
ATOM     15  C   UNL A   1      30.960  28.264  23.824  1.00  0.00     0.021 A 
ATOM     16  C   UNL A   1      28.716  27.492  23.515  1.00  0.00     0.012 A 
ATOM     17  C   UNL A   1      29.692  28.446  23.242  1.00  0.00     0.019 A 
BRANCH  17  18
ATOM     18  C   UNL A   1      29.456  29.690  22.389  1.00  0.00     0.318 C 
BRANCH  18  19
ATOM     19  C   UNL A   1      28.804  30.901  23.130  1.00  0.00     0.445 C 
ATOM     20  F   UNL A   1      27.593  30.548  23.637  1.00  0.00    -0.165 F 
ATOM     21  F   UNL A   1      29.561  31.307  24.178  1.00  0.00    -0.165 F 
ATOM     22  F   UNL A   1      28.607  31.969  22.326  1.00  0.00    -0.165 F 
ENDBRANCH  18  19
BRANCH  18  23
ATOM     23  N   UNL A   1      30.704  30.007  21.644  1.00  0.00    -0.344 N 
ATOM     24  H   UNL A   1      31.194  29.140  21.418  1.00  0.00     0.345 HD
ATOM     25  H   UNL A   1      31.304  30.595  22.222  1.00  0.00     0.345 HD
ATOM     26  H   UNL A   1      30.472  30.501  20.783  1.00  0.00     0.345 HD
ENDBRANCH  18  23
ENDBRANCH  17  18
ENDBRANCH   5   7
ENDBRANCH   4   5
ENDBRANCH   3   4
ENDBRANCH   2   3
ENDBRANCH   1   2
BRANCH   1  27
ATOM     27  C   UNL A   1      31.573  32.331  26.730  1.00  0.00     0.202 C 
BRANCH  27  28
ATOM     28  C   UNL A   1      32.624  33.082  27.556  1.00  0.00     0.261 C 
BRANCH  28  29
ATOM     29  O   UNL A   1      32.259  34.456  27.780  1.00  0.00    -0.460 OA
BRANCH  29  30
ATOM     30  C   UNL A   1      32.920  35.060  28.795  1.00  0.00     0.338 C 
ATOM     31  O   UNL A   1      32.549  36.017  29.457  1.00  0.00    -0.246 OA
BRANCH  30  32
ATOM     32  C   UNL A   1      34.124  34.284  29.144  1.00  0.00     0.060 A 
ATOM     33  C   UNL A   1      34.017  33.360  30.191  1.00  0.00     0.016 A 
ATOM     34  C   UNL A   1      35.351  34.503  28.513  1.00  0.00     0.016 A 
ATOM     35  C   UNL A   1      35.148  32.687  30.647  1.00  0.00     0.010 A 
ATOM     36  C   UNL A   1      36.487  33.832  28.978  1.00  0.00     0.010 A 
ATOM     37  C   UNL A   1      36.396  32.949  30.068  1.00  0.00    -0.014 A 
BRANCH  37  38
ATOM     38  C   UNL A   1      37.621  32.406  30.701  1.00  0.00     0.031 A 
ATOM     39  C   UNL A   1      38.280  31.196  30.097  1.00  0.00     0.074 A 
ATOM     40  C   UNL A   1      38.156  32.996  31.784  1.00  0.00     0.049 A 
ATOM     41  N   UNL A   1      39.338  30.539  30.499  1.00  0.00    -0.248 NA
ATOM     42  C   UNL A   1      37.660  30.655  28.878  1.00  0.00     0.031 C 
ATOM     43  C   UNL A   1      37.630  34.191  32.439  1.00  0.00     0.029 A 
ATOM     44  N   UNL A   1      39.259  32.660  32.526  1.00  0.00    -0.354 N 
ATOM     45  C   UNL A   1      39.507  29.506  29.586  1.00  0.00     0.074 A 
ATOM     46  C   UNL A   1      38.427  29.603  28.630  1.00  0.00     0.031 C 
ATOM     47  C   UNL A   1      38.406  34.483  33.497  1.00  0.00     0.029 A 
ATOM     48  C   UNL A   1      39.465  33.480  33.606  1.00  0.00     0.049 A 
ATOM     49  H   UNL A   1      39.848  31.902  32.304  1.00  0.00     0.167 HD
ATOM     50  C   UNL A   1      40.483  28.567  29.543  1.00  0.00     0.037 A 
ATOM     51  C   UNL A   1      40.389  33.416  34.584  1.00  0.00     0.037 A 
ATOM     52  C   UNL A   1      41.556  28.469  30.497  1.00  0.00     0.049 A 
ATOM     53  C   UNL A   1      41.423  32.324  34.554  1.00  0.00     0.074 A 
ATOM     54  C   UNL A   1      42.604  27.564  30.529  1.00  0.00     0.029 A 
ATOM     55  N   UNL A   1      41.713  29.301  31.595  1.00  0.00    -0.354 N 
ATOM     56  N   UNL A   1      41.592  31.368  33.673  1.00  0.00    -0.248 NA
ATOM     57  C   UNL A   1      42.400  32.305  35.653  1.00  0.00     0.031 C 
ATOM     58  C   UNL A   1      43.368  27.821  31.672  1.00  0.00     0.029 A 
ATOM     59  C   UNL A   1      42.826  28.917  32.325  1.00  0.00     0.049 A 
ATOM     60  H   UNL A   1      41.121  30.055  31.821  1.00  0.00     0.167 HD
ATOM     61  C   UNL A   1      42.705  30.650  34.095  1.00  0.00     0.074 A 
ATOM     62  C   UNL A   1      43.177  31.289  35.306  1.00  0.00     0.031 C 
ATOM     63  C   UNL A   1      43.284  29.563  33.529  1.00  0.00     0.037 A 
BRANCH  50  64
ATOM     64  C   UNL A   1      40.412  27.554  28.438  1.00  0.00     0.057 A 
ATOM     65  C   UNL A   1      39.677  26.368  28.565  1.00  0.00     0.134 A 
ATOM     66  C   UNL A   1      41.078  27.775  27.225  1.00  0.00     0.134 A 
ATOM     67  F   UNL A   1      39.029  26.089  29.706  1.00  0.00    -0.206 F 
ATOM     68  C   UNL A   1      39.630  25.425  27.536  1.00  0.00     0.040 A 
ATOM     69  C   UNL A   1      41.018  26.851  26.180  1.00  0.00     0.040 A 
ATOM     70  F   UNL A   1      41.796  28.892  27.036  1.00  0.00    -0.206 F 
ATOM     71  C   UNL A   1      40.298  25.668  26.338  1.00  0.00     0.006 A 
ENDBRANCH  50  64
BRANCH  51  72
ATOM     72  C   UNL A   1      40.371  34.414  35.682  1.00  0.00     0.057 A 
ATOM     73  C   UNL A   1      39.683  34.167  36.875  1.00  0.00     0.134 A 
ATOM     74  C   UNL A   1      41.040  35.638  35.562  1.00  0.00     0.134 A 
ATOM     75  F   UNL A   1      39.006  33.022  37.040  1.00  0.00    -0.206 F 
ATOM     76  C   UNL A   1      39.652  35.108  37.907  1.00  0.00     0.040 A 
ATOM     77  C   UNL A   1      41.036  36.577  36.594  1.00  0.00     0.040 A 
ATOM     78  F   UNL A   1      41.718  35.932  34.443  1.00  0.00    -0.206 F 
ATOM     79  C   UNL A   1      40.335  36.314  37.769  1.00  0.00     0.006 A 
ENDBRANCH  51  72
BRANCH  63  80
ATOM     80  C   UNL A   1      44.511  29.011  34.196  1.00  0.00     0.057 A 
ATOM     81  C   UNL A   1      45.792  29.490  33.900  1.00  0.00     0.134 A 
ATOM     82  C   UNL A   1      44.402  28.015  35.176  1.00  0.00     0.134 A 
ATOM     83  F   UNL A   1      45.966  30.435  32.964  1.00  0.00    -0.206 F 
ATOM     84  C   UNL A   1      46.925  28.985  34.543  1.00  0.00     0.040 A 
ATOM     85  C   UNL A   1      45.524  27.520  35.841  1.00  0.00     0.040 A 
ATOM     86  F   UNL A   1      43.201  27.519  35.512  1.00  0.00    -0.206 F 
ATOM     87  C   UNL A   1      46.790  28.002  35.522  1.00  0.00     0.006 A 
ENDBRANCH  63  80
ENDBRANCH  37  38
ENDBRANCH  30  32
ENDBRANCH  29  30
ENDBRANCH  28  29
ENDBRANCH  27  28
ENDBRANCH   1  27
TORSDOF 17
ENDMDL
