MODEL 1
REMARK VINA RESULT:     -11.2      0.000      0.000
REMARK SMILES C#Cc1ccc2c(c1)C=C(C(=O)OCCOCCOC(=O)c1ccc(-c3c4nc(c(-c5c(F)cccc5F)c5ccc([nH]5)c(-c5c(F)cccc5F)c5nc(c(-c6c(F)cccc6F)c6ccc3[nH]6)C=C5)C=C4)cc1)[C@@H](C(F)(F)F)O2
REMARK SMILES IDX 17 1 16 2 15 3 14 4 13 5 11 6 12 7 10 8 3 9 4 10 8 11 5 12
REMARK SMILES IDX 7 13 6 14 9 15 81 16 76 17 2 18 1 19 77 20 78 21 79 22 80 23
REMARK SMILES IDX 18 24 19 25 20 26 21 27 22 28 23 29 75 30 24 31 74 32 25 33
REMARK SMILES IDX 26 34 27 35 68 36 28 37 73 38 67 39 69 40 29 41 72 42 66 43
REMARK SMILES IDX 65 44 30 46 56 47 39 48 55 49 40 50 43 51 54 52 70 53 41 54
REMARK SMILES IDX 42 55 53 57 71 58 44 59 31 60 32 61 37 62 33 63 34 64 36 65
REMARK SMILES IDX 38 66 35 67 57 68 58 69 63 70 59 71 60 72 62 73 64 74 61 75
REMARK SMILES IDX 45 76 46 77 51 78 47 79 48 80 50 81 52 82 49 83
REMARK H PARENT 69 45 43 56
REMARK Flexibility Score: inf
ROOT
ATOM      1  C   UNL A   1      31.786  31.693  26.828  1.00  0.00     0.202 C 
ENDROOT
BRANCH   1   2
ATOM      2  O   UNL A   1      32.513  30.670  26.153  1.00  0.00    -0.374 OA
BRANCH   2   3
ATOM      3  C   UNL A   1      33.479  29.912  26.871  1.00  0.00     0.202 C 
BRANCH   3   4
ATOM      4  C   UNL A   1      34.072  28.657  26.222  1.00  0.00     0.261 C 
BRANCH   4   5
ATOM      5  O   UNL A   1      33.854  28.613  24.806  1.00  0.00    -0.460 OA
BRANCH   5   6
ATOM      6  C   UNL A   1      33.421  27.413  24.354  1.00  0.00     0.338 C 
ATOM      7  O   UNL A   1      34.038  26.361  24.365  1.00  0.00    -0.246 OA
BRANCH   6   8
ATOM      8  C   UNL A   1      32.007  27.515  23.946  1.00  0.00     0.087 C 
ATOM      9  C   UNL A   1      28.618  30.182  21.847  1.00  0.00     0.025 A 
ATOM     10  C   UNL A   1      27.634  29.364  22.407  1.00  0.00     0.021 A 
ATOM     11  C   UNL A   1      29.966  29.869  22.027  1.00  0.00     0.029 A 
ATOM     12  C   UNL A   1      27.999  28.224  23.128  1.00  0.00     0.048 A 
ATOM     13  C   UNL A   1      30.330  28.753  22.787  1.00  0.00     0.018 A 
ATOM     14  C   UNL A   1      29.346  27.919  23.322  1.00  0.00     0.128 A 
ATOM     15  C   UNL A   1      31.725  28.509  23.096  1.00  0.00     0.027 C 
ATOM     16  O   UNL A   1      29.619  26.793  24.043  1.00  0.00    -0.475 OA
ATOM     17  C   UNL A   1      30.982  26.567  24.503  1.00  0.00     0.316 C 
BRANCH   9  18
ATOM     18  C   UNL A   1      28.255  31.360  21.124  1.00  0.00    -0.070 C 
ATOM     19  C   UNL A   1      27.946  32.338  20.495  1.00  0.00     0.010 C 
ENDBRANCH   9  18
BRANCH  17  20
ATOM     20  C   UNL A   1      30.979  26.540  26.038  1.00  0.00     0.430 C 
ATOM     21  F   UNL A   1      29.856  25.951  26.517  1.00  0.00    -0.167 F 
ATOM     22  F   UNL A   1      32.023  25.833  26.531  1.00  0.00    -0.167 F 
ATOM     23  F   UNL A   1      31.045  27.782  26.567  1.00  0.00    -0.167 F 
ENDBRANCH  17  20
ENDBRANCH   6   8
ENDBRANCH   5   6
ENDBRANCH   4   5
ENDBRANCH   3   4
ENDBRANCH   2   3
ENDBRANCH   1   2
BRANCH   1  24
ATOM     24  C   UNL A   1      32.346  33.122  26.876  1.00  0.00     0.261 C 
BRANCH  24  25
ATOM     25  O   UNL A   1      32.147  33.781  28.135  1.00  0.00    -0.460 OA
BRANCH  25  26
ATOM     26  C   UNL A   1      33.144  34.634  28.491  1.00  0.00     0.338 C 
ATOM     27  O   UNL A   1      33.080  35.844  28.606  1.00  0.00    -0.246 OA
BRANCH  26  28
ATOM     28  C   UNL A   1      34.310  33.843  28.925  1.00  0.00     0.060 A 
ATOM     29  C   UNL A   1      35.603  34.255  28.612  1.00  0.00     0.016 A 
ATOM     30  C   UNL A   1      34.091  32.688  29.689  1.00  0.00     0.016 A 
ATOM     31  C   UNL A   1      36.686  33.511  29.083  1.00  0.00     0.010 A 
ATOM     32  C   UNL A   1      35.175  31.949  30.160  1.00  0.00     0.010 A 
ATOM     33  C   UNL A   1      36.483  32.366  29.876  1.00  0.00    -0.014 A 
BRANCH  33  34
ATOM     34  C   UNL A   1      37.646  31.679  30.491  1.00  0.00     0.031 A 
ATOM     35  C   UNL A   1      38.061  31.955  31.905  1.00  0.00     0.074 A 
ATOM     36  C   UNL A   1      38.328  30.785  29.750  1.00  0.00     0.049 A 
ATOM     37  N   UNL A   1      39.004  31.382  32.612  1.00  0.00    -0.248 NA
ATOM     38  C   UNL A   1      37.331  33.013  32.618  1.00  0.00     0.031 C 
ATOM     39  C   UNL A   1      38.040  30.457  28.353  1.00  0.00     0.029 A 
ATOM     40  N   UNL A   1      39.390  29.978  30.070  1.00  0.00    -0.354 N 
ATOM     41  C   UNL A   1      38.966  31.990  33.860  1.00  0.00     0.074 A 
ATOM     42  C   UNL A   1      37.947  33.018  33.792  1.00  0.00     0.031 C 
ATOM     43  C   UNL A   1      38.876  29.488  27.949  1.00  0.00     0.029 A 
ATOM     44  C   UNL A   1      39.786  29.159  29.041  1.00  0.00     0.049 A 
ATOM     45  H   UNL A   1      39.826  29.986  30.953  1.00  0.00     0.167 HD
ATOM     46  C   UNL A   1      39.697  31.701  34.965  1.00  0.00     0.037 A 
ATOM     47  C   UNL A   1      40.775  28.249  28.983  1.00  0.00     0.037 A 
ATOM     48  C   UNL A   1      40.734  30.700  35.017  1.00  0.00     0.049 A 
ATOM     49  C   UNL A   1      41.626  28.012  30.201  1.00  0.00     0.074 A 
ATOM     50  C   UNL A   1      41.518  30.324  36.094  1.00  0.00     0.029 A 
ATOM     51  N   UNL A   1      41.148  29.929  33.940  1.00  0.00    -0.354 N 
ATOM     52  N   UNL A   1      41.530  28.540  31.398  1.00  0.00    -0.248 NA
ATOM     53  C   UNL A   1      42.723  27.046  30.060  1.00  0.00     0.031 C 
ATOM     54  C   UNL A   1      42.450  29.378  35.653  1.00  0.00     0.029 A 
ATOM     55  C   UNL A   1      42.199  29.107  34.319  1.00  0.00     0.049 A 
ATOM     56  H   UNL A   1      40.754  29.961  33.038  1.00  0.00     0.167 HD
ATOM     57  C   UNL A   1      42.532  27.948  32.157  1.00  0.00     0.074 A 
ATOM     58  C   UNL A   1      43.204  27.001  31.293  1.00  0.00     0.031 C 
ATOM     59  C   UNL A   1      42.866  28.168  33.452  1.00  0.00     0.037 A 
BRANCH  46  60
ATOM     60  C   UNL A   1      39.410  32.493  36.209  1.00  0.00     0.057 A 
ATOM     61  C   UNL A   1      40.095  33.685  36.479  1.00  0.00     0.134 A 
ATOM     62  C   UNL A   1      38.478  32.058  37.163  1.00  0.00     0.134 A 
ATOM     63  F   UNL A   1      41.013  34.154  35.619  1.00  0.00    -0.206 F 
ATOM     64  C   UNL A   1      39.862  34.416  37.645  1.00  0.00     0.040 A 
ATOM     65  C   UNL A   1      38.212  32.796  38.316  1.00  0.00     0.040 A 
ATOM     66  F   UNL A   1      37.785  30.925  36.967  1.00  0.00    -0.206 F 
ATOM     67  C   UNL A   1      38.909  33.977  38.563  1.00  0.00     0.006 A 
ENDBRANCH  46  60
BRANCH  47  68
ATOM     68  C   UNL A   1      41.032  27.491  27.731  1.00  0.00     0.057 A 
ATOM     69  C   UNL A   1      41.908  27.977  26.752  1.00  0.00     0.134 A 
ATOM     70  C   UNL A   1      40.457  26.234  27.512  1.00  0.00     0.134 A 
ATOM     71  F   UNL A   1      42.485  29.179  26.894  1.00  0.00    -0.206 F 
ATOM     72  C   UNL A   1      42.210  27.238  25.609  1.00  0.00     0.040 A 
ATOM     73  C   UNL A   1      40.779  25.467  26.391  1.00  0.00     0.040 A 
ATOM     74  F   UNL A   1      39.621  25.706  28.419  1.00  0.00    -0.206 F 
ATOM     75  C   UNL A   1      41.658  25.970  25.435  1.00  0.00     0.006 A 
ENDBRANCH  47  68
BRANCH  59  76
ATOM     76  C   UNL A   1      43.985  27.339  34.022  1.00  0.00     0.057 A 
ATOM     77  C   UNL A   1      45.309  27.796  33.967  1.00  0.00     0.134 A 
ATOM     78  C   UNL A   1      43.761  26.092  34.622  1.00  0.00     0.134 A 
ATOM     79  F   UNL A   1      45.601  28.975  33.397  1.00  0.00    -0.206 F 
ATOM     80  C   UNL A   1      46.364  27.049  34.492  1.00  0.00     0.040 A 
ATOM     81  C   UNL A   1      44.803  25.352  35.185  1.00  0.00     0.040 A 
ATOM     82  F   UNL A   1      42.516  25.598  34.720  1.00  0.00    -0.206 F 
ATOM     83  C   UNL A   1      46.111  25.829  35.115  1.00  0.00     0.006 A 
ENDBRANCH  59  76
ENDBRANCH  33  34
ENDBRANCH  26  28
ENDBRANCH  25  26
ENDBRANCH  24  25
ENDBRANCH   1  24
TORSDOF 16
ENDMDL
MODEL 2
REMARK VINA RESULT:     -11.0      2.048      3.757
REMARK SMILES C#Cc1ccc2c(c1)C=C(C(=O)OCCOCCOC(=O)c1ccc(-c3c4nc(c(-c5c(F)cccc5F)c5ccc([nH]5)c(-c5c(F)cccc5F)c5nc(c(-c6c(F)cccc6F)c6ccc3[nH]6)C=C5)C=C4)cc1)[C@@H](C(F)(F)F)O2
REMARK SMILES IDX 17 1 16 2 15 3 14 4 13 5 11 6 12 7 10 8 3 9 4 10 8 11 5 12
REMARK SMILES IDX 7 13 6 14 9 15 81 16 76 17 2 18 1 19 77 20 78 21 79 22 80 23
REMARK SMILES IDX 18 24 19 25 20 26 21 27 22 28 23 29 75 30 24 31 74 32 25 33
REMARK SMILES IDX 26 34 27 35 68 36 28 37 73 38 67 39 69 40 29 41 72 42 66 43
REMARK SMILES IDX 65 44 30 46 56 47 39 48 55 49 40 50 43 51 54 52 70 53 41 54
REMARK SMILES IDX 42 55 53 57 71 58 44 59 31 60 32 61 37 62 33 63 34 64 36 65
REMARK SMILES IDX 38 66 35 67 57 68 58 69 63 70 59 71 60 72 62 73 64 74 61 75
REMARK SMILES IDX 45 76 46 77 51 78 47 79 48 80 50 81 52 82 49 83
REMARK H PARENT 69 45 43 56
REMARK Flexibility Score: inf
ROOT
ATOM      1  C   UNL A   1      31.531  32.233  26.840  1.00  0.00     0.202 C 
ENDROOT
BRANCH   1   2
ATOM      2  O   UNL A   1      31.846  30.846  26.757  1.00  0.00    -0.374 OA
BRANCH   2   3
ATOM      3  C   UNL A   1      33.194  30.425  26.935  1.00  0.00     0.202 C 
BRANCH   3   4
ATOM      4  C   UNL A   1      33.497  28.928  27.041  1.00  0.00     0.261 C 
BRANCH   4   5
ATOM      5  O   UNL A   1      33.647  28.304  25.760  1.00  0.00    -0.460 OA
BRANCH   5   6
ATOM      6  C   UNL A   1      32.686  27.393  25.476  1.00  0.00     0.338 C 
ATOM      7  O   UNL A   1      31.480  27.542  25.590  1.00  0.00    -0.246 OA
BRANCH   6   8
ATOM      8  C   UNL A   1      33.297  26.196  24.869  1.00  0.00     0.087 C 
ATOM      9  C   UNL A   1      36.882  23.012  25.005  1.00  0.00     0.025 A 
ATOM     10  C   UNL A   1      36.567  22.609  23.705  1.00  0.00     0.021 A 
ATOM     11  C   UNL A   1      36.083  23.956  25.652  1.00  0.00     0.029 A 
ATOM     12  C   UNL A   1      35.444  23.136  23.062  1.00  0.00     0.048 A 
ATOM     13  C   UNL A   1      34.986  24.516  24.990  1.00  0.00     0.018 A 
ATOM     14  C   UNL A   1      34.654  24.091  23.702  1.00  0.00     0.128 A 
ATOM     15  C   UNL A   1      34.243  25.599  25.603  1.00  0.00     0.027 C 
ATOM     16  O   UNL A   1      33.579  24.561  23.004  1.00  0.00    -0.475 OA
ATOM     17  C   UNL A   1      32.879  25.737  23.500  1.00  0.00     0.316 C 
BRANCH   9  18
ATOM     18  C   UNL A   1      38.040  22.494  25.664  1.00  0.00    -0.070 C 
ATOM     19  C   UNL A   1      39.025  22.081  26.216  1.00  0.00     0.010 C 
ENDBRANCH   9  18
BRANCH  17  20
ATOM     20  C   UNL A   1      32.991  26.849  22.448  1.00  0.00     0.430 C 
ATOM     21  F   UNL A   1      34.018  27.689  22.728  1.00  0.00    -0.167 F 
ATOM     22  F   UNL A   1      33.231  26.351  21.212  1.00  0.00    -0.167 F 
ATOM     23  F   UNL A   1      31.865  27.593  22.373  1.00  0.00    -0.167 F 
ENDBRANCH  17  20
ENDBRANCH   6   8
ENDBRANCH   5   6
ENDBRANCH   4   5
ENDBRANCH   3   4
ENDBRANCH   2   3
ENDBRANCH   1   2
BRANCH   1  24
ATOM     24  C   UNL A   1      32.621  33.240  27.235  1.00  0.00     0.261 C 
BRANCH  24  25
ATOM     25  O   UNL A   1      32.201  34.193  28.223  1.00  0.00    -0.460 OA
BRANCH  25  26
ATOM     26  C   UNL A   1      33.185  35.019  28.666  1.00  0.00     0.338 C 
ATOM     27  O   UNL A   1      33.118  36.220  28.854  1.00  0.00    -0.246 OA
BRANCH  26  28
ATOM     28  C   UNL A   1      34.335  34.201  29.091  1.00  0.00     0.060 A 
ATOM     29  C   UNL A   1      35.622  34.500  28.647  1.00  0.00     0.016 A 
ATOM     30  C   UNL A   1      34.112  33.138  29.977  1.00  0.00     0.016 A 
ATOM     31  C   UNL A   1      36.695  33.736  29.110  1.00  0.00     0.010 A 
ATOM     32  C   UNL A   1      35.186  32.378  30.439  1.00  0.00     0.010 A 
ATOM     33  C   UNL A   1      36.490  32.684  30.023  1.00  0.00    -0.014 A 
BRANCH  33  34
ATOM     34  C   UNL A   1      37.657  31.986  30.617  1.00  0.00     0.031 A 
ATOM     35  C   UNL A   1      38.139  32.303  32.001  1.00  0.00     0.074 A 
ATOM     36  C   UNL A   1      38.280  31.042  29.886  1.00  0.00     0.049 A 
ATOM     37  N   UNL A   1      39.093  31.729  32.691  1.00  0.00    -0.248 NA
ATOM     38  C   UNL A   1      37.471  33.410  32.700  1.00  0.00     0.031 C 
ATOM     39  C   UNL A   1      37.923  30.670  28.515  1.00  0.00     0.029 A 
ATOM     40  N   UNL A   1      39.329  30.216  30.194  1.00  0.00    -0.354 N 
ATOM     41  C   UNL A   1      39.126  32.385  33.914  1.00  0.00     0.074 A 
ATOM     42  C   UNL A   1      38.136  33.442  33.847  1.00  0.00     0.031 C 
ATOM     43  C   UNL A   1      38.713  29.660  28.117  1.00  0.00     0.029 A 
ATOM     44  C   UNL A   1      39.657  29.345  29.183  1.00  0.00     0.049 A 
ATOM     45  H   UNL A   1      39.803  30.245  31.057  1.00  0.00     0.167 HD
ATOM     46  C   UNL A   1      39.894  32.117  34.999  1.00  0.00     0.037 A 
ATOM     47  C   UNL A   1      40.616  28.403  29.121  1.00  0.00     0.037 A 
ATOM     48  C   UNL A   1      40.902  31.086  35.048  1.00  0.00     0.049 A 
ATOM     49  C   UNL A   1      41.510  28.187  30.312  1.00  0.00     0.074 A 
ATOM     50  C   UNL A   1      41.719  30.728  36.107  1.00  0.00     0.029 A 
ATOM     51  N   UNL A   1      41.247  30.262  33.987  1.00  0.00    -0.354 N 
ATOM     52  N   UNL A   1      41.480  28.764  31.490  1.00  0.00    -0.248 NA
ATOM     53  C   UNL A   1      42.571  27.182  30.165  1.00  0.00     0.031 C 
ATOM     54  C   UNL A   1      42.603  29.737  35.667  1.00  0.00     0.029 A 
ATOM     55  C   UNL A   1      42.288  29.422  34.356  1.00  0.00     0.049 A 
ATOM     56  H   UNL A   1      40.816  30.271  33.102  1.00  0.00     0.167 HD
ATOM     57  C   UNL A   1      42.494  28.170  32.230  1.00  0.00     0.074 A 
ATOM     58  C   UNL A   1      43.101  27.170  31.378  1.00  0.00     0.031 C 
ATOM     59  C   UNL A   1      42.889  28.430  33.501  1.00  0.00     0.037 A 
BRANCH  46  60
ATOM     60  C   UNL A   1      39.683  32.965  36.221  1.00  0.00     0.057 A 
ATOM     61  C   UNL A   1      40.435  34.129  36.430  1.00  0.00     0.134 A 
ATOM     62  C   UNL A   1      38.757  32.612  37.214  1.00  0.00     0.134 A 
ATOM     63  F   UNL A   1      41.351  34.520  35.529  1.00  0.00    -0.206 F 
ATOM     64  C   UNL A   1      40.272  34.911  37.574  1.00  0.00     0.040 A 
ATOM     65  C   UNL A   1      38.562  33.403  38.347  1.00  0.00     0.040 A 
ATOM     66  F   UNL A   1      38.002  31.511  37.078  1.00  0.00    -0.206 F 
ATOM     67  C   UNL A   1      39.325  34.554  38.532  1.00  0.00     0.006 A 
ENDBRANCH  46  60
BRANCH  47  68
ATOM     68  C   UNL A   1      40.797  27.589  27.891  1.00  0.00     0.057 A 
ATOM     69  C   UNL A   1      41.619  28.025  26.844  1.00  0.00     0.134 A 
ATOM     70  C   UNL A   1      40.203  26.328  27.760  1.00  0.00     0.134 A 
ATOM     71  F   UNL A   1      42.210  29.228  26.901  1.00  0.00    -0.206 F 
ATOM     72  C   UNL A   1      41.852  27.234  25.719  1.00  0.00     0.040 A 
ATOM     73  C   UNL A   1      40.457  25.511  26.657  1.00  0.00     0.040 A 
ATOM     74  F   UNL A   1      39.418  25.847  28.736  1.00  0.00    -0.206 F 
ATOM     75  C   UNL A   1      41.284  25.965  25.632  1.00  0.00     0.006 A 
ENDBRANCH  47  68
BRANCH  59  76
ATOM     76  C   UNL A   1      44.006  27.589  34.057  1.00  0.00     0.057 A 
ATOM     77  C   UNL A   1      45.333  28.035  33.992  1.00  0.00     0.134 A 
ATOM     78  C   UNL A   1      43.777  26.342  34.655  1.00  0.00     0.134 A 
ATOM     79  F   UNL A   1      45.631  29.213  33.424  1.00  0.00    -0.206 F 
ATOM     80  C   UNL A   1      46.387  27.276  34.505  1.00  0.00     0.040 A 
ATOM     81  C   UNL A   1      44.818  25.591  35.205  1.00  0.00     0.040 A 
ATOM     82  F   UNL A   1      42.529  25.858  34.762  1.00  0.00    -0.206 F 
ATOM     83  C   UNL A   1      46.129  26.056  35.125  1.00  0.00     0.006 A 
ENDBRANCH  59  76
ENDBRANCH  33  34
ENDBRANCH  26  28
ENDBRANCH  25  26
ENDBRANCH  24  25
ENDBRANCH   1  24
TORSDOF 16
ENDMDL
MODEL 3
REMARK VINA RESULT:     -11.0      2.108      7.240
REMARK SMILES C#Cc1ccc2c(c1)C=C(C(=O)OCCOCCOC(=O)c1ccc(-c3c4nc(c(-c5c(F)cccc5F)c5ccc([nH]5)c(-c5c(F)cccc5F)c5nc(c(-c6c(F)cccc6F)c6ccc3[nH]6)C=C5)C=C4)cc1)[C@@H](C(F)(F)F)O2
REMARK SMILES IDX 17 1 16 2 15 3 14 4 13 5 11 6 12 7 10 8 3 9 4 10 8 11 5 12
REMARK SMILES IDX 7 13 6 14 9 15 81 16 76 17 2 18 1 19 77 20 78 21 79 22 80 23
REMARK SMILES IDX 18 24 19 25 20 26 21 27 22 28 23 29 75 30 24 31 74 32 25 33
REMARK SMILES IDX 26 34 27 35 68 36 28 37 73 38 67 39 69 40 29 41 72 42 66 43
REMARK SMILES IDX 65 44 30 46 56 47 39 48 55 49 40 50 43 51 54 52 70 53 41 54
REMARK SMILES IDX 42 55 53 57 71 58 44 59 31 60 32 61 37 62 33 63 34 64 36 65
REMARK SMILES IDX 38 66 35 67 57 68 58 69 63 70 59 71 60 72 62 73 64 74 61 75
REMARK SMILES IDX 45 76 46 77 51 78 47 79 48 80 50 81 52 82 49 83
REMARK H PARENT 69 45 43 56
REMARK Flexibility Score: inf
ROOT
ATOM      1  C   UNL A   1      31.613  32.222  26.878  1.00  0.00     0.202 C 
ENDROOT
BRANCH   1   2
ATOM      2  O   UNL A   1      31.894  30.826  26.807  1.00  0.00    -0.374 OA
BRANCH   2   3
ATOM      3  C   UNL A   1      33.239  30.378  26.927  1.00  0.00     0.202 C 
BRANCH   3   4
ATOM      4  C   UNL A   1      33.515  28.876  27.037  1.00  0.00     0.261 C 
BRANCH   4   5
ATOM      5  O   UNL A   1      33.685  28.250  25.759  1.00  0.00    -0.460 OA
BRANCH   5   6
ATOM      6  C   UNL A   1      32.730  27.337  25.463  1.00  0.00     0.338 C 
ATOM      7  O   UNL A   1      31.523  27.486  25.549  1.00  0.00    -0.246 OA
BRANCH   6   8
ATOM      8  C   UNL A   1      33.355  26.134  24.880  1.00  0.00     0.087 C 
ATOM      9  C   UNL A   1      36.984  23.003  25.071  1.00  0.00     0.025 A 
ATOM     10  C   UNL A   1      36.669  22.567  23.782  1.00  0.00     0.021 A 
ATOM     11  C   UNL A   1      36.175  23.951  25.700  1.00  0.00     0.029 A 
ATOM     12  C   UNL A   1      35.536  23.064  23.133  1.00  0.00     0.048 A 
ATOM     13  C   UNL A   1      35.067  24.481  25.031  1.00  0.00     0.018 A 
ATOM     14  C   UNL A   1      34.736  24.023  23.754  1.00  0.00     0.128 A 
ATOM     15  C   UNL A   1      34.313  25.567  25.623  1.00  0.00     0.027 C 
ATOM     16  O   UNL A   1      33.652  24.462  23.050  1.00  0.00    -0.475 OA
ATOM     17  C   UNL A   1      32.938  25.640  23.523  1.00  0.00     0.316 C 
BRANCH   9  18
ATOM     18  C   UNL A   1      38.151  22.515  25.737  1.00  0.00    -0.070 C 
ATOM     19  C   UNL A   1      39.139  22.091  26.276  1.00  0.00     0.010 C 
ENDBRANCH   9  18
BRANCH  17  20
ATOM     20  C   UNL A   1      33.031  26.730  22.446  1.00  0.00     0.430 C 
ATOM     21  F   UNL A   1      33.251  26.193  21.221  1.00  0.00    -0.167 F 
ATOM     22  F   UNL A   1      31.884  27.443  22.351  1.00  0.00    -0.167 F 
ATOM     23  F   UNL A   1      34.032  27.603  22.693  1.00  0.00    -0.167 F 
ENDBRANCH  17  20
ENDBRANCH   6   8
ENDBRANCH   5   6
ENDBRANCH   4   5
ENDBRANCH   3   4
ENDBRANCH   2   3
ENDBRANCH   1   2
BRANCH   1  24
ATOM     24  C   UNL A   1      32.733  33.206  27.245  1.00  0.00     0.261 C 
BRANCH  24  25
ATOM     25  O   UNL A   1      32.326  34.233  28.161  1.00  0.00    -0.460 OA
BRANCH  25  26
ATOM     26  C   UNL A   1      33.337  35.020  28.613  1.00  0.00     0.338 C 
ATOM     27  O   UNL A   1      33.330  36.229  28.756  1.00  0.00    -0.246 OA
BRANCH  26  28
ATOM     28  C   UNL A   1      34.423  34.157  29.111  1.00  0.00     0.060 A 
ATOM     29  C   UNL A   1      35.735  34.349  28.684  1.00  0.00     0.016 A 
ATOM     30  C   UNL A   1      34.113  33.162  30.049  1.00  0.00     0.016 A 
ATOM     31  C   UNL A   1      36.747  33.547  29.216  1.00  0.00     0.010 A 
ATOM     32  C   UNL A   1      35.126  32.364  30.579  1.00  0.00     0.010 A 
ATOM     33  C   UNL A   1      36.455  32.563  30.180  1.00  0.00    -0.014 A 
BRANCH  33  34
ATOM     34  C   UNL A   1      37.562  31.828  30.841  1.00  0.00     0.031 A 
ATOM     35  C   UNL A   1      38.317  30.744  30.131  1.00  0.00     0.074 A 
ATOM     36  C   UNL A   1      37.888  32.161  32.104  1.00  0.00     0.049 A 
ATOM     37  N   UNL A   1      39.358  30.063  30.542  1.00  0.00    -0.248 NA
ATOM     38  C   UNL A   1      37.841  30.371  28.792  1.00  0.00     0.031 C 
ATOM     39  C   UNL A   1      37.205  33.176  32.909  1.00  0.00     0.029 A 
ATOM     40  N   UNL A   1      38.882  31.697  32.927  1.00  0.00    -0.354 N 
ATOM     41  C   UNL A   1      39.679  29.198  29.505  1.00  0.00     0.074 A 
ATOM     42  C   UNL A   1      38.684  29.398  28.471  1.00  0.00     0.031 C 
ATOM     43  C   UNL A   1      37.827  33.286  34.093  1.00  0.00     0.029 A 
ATOM     44  C   UNL A   1      38.920  32.323  34.149  1.00  0.00     0.049 A 
ATOM     45  H   UNL A   1      39.508  30.982  32.666  1.00  0.00     0.167 HD
ATOM     46  C   UNL A   1      40.720  28.333  29.415  1.00  0.00     0.037 A 
ATOM     47  C   UNL A   1      39.742  32.137  35.198  1.00  0.00     0.037 A 
ATOM     48  C   UNL A   1      41.688  28.112  30.462  1.00  0.00     0.049 A 
ATOM     49  C   UNL A   1      40.836  31.108  35.099  1.00  0.00     0.074 A 
ATOM     50  C   UNL A   1      42.787  27.270  30.458  1.00  0.00     0.029 A 
ATOM     51  N   UNL A   1      41.663  28.722  31.708  1.00  0.00    -0.354 N 
ATOM     52  N   UNL A   1      41.175  30.349  34.085  1.00  0.00    -0.248 NA
ATOM     53  C   UNL A   1      41.665  30.913  36.296  1.00  0.00     0.031 C 
ATOM     54  C   UNL A   1      43.384  27.317  31.722  1.00  0.00     0.029 A 
ATOM     55  C   UNL A   1      42.704  28.246  32.491  1.00  0.00     0.049 A 
ATOM     56  H   UNL A   1      41.002  29.393  31.995  1.00  0.00     0.167 HD
ATOM     57  C   UNL A   1      42.274  29.614  34.510  1.00  0.00     0.074 A 
ATOM     58  C   UNL A   1      42.560  30.037  35.864  1.00  0.00     0.031 C 
ATOM     59  C   UNL A   1      42.982  28.671  33.841  1.00  0.00     0.037 A 
BRANCH  46  60
ATOM     60  C   UNL A   1      40.857  27.547  28.142  1.00  0.00     0.057 A 
ATOM     61  C   UNL A   1      41.611  28.040  27.068  1.00  0.00     0.134 A 
ATOM     62  C   UNL A   1      40.213  26.315  27.962  1.00  0.00     0.134 A 
ATOM     63  F   UNL A   1      42.243  29.220  27.164  1.00  0.00    -0.206 F 
ATOM     64  C   UNL A   1      41.723  27.337  25.868  1.00  0.00     0.040 A 
ATOM     65  C   UNL A   1      40.343  25.587  26.779  1.00  0.00     0.040 A 
ATOM     66  F   UNL A   1      39.475  25.783  28.949  1.00  0.00    -0.206 F 
ATOM     67  C   UNL A   1      41.097  26.100  25.725  1.00  0.00     0.006 A 
ENDBRANCH  46  60
BRANCH  47  68
ATOM     68  C   UNL A   1      39.569  32.929  36.443  1.00  0.00     0.057 A 
ATOM     69  C   UNL A   1      40.262  34.129  36.645  1.00  0.00     0.134 A 
ATOM     70  C   UNL A   1      38.658  32.539  37.432  1.00  0.00     0.134 A 
ATOM     71  F   UNL A   1      41.157  34.556  35.742  1.00  0.00    -0.206 F 
ATOM     72  C   UNL A   1      40.049  34.916  37.777  1.00  0.00     0.040 A 
ATOM     73  C   UNL A   1      38.407  33.335  38.551  1.00  0.00     0.040 A 
ATOM     74  F   UNL A   1      37.950  31.408  37.290  1.00  0.00    -0.206 F 
ATOM     75  C   UNL A   1      39.106  34.527  38.726  1.00  0.00     0.006 A 
ENDBRANCH  47  68
BRANCH  59  76
ATOM     76  C   UNL A   1      44.160  28.064  34.553  1.00  0.00     0.057 A 
ATOM     77  C   UNL A   1      44.011  26.890  35.304  1.00  0.00     0.134 A 
ATOM     78  C   UNL A   1      45.440  28.635  34.502  1.00  0.00     0.134 A 
ATOM     79  F   UNL A   1      42.813  26.294  35.409  1.00  0.00    -0.206 F 
ATOM     80  C   UNL A   1      45.089  26.305  35.970  1.00  0.00     0.040 A 
ATOM     81  C   UNL A   1      46.533  28.038  35.132  1.00  0.00     0.040 A 
ATOM     82  F   UNL A   1      45.658  29.753  33.790  1.00  0.00    -0.206 F 
ATOM     83  C   UNL A   1      46.357  26.872  35.875  1.00  0.00     0.006 A 
ENDBRANCH  59  76
ENDBRANCH  33  34
ENDBRANCH  26  28
ENDBRANCH  25  26
ENDBRANCH  24  25
ENDBRANCH   1  24
TORSDOF 16
ENDMDL
