MODEL 1
REMARK VINA RESULT:     -10.4      0.000      0.000
REMARK SMILES COc1ccc(C2=NO[C@](C)(C(=O)OCCOCCOC(=O)c3ccc(-c4c5nc(c(-c6c(F)cccc6F)c6ccc([nH]6)c(-c6c(F)cccc6F)c6nc(c(-c7c(F)cccc7F)c7ccc4[nH]7)C=C6)C=C5)cc3)C2)c(OC)c1OC
REMARK SMILES IDX 17 1 16 2 15 3 14 4 12 5 13 6 10 7 7 8 8 9 77 10 9 11 11 12
REMARK SMILES IDX 6 13 3 14 4 15 81 16 5 17 78 18 2 19 1 20 82 21 83 22 79 23
REMARK SMILES IDX 80 24 18 25 19 26 20 27 21 28 22 29 23 30 24 31 76 32 25 33
REMARK SMILES IDX 75 34 26 35 27 36 28 37 69 38 29 39 74 40 68 41 70 42 30 43
REMARK SMILES IDX 73 44 67 45 66 46 31 48 57 49 40 50 56 51 41 52 44 53 55 54
REMARK SMILES IDX 71 55 42 56 43 57 54 59 72 60 45 61 32 62 33 63 38 64 34 65
REMARK SMILES IDX 35 66 37 67 39 68 36 69 58 70 59 71 64 72 60 73 61 74 63 75
REMARK SMILES IDX 65 76 62 77 46 78 47 79 52 80 48 81 49 82 51 83 53 84 50 85
REMARK H PARENT 70 47 44 58
REMARK Flexibility Score: inf
ROOT
ATOM      1  O   UNL A   1      37.407  21.488  25.745  1.00  0.00    -0.374 OA
ENDROOT
BRANCH   1   2
ATOM      2  C   UNL A   1      36.282  22.352  25.567  1.00  0.00     0.202 C 
BRANCH   2   3
ATOM      3  C   UNL A   1      35.019  21.927  26.318  1.00  0.00     0.261 C 
BRANCH   3   4
ATOM      4  O   UNL A   1      33.993  22.917  26.130  1.00  0.00    -0.460 OA
BRANCH   4   5
ATOM      5  C   UNL A   1      32.934  22.865  26.986  1.00  0.00     0.353 C 
ATOM      6  O   UNL A   1      33.042  22.696  28.195  1.00  0.00    -0.247 OA
BRANCH   5   7
ATOM      7  C   UNL A   1      31.604  23.142  26.272  1.00  0.00     0.236 C 
ATOM      8  C   UNL A   1      30.899  25.214  25.605  1.00  0.00     0.096 C 
ATOM      9  N   UNL A   1      30.268  24.989  26.710  1.00  0.00    -0.089 NA
ATOM     10  C   UNL A   1      31.830  24.154  25.152  1.00  0.00     0.124 C 
ATOM     11  O   UNL A   1      30.745  23.772  27.236  1.00  0.00    -0.377 OA
ATOM     12  C   UNL A   1      30.859  21.902  25.772  1.00  0.00     0.073 C 
BRANCH   8  13
ATOM     13  C   UNL A   1      30.715  26.452  24.833  1.00  0.00     0.046 A 
ATOM     14  C   UNL A   1      30.103  28.895  23.675  1.00  0.00     0.164 A 
ATOM     15  C   UNL A   1      29.348  27.755  23.354  1.00  0.00     0.051 A 
ATOM     16  C   UNL A   1      31.201  28.820  24.560  1.00  0.00     0.203 A 
ATOM     17  C   UNL A   1      29.651  26.527  23.935  1.00  0.00     0.018 A 
ATOM     18  C   UNL A   1      31.521  27.569  25.130  1.00  0.00     0.173 A 
BRANCH  14  19
ATOM     19  O   UNL A   1      29.650  30.107  23.220  1.00  0.00    -0.493 OA
ATOM     20  C   UNL A   1      29.665  30.204  21.797  1.00  0.00     0.278 C 
ENDBRANCH  14  19
BRANCH  16  21
ATOM     21  O   UNL A   1      31.971  29.882  24.952  1.00  0.00    -0.490 OA
ATOM     22  C   UNL A   1      31.658  30.600  26.132  1.00  0.00     0.278 C 
ENDBRANCH  16  21
BRANCH  18  23
ATOM     23  O   UNL A   1      32.593  27.268  25.935  1.00  0.00    -0.492 OA
ATOM     24  C   UNL A   1      33.895  27.185  25.384  1.00  0.00     0.278 C 
ENDBRANCH  18  23
ENDBRANCH   8  13
ENDBRANCH   5   7
ENDBRANCH   4   5
ENDBRANCH   3   4
ENDBRANCH   2   3
ENDBRANCH   1   2
BRANCH   1  25
ATOM     25  C   UNL A   1      37.479  20.338  24.903  1.00  0.00     0.202 C 
BRANCH  25  26
ATOM     26  C   UNL A   1      38.769  19.517  25.006  1.00  0.00     0.261 C 
BRANCH  26  27
ATOM     27  O   UNL A   1      39.476  19.779  26.230  1.00  0.00    -0.460 OA
BRANCH  27  28
ATOM     28  C   UNL A   1      40.824  19.716  26.128  1.00  0.00     0.338 C 
ATOM     29  O   UNL A   1      41.484  18.842  25.584  1.00  0.00    -0.246 OA
BRANCH  28  30
ATOM     30  C   UNL A   1      41.433  20.960  26.633  1.00  0.00     0.060 A 
ATOM     31  C   UNL A   1      41.331  21.217  28.006  1.00  0.00     0.016 A 
ATOM     32  C   UNL A   1      42.031  21.893  25.780  1.00  0.00     0.016 A 
ATOM     33  C   UNL A   1      41.779  22.429  28.525  1.00  0.00     0.010 A 
ATOM     34  C   UNL A   1      42.473  23.113  26.303  1.00  0.00     0.010 A 
ATOM     35  C   UNL A   1      42.317  23.402  27.671  1.00  0.00    -0.014 A 
BRANCH  35  36
ATOM     36  C   UNL A   1      42.583  24.765  28.190  1.00  0.00     0.031 A 
ATOM     37  C   UNL A   1      43.988  25.140  28.574  1.00  0.00     0.074 A 
ATOM     38  C   UNL A   1      41.594  25.671  28.283  1.00  0.00     0.049 A 
ATOM     39  N   UNL A   1      44.442  26.264  29.068  1.00  0.00    -0.248 NA
ATOM     40  C   UNL A   1      45.019  24.109  28.374  1.00  0.00     0.031 C 
ATOM     41  C   UNL A   1      40.201  25.445  27.903  1.00  0.00     0.029 A 
ATOM     42  N   UNL A   1      41.616  26.968  28.730  1.00  0.00    -0.354 N 
ATOM     43  C   UNL A   1      45.808  26.077  29.238  1.00  0.00     0.074 A 
ATOM     44  C   UNL A   1      46.104  24.721  28.826  1.00  0.00     0.031 C 
ATOM     45  C   UNL A   1      39.498  26.566  28.138  1.00  0.00     0.029 A 
ATOM     46  C   UNL A   1      40.385  27.577  28.711  1.00  0.00     0.049 A 
ATOM     47  H   UNL A   1      42.436  27.420  29.035  1.00  0.00     0.167 HD
ATOM     48  C   UNL A   1      46.734  26.957  29.686  1.00  0.00     0.037 A 
ATOM     49  C   UNL A   1      40.016  28.804  29.124  1.00  0.00     0.037 A 
ATOM     50  C   UNL A   1      46.442  28.305  30.096  1.00  0.00     0.049 A 
ATOM     51  C   UNL A   1      41.051  29.739  29.691  1.00  0.00     0.074 A 
ATOM     52  C   UNL A   1      47.314  29.276  30.558  1.00  0.00     0.029 A 
ATOM     53  N   UNL A   1      45.175  28.871  30.099  1.00  0.00    -0.354 N 
ATOM     54  N   UNL A   1      42.341  29.557  29.834  1.00  0.00    -0.248 NA
ATOM     55  C   UNL A   1      40.576  31.052  30.153  1.00  0.00     0.031 C 
ATOM     56  C   UNL A   1      46.569  30.415  30.880  1.00  0.00     0.029 A 
ATOM     57  C   UNL A   1      45.240  30.170  30.575  1.00  0.00     0.049 A 
ATOM     58  H   UNL A   1      44.353  28.417  29.807  1.00  0.00     0.167 HD
ATOM     59  C   UNL A   1      42.836  30.738  30.373  1.00  0.00     0.074 A 
ATOM     60  C   UNL A   1      41.709  31.633  30.523  1.00  0.00     0.031 C 
ATOM     61  C   UNL A   1      44.111  31.053  30.710  1.00  0.00     0.037 A 
BRANCH  48  62
ATOM     62  C   UNL A   1      48.154  26.481  29.770  1.00  0.00     0.057 A 
ATOM     63  C   UNL A   1      49.071  26.705  28.735  1.00  0.00     0.134 A 
ATOM     64  C   UNL A   1      48.617  25.816  30.912  1.00  0.00     0.134 A 
ATOM     65  F   UNL A   1      48.687  27.322  27.608  1.00  0.00    -0.206 F 
ATOM     66  C   UNL A   1      50.394  26.267  28.826  1.00  0.00     0.040 A 
ATOM     67  C   UNL A   1      49.943  25.395  31.024  1.00  0.00     0.040 A 
ATOM     68  F   UNL A   1      47.791  25.573  31.941  1.00  0.00    -0.206 F 
ATOM     69  C   UNL A   1      50.835  25.616  29.977  1.00  0.00     0.006 A 
ENDBRANCH  48  62
BRANCH  49  70
ATOM     70  C   UNL A   1      38.595  29.224  29.026  1.00  0.00     0.057 A 
ATOM     71  C   UNL A   1      37.742  29.156  30.133  1.00  0.00     0.134 A 
ATOM     72  C   UNL A   1      38.053  29.682  27.819  1.00  0.00     0.134 A 
ATOM     73  F   UNL A   1      38.197  28.701  31.309  1.00  0.00    -0.206 F 
ATOM     74  C   UNL A   1      36.396  29.515  30.040  1.00  0.00     0.040 A 
ATOM     75  C   UNL A   1      36.716  30.067  27.718  1.00  0.00     0.040 A 
ATOM     76  F   UNL A   1      38.821  29.769  26.723  1.00  0.00    -0.206 F 
ATOM     77  C   UNL A   1      35.882  29.977  28.830  1.00  0.00     0.006 A 
ENDBRANCH  49  70
BRANCH  61  78
ATOM     78  C   UNL A   1      44.362  32.436  31.240  1.00  0.00     0.057 A 
ATOM     79  C   UNL A   1      44.641  33.514  30.392  1.00  0.00     0.134 A 
ATOM     80  C   UNL A   1      44.283  32.696  32.614  1.00  0.00     0.134 A 
ATOM     81  F   UNL A   1      44.742  33.329  29.067  1.00  0.00    -0.206 F 
ATOM     82  C   UNL A   1      44.854  34.800  30.894  1.00  0.00     0.040 A 
ATOM     83  C   UNL A   1      44.468  33.981  33.126  1.00  0.00     0.040 A 
ATOM     84  F   UNL A   1      44.010  31.709  33.481  1.00  0.00    -0.206 F 
ATOM     85  C   UNL A   1      44.761  35.036  32.263  1.00  0.00     0.006 A 
ENDBRANCH  61  78
ENDBRANCH  35  36
ENDBRANCH  28  30
ENDBRANCH  27  28
ENDBRANCH  26  27
ENDBRANCH  25  26
ENDBRANCH   1  25
TORSDOF 18
ENDMDL
MODEL 2
REMARK VINA RESULT:     -10.4      3.894      9.280
REMARK SMILES COc1ccc(C2=NO[C@](C)(C(=O)OCCOCCOC(=O)c3ccc(-c4c5nc(c(-c6c(F)cccc6F)c6ccc([nH]6)c(-c6c(F)cccc6F)c6nc(c(-c7c(F)cccc7F)c7ccc4[nH]7)C=C6)C=C5)cc3)C2)c(OC)c1OC
REMARK SMILES IDX 17 1 16 2 15 3 14 4 12 5 13 6 10 7 7 8 8 9 77 10 9 11 11 12
REMARK SMILES IDX 6 13 3 14 4 15 81 16 5 17 78 18 2 19 1 20 82 21 83 22 79 23
REMARK SMILES IDX 80 24 18 25 19 26 20 27 21 28 22 29 23 30 24 31 76 32 25 33
REMARK SMILES IDX 75 34 26 35 27 36 28 37 69 38 29 39 74 40 68 41 70 42 30 43
REMARK SMILES IDX 73 44 67 45 66 46 31 48 57 49 40 50 56 51 41 52 44 53 55 54
REMARK SMILES IDX 71 55 42 56 43 57 54 59 72 60 45 61 32 62 33 63 38 64 34 65
REMARK SMILES IDX 35 66 37 67 39 68 36 69 58 70 59 71 64 72 60 73 61 74 63 75
REMARK SMILES IDX 65 76 62 77 46 78 47 79 52 80 48 81 49 82 51 83 53 84 50 85
REMARK H PARENT 70 47 44 58
REMARK Flexibility Score: inf
ROOT
ATOM      1  O   UNL A   1      33.071  30.601  27.142  1.00  0.00    -0.374 OA
ENDROOT
BRANCH   1   2
ATOM      2  C   UNL A   1      33.549  29.450  26.441  1.00  0.00     0.202 C 
BRANCH   2   3
ATOM      3  C   UNL A   1      33.066  29.331  24.994  1.00  0.00     0.261 C 
BRANCH   3   4
ATOM      4  O   UNL A   1      33.284  27.988  24.525  1.00  0.00    -0.460 OA
BRANCH   4   5
ATOM      5  C   UNL A   1      33.465  27.836  23.183  1.00  0.00     0.353 C 
ATOM      6  O   UNL A   1      34.233  28.519  22.516  1.00  0.00    -0.247 OA
BRANCH   5   7
ATOM      7  C   UNL A   1      32.670  26.646  22.627  1.00  0.00     0.236 C 
ATOM      8  C   UNL A   1      33.190  24.451  23.007  1.00  0.00     0.096 C 
ATOM      9  N   UNL A   1      33.653  24.702  21.827  1.00  0.00    -0.089 NA
ATOM     10  C   UNL A   1      32.533  25.578  23.709  1.00  0.00     0.124 C 
ATOM     11  O   UNL A   1      33.466  26.076  21.577  1.00  0.00    -0.377 OA
ATOM     12  C   UNL A   1      31.316  26.997  22.006  1.00  0.00     0.073 C 
BRANCH   8  13
ATOM     13  C   UNL A   1      33.307  23.124  23.631  1.00  0.00     0.046 A 
ATOM     14  C   UNL A   1      33.712  20.509  24.455  1.00  0.00     0.164 A 
ATOM     15  C   UNL A   1      32.532  20.859  23.780  1.00  0.00     0.051 A 
ATOM     16  C   UNL A   1      34.696  21.475  24.758  1.00  0.00     0.203 A 
ATOM     17  C   UNL A   1      32.325  22.171  23.362  1.00  0.00     0.018 A 
ATOM     18  C   UNL A   1      34.475  22.809  24.354  1.00  0.00     0.173 A 
BRANCH  14  19
ATOM     19  O   UNL A   1      33.945  19.175  24.679  1.00  0.00    -0.493 OA
ATOM     20  C   UNL A   1      32.834  18.514  25.280  1.00  0.00     0.278 C 
ENDBRANCH  14  19
BRANCH  16  21
ATOM     21  O   UNL A   1      35.886  21.218  25.383  1.00  0.00    -0.490 OA
ATOM     22  C   UNL A   1      37.069  21.026  24.628  1.00  0.00     0.278 C 
ENDBRANCH  16  21
BRANCH  18  23
ATOM     23  O   UNL A   1      35.258  23.905  24.627  1.00  0.00    -0.492 OA
ATOM     24  C   UNL A   1      35.288  24.450  25.934  1.00  0.00     0.278 C 
ENDBRANCH  18  23
ENDBRANCH   8  13
ENDBRANCH   5   7
ENDBRANCH   4   5
ENDBRANCH   3   4
ENDBRANCH   2   3
ENDBRANCH   1   2
BRANCH   1  25
ATOM     25  C   UNL A   1      31.870  31.201  26.656  1.00  0.00     0.202 C 
BRANCH  25  26
ATOM     26  C   UNL A   1      31.731  32.707  26.905  1.00  0.00     0.261 C 
BRANCH  26  27
ATOM     27  O   UNL A   1      33.010  33.365  26.941  1.00  0.00    -0.460 OA
BRANCH  27  28
ATOM     28  C   UNL A   1      33.205  34.160  28.019  1.00  0.00     0.338 C 
ATOM     29  O   UNL A   1      32.528  35.120  28.362  1.00  0.00    -0.246 OA
BRANCH  28  30
ATOM     30  C   UNL A   1      34.283  33.618  28.865  1.00  0.00     0.060 A 
ATOM     31  C   UNL A   1      35.591  34.041  28.591  1.00  0.00     0.016 A 
ATOM     32  C   UNL A   1      34.041  32.666  29.858  1.00  0.00     0.016 A 
ATOM     33  C   UNL A   1      36.665  33.476  29.274  1.00  0.00     0.010 A 
ATOM     34  C   UNL A   1      35.122  32.093  30.538  1.00  0.00     0.010 A 
ATOM     35  C   UNL A   1      36.441  32.470  30.223  1.00  0.00    -0.014 A 
BRANCH  35  36
ATOM     36  C   UNL A   1      37.592  31.720  30.780  1.00  0.00     0.031 A 
ATOM     37  C   UNL A   1      38.041  32.007  32.187  1.00  0.00     0.074 A 
ATOM     38  C   UNL A   1      38.208  30.768  30.058  1.00  0.00     0.049 A 
ATOM     39  N   UNL A   1      39.034  31.488  32.864  1.00  0.00    -0.248 NA
ATOM     40  C   UNL A   1      37.266  33.014  32.929  1.00  0.00     0.031 C 
ATOM     41  C   UNL A   1      37.842  30.366  28.701  1.00  0.00     0.029 A 
ATOM     42  N   UNL A   1      39.276  29.965  30.370  1.00  0.00    -0.354 N 
ATOM     43  C   UNL A   1      39.003  32.104  34.109  1.00  0.00     0.074 A 
ATOM     44  C   UNL A   1      37.916  33.059  34.082  1.00  0.00     0.031 C 
ATOM     45  C   UNL A   1      38.676  29.394  28.294  1.00  0.00     0.029 A 
ATOM     46  C   UNL A   1      39.651  29.127  29.350  1.00  0.00     0.049 A 
ATOM     47  H   UNL A   1      39.731  29.988  31.244  1.00  0.00     0.167 HD
ATOM     48  C   UNL A   1      39.801  31.886  35.181  1.00  0.00     0.037 A 
ATOM     49  C   UNL A   1      40.675  28.256  29.272  1.00  0.00     0.037 A 
ATOM     50  C   UNL A   1      40.883  30.937  35.209  1.00  0.00     0.049 A 
ATOM     51  C   UNL A   1      41.597  28.087  30.451  1.00  0.00     0.074 A 
ATOM     52  C   UNL A   1      41.744  30.640  36.251  1.00  0.00     0.029 A 
ATOM     53  N   UNL A   1      41.256  30.135  34.141  1.00  0.00    -0.354 N 
ATOM     54  N   UNL A   1      41.551  28.664  31.627  1.00  0.00    -0.248 NA
ATOM     55  C   UNL A   1      42.713  27.143  30.289  1.00  0.00     0.031 C 
ATOM     56  C   UNL A   1      42.664  29.688  35.800  1.00  0.00     0.029 A 
ATOM     57  C   UNL A   1      42.348  29.359  34.492  1.00  0.00     0.049 A 
ATOM     58  H   UNL A   1      40.811  30.120  33.263  1.00  0.00     0.167 HD
ATOM     59  C   UNL A   1      42.610  28.134  32.354  1.00  0.00     0.074 A 
ATOM     60  C   UNL A   1      43.275  27.182  31.489  1.00  0.00     0.031 C 
ATOM     61  C   UNL A   1      42.994  28.409  33.624  1.00  0.00     0.037 A 
BRANCH  48  62
ATOM     62  C   UNL A   1      39.542  32.704  36.411  1.00  0.00     0.057 A 
ATOM     63  C   UNL A   1      38.584  32.327  37.361  1.00  0.00     0.134 A 
ATOM     64  C   UNL A   1      40.279  33.868  36.663  1.00  0.00     0.134 A 
ATOM     65  F   UNL A   1      37.832  31.232  37.171  1.00  0.00    -0.206 F 
ATOM     66  C   UNL A   1      38.355  33.089  38.508  1.00  0.00     0.040 A 
ATOM     67  C   UNL A   1      40.077  34.625  37.818  1.00  0.00     0.040 A 
ATOM     68  F   UNL A   1      41.215  34.283  35.795  1.00  0.00    -0.206 F 
ATOM     69  C   UNL A   1      39.108  34.238  38.743  1.00  0.00     0.006 A 
ENDBRANCH  48  62
BRANCH  49  70
ATOM     70  C   UNL A   1      40.893  27.475  28.028  1.00  0.00     0.057 A 
ATOM     71  C   UNL A   1      40.332  26.204  27.863  1.00  0.00     0.134 A 
ATOM     72  C   UNL A   1      41.685  27.972  26.986  1.00  0.00     0.134 A 
ATOM     73  F   UNL A   1      39.585  25.664  28.838  1.00  0.00    -0.206 F 
ATOM     74  C   UNL A   1      40.561  25.448  26.713  1.00  0.00     0.040 A 
ATOM     75  C   UNL A   1      41.904  27.237  25.820  1.00  0.00     0.040 A 
ATOM     76  F   UNL A   1      42.252  29.183  27.086  1.00  0.00    -0.206 F 
ATOM     77  C   UNL A   1      41.346  25.968  25.685  1.00  0.00     0.006 A 
ENDBRANCH  49  70
BRANCH  61  78
ATOM     78  C   UNL A   1      44.166  27.645  34.171  1.00  0.00     0.057 A 
ATOM     79  C   UNL A   1      45.466  28.164  34.144  1.00  0.00     0.134 A 
ATOM     80  C   UNL A   1      43.981  26.391  34.767  1.00  0.00     0.134 A 
ATOM     81  F   UNL A   1      45.711  29.354  33.576  1.00  0.00    -0.206 F 
ATOM     82  C   UNL A   1      46.545  27.453  34.673  1.00  0.00     0.040 A 
ATOM     83  C   UNL A   1      45.048  25.682  35.322  1.00  0.00     0.040 A 
ATOM     84  F   UNL A   1      42.760  25.840  34.833  1.00  0.00    -0.206 F 
ATOM     85  C   UNL A   1      46.336  26.212  35.270  1.00  0.00     0.006 A 
ENDBRANCH  61  78
ENDBRANCH  35  36
ENDBRANCH  28  30
ENDBRANCH  27  28
ENDBRANCH  26  27
ENDBRANCH  25  26
ENDBRANCH   1  25
TORSDOF 18
ENDMDL
MODEL 3
REMARK VINA RESULT:     -10.1      4.865     10.202
REMARK SMILES COc1ccc(C2=NO[C@](C)(C(=O)OCCOCCOC(=O)c3ccc(-c4c5nc(c(-c6c(F)cccc6F)c6ccc([nH]6)c(-c6c(F)cccc6F)c6nc(c(-c7c(F)cccc7F)c7ccc4[nH]7)C=C6)C=C5)cc3)C2)c(OC)c1OC
REMARK SMILES IDX 17 1 16 2 15 3 14 4 12 5 13 6 10 7 7 8 8 9 77 10 9 11 11 12
REMARK SMILES IDX 6 13 3 14 4 15 81 16 5 17 78 18 2 19 1 20 82 21 83 22 79 23
REMARK SMILES IDX 80 24 18 25 19 26 20 27 21 28 22 29 23 30 24 31 76 32 25 33
REMARK SMILES IDX 75 34 26 35 27 36 28 37 69 38 29 39 74 40 68 41 70 42 30 43
REMARK SMILES IDX 73 44 67 45 66 46 31 48 57 49 40 50 56 51 41 52 44 53 55 54
REMARK SMILES IDX 71 55 42 56 43 57 54 59 72 60 45 61 32 62 33 63 38 64 34 65
REMARK SMILES IDX 35 66 37 67 39 68 36 69 58 70 59 71 64 72 60 73 61 74 63 75
REMARK SMILES IDX 65 76 62 77 46 78 47 79 52 80 48 81 49 82 51 83 53 84 50 85
REMARK H PARENT 70 47 44 58
REMARK Flexibility Score: inf
ROOT
ATOM      1  O   UNL A   1      34.362  34.267  29.288  1.00  0.00    -0.374 OA
ENDROOT
BRANCH   1   2
ATOM      2  C   UNL A   1      34.787  33.883  27.978  1.00  0.00     0.202 C 
BRANCH   2   3
ATOM      3  C   UNL A   1      35.300  32.446  27.863  1.00  0.00     0.261 C 
BRANCH   3   4
ATOM      4  O   UNL A   1      34.196  31.562  27.604  1.00  0.00    -0.460 OA
BRANCH   4   5
ATOM      5  C   UNL A   1      34.511  30.284  27.248  1.00  0.00     0.353 C 
ATOM      6  O   UNL A   1      35.608  29.773  27.441  1.00  0.00    -0.247 OA
BRANCH   5   7
ATOM      7  C   UNL A   1      33.303  29.534  26.670  1.00  0.00     0.236 C 
ATOM      8  C   UNL A   1      33.351  27.365  25.945  1.00  0.00     0.096 C 
ATOM      9  N   UNL A   1      33.434  28.076  24.869  1.00  0.00    -0.089 NA
ATOM     10  C   UNL A   1      33.277  28.112  27.222  1.00  0.00     0.124 C 
ATOM     11  O   UNL A   1      33.525  29.428  25.255  1.00  0.00    -0.377 OA
ATOM     12  C   UNL A   1      31.953  30.234  26.847  1.00  0.00     0.073 C 
BRANCH   8  13
ATOM     13  C   UNL A   1      33.335  25.895  25.915  1.00  0.00     0.046 A 
ATOM     14  C   UNL A   1      33.489  23.146  26.228  1.00  0.00     0.164 A 
ATOM     15  C   UNL A   1      34.544  23.844  25.619  1.00  0.00     0.051 A 
ATOM     16  C   UNL A   1      32.322  23.813  26.661  1.00  0.00     0.203 A 
ATOM     17  C   UNL A   1      34.471  25.225  25.462  1.00  0.00     0.018 A 
ATOM     18  C   UNL A   1      32.241  25.210  26.480  1.00  0.00     0.173 A 
BRANCH  14  19
ATOM     19  O   UNL A   1      33.690  21.821  26.524  1.00  0.00    -0.493 OA
ATOM     20  C   UNL A   1      34.773  21.250  25.792  1.00  0.00     0.278 C 
ENDBRANCH  14  19
BRANCH  16  21
ATOM     21  O   UNL A   1      31.262  23.219  27.291  1.00  0.00    -0.490 OA
ATOM     22  C   UNL A   1      30.222  22.621  26.538  1.00  0.00     0.278 C 
ENDBRANCH  16  21
BRANCH  18  23
ATOM     23  O   UNL A   1      31.168  26.026  26.746  1.00  0.00    -0.492 OA
ATOM     24  C   UNL A   1      30.195  26.272  25.747  1.00  0.00     0.278 C 
ENDBRANCH  18  23
ENDBRANCH   8  13
ENDBRANCH   5   7
ENDBRANCH   4   5
ENDBRANCH   3   4
ENDBRANCH   2   3
ENDBRANCH   1   2
BRANCH   1  25
ATOM     25  C   UNL A   1      33.051  34.817  29.407  1.00  0.00     0.202 C 
BRANCH  25  26
ATOM     26  C   UNL A   1      32.983  36.327  29.660  1.00  0.00     0.261 C 
BRANCH  26  27
ATOM     27  O   UNL A   1      33.210  36.650  31.043  1.00  0.00    -0.460 OA
BRANCH  27  28
ATOM     28  C   UNL A   1      32.769  35.718  31.921  1.00  0.00     0.338 C 
ATOM     29  O   UNL A   1      31.611  35.375  32.114  1.00  0.00    -0.246 OA
BRANCH  28  30
ATOM     30  C   UNL A   1      33.910  35.015  32.535  1.00  0.00     0.060 A 
ATOM     31  C   UNL A   1      35.162  35.639  32.469  1.00  0.00     0.016 A 
ATOM     32  C   UNL A   1      33.781  33.745  33.102  1.00  0.00     0.016 A 
ATOM     33  C   UNL A   1      36.299  34.974  32.923  1.00  0.00     0.010 A 
ATOM     34  C   UNL A   1      34.925  33.075  33.551  1.00  0.00     0.010 A 
ATOM     35  C   UNL A   1      36.193  33.672  33.431  1.00  0.00    -0.014 A 
BRANCH  35  36
ATOM     36  C   UNL A   1      37.424  32.891  33.702  1.00  0.00     0.031 A 
ATOM     37  C   UNL A   1      38.196  33.157  34.965  1.00  0.00     0.074 A 
ATOM     38  C   UNL A   1      37.829  31.930  32.855  1.00  0.00     0.049 A 
ATOM     39  N   UNL A   1      39.306  32.610  35.391  1.00  0.00    -0.248 NA
ATOM     40  C   UNL A   1      37.641  34.178  35.869  1.00  0.00     0.031 C 
ATOM     41  C   UNL A   1      37.146  31.546  31.621  1.00  0.00     0.029 A 
ATOM     42  N   UNL A   1      38.920  31.099  32.908  1.00  0.00    -0.354 N 
ATOM     43  C   UNL A   1      39.582  33.217  36.609  1.00  0.00     0.074 A 
ATOM     44  C   UNL A   1      38.544  34.199  36.839  1.00  0.00     0.031 C 
ATOM     45  C   UNL A   1      37.838  30.558  31.029  1.00  0.00     0.029 A 
ATOM     46  C   UNL A   1      39.026  30.259  31.827  1.00  0.00     0.049 A 
ATOM     47  H   UNL A   1      39.567  31.105  33.651  1.00  0.00     0.167 HD
ATOM     48  C   UNL A   1      40.603  32.973  37.465  1.00  0.00     0.037 A 
ATOM     49  C   UNL A   1      39.981  29.365  31.511  1.00  0.00     0.037 A 
ATOM     50  C   UNL A   1      41.638  31.998  37.238  1.00  0.00     0.049 A 
ATOM     51  C   UNL A   1      41.148  29.165  32.441  1.00  0.00     0.074 A 
ATOM     52  C   UNL A   1      42.710  31.673  38.050  1.00  0.00     0.029 A 
ATOM     53  N   UNL A   1      41.730  31.195  36.111  1.00  0.00    -0.354 N 
ATOM     54  N   UNL A   1      41.392  29.735  33.596  1.00  0.00    -0.248 NA
ATOM     55  C   UNL A   1      42.171  28.196  32.021  1.00  0.00     0.031 C 
ATOM     56  C   UNL A   1      43.475  30.702  37.395  1.00  0.00     0.029 A 
ATOM     57  C   UNL A   1      42.854  30.390  36.197  1.00  0.00     0.049 A 
ATOM     58  H   UNL A   1      41.092  31.197  35.362  1.00  0.00     0.167 HD
ATOM     59  C   UNL A   1      42.578  29.174  34.055  1.00  0.00     0.074 A 
ATOM     60  C   UNL A   1      42.999  28.213  33.058  1.00  0.00     0.031 C 
ATOM     61  C   UNL A   1      43.256  29.430  35.200  1.00  0.00     0.037 A 
BRANCH  48  62
ATOM     62  C   UNL A   1      40.659  33.788  38.722  1.00  0.00     0.057 A 
ATOM     63  C   UNL A   1      41.461  34.931  38.826  1.00  0.00     0.134 A 
ATOM     64  C   UNL A   1      39.878  33.443  39.833  1.00  0.00     0.134 A 
ATOM     65  F   UNL A   1      42.246  35.307  37.805  1.00  0.00    -0.206 F 
ATOM     66  C   UNL A   1      41.500  35.691  39.998  1.00  0.00     0.040 A 
ATOM     67  C   UNL A   1      39.889  34.208  41.000  1.00  0.00     0.040 A 
ATOM     68  F   UNL A   1      39.084  32.362  39.797  1.00  0.00    -0.206 F 
ATOM     69  C   UNL A   1      40.706  35.334  41.086  1.00  0.00     0.006 A 
ENDBRANCH  48  62
BRANCH  49  70
ATOM     70  C   UNL A   1      39.883  28.587  30.249  1.00  0.00     0.057 A 
ATOM     71  C   UNL A   1      40.481  29.043  29.070  1.00  0.00     0.134 A 
ATOM     72  C   UNL A   1      39.170  27.384  30.189  1.00  0.00     0.134 A 
ATOM     73  F   UNL A   1      41.155  30.203  29.059  1.00  0.00    -0.206 F 
ATOM     74  C   UNL A   1      40.363  28.338  27.871  1.00  0.00     0.040 A 
ATOM     75  C   UNL A   1      39.064  26.656  29.004  1.00  0.00     0.040 A 
ATOM     76  F   UNL A   1      38.573  26.896  31.287  1.00  0.00    -0.206 F 
ATOM     77  C   UNL A   1      39.657  27.136  27.838  1.00  0.00     0.006 A 
ENDBRANCH  49  70
BRANCH  61  78
ATOM     78  C   UNL A   1      44.503  28.635  35.457  1.00  0.00     0.057 A 
ATOM     79  C   UNL A   1      45.762  29.073  35.028  1.00  0.00     0.134 A 
ATOM     80  C   UNL A   1      44.445  27.435  36.178  1.00  0.00     0.134 A 
ATOM     81  F   UNL A   1      45.883  30.207  34.323  1.00  0.00    -0.206 F 
ATOM     82  C   UNL A   1      46.918  28.334  35.289  1.00  0.00     0.040 A 
ATOM     83  C   UNL A   1      45.596  26.701  36.467  1.00  0.00     0.040 A 
ATOM     84  F   UNL A   1      43.271  26.964  36.625  1.00  0.00    -0.206 F 
ATOM     85  C   UNL A   1      46.837  27.149  36.016  1.00  0.00     0.006 A 
ENDBRANCH  61  78
ENDBRANCH  35  36
ENDBRANCH  28  30
ENDBRANCH  27  28
ENDBRANCH  26  27
ENDBRANCH  25  26
ENDBRANCH   1  25
TORSDOF 18
ENDMDL
