MODEL 1
REMARK VINA RESULT:     -11.6      0.000      0.000
REMARK SMILES C[C@@H](C(=O)OCCOCCOC(=O)c1ccc(-c2c3nc(c(-c4c(F)cccc4F)c4ccc([nH]4)c(-c4c(F)cccc4F)c4nc(c(-c5c(F)cccc5F)c5ccc2[nH]5)C=C4)C=C3)cc1)c1ccc(-c2cccc(OC(=O)NCCC3CCCCC3)c2)c(F)c1
REMARK SMILES IDX 6 1 5 2 3 3 4 4 2 5 1 6 68 7 69 8 92 9 70 10 90 11 71 12
REMARK SMILES IDX 91 13 72 14 73 15 89 16 74 17 76 18 75 19 77 20 78 21 79 22
REMARK SMILES IDX 80 23 81 25 82 26 83 27 84 28 88 29 85 30 87 31 86 32 7 33
REMARK SMILES IDX 8 34 9 35 10 36 11 37 12 38 13 39 14 40 15 41 67 42 16 43
REMARK SMILES IDX 66 44 17 45 18 46 19 47 60 48 20 49 65 50 59 51 61 52 21 53
REMARK SMILES IDX 64 54 58 55 57 56 22 58 48 59 31 60 47 61 32 62 35 63 46 64
REMARK SMILES IDX 62 65 33 66 34 67 45 69 63 70 36 71 23 72 24 73 29 74 25 75
REMARK SMILES IDX 26 76 28 77 30 78 27 79 49 80 50 81 55 82 51 83 52 84 54 85
REMARK SMILES IDX 56 86 53 87 37 88 38 89 43 90 39 91 40 92 42 93 44 94 41 95
REMARK H PARENT 80 24 61 57 35 68
REMARK Flexibility Score: inf
ROOT
ATOM      1  C   UNL A   1      43.227  20.130  26.053  1.00  0.00     0.261 C 
ENDROOT
BRANCH   1   2
ATOM      2  O   UNL A   1      41.797  20.010  25.942  1.00  0.00    -0.463 OA
BRANCH   2   3
ATOM      3  C   UNL A   1      41.092  20.381  27.047  1.00  0.00     0.313 C 
ATOM      4  O   UNL A   1      40.756  19.609  27.939  1.00  0.00    -0.252 OA
BRANCH   3   5
ATOM      5  C   UNL A   1      40.765  21.881  27.076  1.00  0.00     0.126 C 
ATOM      6  C   UNL A   1      40.854  22.551  28.451  1.00  0.00     0.025 C 
BRANCH   5   7
ATOM      7  C   UNL A   1      39.427  22.124  26.381  1.00  0.00    -0.031 A 
ATOM      8  C   UNL A   1      38.861  23.407  26.406  1.00  0.00     0.005 A 
ATOM      9  C   UNL A   1      38.788  21.140  25.617  1.00  0.00     0.044 A 
ATOM     10  C   UNL A   1      37.692  23.694  25.689  1.00  0.00     0.012 A 
ATOM     11  C   UNL A   1      37.640  21.440  24.886  1.00  0.00     0.131 A 
ATOM     12  C   UNL A   1      37.057  22.713  24.912  1.00  0.00     0.018 A 
ATOM     13  F   UNL A   1      37.101  20.459  24.144  1.00  0.00    -0.206 F 
BRANCH  12  14
ATOM     14  C   UNL A   1      35.781  22.988  24.236  1.00  0.00    -0.012 A 
ATOM     15  C   UNL A   1      35.540  24.176  23.528  1.00  0.00     0.009 A 
ATOM     16  C   UNL A   1      34.736  22.057  24.341  1.00  0.00     0.056 A 
ATOM     17  C   UNL A   1      34.287  24.425  22.958  1.00  0.00     0.004 A 
ATOM     18  C   UNL A   1      33.482  22.311  23.797  1.00  0.00     0.133 A 
ATOM     19  C   UNL A   1      33.255  23.495  23.098  1.00  0.00     0.047 A 
BRANCH  18  20
ATOM     20  O   UNL A   1      32.372  21.437  23.926  1.00  0.00    -0.410 OA
BRANCH  20  21
ATOM     21  C   UNL A   1      32.047  20.731  25.083  1.00  0.00     0.412 C 
ATOM     22  O   UNL A   1      32.295  19.553  25.323  1.00  0.00    -0.224 OA
ATOM     23  N   UNL A   1      31.413  21.476  26.030  1.00  0.00    -0.321 N 
ATOM     24  H   UNL A   1      31.206  21.014  26.873  1.00  0.00     0.167 HD
BRANCH  23  25
ATOM     25  C   UNL A   1      31.006  22.861  25.950  1.00  0.00     0.119 C 
BRANCH  25  26
ATOM     26  C   UNL A   1      31.901  23.748  26.816  1.00  0.00     0.025 C 
BRANCH  26  27
ATOM     27  C   UNL A   1      31.949  25.231  26.382  1.00  0.00    -0.009 C 
ATOM     28  C   UNL A   1      33.383  25.697  26.080  1.00  0.00     0.003 C 
ATOM     29  C   UNL A   1      31.037  25.448  25.164  1.00  0.00     0.003 C 
ATOM     30  C   UNL A   1      33.423  27.134  25.561  1.00  0.00     0.000 C 
ATOM     31  C   UNL A   1      31.082  26.893  24.673  1.00  0.00     0.000 C 
ATOM     32  C   UNL A   1      32.508  27.328  24.358  1.00  0.00     0.000 C 
ENDBRANCH  26  27
ENDBRANCH  25  26
ENDBRANCH  23  25
ENDBRANCH  20  21
ENDBRANCH  18  20
ENDBRANCH  12  14
ENDBRANCH   5   7
ENDBRANCH   3   5
ENDBRANCH   2   3
ENDBRANCH   1   2
BRANCH   1  33
ATOM     33  C   UNL A   1      43.943  19.395  24.915  1.00  0.00     0.202 C 
BRANCH  33  34
ATOM     34  O   UNL A   1      44.557  20.182  23.896  1.00  0.00    -0.374 OA
BRANCH  34  35
ATOM     35  C   UNL A   1      45.197  21.391  24.288  1.00  0.00     0.202 C 
BRANCH  35  36
ATOM     36  C   UNL A   1      44.551  22.720  23.870  1.00  0.00     0.261 C 
BRANCH  36  37
ATOM     37  O   UNL A   1      44.021  23.461  24.981  1.00  0.00    -0.460 OA
BRANCH  37  38
ATOM     38  C   UNL A   1      44.632  24.652  25.193  1.00  0.00     0.338 C 
ATOM     39  O   UNL A   1      45.637  25.079  24.651  1.00  0.00    -0.246 OA
BRANCH  38  40
ATOM     40  C   UNL A   1      43.800  25.497  26.067  1.00  0.00     0.060 A 
ATOM     41  C   UNL A   1      44.225  26.816  26.275  1.00  0.00     0.016 A 
ATOM     42  C   UNL A   1      42.685  24.994  26.739  1.00  0.00     0.016 A 
ATOM     43  C   UNL A   1      43.567  27.624  27.196  1.00  0.00     0.010 A 
ATOM     44  C   UNL A   1      42.031  25.803  27.672  1.00  0.00     0.010 A 
ATOM     45  C   UNL A   1      42.493  27.109  27.932  1.00  0.00    -0.014 A 
BRANCH  45  46
ATOM     46  C   UNL A   1      41.960  27.886  29.076  1.00  0.00     0.031 A 
ATOM     47  C   UNL A   1      42.680  27.831  30.395  1.00  0.00     0.074 A 
ATOM     48  C   UNL A   1      40.875  28.665  28.926  1.00  0.00     0.049 A 
ATOM     49  N   UNL A   1      42.376  28.406  31.530  1.00  0.00    -0.248 NA
ATOM     50  C   UNL A   1      43.905  27.018  30.440  1.00  0.00     0.031 C 
ATOM     51  C   UNL A   1      40.123  28.838  27.684  1.00  0.00     0.029 A 
ATOM     52  N   UNL A   1      40.216  29.456  29.833  1.00  0.00    -0.354 N 
ATOM     53  C   UNL A   1      43.364  28.014  32.426  1.00  0.00     0.074 A 
ATOM     54  C   UNL A   1      44.258  27.130  31.712  1.00  0.00     0.031 C 
ATOM     55  C   UNL A   1      39.100  29.680  27.909  1.00  0.00     0.029 A 
ATOM     56  C   UNL A   1      39.104  30.073  29.316  1.00  0.00     0.049 A 
ATOM     57  H   UNL A   1      40.512  29.571  30.765  1.00  0.00     0.167 HD
ATOM     58  C   UNL A   1      43.515  28.368  33.725  1.00  0.00     0.037 A 
ATOM     59  C   UNL A   1      38.181  30.848  29.919  1.00  0.00     0.037 A 
ATOM     60  C   UNL A   1      42.624  29.253  34.428  1.00  0.00     0.049 A 
ATOM     61  C   UNL A   1      38.328  31.162  31.384  1.00  0.00     0.074 A 
ATOM     62  C   UNL A   1      42.703  29.693  35.739  1.00  0.00     0.029 A 
ATOM     63  N   UNL A   1      41.485  29.825  33.883  1.00  0.00    -0.354 N 
ATOM     64  N   UNL A   1      39.277  30.809  32.217  1.00  0.00    -0.248 NA
ATOM     65  C   UNL A   1      37.274  31.986  31.993  1.00  0.00     0.031 C 
ATOM     66  C   UNL A   1      41.578  30.480  36.004  1.00  0.00     0.029 A 
ATOM     67  C   UNL A   1      40.832  30.587  34.840  1.00  0.00     0.049 A 
ATOM     68  H   UNL A   1      41.183  29.708  32.953  1.00  0.00     0.167 HD
ATOM     69  C   UNL A   1      38.955  31.394  33.436  1.00  0.00     0.074 A 
ATOM     70  C   UNL A   1      37.729  32.135  33.230  1.00  0.00     0.031 C 
ATOM     71  C   UNL A   1      39.616  31.327  34.618  1.00  0.00     0.037 A 
BRANCH  58  72
ATOM     72  C   UNL A   1      44.667  27.769  34.479  1.00  0.00     0.057 A 
ATOM     73  C   UNL A   1      45.900  28.423  34.604  1.00  0.00     0.134 A 
ATOM     74  C   UNL A   1      44.527  26.531  35.121  1.00  0.00     0.134 A 
ATOM     75  F   UNL A   1      46.106  29.605  34.003  1.00  0.00    -0.206 F 
ATOM     76  C   UNL A   1      46.959  27.857  35.317  1.00  0.00     0.040 A 
ATOM     77  C   UNL A   1      45.569  25.969  35.862  1.00  0.00     0.040 A 
ATOM     78  F   UNL A   1      43.373  25.852  35.049  1.00  0.00    -0.206 F 
ATOM     79  C   UNL A   1      46.791  26.629  35.956  1.00  0.00     0.006 A 
ENDBRANCH  58  72
BRANCH  59  80
ATOM     80  C   UNL A   1      37.027  31.371  29.144  1.00  0.00     0.057 A 
ATOM     81  C   UNL A   1      37.005  32.689  28.675  1.00  0.00     0.134 A 
ATOM     82  C   UNL A   1      35.907  30.573  28.876  1.00  0.00     0.134 A 
ATOM     83  F   UNL A   1      38.037  33.511  28.919  1.00  0.00    -0.206 F 
ATOM     84  C   UNL A   1      35.904  33.202  27.985  1.00  0.00     0.040 A 
ATOM     85  C   UNL A   1      34.813  31.064  28.162  1.00  0.00     0.040 A 
ATOM     86  F   UNL A   1      35.865  29.300  29.296  1.00  0.00    -0.206 F 
ATOM     87  C   UNL A   1      34.806  32.386  27.722  1.00  0.00     0.006 A 
ENDBRANCH  59  80
BRANCH  71  88
ATOM     88  C   UNL A   1      39.052  32.110  35.770  1.00  0.00     0.057 A 
ATOM     89  C   UNL A   1      38.209  31.530  36.725  1.00  0.00     0.134 A 
ATOM     90  C   UNL A   1      39.393  33.459  35.946  1.00  0.00     0.134 A 
ATOM     91  F   UNL A   1      37.834  30.247  36.612  1.00  0.00    -0.206 F 
ATOM     92  C   UNL A   1      37.703  32.268  37.798  1.00  0.00     0.040 A 
ATOM     93  C   UNL A   1      38.920  34.198  37.030  1.00  0.00     0.040 A 
ATOM     94  F   UNL A   1      40.206  34.076  35.074  1.00  0.00    -0.206 F 
ATOM     95  C   UNL A   1      38.065  33.605  37.955  1.00  0.00     0.006 A 
ENDBRANCH  71  88
ENDBRANCH  45  46
ENDBRANCH  38  40
ENDBRANCH  37  38
ENDBRANCH  36  37
ENDBRANCH  35  36
ENDBRANCH  34  35
ENDBRANCH  33  34
ENDBRANCH   1  33
TORSDOF 21
ENDMDL
MODEL 2
REMARK VINA RESULT:     -11.4      4.953     10.432
REMARK SMILES C[C@@H](C(=O)OCCOCCOC(=O)c1ccc(-c2c3nc(c(-c4c(F)cccc4F)c4ccc([nH]4)c(-c4c(F)cccc4F)c4nc(c(-c5c(F)cccc5F)c5ccc2[nH]5)C=C4)C=C3)cc1)c1ccc(-c2cccc(OC(=O)NCCC3CCCCC3)c2)c(F)c1
REMARK SMILES IDX 6 1 5 2 3 3 4 4 2 5 1 6 68 7 69 8 92 9 70 10 90 11 71 12
REMARK SMILES IDX 91 13 72 14 73 15 89 16 74 17 76 18 75 19 77 20 78 21 79 22
REMARK SMILES IDX 80 23 81 25 82 26 83 27 84 28 88 29 85 30 87 31 86 32 7 33
REMARK SMILES IDX 8 34 9 35 10 36 11 37 12 38 13 39 14 40 15 41 67 42 16 43
REMARK SMILES IDX 66 44 17 45 18 46 19 47 60 48 20 49 65 50 59 51 61 52 21 53
REMARK SMILES IDX 64 54 58 55 57 56 22 58 48 59 31 60 47 61 32 62 35 63 46 64
REMARK SMILES IDX 62 65 33 66 34 67 45 69 63 70 36 71 23 72 24 73 29 74 25 75
REMARK SMILES IDX 26 76 28 77 30 78 27 79 49 80 50 81 55 82 51 83 52 84 54 85
REMARK SMILES IDX 56 86 53 87 37 88 38 89 43 90 39 91 40 92 42 93 44 94 41 95
REMARK H PARENT 80 24 61 57 35 68
REMARK Flexibility Score: inf
ROOT
ATOM      1  C   UNL A   1      32.896  35.689  29.451  1.00  0.00     0.261 C 
ENDROOT
BRANCH   1   2
ATOM      2  O   UNL A   1      32.879  34.329  28.981  1.00  0.00    -0.463 OA
BRANCH   2   3
ATOM      3  C   UNL A   1      33.897  33.988  28.142  1.00  0.00     0.313 C 
ATOM      4  O   UNL A   1      34.329  34.717  27.255  1.00  0.00    -0.252 OA
BRANCH   3   5
ATOM      5  C   UNL A   1      34.467  32.592  28.426  1.00  0.00     0.126 C 
ATOM      6  C   UNL A   1      35.987  32.456  28.282  1.00  0.00     0.025 C 
BRANCH   5   7
ATOM      7  C   UNL A   1      33.698  31.553  27.616  1.00  0.00    -0.031 A 
ATOM      8  C   UNL A   1      32.402  31.850  27.167  1.00  0.00     0.005 A 
ATOM      9  C   UNL A   1      34.274  30.347  27.200  1.00  0.00     0.044 A 
ATOM     10  C   UNL A   1      31.708  30.966  26.330  1.00  0.00     0.012 A 
ATOM     11  C   UNL A   1      33.587  29.486  26.346  1.00  0.00     0.131 A 
ATOM     12  C   UNL A   1      32.289  29.764  25.902  1.00  0.00     0.018 A 
ATOM     13  F   UNL A   1      34.216  28.364  25.957  1.00  0.00    -0.206 F 
BRANCH  12  14
ATOM     14  C   UNL A   1      31.526  28.795  25.100  1.00  0.00    -0.012 A 
ATOM     15  C   UNL A   1      30.666  29.182  24.062  1.00  0.00     0.009 A 
ATOM     16  C   UNL A   1      31.613  27.429  25.414  1.00  0.00     0.056 A 
ATOM     17  C   UNL A   1      29.908  28.230  23.371  1.00  0.00     0.004 A 
ATOM     18  C   UNL A   1      30.844  26.483  24.746  1.00  0.00     0.133 A 
ATOM     19  C   UNL A   1      29.991  26.880  23.717  1.00  0.00     0.047 A 
BRANCH  18  20
ATOM     20  O   UNL A   1      30.842  25.100  25.062  1.00  0.00    -0.410 OA
BRANCH  20  21
ATOM     21  C   UNL A   1      30.347  24.556  26.245  1.00  0.00     0.412 C 
ATOM     22  O   UNL A   1      29.347  24.915  26.861  1.00  0.00    -0.224 OA
ATOM     23  N   UNL A   1      31.065  23.499  26.714  1.00  0.00    -0.321 N 
ATOM     24  H   UNL A   1      30.716  23.069  27.528  1.00  0.00     0.167 HD
BRANCH  23  25
ATOM     25  C   UNL A   1      32.276  22.929  26.167  1.00  0.00     0.119 C 
BRANCH  25  26
ATOM     26  C   UNL A   1      33.491  23.302  27.016  1.00  0.00     0.025 C 
BRANCH  26  27
ATOM     27  C   UNL A   1      34.854  22.941  26.381  1.00  0.00    -0.009 C 
ATOM     28  C   UNL A   1      34.823  21.566  25.694  1.00  0.00     0.003 C 
ATOM     29  C   UNL A   1      35.274  24.037  25.388  1.00  0.00     0.003 C 
ATOM     30  C   UNL A   1      36.139  21.248  24.985  1.00  0.00     0.000 C 
ATOM     31  C   UNL A   1      36.597  23.705  24.704  1.00  0.00     0.000 C 
ATOM     32  C   UNL A   1      36.539  22.349  24.011  1.00  0.00     0.000 C 
ENDBRANCH  26  27
ENDBRANCH  25  26
ENDBRANCH  23  25
ENDBRANCH  20  21
ENDBRANCH  18  20
ENDBRANCH  12  14
ENDBRANCH   5   7
ENDBRANCH   3   5
ENDBRANCH   2   3
ENDBRANCH   1   2
BRANCH   1  33
ATOM     33  C   UNL A   1      33.170  35.762  30.957  1.00  0.00     0.202 C 
BRANCH  33  34
ATOM     34  O   UNL A   1      34.325  35.092  31.458  1.00  0.00    -0.374 OA
BRANCH  34  35
ATOM     35  C   UNL A   1      34.374  34.807  32.851  1.00  0.00     0.202 C 
BRANCH  35  36
ATOM     36  C   UNL A   1      34.290  33.339  33.294  1.00  0.00     0.261 C 
BRANCH  36  37
ATOM     37  O   UNL A   1      35.196  32.484  32.579  1.00  0.00    -0.460 OA
BRANCH  37  38
ATOM     38  C   UNL A   1      36.339  32.203  33.253  1.00  0.00     0.338 C 
ATOM     39  O   UNL A   1      36.571  32.397  34.434  1.00  0.00    -0.246 OA
BRANCH  38  40
ATOM     40  C   UNL A   1      37.252  31.427  32.396  1.00  0.00     0.060 A 
ATOM     41  C   UNL A   1      38.260  30.694  33.034  1.00  0.00     0.016 A 
ATOM     42  C   UNL A   1      37.185  31.483  31.003  1.00  0.00     0.016 A 
ATOM     43  C   UNL A   1      39.240  30.054  32.283  1.00  0.00     0.010 A 
ATOM     44  C   UNL A   1      38.176  30.848  30.249  1.00  0.00     0.010 A 
ATOM     45  C   UNL A   1      39.229  30.163  30.887  1.00  0.00    -0.014 A 
BRANCH  45  46
ATOM     46  C   UNL A   1      40.402  29.691  30.114  1.00  0.00     0.031 A 
ATOM     47  C   UNL A   1      41.551  30.632  29.884  1.00  0.00     0.074 A 
ATOM     48  C   UNL A   1      40.460  28.426  29.664  1.00  0.00     0.049 A 
ATOM     49  N   UNL A   1      42.660  30.441  29.216  1.00  0.00    -0.248 NA
ATOM     50  C   UNL A   1      41.435  31.970  30.487  1.00  0.00     0.031 C 
ATOM     51  C   UNL A   1      39.430  27.408  29.868  1.00  0.00     0.029 A 
ATOM     52  N   UNL A   1      41.430  27.784  28.936  1.00  0.00    -0.354 N 
ATOM     53  C   UNL A   1      43.366  31.635  29.307  1.00  0.00     0.074 A 
ATOM     54  C   UNL A   1      42.548  32.554  30.068  1.00  0.00     0.031 C 
ATOM     55  C   UNL A   1      39.822  26.268  29.274  1.00  0.00     0.029 A 
ATOM     56  C   UNL A   1      41.108  26.488  28.617  1.00  0.00     0.049 A 
ATOM     57  H   UNL A   1      42.276  28.211  28.670  1.00  0.00     0.167 HD
ATOM     58  C   UNL A   1      44.589  31.933  28.807  1.00  0.00     0.037 A 
ATOM     59  C   UNL A   1      41.768  25.590  27.859  1.00  0.00     0.037 A 
ATOM     60  C   UNL A   1      45.400  31.012  28.055  1.00  0.00     0.049 A 
ATOM     61  C   UNL A   1      43.090  25.974  27.249  1.00  0.00     0.074 A 
ATOM     62  C   UNL A   1      46.663  31.210  27.526  1.00  0.00     0.029 A 
ATOM     63  N   UNL A   1      45.022  29.721  27.716  1.00  0.00    -0.354 N 
ATOM     64  N   UNL A   1      43.761  27.095  27.360  1.00  0.00    -0.248 NA
ATOM     65  C   UNL A   1      43.748  24.964  26.408  1.00  0.00     0.031 C 
ATOM     66  C   UNL A   1      47.023  30.061  26.813  1.00  0.00     0.029 A 
ATOM     67  C   UNL A   1      46.013  29.122  26.955  1.00  0.00     0.049 A 
ATOM     68  H   UNL A   1      44.174  29.293  27.977  1.00  0.00     0.167 HD
ATOM     69  C   UNL A   1      44.933  26.914  26.634  1.00  0.00     0.074 A 
ATOM     70  C   UNL A   1      44.886  25.570  26.098  1.00  0.00     0.031 C 
ATOM     71  C   UNL A   1      45.957  27.780  26.433  1.00  0.00     0.037 A 
BRANCH  58  72
ATOM     72  C   UNL A   1      45.110  33.325  29.029  1.00  0.00     0.057 A 
ATOM     73  C   UNL A   1      45.909  33.658  30.130  1.00  0.00     0.134 A 
ATOM     74  C   UNL A   1      44.833  34.340  28.104  1.00  0.00     0.134 A 
ATOM     75  F   UNL A   1      46.201  32.736  31.061  1.00  0.00    -0.206 F 
ATOM     76  C   UNL A   1      46.394  34.953  30.316  1.00  0.00     0.040 A 
ATOM     77  C   UNL A   1      45.337  35.632  28.263  1.00  0.00     0.040 A 
ATOM     78  F   UNL A   1      44.079  34.091  27.023  1.00  0.00    -0.206 F 
ATOM     79  C   UNL A   1      46.114  35.944  29.376  1.00  0.00     0.006 A 
ENDBRANCH  58  72
BRANCH  59  80
ATOM     80  C   UNL A   1      41.185  24.245  27.622  1.00  0.00     0.057 A 
ATOM     81  C   UNL A   1      41.703  23.108  28.253  1.00  0.00     0.134 A 
ATOM     82  C   UNL A   1      40.114  24.059  26.738  1.00  0.00     0.134 A 
ATOM     83  F   UNL A   1      42.743  23.216  29.093  1.00  0.00    -0.206 F 
ATOM     84  C   UNL A   1      41.190  21.834  28.001  1.00  0.00     0.040 A 
ATOM     85  C   UNL A   1      39.573  22.796  26.499  1.00  0.00     0.040 A 
ATOM     86  F   UNL A   1      39.571  25.108  26.102  1.00  0.00    -0.206 F 
ATOM     87  C   UNL A   1      40.118  21.677  27.125  1.00  0.00     0.006 A 
ENDBRANCH  59  80
BRANCH  71  88
ATOM     88  C   UNL A   1      47.131  27.288  25.636  1.00  0.00     0.057 A 
ATOM     89  C   UNL A   1      48.172  26.553  26.216  1.00  0.00     0.134 A 
ATOM     90  C   UNL A   1      47.199  27.520  24.255  1.00  0.00     0.134 A 
ATOM     91  F   UNL A   1      48.176  26.304  27.534  1.00  0.00    -0.206 F 
ATOM     92  C   UNL A   1      49.251  26.092  25.459  1.00  0.00     0.040 A 
ATOM     93  C   UNL A   1      48.255  27.037  23.482  1.00  0.00     0.040 A 
ATOM     94  F   UNL A   1      46.229  28.208  23.631  1.00  0.00    -0.206 F 
ATOM     95  C   UNL A   1      49.290  26.328  24.086  1.00  0.00     0.006 A 
ENDBRANCH  71  88
ENDBRANCH  45  46
ENDBRANCH  38  40
ENDBRANCH  37  38
ENDBRANCH  36  37
ENDBRANCH  35  36
ENDBRANCH  34  35
ENDBRANCH  33  34
ENDBRANCH   1  33
TORSDOF 21
ENDMDL
MODEL 3
REMARK VINA RESULT:     -11.4      1.371      2.802
REMARK SMILES C[C@@H](C(=O)OCCOCCOC(=O)c1ccc(-c2c3nc(c(-c4c(F)cccc4F)c4ccc([nH]4)c(-c4c(F)cccc4F)c4nc(c(-c5c(F)cccc5F)c5ccc2[nH]5)C=C4)C=C3)cc1)c1ccc(-c2cccc(OC(=O)NCCC3CCCCC3)c2)c(F)c1
REMARK SMILES IDX 6 1 5 2 3 3 4 4 2 5 1 6 68 7 69 8 92 9 70 10 90 11 71 12
REMARK SMILES IDX 91 13 72 14 73 15 89 16 74 17 76 18 75 19 77 20 78 21 79 22
REMARK SMILES IDX 80 23 81 25 82 26 83 27 84 28 88 29 85 30 87 31 86 32 7 33
REMARK SMILES IDX 8 34 9 35 10 36 11 37 12 38 13 39 14 40 15 41 67 42 16 43
REMARK SMILES IDX 66 44 17 45 18 46 19 47 60 48 20 49 65 50 59 51 61 52 21 53
REMARK SMILES IDX 64 54 58 55 57 56 22 58 48 59 31 60 47 61 32 62 35 63 46 64
REMARK SMILES IDX 62 65 33 66 34 67 45 69 63 70 36 71 23 72 24 73 29 74 25 75
REMARK SMILES IDX 26 76 28 77 30 78 27 79 49 80 50 81 55 82 51 83 52 84 54 85
REMARK SMILES IDX 56 86 53 87 37 88 38 89 43 90 39 91 40 92 42 93 44 94 41 95
REMARK H PARENT 80 24 61 57 35 68
REMARK Flexibility Score: inf
ROOT
ATOM      1  C   UNL A   1      43.951  19.077  25.421  1.00  0.00     0.261 C 
ENDROOT
BRANCH   1   2
ATOM      2  O   UNL A   1      42.657  19.685  25.258  1.00  0.00    -0.463 OA
BRANCH   2   3
ATOM      3  C   UNL A   1      41.972  19.920  26.411  1.00  0.00     0.313 C 
ATOM      4  O   UNL A   1      41.529  19.038  27.139  1.00  0.00    -0.252 OA
BRANCH   3   5
ATOM      5  C   UNL A   1      41.818  21.415  26.724  1.00  0.00     0.126 C 
ATOM      6  C   UNL A   1      42.350  21.864  28.090  1.00  0.00     0.025 C 
BRANCH   5   7
ATOM      7  C   UNL A   1      40.373  21.841  26.479  1.00  0.00    -0.031 A 
ATOM      8  C   UNL A   1      39.951  23.116  26.885  1.00  0.00     0.005 A 
ATOM      9  C   UNL A   1      39.469  21.050  25.760  1.00  0.00     0.044 A 
ATOM     10  C   UNL A   1      38.666  23.582  26.581  1.00  0.00     0.012 A 
ATOM     11  C   UNL A   1      38.201  21.531  25.439  1.00  0.00     0.131 A 
ATOM     12  C   UNL A   1      37.763  22.797  25.849  1.00  0.00     0.018 A 
ATOM     13  F   UNL A   1      37.399  20.734  24.714  1.00  0.00    -0.206 F 
BRANCH  12  14
ATOM     14  C   UNL A   1      36.384  23.248  25.610  1.00  0.00    -0.012 A 
ATOM     15  C   UNL A   1      36.039  24.100  24.551  1.00  0.00     0.009 A 
ATOM     16  C   UNL A   1      35.373  22.861  26.505  1.00  0.00     0.056 A 
ATOM     17  C   UNL A   1      34.726  24.559  24.402  1.00  0.00     0.004 A 
ATOM     18  C   UNL A   1      34.072  23.333  26.375  1.00  0.00     0.133 A 
ATOM     19  C   UNL A   1      33.742  24.181  25.318  1.00  0.00     0.047 A 
BRANCH  18  20
ATOM     20  O   UNL A   1      33.026  23.028  27.282  1.00  0.00    -0.410 OA
BRANCH  20  21
ATOM     21  C   UNL A   1      31.724  22.696  26.912  1.00  0.00     0.412 C 
ATOM     22  O   UNL A   1      30.699  23.317  27.181  1.00  0.00    -0.224 OA
ATOM     23  N   UNL A   1      31.632  21.572  26.150  1.00  0.00    -0.321 N 
ATOM     24  H   UNL A   1      30.728  21.334  25.841  1.00  0.00     0.167 HD
BRANCH  23  25
ATOM     25  C   UNL A   1      32.695  20.684  25.738  1.00  0.00     0.119 C 
BRANCH  25  26
ATOM     26  C   UNL A   1      32.392  20.056  24.378  1.00  0.00     0.025 C 
BRANCH  26  27
ATOM     27  C   UNL A   1      32.580  18.523  24.321  1.00  0.00    -0.009 C 
ATOM     28  C   UNL A   1      33.922  18.131  23.680  1.00  0.00     0.003 C 
ATOM     29  C   UNL A   1      32.456  17.928  25.733  1.00  0.00     0.003 C 
ATOM     30  C   UNL A   1      34.153  16.621  23.706  1.00  0.00     0.000 C 
ATOM     31  C   UNL A   1      32.675  16.418  25.732  1.00  0.00     0.000 C 
ATOM     32  C   UNL A   1      34.020  16.052  25.114  1.00  0.00     0.000 C 
ENDBRANCH  26  27
ENDBRANCH  25  26
ENDBRANCH  23  25
ENDBRANCH  20  21
ENDBRANCH  18  20
ENDBRANCH  12  14
ENDBRANCH   5   7
ENDBRANCH   3   5
ENDBRANCH   2   3
ENDBRANCH   1   2
BRANCH   1  33
ATOM     33  C   UNL A   1      44.987  19.696  24.476  1.00  0.00     0.202 C 
BRANCH  33  34
ATOM     34  O   UNL A   1      44.549  20.719  23.583  1.00  0.00    -0.374 OA
BRANCH  34  35
ATOM     35  C   UNL A   1      44.948  22.056  23.862  1.00  0.00     0.202 C 
BRANCH  35  36
ATOM     36  C   UNL A   1      43.893  23.027  24.413  1.00  0.00     0.261 C 
BRANCH  36  37
ATOM     37  O   UNL A   1      44.346  24.390  24.443  1.00  0.00    -0.460 OA
BRANCH  37  38
ATOM     38  C   UNL A   1      44.995  24.733  25.582  1.00  0.00     0.338 C 
ATOM     39  O   UNL A   1      46.173  24.560  25.847  1.00  0.00    -0.246 OA
BRANCH  38  40
ATOM     40  C   UNL A   1      44.114  25.544  26.440  1.00  0.00     0.060 A 
ATOM     41  C   UNL A   1      44.403  26.911  26.543  1.00  0.00     0.016 A 
ATOM     42  C   UNL A   1      43.088  24.974  27.195  1.00  0.00     0.016 A 
ATOM     43  C   UNL A   1      43.701  27.707  27.442  1.00  0.00     0.010 A 
ATOM     44  C   UNL A   1      42.390  25.773  28.105  1.00  0.00     0.010 A 
ATOM     45  C   UNL A   1      42.720  27.134  28.260  1.00  0.00    -0.014 A 
BRANCH  45  46
ATOM     46  C   UNL A   1      42.154  27.927  29.377  1.00  0.00     0.031 A 
ATOM     47  C   UNL A   1      42.852  27.915  30.708  1.00  0.00     0.074 A 
ATOM     48  C   UNL A   1      41.058  28.683  29.192  1.00  0.00     0.049 A 
ATOM     49  N   UNL A   1      42.520  28.510  31.825  1.00  0.00    -0.248 NA
ATOM     50  C   UNL A   1      44.091  27.125  30.792  1.00  0.00     0.031 C 
ATOM     51  C   UNL A   1      40.325  28.815  27.934  1.00  0.00     0.029 A 
ATOM     52  N   UNL A   1      40.370  29.483  30.069  1.00  0.00    -0.354 N 
ATOM     53  C   UNL A   1      43.499  28.156  32.746  1.00  0.00     0.074 A 
ATOM     54  C   UNL A   1      44.421  27.272  32.067  1.00  0.00     0.031 C 
ATOM     55  C   UNL A   1      39.284  29.643  28.122  1.00  0.00     0.029 A 
ATOM     56  C   UNL A   1      39.257  30.068  29.519  1.00  0.00     0.049 A 
ATOM     57  H   UNL A   1      40.649  29.624  31.003  1.00  0.00     0.167 HD
ATOM     58  C   UNL A   1      43.622  28.542  34.039  1.00  0.00     0.037 A 
ATOM     59  C   UNL A   1      38.310  30.840  30.089  1.00  0.00     0.037 A 
ATOM     60  C   UNL A   1      42.704  29.427  34.707  1.00  0.00     0.049 A 
ATOM     61  C   UNL A   1      38.428  31.190  31.549  1.00  0.00     0.074 A 
ATOM     62  C   UNL A   1      42.753  29.897  36.007  1.00  0.00     0.029 A 
ATOM     63  N   UNL A   1      41.564  29.966  34.129  1.00  0.00    -0.354 N 
ATOM     64  N   UNL A   1      39.368  30.873  32.405  1.00  0.00    -0.248 NA
ATOM     65  C   UNL A   1      37.350  32.009  32.122  1.00  0.00     0.031 C 
ATOM     66  C   UNL A   1      41.610  30.670  36.236  1.00  0.00     0.029 A 
ATOM     67  C   UNL A   1      40.883  30.738  35.058  1.00  0.00     0.049 A 
ATOM     68  H   UNL A   1      41.280  29.823  33.197  1.00  0.00     0.167 HD
ATOM     69  C   UNL A   1      39.015  31.479  33.605  1.00  0.00     0.074 A 
ATOM     70  C   UNL A   1      37.780  32.194  33.362  1.00  0.00     0.031 C 
ATOM     71  C   UNL A   1      39.657  31.451  34.799  1.00  0.00     0.037 A 
BRANCH  58  72
ATOM     72  C   UNL A   1      44.772  27.981  34.825  1.00  0.00     0.057 A 
ATOM     73  C   UNL A   1      44.644  26.834  35.621  1.00  0.00     0.134 A 
ATOM     74  C   UNL A   1      46.037  28.579  34.757  1.00  0.00     0.134 A 
ATOM     75  F   UNL A   1      43.458  26.219  35.742  1.00  0.00    -0.206 F 
ATOM     76  C   UNL A   1      45.725  26.318  36.338  1.00  0.00     0.040 A 
ATOM     77  C   UNL A   1      47.132  28.055  35.445  1.00  0.00     0.040 A 
ATOM     78  F   UNL A   1      46.232  29.676  34.010  1.00  0.00    -0.206 F 
ATOM     79  C   UNL A   1      46.977  26.925  36.244  1.00  0.00     0.006 A 
ENDBRANCH  58  72
BRANCH  59  80
ATOM     80  C   UNL A   1      37.161  31.324  29.284  1.00  0.00     0.057 A 
ATOM     81  C   UNL A   1      37.142  32.618  28.750  1.00  0.00     0.134 A 
ATOM     82  C   UNL A   1      36.041  30.516  29.050  1.00  0.00     0.134 A 
ATOM     83  F   UNL A   1      38.174  33.449  28.956  1.00  0.00    -0.206 F 
ATOM     84  C   UNL A   1      36.046  33.097  28.029  1.00  0.00     0.040 A 
ATOM     85  C   UNL A   1      34.951  30.971  28.308  1.00  0.00     0.040 A 
ATOM     86  F   UNL A   1      35.996  29.265  29.533  1.00  0.00    -0.206 F 
ATOM     87  C   UNL A   1      34.948  32.269  27.802  1.00  0.00     0.006 A 
ENDBRANCH  59  80
BRANCH  71  88
ATOM     88  C   UNL A   1      39.061  32.250  35.923  1.00  0.00     0.057 A 
ATOM     89  C   UNL A   1      38.195  31.682  36.865  1.00  0.00     0.134 A 
ATOM     90  C   UNL A   1      39.393  33.602  36.087  1.00  0.00     0.134 A 
ATOM     91  F   UNL A   1      37.826  30.396  36.761  1.00  0.00    -0.206 F 
ATOM     92  C   UNL A   1      37.657  32.434  37.911  1.00  0.00     0.040 A 
ATOM     93  C   UNL A   1      38.889  34.356  37.147  1.00  0.00     0.040 A 
ATOM     94  F   UNL A   1      40.228  34.208  35.228  1.00  0.00    -0.206 F 
ATOM     95  C   UNL A   1      38.011  33.774  38.058  1.00  0.00     0.006 A 
ENDBRANCH  71  88
ENDBRANCH  45  46
ENDBRANCH  38  40
ENDBRANCH  37  38
ENDBRANCH  36  37
ENDBRANCH  35  36
ENDBRANCH  34  35
ENDBRANCH  33  34
ENDBRANCH   1  33
TORSDOF 21
ENDMDL
