MODEL 1
REMARK VINA RESULT:     -11.2      0.000      0.000
REMARK SMILES Cc1cc(C[N@H+]2CCN(C)C(=O)C2(C)C)oc1C(=O)OCCOCCOC(=O)c1ccc(-c2c3nc(c(-c4c(F)cccc4F)c4ccc([nH]4)c(-c4c(F)cccc4F)c4nc(c(-c5c(F)cccc5F)c5ccc2[nH]5)C=C4)C=C3)cc1
REMARK SMILES IDX 23 1 22 2 21 3 20 4 18 5 19 6 17 7 1 8 2 9 3 10 4 11 16 12
REMARK SMILES IDX 5 13 6 14 7 15 13 16 8 18 11 19 14 20 15 21 9 22 12 23 10 24
REMARK SMILES IDX 24 25 25 26 26 27 27 28 28 29 29 30 30 31 82 32 31 33 81 34
REMARK SMILES IDX 32 35 33 36 34 37 75 38 35 39 80 40 74 41 76 42 36 43 79 44
REMARK SMILES IDX 73 45 72 46 37 48 63 49 46 50 62 51 47 52 50 53 61 54 77 55
REMARK SMILES IDX 48 56 49 57 60 59 78 60 51 61 38 62 39 63 44 64 40 65 41 66
REMARK SMILES IDX 43 67 45 68 42 69 64 70 65 71 70 72 66 73 67 74 69 75 71 76
REMARK SMILES IDX 68 77 52 78 53 79 58 80 54 81 55 82 57 83 59 84 56 85
REMARK H PARENT 6 17 76 47 50 58
REMARK Flexibility Score: inf
ROOT
ATOM      1  O   UNL A   1      34.263  34.249  30.746  1.00  0.00    -0.374 OA
ENDROOT
BRANCH   1   2
ATOM      2  C   UNL A   1      33.426  34.867  29.767  1.00  0.00     0.202 C 
BRANCH   2   3
ATOM      3  C   UNL A   1      33.560  34.246  28.374  1.00  0.00     0.261 C 
BRANCH   3   4
ATOM      4  O   UNL A   1      33.831  32.840  28.497  1.00  0.00    -0.457 OA
BRANCH   4   5
ATOM      5  C   UNL A   1      34.952  32.383  27.872  1.00  0.00     0.374 C 
ATOM      6  O   UNL A   1      35.994  33.018  27.766  1.00  0.00    -0.242 OA
BRANCH   5   7
ATOM      7  C   UNL A   1      34.757  31.010  27.456  1.00  0.00     0.215 A 
ATOM      8  C   UNL A   1      36.988  29.685  27.793  1.00  0.00     0.049 C 
ATOM      9  C   UNL A   1      35.562  29.875  27.420  1.00  0.00     0.003 A 
ATOM     10  C   UNL A   1      34.728  28.828  26.939  1.00  0.00     0.056 A 
ATOM     11  C   UNL A   1      33.538  29.394  26.543  1.00  0.00     0.159 A 
ATOM     12  O   UNL A   1      33.539  30.710  26.896  1.00  0.00    -0.448 OA
BRANCH  11  13
ATOM     13  C   UNL A   1      32.295  28.888  25.885  1.00  0.00     0.339 C 
BRANCH  13  14
ATOM     14  N   UNL A   1      32.382  27.627  25.123  1.00  0.00    -0.315 N 
ATOM     15  C   UNL A   1      31.735  26.491  25.789  1.00  0.00     0.285 C 
ATOM     16  C   UNL A   1      32.089  27.665  23.663  1.00  0.00     0.172 C 
ATOM     17  H   UNL A   1      33.390  27.476  25.137  1.00  0.00     0.349 HD
ATOM     18  C   UNL A   1      30.231  26.383  25.536  1.00  0.00     0.180 C 
ATOM     19  C   UNL A   1      30.563  27.550  23.354  1.00  0.00     0.283 C 
ATOM     20  C   UNL A   1      32.706  28.903  22.976  1.00  0.00     0.090 C 
ATOM     21  C   UNL A   1      32.734  26.439  22.968  1.00  0.00     0.090 C 
ATOM     22  N   UNL A   1      29.800  26.733  24.186  1.00  0.00    -0.335 N 
ATOM     23  O   UNL A   1      30.078  28.079  22.349  1.00  0.00    -0.268 OA
ATOM     24  C   UNL A   1      28.417  26.448  23.851  1.00  0.00     0.147 C 
ENDBRANCH  13  14
ENDBRANCH  11  13
ENDBRANCH   5   7
ENDBRANCH   4   5
ENDBRANCH   3   4
ENDBRANCH   2   3
ENDBRANCH   1   2
BRANCH   1  25
ATOM     25  C   UNL A   1      34.046  34.654  32.100  1.00  0.00     0.202 C 
BRANCH  25  26
ATOM     26  C   UNL A   1      34.220  33.519  33.112  1.00  0.00     0.261 C 
BRANCH  26  27
ATOM     27  O   UNL A   1      35.054  32.483  32.560  1.00  0.00    -0.460 OA
BRANCH  27  28
ATOM     28  C   UNL A   1      36.216  32.273  33.222  1.00  0.00     0.338 C 
ATOM     29  O   UNL A   1      36.444  32.482  34.401  1.00  0.00    -0.246 OA
BRANCH  28  30
ATOM     30  C   UNL A   1      37.177  31.581  32.336  1.00  0.00     0.060 A 
ATOM     31  C   UNL A   1      38.062  30.676  32.932  1.00  0.00     0.016 A 
ATOM     32  C   UNL A   1      37.246  31.839  30.964  1.00  0.00     0.016 A 
ATOM     33  C   UNL A   1      39.055  30.064  32.169  1.00  0.00     0.010 A 
ATOM     34  C   UNL A   1      38.246  31.227  30.199  1.00  0.00     0.010 A 
ATOM     35  C   UNL A   1      39.175  30.364  30.806  1.00  0.00    -0.014 A 
BRANCH  35  36
ATOM     36  C   UNL A   1      40.356  29.881  30.054  1.00  0.00     0.031 A 
ATOM     37  C   UNL A   1      41.504  30.822  29.814  1.00  0.00     0.074 A 
ATOM     38  C   UNL A   1      40.424  28.611  29.618  1.00  0.00     0.049 A 
ATOM     39  N   UNL A   1      42.626  30.618  29.174  1.00  0.00    -0.248 NA
ATOM     40  C   UNL A   1      41.367  32.178  30.372  1.00  0.00     0.031 C 
ATOM     41  C   UNL A   1      39.394  27.593  29.815  1.00  0.00     0.029 A 
ATOM     42  N   UNL A   1      41.408  27.965  28.914  1.00  0.00    -0.354 N 
ATOM     43  C   UNL A   1      43.328  31.813  29.251  1.00  0.00     0.074 A 
ATOM     44  C   UNL A   1      42.494  32.750  29.973  1.00  0.00     0.031 C 
ATOM     45  C   UNL A   1      39.797  26.450  29.234  1.00  0.00     0.029 A 
ATOM     46  C   UNL A   1      41.100  26.662  28.607  1.00  0.00     0.049 A 
ATOM     47  H   UNL A   1      42.255  28.394  28.653  1.00  0.00     0.167 HD
ATOM     48  C   UNL A   1      44.561  32.104  28.772  1.00  0.00     0.037 A 
ATOM     49  C   UNL A   1      41.785  25.753  27.888  1.00  0.00     0.037 A 
ATOM     50  C   UNL A   1      45.393  31.175  28.055  1.00  0.00     0.049 A 
ATOM     51  C   UNL A   1      43.126  26.119  27.311  1.00  0.00     0.074 A 
ATOM     52  C   UNL A   1      46.667  31.372  27.547  1.00  0.00     0.029 A 
ATOM     53  N   UNL A   1      45.033  29.875  27.739  1.00  0.00    -0.354 N 
ATOM     54  N   UNL A   1      43.791  27.245  27.412  1.00  0.00    -0.248 NA
ATOM     55  C   UNL A   1      43.813  25.086  26.521  1.00  0.00     0.031 C 
ATOM     56  C   UNL A   1      47.060  30.202  26.889  1.00  0.00     0.029 A 
ATOM     57  C   UNL A   1      46.049  29.264  27.023  1.00  0.00     0.049 A 
ATOM     58  H   UNL A   1      44.180  29.449  27.986  1.00  0.00     0.167 HD
ATOM     59  C   UNL A   1      44.982  27.048  26.724  1.00  0.00     0.074 A 
ATOM     60  C   UNL A   1      44.952  25.691  26.216  1.00  0.00     0.031 C 
ATOM     61  C   UNL A   1      46.008  27.912  26.530  1.00  0.00     0.037 A 
BRANCH  48  62
ATOM     62  C   UNL A   1      45.076  33.493  28.997  1.00  0.00     0.057 A 
ATOM     63  C   UNL A   1      44.837  34.525  28.081  1.00  0.00     0.134 A 
ATOM     64  C   UNL A   1      45.794  33.810  30.156  1.00  0.00     0.134 A 
ATOM     65  F   UNL A   1      44.167  34.283  26.943  1.00  0.00    -0.206 F 
ATOM     66  C   UNL A   1      45.312  35.819  28.300  1.00  0.00     0.040 A 
ATOM     67  C   UNL A   1      46.256  35.104  30.397  1.00  0.00     0.040 A 
ATOM     68  F   UNL A   1      46.055  32.866  31.074  1.00  0.00    -0.206 F 
ATOM     69  C   UNL A   1      46.019  36.112  29.465  1.00  0.00     0.006 A 
ENDBRANCH  48  62
BRANCH  49  70
ATOM     70  C   UNL A   1      41.211  24.404  27.660  1.00  0.00     0.057 A 
ATOM     71  C   UNL A   1      41.668  23.291  28.374  1.00  0.00     0.134 A 
ATOM     72  C   UNL A   1      40.207  24.195  26.707  1.00  0.00     0.134 A 
ATOM     73  F   UNL A   1      42.645  23.427  29.283  1.00  0.00    -0.206 F 
ATOM     74  C   UNL A   1      41.156  22.014  28.140  1.00  0.00     0.040 A 
ATOM     75  C   UNL A   1      39.672  22.926  26.478  1.00  0.00     0.040 A 
ATOM     76  F   UNL A   1      39.728  25.222  25.991  1.00  0.00    -0.206 F 
ATOM     77  C   UNL A   1      40.152  21.830  27.192  1.00  0.00     0.006 A 
ENDBRANCH  49  70
BRANCH  61  78
ATOM     78  C   UNL A   1      47.195  27.409  25.763  1.00  0.00     0.057 A 
ATOM     79  C   UNL A   1      47.309  27.591  24.380  1.00  0.00     0.134 A 
ATOM     80  C   UNL A   1      48.254  26.776  26.424  1.00  0.00     0.134 A 
ATOM     81  F   UNL A   1      46.323  28.180  23.687  1.00  0.00    -0.206 F 
ATOM     82  C   UNL A   1      48.429  27.142  23.677  1.00  0.00     0.040 A 
ATOM     83  C   UNL A   1      49.388  26.343  25.736  1.00  0.00     0.040 A 
ATOM     84  F   UNL A   1      48.209  26.579  27.750  1.00  0.00    -0.206 F 
ATOM     85  C   UNL A   1      49.476  26.522  24.357  1.00  0.00     0.006 A 
ENDBRANCH  61  78
ENDBRANCH  35  36
ENDBRANCH  28  30
ENDBRANCH  27  28
ENDBRANCH  26  27
ENDBRANCH  25  26
ENDBRANCH   1  25
TORSDOF 16
ENDMDL
MODEL 2
REMARK VINA RESULT:     -10.9      0.849      6.264
REMARK SMILES Cc1cc(C[N@H+]2CCN(C)C(=O)C2(C)C)oc1C(=O)OCCOCCOC(=O)c1ccc(-c2c3nc(c(-c4c(F)cccc4F)c4ccc([nH]4)c(-c4c(F)cccc4F)c4nc(c(-c5c(F)cccc5F)c5ccc2[nH]5)C=C4)C=C3)cc1
REMARK SMILES IDX 23 1 22 2 21 3 20 4 18 5 19 6 17 7 1 8 2 9 3 10 4 11 16 12
REMARK SMILES IDX 5 13 6 14 7 15 13 16 8 18 11 19 14 20 15 21 9 22 12 23 10 24
REMARK SMILES IDX 24 25 25 26 26 27 27 28 28 29 29 30 30 31 82 32 31 33 81 34
REMARK SMILES IDX 32 35 33 36 34 37 75 38 35 39 80 40 74 41 76 42 36 43 79 44
REMARK SMILES IDX 73 45 72 46 37 48 63 49 46 50 62 51 47 52 50 53 61 54 77 55
REMARK SMILES IDX 48 56 49 57 60 59 78 60 51 61 38 62 39 63 44 64 40 65 41 66
REMARK SMILES IDX 43 67 45 68 42 69 64 70 65 71 70 72 66 73 67 74 69 75 71 76
REMARK SMILES IDX 68 77 52 78 53 79 58 80 54 81 55 82 57 83 59 84 56 85
REMARK H PARENT 6 17 76 47 50 58
REMARK Flexibility Score: inf
ROOT
ATOM      1  O   UNL A   1      34.334  34.801  31.048  1.00  0.00    -0.374 OA
ENDROOT
BRANCH   1   2
ATOM      2  C   UNL A   1      33.291  35.024  30.098  1.00  0.00     0.202 C 
BRANCH   2   3
ATOM      3  C   UNL A   1      33.545  34.348  28.748  1.00  0.00     0.261 C 
BRANCH   3   4
ATOM      4  O   UNL A   1      34.048  33.019  28.962  1.00  0.00    -0.457 OA
BRANCH   4   5
ATOM      5  C   UNL A   1      34.882  32.527  28.003  1.00  0.00     0.374 C 
ATOM      6  O   UNL A   1      35.916  33.072  27.638  1.00  0.00    -0.242 OA
BRANCH   5   7
ATOM      7  C   UNL A   1      34.419  31.225  27.569  1.00  0.00     0.215 A 
ATOM      8  C   UNL A   1      36.237  29.432  28.136  1.00  0.00     0.049 C 
ATOM      9  C   UNL A   1      34.939  29.936  27.617  1.00  0.00     0.003 A 
ATOM     10  C   UNL A   1      33.938  29.097  27.052  1.00  0.00     0.056 A 
ATOM     11  C   UNL A   1      32.958  29.911  26.535  1.00  0.00     0.159 A 
ATOM     12  O   UNL A   1      33.227  31.200  26.886  1.00  0.00    -0.448 OA
BRANCH  11  13
ATOM     13  C   UNL A   1      31.704  29.688  25.752  1.00  0.00     0.339 C 
BRANCH  13  14
ATOM     14  N   UNL A   1      31.833  29.382  24.315  1.00  0.00    -0.315 N 
ATOM     15  C   UNL A   1      32.814  28.331  24.022  1.00  0.00     0.285 C 
ATOM     16  C   UNL A   1      30.588  29.228  23.512  1.00  0.00     0.172 C 
ATOM     17  H   UNL A   1      32.202  30.268  23.973  1.00  0.00     0.349 HD
ATOM     18  C   UNL A   1      32.269  26.907  24.137  1.00  0.00     0.180 C 
ATOM     19  C   UNL A   1      29.996  27.786  23.593  1.00  0.00     0.283 C 
ATOM     20  C   UNL A   1      29.526  30.289  23.875  1.00  0.00     0.090 C 
ATOM     21  C   UNL A   1      30.902  29.450  22.011  1.00  0.00     0.090 C 
ATOM     22  N   UNL A   1      30.897  26.726  23.670  1.00  0.00    -0.335 N 
ATOM     23  O   UNL A   1      28.781  27.592  23.486  1.00  0.00    -0.268 OA
ATOM     24  C   UNL A   1      30.419  25.359  23.573  1.00  0.00     0.147 C 
ENDBRANCH  13  14
ENDBRANCH  11  13
ENDBRANCH   5   7
ENDBRANCH   4   5
ENDBRANCH   3   4
ENDBRANCH   2   3
ENDBRANCH   1   2
BRANCH   1  25
ATOM     25  C   UNL A   1      33.913  34.530  32.387  1.00  0.00     0.202 C 
BRANCH  25  26
ATOM     26  C   UNL A   1      34.462  33.214  32.945  1.00  0.00     0.261 C 
BRANCH  26  27
ATOM     27  O   UNL A   1      35.629  32.808  32.206  1.00  0.00    -0.460 OA
BRANCH  27  28
ATOM     28  C   UNL A   1      36.613  32.253  32.952  1.00  0.00     0.338 C 
ATOM     29  O   UNL A   1      36.657  32.160  34.167  1.00  0.00    -0.246 OA
BRANCH  28  30
ATOM     30  C   UNL A   1      37.604  31.605  32.067  1.00  0.00     0.060 A 
ATOM     31  C   UNL A   1      38.595  30.826  32.677  1.00  0.00     0.016 A 
ATOM     32  C   UNL A   1      37.598  31.784  30.682  1.00  0.00     0.016 A 
ATOM     33  C   UNL A   1      39.614  30.266  31.909  1.00  0.00     0.010 A 
ATOM     34  C   UNL A   1      38.626  31.226  29.912  1.00  0.00     0.010 A 
ATOM     35  C   UNL A   1      39.655  30.493  30.527  1.00  0.00    -0.014 A 
BRANCH  35  36
ATOM     36  C   UNL A   1      40.851  30.081  29.756  1.00  0.00     0.031 A 
ATOM     37  C   UNL A   1      40.922  28.682  29.209  1.00  0.00     0.074 A 
ATOM     38  C   UNL A   1      41.848  30.950  29.514  1.00  0.00     0.049 A 
ATOM     39  N   UNL A   1      41.873  28.107  28.520  1.00  0.00    -0.248 NA
ATOM     40  C   UNL A   1      39.763  27.815  29.478  1.00  0.00     0.031 C 
ATOM     41  C   UNL A   1      41.883  32.342  29.959  1.00  0.00     0.029 A 
ATOM     42  N   UNL A   1      43.027  30.783  28.832  1.00  0.00    -0.354 N 
ATOM     43  C   UNL A   1      41.431  26.815  28.272  1.00  0.00     0.074 A 
ATOM     44  C   UNL A   1      40.139  26.678  28.910  1.00  0.00     0.031 C 
ATOM     45  C   UNL A   1      43.035  32.900  29.547  1.00  0.00     0.029 A 
ATOM     46  C   UNL A   1      43.824  31.901  28.831  1.00  0.00     0.049 A 
ATOM     47  H   UNL A   1      43.278  29.941  28.387  1.00  0.00     0.167 HD
ATOM     48  C   UNL A   1      42.040  25.832  27.568  1.00  0.00     0.037 A 
ATOM     49  C   UNL A   1      45.057  32.088  28.323  1.00  0.00     0.037 A 
ATOM     50  C   UNL A   1      43.323  25.964  26.931  1.00  0.00     0.049 A 
ATOM     51  C   UNL A   1      45.742  30.961  27.598  1.00  0.00     0.074 A 
ATOM     52  C   UNL A   1      44.013  25.029  26.178  1.00  0.00     0.029 A 
ATOM     53  N   UNL A   1      44.112  27.102  26.977  1.00  0.00    -0.354 N 
ATOM     54  N   UNL A   1      45.303  29.750  27.347  1.00  0.00    -0.248 NA
ATOM     55  C   UNL A   1      47.094  31.226  27.084  1.00  0.00     0.031 C 
ATOM     56  C   UNL A   1      45.239  25.590  25.802  1.00  0.00     0.029 A 
ATOM     57  C   UNL A   1      45.293  26.887  26.286  1.00  0.00     0.049 A 
ATOM     58  H   UNL A   1      43.870  27.940  27.434  1.00  0.00     0.167 HD
ATOM     59  C   UNL A   1      46.309  29.121  26.626  1.00  0.00     0.074 A 
ATOM     60  C   UNL A   1      47.380  30.085  26.472  1.00  0.00     0.031 C 
ATOM     61  C   UNL A   1      46.345  27.858  26.136  1.00  0.00     0.037 A 
BRANCH  48  62
ATOM     62  C   UNL A   1      41.327  24.517  27.464  1.00  0.00     0.057 A 
ATOM     63  C   UNL A   1      40.261  24.325  26.577  1.00  0.00     0.134 A 
ATOM     64  C   UNL A   1      41.730  23.424  28.240  1.00  0.00     0.134 A 
ATOM     65  F   UNL A   1      39.817  25.338  25.816  1.00  0.00    -0.206 F 
ATOM     66  C   UNL A   1      39.606  23.095  26.479  1.00  0.00     0.040 A 
ATOM     67  C   UNL A   1      41.098  22.184  28.136  1.00  0.00     0.040 A 
ATOM     68  F   UNL A   1      42.746  23.543  29.108  1.00  0.00    -0.206 F 
ATOM     69  C   UNL A   1      40.030  22.019  27.257  1.00  0.00     0.006 A 
ENDBRANCH  48  62
BRANCH  49  70
ATOM     70  C   UNL A   1      45.736  33.397  28.489  1.00  0.00     0.057 A 
ATOM     71  C   UNL A   1      45.536  34.439  27.577  1.00  0.00     0.134 A 
ATOM     72  C   UNL A   1      46.616  33.628  29.553  1.00  0.00     0.134 A 
ATOM     73  F   UNL A   1      44.723  34.267  26.524  1.00  0.00    -0.206 F 
ATOM     74  C   UNL A   1      46.198  35.660  27.708  1.00  0.00     0.040 A 
ATOM     75  C   UNL A   1      47.267  34.852  29.709  1.00  0.00     0.040 A 
ATOM     76  F   UNL A   1      46.848  32.668  30.460  1.00  0.00    -0.206 F 
ATOM     77  C   UNL A   1      47.064  35.871  28.780  1.00  0.00     0.006 A 
ENDBRANCH  49  70
BRANCH  61  78
ATOM     78  C   UNL A   1      47.565  27.456  25.360  1.00  0.00     0.057 A 
ATOM     79  C   UNL A   1      48.664  26.848  25.979  1.00  0.00     0.134 A 
ATOM     80  C   UNL A   1      47.620  27.638  23.973  1.00  0.00     0.134 A 
ATOM     81  F   UNL A   1      48.678  26.656  27.306  1.00  0.00    -0.206 F 
ATOM     82  C   UNL A   1      49.785  26.453  25.246  1.00  0.00     0.040 A 
ATOM     83  C   UNL A   1      48.725  27.228  23.227  1.00  0.00     0.040 A 
ATOM     84  F   UNL A   1      46.595  28.207  23.320  1.00  0.00    -0.206 F 
ATOM     85  C   UNL A   1      49.814  26.637  23.865  1.00  0.00     0.006 A 
ENDBRANCH  61  78
ENDBRANCH  35  36
ENDBRANCH  28  30
ENDBRANCH  27  28
ENDBRANCH  26  27
ENDBRANCH  25  26
ENDBRANCH   1  25
TORSDOF 16
ENDMDL
MODEL 3
REMARK VINA RESULT:     -10.7      4.161      6.938
REMARK SMILES Cc1cc(C[N@H+]2CCN(C)C(=O)C2(C)C)oc1C(=O)OCCOCCOC(=O)c1ccc(-c2c3nc(c(-c4c(F)cccc4F)c4ccc([nH]4)c(-c4c(F)cccc4F)c4nc(c(-c5c(F)cccc5F)c5ccc2[nH]5)C=C4)C=C3)cc1
REMARK SMILES IDX 23 1 22 2 21 3 20 4 18 5 19 6 17 7 1 8 2 9 3 10 4 11 16 12
REMARK SMILES IDX 5 13 6 14 7 15 13 16 8 18 11 19 14 20 15 21 9 22 12 23 10 24
REMARK SMILES IDX 24 25 25 26 26 27 27 28 28 29 29 30 30 31 82 32 31 33 81 34
REMARK SMILES IDX 32 35 33 36 34 37 75 38 35 39 80 40 74 41 76 42 36 43 79 44
REMARK SMILES IDX 73 45 72 46 37 48 63 49 46 50 62 51 47 52 50 53 61 54 77 55
REMARK SMILES IDX 48 56 49 57 60 59 78 60 51 61 38 62 39 63 44 64 40 65 41 66
REMARK SMILES IDX 43 67 45 68 42 69 64 70 65 71 70 72 66 73 67 74 69 75 71 76
REMARK SMILES IDX 68 77 52 78 53 79 58 80 54 81 55 82 57 83 59 84 56 85
REMARK H PARENT 6 17 76 47 50 58
REMARK Flexibility Score: inf
ROOT
ATOM      1  O   UNL A   1      32.451  30.908  27.104  1.00  0.00    -0.374 OA
ENDROOT
BRANCH   1   2
ATOM      2  C   UNL A   1      32.151  29.630  26.541  1.00  0.00     0.202 C 
BRANCH   2   3
ATOM      3  C   UNL A   1      33.209  29.140  25.549  1.00  0.00     0.261 C 
BRANCH   3   4
ATOM      4  O   UNL A   1      32.727  29.312  24.206  1.00  0.00    -0.457 OA
BRANCH   4   5
ATOM      5  C   UNL A   1      33.211  28.443  23.274  1.00  0.00     0.374 C 
ATOM      6  O   UNL A   1      34.160  28.676  22.536  1.00  0.00    -0.242 OA
BRANCH   5   7
ATOM      7  C   UNL A   1      32.509  27.180  23.369  1.00  0.00     0.215 A 
ATOM      8  C   UNL A   1      29.934  27.632  23.473  1.00  0.00     0.049 C 
ATOM      9  C   UNL A   1      31.170  26.808  23.440  1.00  0.00     0.003 A 
ATOM     10  C   UNL A   1      31.168  25.386  23.466  1.00  0.00     0.056 A 
ATOM     11  C   UNL A   1      32.474  24.971  23.589  1.00  0.00     0.159 A 
ATOM     12  O   UNL A   1      33.291  26.057  23.487  1.00  0.00    -0.448 OA
BRANCH  11  13
ATOM     13  C   UNL A   1      33.151  23.649  23.755  1.00  0.00     0.339 C 
BRANCH  13  14
ATOM     14  N   UNL A   1      33.024  22.967  25.058  1.00  0.00    -0.315 N 
ATOM     15  C   UNL A   1      31.955  21.964  25.095  1.00  0.00     0.285 C 
ATOM     16  C   UNL A   1      34.266  22.491  25.727  1.00  0.00     0.172 C 
ATOM     17  H   UNL A   1      32.748  23.752  25.647  1.00  0.00     0.349 HD
ATOM     18  C   UNL A   1      32.360  20.587  24.568  1.00  0.00     0.180 C 
ATOM     19  C   UNL A   1      34.717  21.083  25.226  1.00  0.00     0.283 C 
ATOM     20  C   UNL A   1      35.416  23.516  25.621  1.00  0.00     0.090 C 
ATOM     21  C   UNL A   1      34.007  22.313  27.245  1.00  0.00     0.090 C 
ATOM     22  N   UNL A   1      33.717  20.167  24.902  1.00  0.00    -0.335 N 
ATOM     23  O   UNL A   1      35.910  20.765  25.218  1.00  0.00    -0.268 OA
ATOM     24  C   UNL A   1      34.066  18.792  24.597  1.00  0.00     0.147 C 
ENDBRANCH  13  14
ENDBRANCH  11  13
ENDBRANCH   5   7
ENDBRANCH   4   5
ENDBRANCH   3   4
ENDBRANCH   2   3
ENDBRANCH   1   2
BRANCH   1  25
ATOM     25  C   UNL A   1      31.545  31.964  26.776  1.00  0.00     0.202 C 
BRANCH  25  26
ATOM     26  C   UNL A   1      32.179  33.356  26.847  1.00  0.00     0.261 C 
BRANCH  26  27
ATOM     27  O   UNL A   1      32.220  33.815  28.211  1.00  0.00    -0.460 OA
BRANCH  27  28
ATOM     28  C   UNL A   1      33.272  34.610  28.515  1.00  0.00     0.338 C 
ATOM     29  O   UNL A   1      33.268  35.821  28.657  1.00  0.00    -0.246 OA
BRANCH  28  30
ATOM     30  C   UNL A   1      34.455  33.778  28.820  1.00  0.00     0.060 A 
ATOM     31  C   UNL A   1      34.228  32.547  29.449  1.00  0.00     0.016 A 
ATOM     32  C   UNL A   1      35.758  34.201  28.543  1.00  0.00     0.016 A 
ATOM     33  C   UNL A   1      35.304  31.759  29.850  1.00  0.00     0.010 A 
ATOM     34  C   UNL A   1      36.838  33.410  28.951  1.00  0.00     0.010 A 
ATOM     35  C   UNL A   1      36.616  32.202  29.636  1.00  0.00    -0.014 A 
BRANCH  35  36
ATOM     36  C   UNL A   1      37.745  31.469  30.254  1.00  0.00     0.031 A 
ATOM     37  C   UNL A   1      38.086  31.733  31.694  1.00  0.00     0.074 A 
ATOM     38  C   UNL A   1      38.437  30.553  29.554  1.00  0.00     0.049 A 
ATOM     39  N   UNL A   1      39.036  31.216  32.431  1.00  0.00    -0.248 NA
ATOM     40  C   UNL A   1      37.243  32.712  32.398  1.00  0.00     0.031 C 
ATOM     41  C   UNL A   1      38.184  30.183  28.163  1.00  0.00     0.029 A 
ATOM     42  N   UNL A   1      39.501  29.771  29.924  1.00  0.00    -0.354 N 
ATOM     43  C   UNL A   1      38.906  31.805  33.681  1.00  0.00     0.074 A 
ATOM     44  C   UNL A   1      37.805  32.741  33.598  1.00  0.00     0.031 C 
ATOM     45  C   UNL A   1      39.077  29.249  27.793  1.00  0.00     0.029 A 
ATOM     46  C   UNL A   1      39.977  28.974  28.911  1.00  0.00     0.049 A 
ATOM     47  H   UNL A   1      39.888  29.779  30.830  1.00  0.00     0.167 HD
ATOM     48  C   UNL A   1      39.631  31.580  34.803  1.00  0.00     0.037 A 
ATOM     49  C   UNL A   1      41.028  28.134  28.888  1.00  0.00     0.037 A 
ATOM     50  C   UNL A   1      40.724  30.649  34.889  1.00  0.00     0.049 A 
ATOM     51  C   UNL A   1      41.859  27.947  30.128  1.00  0.00     0.074 A 
ATOM     52  C   UNL A   1      41.507  30.338  35.989  1.00  0.00     0.029 A 
ATOM     53  N   UNL A   1      41.194  29.884  33.835  1.00  0.00    -0.354 N 
ATOM     54  N   UNL A   1      41.711  28.490  31.313  1.00  0.00    -0.248 NA
ATOM     55  C   UNL A   1      43.004  27.029  30.029  1.00  0.00     0.031 C 
ATOM     56  C   UNL A   1      42.477  29.413  35.586  1.00  0.00     0.029 A 
ATOM     57  C   UNL A   1      42.271  29.118  34.249  1.00  0.00     0.049 A 
ATOM     58  H   UNL A   1      40.818  29.885  32.924  1.00  0.00     0.167 HD
ATOM     59  C   UNL A   1      42.723  27.961  32.105  1.00  0.00     0.074 A 
ATOM     60  C   UNL A   1      43.475  27.048  31.268  1.00  0.00     0.031 C 
ATOM     61  C   UNL A   1      43.005  28.209  33.407  1.00  0.00     0.037 A 
BRANCH  48  62
ATOM     62  C   UNL A   1      39.270  32.370  36.024  1.00  0.00     0.057 A 
ATOM     63  C   UNL A   1      39.823  33.631  36.275  1.00  0.00     0.134 A 
ATOM     64  C   UNL A   1      38.339  31.875  36.945  1.00  0.00     0.134 A 
ATOM     65  F   UNL A   1      40.732  34.155  35.439  1.00  0.00    -0.206 F 
ATOM     66  C   UNL A   1      39.476  34.366  37.411  1.00  0.00     0.040 A 
ATOM     67  C   UNL A   1      37.969  32.609  38.073  1.00  0.00     0.040 A 
ATOM     68  F   UNL A   1      37.772  30.673  36.761  1.00  0.00    -0.206 F 
ATOM     69  C   UNL A   1      38.542  33.856  38.311  1.00  0.00     0.006 A 
ENDBRANCH  48  62
BRANCH  49  70
ATOM     70  C   UNL A   1      41.368  27.406  27.639  1.00  0.00     0.057 A 
ATOM     71  C   UNL A   1      40.906  26.106  27.409  1.00  0.00     0.134 A 
ATOM     72  C   UNL A   1      42.178  27.990  26.658  1.00  0.00     0.134 A 
ATOM     73  F   UNL A   1      40.145  25.488  28.325  1.00  0.00    -0.206 F 
ATOM     74  C   UNL A   1      41.249  25.404  26.253  1.00  0.00     0.040 A 
ATOM     75  C   UNL A   1      42.511  27.307  25.487  1.00  0.00     0.040 A 
ATOM     76  F   UNL A   1      42.651  29.233  26.821  1.00  0.00    -0.206 F 
ATOM     77  C   UNL A   1      42.052  26.007  25.286  1.00  0.00     0.006 A 
ENDBRANCH  49  70
BRANCH  61  78
ATOM     78  C   UNL A   1      44.153  27.461  34.017  1.00  0.00     0.057 A 
ATOM     79  C   UNL A   1      45.442  28.004  34.068  1.00  0.00     0.134 A 
ATOM     80  C   UNL A   1      43.956  26.202  34.598  1.00  0.00     0.134 A 
ATOM     81  F   UNL A   1      45.699  29.200  33.517  1.00  0.00    -0.206 F 
ATOM     82  C   UNL A   1      46.501  27.312  34.660  1.00  0.00     0.040 A 
ATOM     83  C   UNL A   1      45.001  25.511  35.212  1.00  0.00     0.040 A 
ATOM     84  F   UNL A   1      42.742  25.631  34.589  1.00  0.00    -0.206 F 
ATOM     85  C   UNL A   1      46.279  26.065  35.240  1.00  0.00     0.006 A 
ENDBRANCH  61  78
ENDBRANCH  35  36
ENDBRANCH  28  30
ENDBRANCH  27  28
ENDBRANCH  26  27
ENDBRANCH  25  26
ENDBRANCH   1  25
TORSDOF 16
ENDMDL
