MODEL 1
REMARK VINA RESULT:     -12.0      0.000      0.000
REMARK SMILES CN1C(=O)C[C@@H](C(=O)OCCOCCOC(=O)c2ccc(-c3c4nc(c(-c5c(F)cccc5F)c5ccc([nH]5)c(-c5c(F)cccc5F)c5nc(c(-c6c(F)cccc6F)c6ccc3[nH]6)C=C5)C=C4)cc2)C12CCN(C(=O)c1ccccc1-n1cccn1)CC2
REMARK SMILES IDX 12 1 11 2 10 3 9 4 7 5 8 6 6 7 1 8 2 9 3 10 72 11 4 12 5 13
REMARK SMILES IDX 73 14 90 15 74 16 89 17 75 18 76 19 77 20 78 21 79 22 83 23
REMARK SMILES IDX 80 24 82 25 81 26 84 27 85 28 88 29 86 30 87 31 13 32 14 33
REMARK SMILES IDX 15 34 16 35 17 36 18 37 19 38 71 39 20 40 70 41 21 42 22 43
REMARK SMILES IDX 23 44 64 45 24 46 69 47 63 48 65 49 25 50 68 51 62 52 61 53
REMARK SMILES IDX 26 55 52 56 35 57 51 58 36 59 39 60 50 61 66 62 37 63 38 64
REMARK SMILES IDX 49 66 67 67 40 68 27 69 28 70 33 71 29 72 30 73 32 74 34 75
REMARK SMILES IDX 31 76 53 77 54 78 59 79 55 80 56 81 58 82 60 83 57 84 41 85
REMARK SMILES IDX 42 86 47 87 43 88 44 89 46 90 48 91 45 92
REMARK H PARENT 65 54 39 65
REMARK Flexibility Score: inf
ROOT
ATOM      1  O   UNL A   1      34.516  31.551  27.612  1.00  0.00    -0.374 OA
ENDROOT
BRANCH   1   2
ATOM      2  C   UNL A   1      35.007  30.302  27.131  1.00  0.00     0.202 C 
BRANCH   2   3
ATOM      3  C   UNL A   1      34.442  29.040  27.796  1.00  0.00     0.261 C 
BRANCH   3   4
ATOM      4  O   UNL A   1      33.973  28.022  26.882  1.00  0.00    -0.463 OA
BRANCH   4   5
ATOM      5  C   UNL A   1      32.732  28.211  26.378  1.00  0.00     0.311 C 
ATOM      6  O   UNL A   1      31.722  28.345  27.064  1.00  0.00    -0.252 OA
BRANCH   5   7
ATOM      7  C   UNL A   1      32.630  28.140  24.865  1.00  0.00     0.134 C 
ATOM      8  C   UNL A   1      29.297  27.123  23.459  1.00  0.00     0.147 C 
ATOM      9  N   UNL A   1      30.515  27.767  23.921  1.00  0.00    -0.339 N 
ATOM     10  C   UNL A   1      30.617  29.142  24.055  1.00  0.00     0.223 C 
ATOM     11  C   UNL A   1      31.791  27.067  24.125  1.00  0.00     0.060 C 
ATOM     12  O   UNL A   1      29.732  29.962  23.876  1.00  0.00    -0.275 OA
ATOM     13  C   UNL A   1      32.040  29.480  24.402  1.00  0.00     0.118 C 
ATOM     14  C   UNL A   1      31.613  25.722  24.851  1.00  0.00     0.051 C 
ATOM     15  C   UNL A   1      32.432  26.774  22.727  1.00  0.00     0.051 C 
ATOM     16  C   UNL A   1      32.909  24.926  24.921  1.00  0.00     0.122 C 
ATOM     17  C   UNL A   1      33.674  25.879  22.789  1.00  0.00     0.122 C 
ATOM     18  N   UNL A   1      33.430  24.680  23.582  1.00  0.00    -0.338 N 
ATOM     19  C   UNL A   1      33.837  23.440  23.083  1.00  0.00     0.256 C 
ATOM     20  O   UNL A   1      34.404  23.293  22.003  1.00  0.00    -0.269 OA
BRANCH  19  21
ATOM     21  C   UNL A   1      33.604  22.223  23.893  1.00  0.00     0.065 A 
ATOM     22  C   UNL A   1      32.399  21.547  23.643  1.00  0.00     0.016 A 
ATOM     23  C   UNL A   1      34.545  21.674  24.780  1.00  0.00     0.077 A 
ATOM     24  C   UNL A   1      32.153  20.305  24.227  1.00  0.00     0.001 A 
ATOM     25  C   UNL A   1      34.310  20.396  25.319  1.00  0.00     0.029 A 
ATOM     26  C   UNL A   1      33.116  19.722  25.047  1.00  0.00     0.002 A 
BRANCH  23  27
ATOM     27  N   UNL A   1      35.731  22.353  25.157  1.00  0.00    -0.240 N 
ATOM     28  C   UNL A   1      35.899  23.328  26.117  1.00  0.00     0.115 A 
ATOM     29  N   UNL A   1      36.915  22.062  24.548  1.00  0.00    -0.177 NA
ATOM     30  C   UNL A   1      37.217  23.713  26.084  1.00  0.00     0.042 A 
ATOM     31  C   UNL A   1      37.793  22.902  25.098  1.00  0.00     0.135 A 
ENDBRANCH  23  27
ENDBRANCH  19  21
ENDBRANCH   5   7
ENDBRANCH   4   5
ENDBRANCH   3   4
ENDBRANCH   2   3
ENDBRANCH   1   2
BRANCH   1  32
ATOM     32  C   UNL A   1      33.106  31.766  27.558  1.00  0.00     0.202 C 
BRANCH  32  33
ATOM     33  C   UNL A   1      32.683  33.213  27.293  1.00  0.00     0.261 C 
BRANCH  33  34
ATOM     34  O   UNL A   1      32.255  33.834  28.516  1.00  0.00    -0.460 OA
BRANCH  34  35
ATOM     35  C   UNL A   1      32.918  34.976  28.801  1.00  0.00     0.338 C 
ATOM     36  O   UNL A   1      32.524  36.119  28.627  1.00  0.00    -0.246 OA
BRANCH  35  37
ATOM     37  C   UNL A   1      34.120  34.650  29.583  1.00  0.00     0.060 A 
ATOM     38  C   UNL A   1      35.354  34.672  28.921  1.00  0.00     0.016 A 
ATOM     39  C   UNL A   1      34.028  34.206  30.902  1.00  0.00     0.016 A 
ATOM     40  C   UNL A   1      36.494  34.181  29.559  1.00  0.00     0.010 A 
ATOM     41  C   UNL A   1      35.176  33.722  31.543  1.00  0.00     0.010 A 
ATOM     42  C   UNL A   1      36.403  33.661  30.858  1.00  0.00    -0.014 A 
BRANCH  42  43
ATOM     43  C   UNL A   1      37.555  32.904  31.417  1.00  0.00     0.031 A 
ATOM     44  C   UNL A   1      38.109  33.301  32.761  1.00  0.00     0.074 A 
ATOM     45  C   UNL A   1      38.068  31.840  30.774  1.00  0.00     0.049 A 
ATOM     46  N   UNL A   1      39.071  32.750  33.460  1.00  0.00    -0.248 NA
ATOM     47  C   UNL A   1      37.497  34.474  33.403  1.00  0.00     0.031 C 
ATOM     48  C   UNL A   1      37.611  31.333  29.483  1.00  0.00     0.029 A 
ATOM     49  N   UNL A   1      39.085  30.988  31.130  1.00  0.00    -0.354 N 
ATOM     50  C   UNL A   1      39.173  33.505  34.622  1.00  0.00     0.074 A 
ATOM     51  C   UNL A   1      38.206  34.576  34.518  1.00  0.00     0.031 C 
ATOM     52  C   UNL A   1      38.341  30.252  29.157  1.00  0.00     0.029 A 
ATOM     53  C   UNL A   1      39.327  30.003  30.207  1.00  0.00     0.049 A 
ATOM     54  H   UNL A   1      39.593  31.077  31.969  1.00  0.00     0.167 HD
ATOM     55  C   UNL A   1      39.988  33.317  35.688  1.00  0.00     0.037 A 
ATOM     56  C   UNL A   1      40.241  29.011  30.208  1.00  0.00     0.037 A 
ATOM     57  C   UNL A   1      40.953  32.257  35.803  1.00  0.00     0.049 A 
ATOM     58  C   UNL A   1      41.176  28.858  31.377  1.00  0.00     0.074 A 
ATOM     59  C   UNL A   1      41.809  31.977  36.854  1.00  0.00     0.029 A 
ATOM     60  N   UNL A   1      41.194  31.304  34.825  1.00  0.00    -0.354 N 
ATOM     61  N   UNL A   1      41.238  29.557  32.485  1.00  0.00    -0.248 NA
ATOM     62  C   UNL A   1      42.165  27.772  31.298  1.00  0.00     0.031 C 
ATOM     63  C   UNL A   1      42.596  30.876  36.496  1.00  0.00     0.029 A 
ATOM     64  C   UNL A   1      42.202  30.448  35.238  1.00  0.00     0.049 A 
ATOM     65  H   UNL A   1      40.719  31.244  33.965  1.00  0.00     0.167 HD
ATOM     66  C   UNL A   1      42.252  28.984  33.242  1.00  0.00     0.074 A 
ATOM     67  C   UNL A   1      42.772  27.872  32.472  1.00  0.00     0.031 C 
ATOM     68  C   UNL A   1      42.709  29.344  34.465  1.00  0.00     0.037 A 
BRANCH  55  69
ATOM     69  C   UNL A   1      39.874  34.301  36.816  1.00  0.00     0.057 A 
ATOM     70  C   UNL A   1      40.591  35.505  36.818  1.00  0.00     0.134 A 
ATOM     71  C   UNL A   1      39.029  34.049  37.903  1.00  0.00     0.134 A 
ATOM     72  F   UNL A   1      41.428  35.799  35.812  1.00  0.00    -0.206 F 
ATOM     73  C   UNL A   1      40.491  36.411  37.874  1.00  0.00     0.040 A 
ATOM     74  C   UNL A   1      38.903  34.958  38.955  1.00  0.00     0.040 A 
ATOM     75  F   UNL A   1      38.311  32.917  37.960  1.00  0.00    -0.206 F 
ATOM     76  C   UNL A   1      39.640  36.140  38.945  1.00  0.00     0.006 A 
ENDBRANCH  55  69
BRANCH  56  77
ATOM     77  C   UNL A   1      40.312  28.072  29.061  1.00  0.00     0.057 A 
ATOM     78  C   UNL A   1      41.111  28.348  27.946  1.00  0.00     0.134 A 
ATOM     79  C   UNL A   1      39.573  26.883  29.049  1.00  0.00     0.134 A 
ATOM     80  F   UNL A   1      41.820  29.485  27.890  1.00  0.00    -0.206 F 
ATOM     81  C   UNL A   1      41.167  27.480  26.855  1.00  0.00     0.040 A 
ATOM     82  C   UNL A   1      39.635  25.995  27.973  1.00  0.00     0.040 A 
ATOM     83  F   UNL A   1      38.786  26.565  30.087  1.00  0.00    -0.206 F 
ATOM     84  C   UNL A   1      40.430  26.296  26.869  1.00  0.00     0.006 A 
ENDBRANCH  56  77
BRANCH  68  85
ATOM     85  C   UNL A   1      43.810  28.519  35.061  1.00  0.00     0.057 A 
ATOM     86  C   UNL A   1      45.160  28.800  34.813  1.00  0.00     0.134 A 
ATOM     87  C   UNL A   1      43.520  27.457  35.926  1.00  0.00     0.134 A 
ATOM     88  F   UNL A   1      45.505  29.798  33.984  1.00  0.00    -0.206 F 
ATOM     89  C   UNL A   1      46.181  28.044  35.391  1.00  0.00     0.040 A 
ATOM     90  C   UNL A   1      44.531  26.706  36.527  1.00  0.00     0.040 A 
ATOM     91  F   UNL A   1      42.248  27.140  36.212  1.00  0.00    -0.206 F 
ATOM     92  C   UNL A   1      45.868  26.998  36.256  1.00  0.00     0.006 A 
ENDBRANCH  68  85
ENDBRANCH  42  43
ENDBRANCH  35  37
ENDBRANCH  34  35
ENDBRANCH  33  34
ENDBRANCH  32  33
ENDBRANCH   1  32
TORSDOF 16
ENDMDL
MODEL 2
REMARK VINA RESULT:     -11.8      4.443      6.418
REMARK SMILES CN1C(=O)C[C@@H](C(=O)OCCOCCOC(=O)c2ccc(-c3c4nc(c(-c5c(F)cccc5F)c5ccc([nH]5)c(-c5c(F)cccc5F)c5nc(c(-c6c(F)cccc6F)c6ccc3[nH]6)C=C5)C=C4)cc2)C12CCN(C(=O)c1ccccc1-n1cccn1)CC2
REMARK SMILES IDX 12 1 11 2 10 3 9 4 7 5 8 6 6 7 1 8 2 9 3 10 72 11 4 12 5 13
REMARK SMILES IDX 73 14 90 15 74 16 89 17 75 18 76 19 77 20 78 21 79 22 83 23
REMARK SMILES IDX 80 24 82 25 81 26 84 27 85 28 88 29 86 30 87 31 13 32 14 33
REMARK SMILES IDX 15 34 16 35 17 36 18 37 19 38 71 39 20 40 70 41 21 42 22 43
REMARK SMILES IDX 23 44 64 45 24 46 69 47 63 48 65 49 25 50 68 51 62 52 61 53
REMARK SMILES IDX 26 55 52 56 35 57 51 58 36 59 39 60 50 61 66 62 37 63 38 64
REMARK SMILES IDX 49 66 67 67 40 68 27 69 28 70 33 71 29 72 30 73 32 74 34 75
REMARK SMILES IDX 31 76 53 77 54 78 59 79 55 80 56 81 58 82 60 83 57 84 41 85
REMARK SMILES IDX 42 86 47 87 43 88 44 89 46 90 48 91 45 92
REMARK H PARENT 65 54 39 65
REMARK Flexibility Score: inf
ROOT
ATOM      1  O   UNL A   1      34.754  31.679  27.640  1.00  0.00    -0.374 OA
ENDROOT
BRANCH   1   2
ATOM      2  C   UNL A   1      33.914  30.555  27.389  1.00  0.00     0.202 C 
BRANCH   2   3
ATOM      3  C   UNL A   1      34.618  29.228  27.077  1.00  0.00     0.261 C 
BRANCH   3   4
ATOM      4  O   UNL A   1      33.765  28.061  27.091  1.00  0.00    -0.463 OA
BRANCH   4   5
ATOM      5  C   UNL A   1      32.551  28.214  26.513  1.00  0.00     0.311 C 
ATOM      6  O   UNL A   1      31.496  28.301  27.137  1.00  0.00    -0.252 OA
BRANCH   5   7
ATOM      7  C   UNL A   1      32.544  28.161  24.996  1.00  0.00     0.134 C 
ATOM      8  C   UNL A   1      29.326  27.103  23.372  1.00  0.00     0.147 C 
ATOM      9  N   UNL A   1      30.500  27.763  23.917  1.00  0.00    -0.339 N 
ATOM     10  C   UNL A   1      30.567  29.138  24.074  1.00  0.00     0.223 C 
ATOM     11  C   UNL A   1      31.774  27.084  24.193  1.00  0.00     0.060 C 
ATOM     12  O   UNL A   1      29.680  29.944  23.851  1.00  0.00    -0.275 OA
ATOM     13  C   UNL A   1      31.960  29.497  24.514  1.00  0.00     0.118 C 
ATOM     14  C   UNL A   1      31.577  25.725  24.889  1.00  0.00     0.051 C 
ATOM     15  C   UNL A   1      32.506  26.821  22.834  1.00  0.00     0.051 C 
ATOM     16  C   UNL A   1      32.881  24.953  25.030  1.00  0.00     0.122 C 
ATOM     17  C   UNL A   1      33.759  25.948  22.962  1.00  0.00     0.122 C 
ATOM     18  N   UNL A   1      33.489  24.734  23.723  1.00  0.00    -0.338 N 
ATOM     19  C   UNL A   1      33.949  23.509  23.235  1.00  0.00     0.256 C 
ATOM     20  O   UNL A   1      34.585  23.386  22.191  1.00  0.00    -0.269 OA
BRANCH  19  21
ATOM     21  C   UNL A   1      33.690  22.276  24.014  1.00  0.00     0.065 A 
ATOM     22  C   UNL A   1      32.462  21.644  23.760  1.00  0.00     0.016 A 
ATOM     23  C   UNL A   1      34.623  21.676  24.875  1.00  0.00     0.077 A 
ATOM     24  C   UNL A   1      32.185  20.393  24.312  1.00  0.00     0.001 A 
ATOM     25  C   UNL A   1      34.356  20.391  25.380  1.00  0.00     0.029 A 
ATOM     26  C   UNL A   1      33.140  19.760  25.104  1.00  0.00     0.002 A 
BRANCH  23  27
ATOM     27  N   UNL A   1      35.833  22.309  25.256  1.00  0.00    -0.240 N 
ATOM     28  C   UNL A   1      36.012  23.412  26.064  1.00  0.00     0.115 A 
ATOM     29  N   UNL A   1      37.031  21.827  24.820  1.00  0.00    -0.177 NA
ATOM     30  C   UNL A   1      37.359  23.678  26.101  1.00  0.00     0.042 A 
ATOM     31  C   UNL A   1      37.936  22.672  25.316  1.00  0.00     0.135 A 
ENDBRANCH  23  27
ENDBRANCH  19  21
ENDBRANCH   5   7
ENDBRANCH   4   5
ENDBRANCH   3   4
ENDBRANCH   2   3
ENDBRANCH   1   2
BRANCH   1  32
ATOM     32  C   UNL A   1      34.200  32.756  28.396  1.00  0.00     0.202 C 
BRANCH  32  33
ATOM     33  C   UNL A   1      34.817  32.955  29.782  1.00  0.00     0.261 C 
BRANCH  33  34
ATOM     34  O   UNL A   1      35.400  31.725  30.245  1.00  0.00    -0.460 OA
BRANCH  34  35
ATOM     35  C   UNL A   1      36.525  31.902  30.971  1.00  0.00     0.338 C 
ATOM     36  O   UNL A   1      36.643  32.545  32.002  1.00  0.00    -0.246 OA
BRANCH  35  37
ATOM     37  C   UNL A   1      37.570  31.000  30.461  1.00  0.00     0.060 A 
ATOM     38  C   UNL A   1      38.437  30.415  31.392  1.00  0.00     0.016 A 
ATOM     39  C   UNL A   1      37.779  30.835  29.092  1.00  0.00     0.016 A 
ATOM     40  C   UNL A   1      39.561  29.717  30.952  1.00  0.00     0.010 A 
ATOM     41  C   UNL A   1      38.904  30.125  28.652  1.00  0.00     0.010 A 
ATOM     42  C   UNL A   1      39.827  29.606  29.579  1.00  0.00    -0.014 A 
BRANCH  42  43
ATOM     43  C   UNL A   1      41.153  29.098  29.137  1.00  0.00     0.031 A 
ATOM     44  C   UNL A   1      42.341  30.024  29.175  1.00  0.00     0.074 A 
ATOM     45  C   UNL A   1      41.320  27.816  28.764  1.00  0.00     0.049 A 
ATOM     46  N   UNL A   1      43.595  29.779  28.887  1.00  0.00    -0.248 NA
ATOM     47  C   UNL A   1      42.080  31.410  29.593  1.00  0.00     0.031 C 
ATOM     48  C   UNL A   1      40.263  26.809  28.708  1.00  0.00     0.029 A 
ATOM     49  N   UNL A   1      42.450  27.143  28.370  1.00  0.00    -0.354 N 
ATOM     50  C   UNL A   1      44.271  30.976  29.095  1.00  0.00     0.074 A 
ATOM     51  C   UNL A   1      43.283  31.955  29.493  1.00  0.00     0.031 C 
ATOM     52  C   UNL A   1      40.797  25.642  28.308  1.00  0.00     0.029 A 
ATOM     53  C   UNL A   1      42.227  25.824  28.065  1.00  0.00     0.049 A 
ATOM     54  H   UNL A   1      43.337  27.567  28.313  1.00  0.00     0.167 HD
ATOM     55  C   UNL A   1      45.596  31.235  28.980  1.00  0.00     0.037 A 
ATOM     56  C   UNL A   1      43.079  24.871  27.637  1.00  0.00     0.037 A 
ATOM     57  C   UNL A   1      46.586  30.270  28.585  1.00  0.00     0.049 A 
ATOM     58  C   UNL A   1      44.537  25.198  27.460  1.00  0.00     0.074 A 
ATOM     59  C   UNL A   1      47.954  30.437  28.459  1.00  0.00     0.029 A 
ATOM     60  N   UNL A   1      46.310  28.954  28.244  1.00  0.00    -0.354 N 
ATOM     61  N   UNL A   1      45.168  26.323  27.694  1.00  0.00    -0.248 NA
ATOM     62  C   UNL A   1      45.405  24.117  26.963  1.00  0.00     0.031 C 
ATOM     63  C   UNL A   1      48.502  29.232  28.005  1.00  0.00     0.029 A 
ATOM     64  C   UNL A   1      47.480  28.305  27.885  1.00  0.00     0.049 A 
ATOM     65  H   UNL A   1      45.416  28.543  28.256  1.00  0.00     0.167 HD
ATOM     66  C   UNL A   1      46.504  26.081  27.397  1.00  0.00     0.074 A 
ATOM     67  C   UNL A   1      46.596  24.699  26.976  1.00  0.00     0.031 C 
ATOM     68  C   UNL A   1      47.559  26.928  27.470  1.00  0.00     0.037 A 
BRANCH  55  69
ATOM     69  C   UNL A   1      46.046  32.636  29.275  1.00  0.00     0.057 A 
ATOM     70  C   UNL A   1      46.397  33.039  30.571  1.00  0.00     0.134 A 
ATOM     71  C   UNL A   1      46.142  33.587  28.253  1.00  0.00     0.134 A 
ATOM     72  F   UNL A   1      46.313  32.178  31.596  1.00  0.00    -0.206 F 
ATOM     73  C   UNL A   1      46.804  34.346  30.842  1.00  0.00     0.040 A 
ATOM     74  C   UNL A   1      46.568  34.892  28.508  1.00  0.00     0.040 A 
ATOM     75  F   UNL A   1      45.825  33.265  26.990  1.00  0.00    -0.206 F 
ATOM     76  C   UNL A   1      46.894  35.276  29.807  1.00  0.00     0.006 A 
ENDBRANCH  55  69
BRANCH  56  77
ATOM     77  C   UNL A   1      42.576  23.504  27.354  1.00  0.00     0.057 A 
ATOM     78  C   UNL A   1      42.295  23.091  26.047  1.00  0.00     0.134 A 
ATOM     79  C   UNL A   1      42.353  22.583  28.385  1.00  0.00     0.134 A 
ATOM     80  F   UNL A   1      42.464  23.938  25.021  1.00  0.00    -0.206 F 
ATOM     81  C   UNL A   1      41.802  21.814  25.774  1.00  0.00     0.040 A 
ATOM     82  C   UNL A   1      41.879  21.296  28.125  1.00  0.00     0.040 A 
ATOM     83  F   UNL A   1      42.600  22.921  29.659  1.00  0.00    -0.206 F 
ATOM     84  C   UNL A   1      41.597  20.911  26.816  1.00  0.00     0.006 A 
ENDBRANCH  56  77
BRANCH  68  85
ATOM     85  C   UNL A   1      48.908  26.382  27.110  1.00  0.00     0.057 A 
ATOM     86  C   UNL A   1      49.421  26.483  25.810  1.00  0.00     0.134 A 
ATOM     87  C   UNL A   1      49.721  25.784  28.082  1.00  0.00     0.134 A 
ATOM     88  F   UNL A   1      48.688  27.033  24.831  1.00  0.00    -0.206 F 
ATOM     89  C   UNL A   1      50.689  25.995  25.487  1.00  0.00     0.040 A 
ATOM     90  C   UNL A   1      50.998  25.312  27.776  1.00  0.00     0.040 A 
ATOM     91  F   UNL A   1      49.292  25.663  29.347  1.00  0.00    -0.206 F 
ATOM     92  C   UNL A   1      51.484  25.413  26.473  1.00  0.00     0.006 A 
ENDBRANCH  68  85
ENDBRANCH  42  43
ENDBRANCH  35  37
ENDBRANCH  34  35
ENDBRANCH  33  34
ENDBRANCH  32  33
ENDBRANCH   1  32
TORSDOF 16
ENDMDL
MODEL 3
REMARK VINA RESULT:     -11.7      2.375      8.235
REMARK SMILES CN1C(=O)C[C@@H](C(=O)OCCOCCOC(=O)c2ccc(-c3c4nc(c(-c5c(F)cccc5F)c5ccc([nH]5)c(-c5c(F)cccc5F)c5nc(c(-c6c(F)cccc6F)c6ccc3[nH]6)C=C5)C=C4)cc2)C12CCN(C(=O)c1ccccc1-n1cccn1)CC2
REMARK SMILES IDX 12 1 11 2 10 3 9 4 7 5 8 6 6 7 1 8 2 9 3 10 72 11 4 12 5 13
REMARK SMILES IDX 73 14 90 15 74 16 89 17 75 18 76 19 77 20 78 21 79 22 83 23
REMARK SMILES IDX 80 24 82 25 81 26 84 27 85 28 88 29 86 30 87 31 13 32 14 33
REMARK SMILES IDX 15 34 16 35 17 36 18 37 19 38 71 39 20 40 70 41 21 42 22 43
REMARK SMILES IDX 23 44 64 45 24 46 69 47 63 48 65 49 25 50 68 51 62 52 61 53
REMARK SMILES IDX 26 55 52 56 35 57 51 58 36 59 39 60 50 61 66 62 37 63 38 64
REMARK SMILES IDX 49 66 67 67 40 68 27 69 28 70 33 71 29 72 30 73 32 74 34 75
REMARK SMILES IDX 31 76 53 77 54 78 59 79 55 80 56 81 58 82 60 83 57 84 41 85
REMARK SMILES IDX 42 86 47 87 43 88 44 89 46 90 48 91 45 92
REMARK H PARENT 65 54 39 65
REMARK Flexibility Score: inf
ROOT
ATOM      1  O   UNL A   1      39.923  21.289  26.697  1.00  0.00    -0.374 OA
ENDROOT
BRANCH   1   2
ATOM      2  C   UNL A   1      38.856  21.145  25.761  1.00  0.00     0.202 C 
BRANCH   2   3
ATOM      3  C   UNL A   1      38.101  22.425  25.381  1.00  0.00     0.261 C 
BRANCH   3   4
ATOM      4  O   UNL A   1      36.774  22.218  24.845  1.00  0.00    -0.463 OA
BRANCH   4   5
ATOM      5  C   UNL A   1      35.840  23.123  25.224  1.00  0.00     0.311 C 
ATOM      6  O   UNL A   1      36.011  24.339  25.203  1.00  0.00    -0.252 OA
BRANCH   5   7
ATOM      7  C   UNL A   1      34.564  22.534  25.799  1.00  0.00     0.134 C 
ATOM      8  C   UNL A   1      32.245  20.864  23.361  1.00  0.00     0.147 C 
ATOM      9  N   UNL A   1      33.204  21.255  24.379  1.00  0.00    -0.339 N 
ATOM     10  C   UNL A   1      34.108  20.357  24.924  1.00  0.00     0.223 C 
ATOM     11  C   UNL A   1      33.209  22.563  25.049  1.00  0.00     0.060 C 
ATOM     12  O   UNL A   1      34.265  19.191  24.604  1.00  0.00    -0.275 OA
ATOM     13  C   UNL A   1      34.841  21.044  26.043  1.00  0.00     0.118 C 
ATOM     14  C   UNL A   1      32.999  23.728  24.064  1.00  0.00     0.051 C 
ATOM     15  C   UNL A   1      32.037  22.599  26.087  1.00  0.00     0.051 C 
ATOM     16  C   UNL A   1      32.845  25.065  24.775  1.00  0.00     0.122 C 
ATOM     17  C   UNL A   1      31.810  23.976  26.719  1.00  0.00     0.122 C 
ATOM     18  N   UNL A   1      31.725  25.022  25.707  1.00  0.00    -0.338 N 
ATOM     19  C   UNL A   1      30.698  25.966  25.789  1.00  0.00     0.256 C 
ATOM     20  O   UNL A   1      29.851  25.976  26.678  1.00  0.00    -0.269 OA
BRANCH  19  21
ATOM     21  C   UNL A   1      30.619  27.038  24.771  1.00  0.00     0.065 A 
ATOM     22  C   UNL A   1      29.704  26.820  23.728  1.00  0.00     0.016 A 
ATOM     23  C   UNL A   1      31.303  28.261  24.859  1.00  0.00     0.077 A 
ATOM     24  C   UNL A   1      29.428  27.832  22.808  1.00  0.00     0.001 A 
ATOM     25  C   UNL A   1      30.975  29.292  23.960  1.00  0.00     0.029 A 
ATOM     26  C   UNL A   1      30.048  29.072  22.938  1.00  0.00     0.002 A 
BRANCH  23  27
ATOM     27  N   UNL A   1      32.314  28.507  25.822  1.00  0.00    -0.240 N 
ATOM     28  C   UNL A   1      33.671  28.282  25.725  1.00  0.00     0.115 A 
ATOM     29  N   UNL A   1      31.996  29.044  27.033  1.00  0.00    -0.177 NA
ATOM     30  C   UNL A   1      34.231  28.633  26.929  1.00  0.00     0.042 A 
ATOM     31  C   UNL A   1      33.154  29.092  27.695  1.00  0.00     0.135 A 
ENDBRANCH  23  27
ENDBRANCH  19  21
ENDBRANCH   5   7
ENDBRANCH   4   5
ENDBRANCH   3   4
ENDBRANCH   2   3
ENDBRANCH   1   2
BRANCH   1  32
ATOM     32  C   UNL A   1      41.245  21.026  26.229  1.00  0.00     0.202 C 
BRANCH  32  33
ATOM     33  C   UNL A   1      42.124  22.266  26.047  1.00  0.00     0.261 C 
BRANCH  33  34
ATOM     34  O   UNL A   1      41.433  23.434  26.520  1.00  0.00    -0.460 OA
BRANCH  34  35
ATOM     35  C   UNL A   1      42.015  24.593  26.144  1.00  0.00     0.338 C 
ATOM     36  O   UNL A   1      42.701  24.786  25.151  1.00  0.00    -0.246 OA
BRANCH  35  37
ATOM     37  C   UNL A   1      41.510  25.682  26.995  1.00  0.00     0.060 A 
ATOM     38  C   UNL A   1      42.155  26.922  26.919  1.00  0.00     0.016 A 
ATOM     39  C   UNL A   1      40.510  25.456  27.941  1.00  0.00     0.016 A 
ATOM     40  C   UNL A   1      41.848  27.923  27.841  1.00  0.00     0.010 A 
ATOM     41  C   UNL A   1      40.197  26.466  28.860  1.00  0.00     0.010 A 
ATOM     42  C   UNL A   1      40.899  27.686  28.846  1.00  0.00    -0.014 A 
BRANCH  42  43
ATOM     43  C   UNL A   1      40.779  28.652  29.970  1.00  0.00     0.031 A 
ATOM     44  C   UNL A   1      39.694  29.697  29.925  1.00  0.00     0.074 A 
ATOM     45  C   UNL A   1      41.579  28.569  31.049  1.00  0.00     0.049 A 
ATOM     46  N   UNL A   1      39.374  30.602  30.816  1.00  0.00    -0.248 NA
ATOM     47  C   UNL A   1      38.859  29.724  28.714  1.00  0.00     0.031 C 
ATOM     48  C   UNL A   1      42.649  27.592  31.234  1.00  0.00     0.029 A 
ATOM     49  N   UNL A   1      41.605  29.321  32.198  1.00  0.00    -0.354 N 
ATOM     50  C   UNL A   1      38.300  31.300  30.277  1.00  0.00     0.074 A 
ATOM     51  C   UNL A   1      38.049  30.742  28.966  1.00  0.00     0.031 C 
ATOM     52  C   UNL A   1      43.224  27.800  32.431  1.00  0.00     0.029 A 
ATOM     53  C   UNL A   1      42.576  28.933  33.088  1.00  0.00     0.049 A 
ATOM     54  H   UNL A   1      40.986  30.067  32.368  1.00  0.00     0.167 HD
ATOM     55  C   UNL A   1      37.577  32.305  30.827  1.00  0.00     0.037 A 
ATOM     56  C   UNL A   1      42.904  29.435  34.295  1.00  0.00     0.037 A 
ATOM     57  C   UNL A   1      37.817  32.867  32.129  1.00  0.00     0.049 A 
ATOM     58  C   UNL A   1      42.124  30.591  34.860  1.00  0.00     0.074 A 
ATOM     59  C   UNL A   1      37.124  33.875  32.776  1.00  0.00     0.029 A 
ATOM     60  N   UNL A   1      38.837  32.471  32.980  1.00  0.00    -0.354 N 
ATOM     61  N   UNL A   1      41.089  31.218  34.355  1.00  0.00    -0.248 NA
ATOM     62  C   UNL A   1      42.555  31.106  36.170  1.00  0.00     0.031 C 
ATOM     63  C   UNL A   1      37.749  34.116  34.005  1.00  0.00     0.029 A 
ATOM     64  C   UNL A   1      38.807  33.231  34.138  1.00  0.00     0.049 A 
ATOM     65  H   UNL A   1      39.487  31.757  32.790  1.00  0.00     0.167 HD
ATOM     66  C   UNL A   1      40.732  32.181  35.290  1.00  0.00     0.074 A 
ATOM     67  C   UNL A   1      41.654  32.051  36.399  1.00  0.00     0.031 C 
ATOM     68  C   UNL A   1      39.728  33.090  35.236  1.00  0.00     0.037 A 
BRANCH  55  69
ATOM     69  C   UNL A   1      36.458  32.871  30.002  1.00  0.00     0.057 A 
ATOM     70  C   UNL A   1      35.123  32.501  30.219  1.00  0.00     0.134 A 
ATOM     71  C   UNL A   1      36.714  33.805  28.993  1.00  0.00     0.134 A 
ATOM     72  F   UNL A   1      34.813  31.600  31.164  1.00  0.00    -0.206 F 
ATOM     73  C   UNL A   1      34.088  33.022  29.443  1.00  0.00     0.040 A 
ATOM     74  C   UNL A   1      35.685  34.349  28.223  1.00  0.00     0.040 A 
ATOM     75  F   UNL A   1      37.969  34.205  28.737  1.00  0.00    -0.206 F 
ATOM     76  C   UNL A   1      34.367  33.953  28.443  1.00  0.00     0.006 A 
ENDBRANCH  55  69
BRANCH  56  77
ATOM     77  C   UNL A   1      44.025  28.839  35.062  1.00  0.00     0.057 A 
ATOM     78  C   UNL A   1      43.802  27.831  36.006  1.00  0.00     0.134 A 
ATOM     79  C   UNL A   1      45.345  29.272  34.877  1.00  0.00     0.134 A 
ATOM     80  F   UNL A   1      42.557  27.395  36.245  1.00  0.00    -0.206 F 
ATOM     81  C   UNL A   1      44.849  27.279  36.747  1.00  0.00     0.040 A 
ATOM     82  C   UNL A   1      46.403  28.714  35.596  1.00  0.00     0.040 A 
ATOM     83  F   UNL A   1      45.621  30.237  33.989  1.00  0.00    -0.206 F 
ATOM     84  C   UNL A   1      46.155  27.718  36.538  1.00  0.00     0.006 A 
ENDBRANCH  56  77
BRANCH  68  85
ATOM     85  C   UNL A   1      39.557  34.001  36.415  1.00  0.00     0.057 A 
ATOM     86  C   UNL A   1      38.870  33.595  37.566  1.00  0.00     0.134 A 
ATOM     87  C   UNL A   1      40.121  35.283  36.416  1.00  0.00     0.134 A 
ATOM     88  F   UNL A   1      38.297  32.383  37.624  1.00  0.00    -0.206 F 
ATOM     89  C   UNL A   1      38.736  34.439  38.671  1.00  0.00     0.040 A 
ATOM     90  C   UNL A   1      40.012  36.127  37.521  1.00  0.00     0.040 A 
ATOM     91  F   UNL A   1      40.798  35.730  35.348  1.00  0.00    -0.206 F 
ATOM     92  C   UNL A   1      39.314  35.707  38.653  1.00  0.00     0.006 A 
ENDBRANCH  68  85
ENDBRANCH  42  43
ENDBRANCH  35  37
ENDBRANCH  34  35
ENDBRANCH  33  34
ENDBRANCH  32  33
ENDBRANCH   1  32
TORSDOF 16
ENDMDL
