MODEL 1
REMARK VINA RESULT:     -11.8      0.000      0.000
REMARK SMILES Cc1nn2c(nnc3c(=O)n(CCCC(=O)OCCOCCOC(=O)c4ccc(-c5c6nc(c(-c7c(F)cccc7F)c7ccc([nH]7)c(-c7c(F)cccc7F)c7nc(c(-c8c(F)cccc8F)c8ccc5[nH]8)C=C7)C=C6)cc4)ccc32)c1-c1ccc(F)cc1
REMARK SMILES IDX 19 1 18 2 17 3 15 4 16 5 14 6 13 7 12 8 11 9 1 10 2 11 3 12
REMARK SMILES IDX 83 13 4 14 5 15 82 16 6 17 8 18 81 19 7 20 9 21 80 22 10 23
REMARK SMILES IDX 84 24 85 25 90 26 86 27 89 28 87 29 88 30 20 31 21 32 22 33
REMARK SMILES IDX 23 34 24 35 25 36 26 37 27 38 79 39 28 40 78 41 29 42 30 43
REMARK SMILES IDX 31 44 72 45 32 46 77 47 71 48 73 49 33 50 76 51 70 52 69 53
REMARK SMILES IDX 34 55 60 56 43 57 59 58 44 59 47 60 58 61 74 62 45 63 46 64
REMARK SMILES IDX 57 66 75 67 48 68 35 69 36 70 41 71 37 72 38 73 40 74 42 75
REMARK SMILES IDX 39 76 61 77 62 78 67 79 63 80 64 81 66 82 68 83 65 84 49 85
REMARK SMILES IDX 50 86 55 87 51 88 52 89 54 90 56 91 53 92
REMARK H PARENT 73 54 47 65
REMARK Flexibility Score: inf
ROOT
ATOM      1  C   UNL A   1      42.424  18.159  26.187  1.00  0.00     0.202 C 
ENDROOT
BRANCH   1   2
ATOM      2  C   UNL A   1      41.625  19.433  26.415  1.00  0.00     0.261 C 
BRANCH   2   3
ATOM      3  O   UNL A   1      40.350  19.306  25.788  1.00  0.00    -0.463 OA
BRANCH   3   4
ATOM      4  C   UNL A   1      39.523  20.376  25.890  1.00  0.00     0.305 C 
ATOM      5  O   UNL A   1      39.780  21.414  26.488  1.00  0.00    -0.252 OA
BRANCH   4   6
ATOM      6  C   UNL A   1      38.248  20.200  25.078  1.00  0.00     0.124 C 
BRANCH   6   7
ATOM      7  C   UNL A   1      37.404  21.413  24.646  1.00  0.00     0.034 C 
BRANCH   7   8
ATOM      8  C   UNL A   1      35.869  21.306  24.564  1.00  0.00     0.126 C 
BRANCH   8   9
ATOM      9  N   UNL A   1      35.177  22.568  24.809  1.00  0.00    -0.313 N 
ATOM     10  C   UNL A   1      31.667  29.059  26.716  1.00  0.00     0.069 C 
ATOM     11  C   UNL A   1      31.990  27.867  25.899  1.00  0.00     0.070 A 
ATOM     12  N   UNL A   1      32.827  26.924  26.358  1.00  0.00    -0.170 NA
ATOM     13  C   UNL A   1      31.486  27.561  24.618  1.00  0.00     0.051 A 
ATOM     14  N   UNL A   1      32.919  26.025  25.340  1.00  0.00    -0.210 N 
ATOM     15  C   UNL A   1      32.114  26.396  24.268  1.00  0.00     0.186 A 
ATOM     16  C   UNL A   1      33.709  24.884  25.225  1.00  0.00     0.102 A 
ATOM     17  N   UNL A   1      32.064  25.659  23.126  1.00  0.00    -0.129 NA
ATOM     18  C   UNL A   1      33.658  24.297  24.020  1.00  0.00     0.177 A 
ATOM     19  C   UNL A   1      34.551  24.330  26.272  1.00  0.00     0.049 A 
ATOM     20  N   UNL A   1      32.824  24.679  22.994  1.00  0.00    -0.141 NA
ATOM     21  C   UNL A   1      34.622  23.232  23.722  1.00  0.00     0.280 A 
ATOM     22  C   UNL A   1      35.196  23.169  26.058  1.00  0.00     0.091 A 
ATOM     23  O   UNL A   1      34.866  23.003  22.545  1.00  0.00    -0.267 OA
BRANCH  13  24
ATOM     24  C   UNL A   1      30.551  28.226  23.741  1.00  0.00    -0.012 A 
ATOM     25  C   UNL A   1      30.978  29.253  22.894  1.00  0.00     0.012 A 
ATOM     26  C   UNL A   1      29.211  27.807  23.715  1.00  0.00     0.012 A 
ATOM     27  C   UNL A   1      30.061  29.875  22.046  1.00  0.00     0.040 A 
ATOM     28  C   UNL A   1      28.297  28.436  22.873  1.00  0.00     0.040 A 
ATOM     29  C   UNL A   1      28.730  29.468  22.052  1.00  0.00     0.123 A 
ATOM     30  F   UNL A   1      27.850  30.082  21.249  1.00  0.00    -0.207 F 
ENDBRANCH  13  24
ENDBRANCH   8   9
ENDBRANCH   7   8
ENDBRANCH   6   7
ENDBRANCH   4   6
ENDBRANCH   3   4
ENDBRANCH   2   3
ENDBRANCH   1   2
BRANCH   1  31
ATOM     31  O   UNL A   1      43.782  18.269  25.749  1.00  0.00    -0.374 OA
BRANCH  31  32
ATOM     32  C   UNL A   1      44.112  18.741  24.446  1.00  0.00     0.202 C 
BRANCH  32  33
ATOM     33  C   UNL A   1      45.293  19.679  24.263  1.00  0.00     0.261 C 
BRANCH  33  34
ATOM     34  O   UNL A   1      44.872  21.017  24.078  1.00  0.00    -0.460 OA
BRANCH  34  35
ATOM     35  C   UNL A   1      45.116  21.783  25.179  1.00  0.00     0.338 C 
ATOM     36  O   UNL A   1      46.142  21.910  25.787  1.00  0.00    -0.246 OA
BRANCH  35  37
ATOM     37  C   UNL A   1      43.836  22.345  25.621  1.00  0.00     0.060 A 
ATOM     38  C   UNL A   1      43.534  23.628  25.172  1.00  0.00     0.016 A 
ATOM     39  C   UNL A   1      43.464  21.952  26.881  1.00  0.00     0.016 A 
ATOM     40  C   UNL A   1      43.407  24.628  26.133  1.00  0.00     0.010 A 
ATOM     41  C   UNL A   1      43.170  22.957  27.751  1.00  0.00     0.010 A 
ATOM     42  C   UNL A   1      43.485  24.291  27.493  1.00  0.00    -0.014 A 
BRANCH  42  43
ATOM     43  C   UNL A   1      43.218  25.254  28.597  1.00  0.00     0.031 A 
ATOM     44  C   UNL A   1      41.869  25.871  28.214  1.00  0.00     0.074 A 
ATOM     45  C   UNL A   1      44.006  25.473  29.723  1.00  0.00     0.049 A 
ATOM     46  N   UNL A   1      41.742  26.929  27.466  1.00  0.00    -0.248 NA
ATOM     47  C   UNL A   1      40.589  25.094  28.211  1.00  0.00     0.031 C 
ATOM     48  C   UNL A   1      45.289  24.870  30.191  1.00  0.00     0.029 A 
ATOM     49  N   UNL A   1      43.816  26.378  30.778  1.00  0.00    -0.354 N 
ATOM     50  C   UNL A   1      40.366  27.127  27.327  1.00  0.00     0.074 A 
ATOM     51  C   UNL A   1      39.787  25.836  27.440  1.00  0.00     0.031 C 
ATOM     52  C   UNL A   1      45.538  25.163  31.507  1.00  0.00     0.029 A 
ATOM     53  C   UNL A   1      44.546  26.104  31.994  1.00  0.00     0.049 A 
ATOM     54  H   UNL A   1      43.218  27.156  30.694  1.00  0.00     0.167 HD
ATOM     55  C   UNL A   1      39.841  28.331  27.694  1.00  0.00     0.037 A 
ATOM     56  C   UNL A   1      44.411  26.730  33.228  1.00  0.00     0.037 A 
ATOM     57  C   UNL A   1      40.924  29.289  27.727  1.00  0.00     0.049 A 
ATOM     58  C   UNL A   1      43.687  28.002  32.970  1.00  0.00     0.074 A 
ATOM     59  C   UNL A   1      41.827  29.788  26.813  1.00  0.00     0.029 A 
ATOM     60  N   UNL A   1      41.510  29.374  28.958  1.00  0.00    -0.354 N 
ATOM     61  N   UNL A   1      44.222  28.968  32.277  1.00  0.00    -0.248 NA
ATOM     62  C   UNL A   1      42.239  27.853  32.896  1.00  0.00     0.031 C 
ATOM     63  C   UNL A   1      43.069  29.873  27.513  1.00  0.00     0.029 A 
ATOM     64  C   UNL A   1      42.843  29.624  28.864  1.00  0.00     0.049 A 
ATOM     65  H   UNL A   1      41.026  29.267  29.809  1.00  0.00     0.167 HD
ATOM     66  C   UNL A   1      43.298  29.177  31.268  1.00  0.00     0.074 A 
ATOM     67  C   UNL A   1      42.091  28.445  31.705  1.00  0.00     0.031 C 
ATOM     68  C   UNL A   1      43.693  29.587  30.023  1.00  0.00     0.037 A 
BRANCH  55  69
ATOM     69  C   UNL A   1      38.626  28.508  28.615  1.00  0.00     0.057 A 
ATOM     70  C   UNL A   1      38.514  28.089  29.960  1.00  0.00     0.134 A 
ATOM     71  C   UNL A   1      37.650  29.445  28.220  1.00  0.00     0.134 A 
ATOM     72  F   UNL A   1      39.351  27.218  30.532  1.00  0.00    -0.206 F 
ATOM     73  C   UNL A   1      37.562  28.608  30.849  1.00  0.00     0.040 A 
ATOM     74  C   UNL A   1      36.725  30.005  29.113  1.00  0.00     0.040 A 
ATOM     75  F   UNL A   1      37.622  29.915  26.963  1.00  0.00    -0.206 F 
ATOM     76  C   UNL A   1      36.686  29.596  30.438  1.00  0.00     0.006 A 
ENDBRANCH  55  69
BRANCH  56  77
ATOM     77  C   UNL A   1      44.456  26.224  34.659  1.00  0.00     0.057 A 
ATOM     78  C   UNL A   1      43.694  25.097  34.987  1.00  0.00     0.134 A 
ATOM     79  C   UNL A   1      44.912  26.965  35.786  1.00  0.00     0.134 A 
ATOM     80  F   UNL A   1      43.127  24.368  34.018  1.00  0.00    -0.206 F 
ATOM     81  C   UNL A   1      43.387  24.728  36.310  1.00  0.00     0.040 A 
ATOM     82  C   UNL A   1      44.627  26.592  37.126  1.00  0.00     0.040 A 
ATOM     83  F   UNL A   1      45.590  28.114  35.632  1.00  0.00    -0.206 F 
ATOM     84  C   UNL A   1      43.848  25.472  37.388  1.00  0.00     0.006 A 
ENDBRANCH  56  77
BRANCH  68  85
ATOM     85  C   UNL A   1      45.112  30.046  29.837  1.00  0.00     0.057 A 
ATOM     86  C   UNL A   1      45.980  29.150  29.207  1.00  0.00     0.134 A 
ATOM     87  C   UNL A   1      45.678  31.232  30.331  1.00  0.00     0.134 A 
ATOM     88  F   UNL A   1      45.533  27.945  28.819  1.00  0.00    -0.206 F 
ATOM     89  C   UNL A   1      47.325  29.439  29.004  1.00  0.00     0.040 A 
ATOM     90  C   UNL A   1      47.024  31.555  30.101  1.00  0.00     0.040 A 
ATOM     91  F   UNL A   1      44.968  32.076  31.093  1.00  0.00    -0.206 F 
ATOM     92  C   UNL A   1      47.844  30.662  29.415  1.00  0.00     0.006 A 
ENDBRANCH  68  85
ENDBRANCH  42  43
ENDBRANCH  35  37
ENDBRANCH  34  35
ENDBRANCH  33  34
ENDBRANCH  32  33
ENDBRANCH  31  32
ENDBRANCH   1  31
TORSDOF 18
ENDMDL
MODEL 2
REMARK VINA RESULT:     -11.6      4.609      9.534
REMARK SMILES Cc1nn2c(nnc3c(=O)n(CCCC(=O)OCCOCCOC(=O)c4ccc(-c5c6nc(c(-c7c(F)cccc7F)c7ccc([nH]7)c(-c7c(F)cccc7F)c7nc(c(-c8c(F)cccc8F)c8ccc5[nH]8)C=C7)C=C6)cc4)ccc32)c1-c1ccc(F)cc1
REMARK SMILES IDX 19 1 18 2 17 3 15 4 16 5 14 6 13 7 12 8 11 9 1 10 2 11 3 12
REMARK SMILES IDX 83 13 4 14 5 15 82 16 6 17 8 18 81 19 7 20 9 21 80 22 10 23
REMARK SMILES IDX 84 24 85 25 90 26 86 27 89 28 87 29 88 30 20 31 21 32 22 33
REMARK SMILES IDX 23 34 24 35 25 36 26 37 27 38 79 39 28 40 78 41 29 42 30 43
REMARK SMILES IDX 31 44 72 45 32 46 77 47 71 48 73 49 33 50 76 51 70 52 69 53
REMARK SMILES IDX 34 55 60 56 43 57 59 58 44 59 47 60 58 61 74 62 45 63 46 64
REMARK SMILES IDX 57 66 75 67 48 68 35 69 36 70 41 71 37 72 38 73 40 74 42 75
REMARK SMILES IDX 39 76 61 77 62 78 67 79 63 80 64 81 66 82 68 83 65 84 49 85
REMARK SMILES IDX 50 86 55 87 51 88 52 89 54 90 56 91 53 92
REMARK H PARENT 73 54 47 65
REMARK Flexibility Score: inf
ROOT
ATOM      1  C   UNL A   1      34.786  35.029  33.589  1.00  0.00     0.202 C 
ENDROOT
BRANCH   1   2
ATOM      2  C   UNL A   1      33.749  35.867  32.857  1.00  0.00     0.261 C 
BRANCH   2   3
ATOM      3  O   UNL A   1      33.770  35.533  31.470  1.00  0.00    -0.463 OA
BRANCH   3   4
ATOM      4  C   UNL A   1      33.160  36.410  30.634  1.00  0.00     0.305 C 
ATOM      5  O   UNL A   1      32.902  37.577  30.899  1.00  0.00    -0.252 OA
BRANCH   4   6
ATOM      6  C   UNL A   1      32.913  35.815  29.255  1.00  0.00     0.124 C 
BRANCH   6   7
ATOM      7  C   UNL A   1      34.031  35.079  28.494  1.00  0.00     0.034 C 
BRANCH   7   8
ATOM      8  C   UNL A   1      34.449  33.654  28.906  1.00  0.00     0.126 C 
BRANCH   8   9
ATOM      9  N   UNL A   1      33.858  32.606  28.078  1.00  0.00    -0.313 N 
ATOM     10  C   UNL A   1      30.206  27.422  23.850  1.00  0.00     0.069 C 
ATOM     11  C   UNL A   1      31.263  27.972  24.729  1.00  0.00     0.070 A 
ATOM     12  N   UNL A   1      31.148  29.199  25.257  1.00  0.00    -0.170 NA
ATOM     13  C   UNL A   1      32.451  27.324  25.126  1.00  0.00     0.051 A 
ATOM     14  N   UNL A   1      32.303  29.379  25.956  1.00  0.00    -0.210 N 
ATOM     15  C   UNL A   1      33.114  28.251  25.885  1.00  0.00     0.186 A 
ATOM     16  C   UNL A   1      32.767  30.499  26.642  1.00  0.00     0.102 A 
ATOM     17  N   UNL A   1      34.332  28.209  26.489  1.00  0.00    -0.129 NA
ATOM     18  C   UNL A   1      34.020  30.381  27.106  1.00  0.00     0.177 A 
ATOM     19  C   UNL A   1      32.020  31.726  26.860  1.00  0.00     0.049 A 
ATOM     20  N   UNL A   1      34.778  29.235  27.041  1.00  0.00    -0.141 NA
ATOM     21  C   UNL A   1      34.682  31.579  27.636  1.00  0.00     0.280 A 
ATOM     22  C   UNL A   1      32.553  32.700  27.618  1.00  0.00     0.091 A 
ATOM     23  O   UNL A   1      35.906  31.587  27.654  1.00  0.00    -0.267 OA
BRANCH  13  24
ATOM     24  C   UNL A   1      32.997  26.014  24.860  1.00  0.00    -0.012 A 
ATOM     25  C   UNL A   1      33.645  25.746  23.650  1.00  0.00     0.012 A 
ATOM     26  C   UNL A   1      32.908  25.016  25.844  1.00  0.00     0.012 A 
ATOM     27  C   UNL A   1      34.175  24.477  23.417  1.00  0.00     0.040 A 
ATOM     28  C   UNL A   1      33.432  23.748  25.603  1.00  0.00     0.040 A 
ATOM     29  C   UNL A   1      34.054  23.489  24.390  1.00  0.00     0.123 A 
ATOM     30  F   UNL A   1      34.549  22.266  24.152  1.00  0.00    -0.207 F 
ENDBRANCH  13  24
ENDBRANCH   8   9
ENDBRANCH   7   8
ENDBRANCH   6   7
ENDBRANCH   4   6
ENDBRANCH   3   4
ENDBRANCH   2   3
ENDBRANCH   1   2
BRANCH   1  31
ATOM     31  O   UNL A   1      36.172  35.328  33.394  1.00  0.00    -0.374 OA
BRANCH  31  32
ATOM     32  C   UNL A   1      37.122  34.307  33.099  1.00  0.00     0.202 C 
BRANCH  32  33
ATOM     33  C   UNL A   1      37.070  32.990  33.854  1.00  0.00     0.261 C 
BRANCH  33  34
ATOM     34  O   UNL A   1      37.298  31.889  32.996  1.00  0.00    -0.460 OA
BRANCH  34  35
ATOM     35  C   UNL A   1      36.275  31.716  32.110  1.00  0.00     0.338 C 
ATOM     36  O   UNL A   1      35.095  31.802  32.306  1.00  0.00    -0.246 OA
BRANCH  35  37
ATOM     37  C   UNL A   1      36.856  31.241  30.851  1.00  0.00     0.060 A 
ATOM     38  C   UNL A   1      36.611  29.912  30.517  1.00  0.00     0.016 A 
ATOM     39  C   UNL A   1      38.064  31.815  30.546  1.00  0.00     0.016 A 
ATOM     40  C   UNL A   1      37.710  29.060  30.433  1.00  0.00     0.010 A 
ATOM     41  C   UNL A   1      39.083  30.947  30.290  1.00  0.00     0.010 A 
ATOM     42  C   UNL A   1      39.003  29.586  30.583  1.00  0.00    -0.014 A 
BRANCH  42  43
ATOM     43  C   UNL A   1      40.245  28.794  30.367  1.00  0.00     0.031 A 
ATOM     44  C   UNL A   1      40.851  28.690  31.770  1.00  0.00     0.074 A 
ATOM     45  C   UNL A   1      40.688  28.247  29.166  1.00  0.00     0.049 A 
ATOM     46  N   UNL A   1      41.678  29.563  32.270  1.00  0.00    -0.248 NA
ATOM     47  C   UNL A   1      40.215  27.907  32.876  1.00  0.00     0.031 C 
ATOM     48  C   UNL A   1      40.123  28.254  27.784  1.00  0.00     0.029 A 
ATOM     49  N   UNL A   1      41.855  27.515  28.900  1.00  0.00    -0.354 N 
ATOM     50  C   UNL A   1      41.949  29.123  33.567  1.00  0.00     0.074 A 
ATOM     51  C   UNL A   1      40.791  28.411  33.973  1.00  0.00     0.031 C 
ATOM     52  C   UNL A   1      40.735  27.325  26.982  1.00  0.00     0.029 A 
ATOM     53  C   UNL A   1      41.854  26.730  27.688  1.00  0.00     0.049 A 
ATOM     54  H   UNL A   1      42.630  27.536  29.507  1.00  0.00     0.167 HD
ATOM     55  C   UNL A   1      43.248  28.910  33.924  1.00  0.00     0.037 A 
ATOM     56  C   UNL A   1      42.795  25.792  27.279  1.00  0.00     0.037 A 
ATOM     57  C   UNL A   1      44.083  29.630  32.989  1.00  0.00     0.049 A 
ATOM     58  C   UNL A   1      44.010  26.041  28.100  1.00  0.00     0.074 A 
ATOM     59  C   UNL A   1      44.240  30.948  32.619  1.00  0.00     0.029 A 
ATOM     60  N   UNL A   1      44.443  28.866  31.914  1.00  0.00    -0.354 N 
ATOM     61  N   UNL A   1      44.706  27.138  27.980  1.00  0.00    -0.248 NA
ATOM     62  C   UNL A   1      43.972  25.418  29.417  1.00  0.00     0.031 C 
ATOM     63  C   UNL A   1      44.401  30.930  31.200  1.00  0.00     0.029 A 
ATOM     64  C   UNL A   1      44.543  29.610  30.780  1.00  0.00     0.049 A 
ATOM     65  H   UNL A   1      44.610  27.897  31.956  1.00  0.00     0.167 HD
ATOM     66  C   UNL A   1      44.717  27.642  29.269  1.00  0.00     0.074 A 
ATOM     67  C   UNL A   1      44.235  26.530  30.113  1.00  0.00     0.031 C 
ATOM     68  C   UNL A   1      44.744  28.992  29.497  1.00  0.00     0.037 A 
BRANCH  55  69
ATOM     69  C   UNL A   1      43.769  27.633  34.599  1.00  0.00     0.057 A 
ATOM     70  C   UNL A   1      43.759  26.326  34.062  1.00  0.00     0.134 A 
ATOM     71  C   UNL A   1      44.624  27.795  35.708  1.00  0.00     0.134 A 
ATOM     72  F   UNL A   1      43.028  25.972  33.001  1.00  0.00    -0.206 F 
ATOM     73  C   UNL A   1      44.578  25.293  34.540  1.00  0.00     0.040 A 
ATOM     74  C   UNL A   1      45.481  26.782  36.163  1.00  0.00     0.040 A 
ATOM     75  F   UNL A   1      44.718  28.978  36.334  1.00  0.00    -0.206 F 
ATOM     76  C   UNL A   1      45.470  25.529  35.570  1.00  0.00     0.006 A 
ENDBRANCH  55  69
BRANCH  56  77
ATOM     77  C   UNL A   1      42.688  24.454  26.571  1.00  0.00     0.057 A 
ATOM     78  C   UNL A   1      42.034  23.406  27.228  1.00  0.00     0.134 A 
ATOM     79  C   UNL A   1      43.475  24.040  25.458  1.00  0.00     0.134 A 
ATOM     80  F   UNL A   1      41.338  23.650  28.345  1.00  0.00    -0.206 F 
ATOM     81  C   UNL A   1      42.149  22.058  26.843  1.00  0.00     0.040 A 
ATOM     82  C   UNL A   1      43.583  22.686  25.047  1.00  0.00     0.040 A 
ATOM     83  F   UNL A   1      44.224  24.919  24.773  1.00  0.00    -0.206 F 
ATOM     84  C   UNL A   1      42.925  21.686  25.752  1.00  0.00     0.006 A 
ENDBRANCH  56  77
BRANCH  68  85
ATOM     85  C   UNL A   1      45.012  29.909  28.338  1.00  0.00     0.057 A 
ATOM     86  C   UNL A   1      46.349  30.228  28.090  1.00  0.00     0.134 A 
ATOM     87  C   UNL A   1      44.050  30.565  27.553  1.00  0.00     0.134 A 
ATOM     88  F   UNL A   1      47.315  29.732  28.881  1.00  0.00    -0.206 F 
ATOM     89  C   UNL A   1      46.729  31.092  27.068  1.00  0.00     0.040 A 
ATOM     90  C   UNL A   1      44.418  31.411  26.495  1.00  0.00     0.040 A 
ATOM     91  F   UNL A   1      42.742  30.456  27.822  1.00  0.00    -0.206 F 
ATOM     92  C   UNL A   1      45.765  31.657  26.240  1.00  0.00     0.006 A 
ENDBRANCH  68  85
ENDBRANCH  42  43
ENDBRANCH  35  37
ENDBRANCH  34  35
ENDBRANCH  33  34
ENDBRANCH  32  33
ENDBRANCH  31  32
ENDBRANCH   1  31
TORSDOF 18
ENDMDL
MODEL 3
REMARK VINA RESULT:     -11.6      1.775      5.246
REMARK SMILES Cc1nn2c(nnc3c(=O)n(CCCC(=O)OCCOCCOC(=O)c4ccc(-c5c6nc(c(-c7c(F)cccc7F)c7ccc([nH]7)c(-c7c(F)cccc7F)c7nc(c(-c8c(F)cccc8F)c8ccc5[nH]8)C=C7)C=C6)cc4)ccc32)c1-c1ccc(F)cc1
REMARK SMILES IDX 19 1 18 2 17 3 15 4 16 5 14 6 13 7 12 8 11 9 1 10 2 11 3 12
REMARK SMILES IDX 83 13 4 14 5 15 82 16 6 17 8 18 81 19 7 20 9 21 80 22 10 23
REMARK SMILES IDX 84 24 85 25 90 26 86 27 89 28 87 29 88 30 20 31 21 32 22 33
REMARK SMILES IDX 23 34 24 35 25 36 26 37 27 38 79 39 28 40 78 41 29 42 30 43
REMARK SMILES IDX 31 44 72 45 32 46 77 47 71 48 73 49 33 50 76 51 70 52 69 53
REMARK SMILES IDX 34 55 60 56 43 57 59 58 44 59 47 60 58 61 74 62 45 63 46 64
REMARK SMILES IDX 57 66 75 67 48 68 35 69 36 70 41 71 37 72 38 73 40 74 42 75
REMARK SMILES IDX 39 76 61 77 62 78 67 79 63 80 64 81 66 82 68 83 65 84 49 85
REMARK SMILES IDX 50 86 55 87 51 88 52 89 54 90 56 91 53 92
REMARK H PARENT 73 54 47 65
REMARK Flexibility Score: inf
ROOT
ATOM      1  C   UNL A   1      41.963  19.033  25.997  1.00  0.00     0.202 C 
ENDROOT
BRANCH   1   2
ATOM      2  C   UNL A   1      41.058  20.198  26.365  1.00  0.00     0.261 C 
BRANCH   2   3
ATOM      3  O   UNL A   1      39.749  19.956  25.851  1.00  0.00    -0.463 OA
BRANCH   3   4
ATOM      4  C   UNL A   1      38.947  21.042  25.721  1.00  0.00     0.305 C 
ATOM      5  O   UNL A   1      39.190  22.158  26.163  1.00  0.00    -0.252 OA
BRANCH   4   6
ATOM      6  C   UNL A   1      37.727  20.757  24.857  1.00  0.00     0.124 C 
BRANCH   6   7
ATOM      7  C   UNL A   1      36.911  21.902  24.227  1.00  0.00     0.034 C 
BRANCH   7   8
ATOM      8  C   UNL A   1      35.371  21.869  24.254  1.00  0.00     0.126 C 
BRANCH   8   9
ATOM      9  N   UNL A   1      34.757  23.183  24.421  1.00  0.00    -0.313 N 
ATOM     10  C   UNL A   1      31.723  30.013  25.914  1.00  0.00     0.069 C 
ATOM     11  C   UNL A   1      31.907  28.721  25.215  1.00  0.00     0.070 A 
ATOM     12  N   UNL A   1      32.757  27.798  25.688  1.00  0.00    -0.170 NA
ATOM     13  C   UNL A   1      31.249  28.295  24.043  1.00  0.00     0.051 A 
ATOM     14  N   UNL A   1      32.700  26.784  24.781  1.00  0.00    -0.210 N 
ATOM     15  C   UNL A   1      31.790  27.069  23.767  1.00  0.00     0.186 A 
ATOM     16  C   UNL A   1      33.430  25.600  24.717  1.00  0.00     0.102 A 
ATOM     17  N   UNL A   1      31.583  26.209  22.734  1.00  0.00    -0.129 NA
ATOM     18  C   UNL A   1      33.220  24.882  23.603  1.00  0.00     0.177 A 
ATOM     19  C   UNL A   1      34.367  25.129  25.722  1.00  0.00     0.049 A 
ATOM     20  N   UNL A   1      32.288  25.184  22.637  1.00  0.00    -0.141 NA
ATOM     21  C   UNL A   1      34.105  23.744  23.330  1.00  0.00     0.280 A 
ATOM     22  C   UNL A   1      34.941  23.922  25.580  1.00  0.00     0.091 A 
ATOM     23  O   UNL A   1      34.203  23.370  22.170  1.00  0.00    -0.267 OA
BRANCH  13  24
ATOM     24  C   UNL A   1      30.244  28.900  23.201  1.00  0.00    -0.012 A 
ATOM     25  C   UNL A   1      28.891  28.589  23.372  1.00  0.00     0.012 A 
ATOM     26  C   UNL A   1      30.630  29.837  22.229  1.00  0.00     0.012 A 
ATOM     27  C   UNL A   1      27.935  29.192  22.555  1.00  0.00     0.040 A 
ATOM     28  C   UNL A   1      29.672  30.431  21.410  1.00  0.00     0.040 A 
ATOM     29  C   UNL A   1      28.335  30.098  21.577  1.00  0.00     0.123 A 
ATOM     30  F   UNL A   1      27.413  30.661  20.783  1.00  0.00    -0.207 F 
ENDBRANCH  13  24
ENDBRANCH   8   9
ENDBRANCH   7   8
ENDBRANCH   6   7
ENDBRANCH   4   6
ENDBRANCH   3   4
ENDBRANCH   2   3
ENDBRANCH   1   2
BRANCH   1  31
ATOM     31  O   UNL A   1      43.375  19.174  26.181  1.00  0.00    -0.374 OA
BRANCH  31  32
ATOM     32  C   UNL A   1      44.305  18.740  25.193  1.00  0.00     0.202 C 
BRANCH  32  33
ATOM     33  C   UNL A   1      45.535  19.581  24.896  1.00  0.00     0.261 C 
BRANCH  33  34
ATOM     34  O   UNL A   1      45.195  20.781  24.228  1.00  0.00    -0.460 OA
BRANCH  34  35
ATOM     35  C   UNL A   1      45.427  21.877  25.005  1.00  0.00     0.338 C 
ATOM     36  O   UNL A   1      46.478  22.328  25.366  1.00  0.00    -0.246 OA
BRANCH  35  37
ATOM     37  C   UNL A   1      44.129  22.365  25.481  1.00  0.00     0.060 A 
ATOM     38  C   UNL A   1      43.486  23.302  24.678  1.00  0.00     0.016 A 
ATOM     39  C   UNL A   1      44.036  22.451  26.847  1.00  0.00     0.016 A 
ATOM     40  C   UNL A   1      43.273  24.569  25.217  1.00  0.00     0.010 A 
ATOM     41  C   UNL A   1      43.649  23.661  27.338  1.00  0.00     0.010 A 
ATOM     42  C   UNL A   1      43.617  24.815  26.555  1.00  0.00    -0.014 A 
BRANCH  42  43
ATOM     43  C   UNL A   1      43.299  26.082  27.268  1.00  0.00     0.031 A 
ATOM     44  C   UNL A   1      44.403  27.039  26.804  1.00  0.00     0.074 A 
ATOM     45  C   UNL A   1      42.213  26.320  28.106  1.00  0.00     0.049 A 
ATOM     46  N   UNL A   1      45.550  27.168  27.406  1.00  0.00    -0.248 NA
ATOM     47  C   UNL A   1      44.512  27.535  25.395  1.00  0.00     0.031 C 
ATOM     48  C   UNL A   1      41.074  25.463  28.549  1.00  0.00     0.029 A 
ATOM     49  N   UNL A   1      41.878  27.482  28.817  1.00  0.00    -0.354 N 
ATOM     50  C   UNL A   1      46.269  28.095  26.646  1.00  0.00     0.074 A 
ATOM     51  C   UNL A   1      45.779  27.957  25.321  1.00  0.00     0.031 C 
ATOM     52  C   UNL A   1      40.074  26.206  29.123  1.00  0.00     0.029 A 
ATOM     53  C   UNL A   1      40.507  27.584  29.261  1.00  0.00     0.049 A 
ATOM     54  H   UNL A   1      42.539  28.187  29.003  1.00  0.00     0.167 HD
ATOM     55  C   UNL A   1      46.748  29.212  27.265  1.00  0.00     0.037 A 
ATOM     56  C   UNL A   1      39.875  28.686  29.826  1.00  0.00     0.037 A 
ATOM     57  C   UNL A   1      46.775  28.948  28.686  1.00  0.00     0.049 A 
ATOM     58  C   UNL A   1      40.958  29.600  30.275  1.00  0.00     0.074 A 
ATOM     59  C   UNL A   1      47.402  28.037  29.508  1.00  0.00     0.029 A 
ATOM     60  N   UNL A   1      45.617  29.320  29.309  1.00  0.00    -0.354 N 
ATOM     61  N   UNL A   1      41.771  29.278  31.243  1.00  0.00    -0.248 NA
ATOM     62  C   UNL A   1      41.487  30.454  29.218  1.00  0.00     0.031 C 
ATOM     63  C   UNL A   1      46.422  27.659  30.476  1.00  0.00     0.029 A 
ATOM     64  C   UNL A   1      45.313  28.490  30.342  1.00  0.00     0.049 A 
ATOM     65  H   UNL A   1      45.070  30.094  29.043  1.00  0.00     0.167 HD
ATOM     66  C   UNL A   1      43.018  29.397  30.655  1.00  0.00     0.074 A 
ATOM     67  C   UNL A   1      42.772  30.123  29.392  1.00  0.00     0.031 C 
ATOM     68  C   UNL A   1      44.056  28.589  31.034  1.00  0.00     0.037 A 
BRANCH  55  69
ATOM     69  C   UNL A   1      46.554  30.645  26.750  1.00  0.00     0.057 A 
ATOM     70  C   UNL A   1      45.327  31.324  26.574  1.00  0.00     0.134 A 
ATOM     71  C   UNL A   1      47.684  31.488  26.750  1.00  0.00     0.134 A 
ATOM     72  F   UNL A   1      44.141  30.708  26.559  1.00  0.00    -0.206 F 
ATOM     73  C   UNL A   1      45.228  32.719  26.479  1.00  0.00     0.040 A 
ATOM     74  C   UNL A   1      47.592  32.886  26.704  1.00  0.00     0.040 A 
ATOM     75  F   UNL A   1      48.918  30.978  26.886  1.00  0.00    -0.206 F 
ATOM     76  C   UNL A   1      46.359  33.508  26.581  1.00  0.00     0.006 A 
ENDBRANCH  55  69
BRANCH  56  77
ATOM     77  C   UNL A   1      38.479  29.266  29.686  1.00  0.00     0.057 A 
ATOM     78  C   UNL A   1      38.078  29.734  28.429  1.00  0.00     0.134 A 
ATOM     79  C   UNL A   1      37.652  29.706  30.759  1.00  0.00     0.134 A 
ATOM     80  F   UNL A   1      38.824  29.470  27.349  1.00  0.00    -0.206 F 
ATOM     81  C   UNL A   1      36.969  30.577  28.233  1.00  0.00     0.040 A 
ATOM     82  C   UNL A   1      36.519  30.540  30.573  1.00  0.00     0.040 A 
ATOM     83  F   UNL A   1      37.952  29.405  32.033  1.00  0.00    -0.206 F 
ATOM     84  C   UNL A   1      36.182  30.988  29.302  1.00  0.00     0.006 A 
ENDBRANCH  56  77
BRANCH  68  85
ATOM     85  C   UNL A   1      43.893  27.743  32.265  1.00  0.00     0.057 A 
ATOM     86  C   UNL A   1      44.071  28.386  33.493  1.00  0.00     0.134 A 
ATOM     87  C   UNL A   1      43.691  26.354  32.303  1.00  0.00     0.134 A 
ATOM     88  F   UNL A   1      44.389  29.690  33.526  1.00  0.00    -0.206 F 
ATOM     89  C   UNL A   1      43.980  27.710  34.704  1.00  0.00     0.040 A 
ATOM     90  C   UNL A   1      43.560  25.664  33.518  1.00  0.00     0.040 A 
ATOM     91  F   UNL A   1      43.675  25.623  31.180  1.00  0.00    -0.206 F 
ATOM     92  C   UNL A   1      43.684  26.351  34.723  1.00  0.00     0.006 A 
ENDBRANCH  68  85
ENDBRANCH  42  43
ENDBRANCH  35  37
ENDBRANCH  34  35
ENDBRANCH  33  34
ENDBRANCH  32  33
ENDBRANCH  31  32
ENDBRANCH   1  31
TORSDOF 18
ENDMDL
