MODEL 1
REMARK VINA RESULT:     -10.8      0.000      0.000
REMARK SMILES CN1CC(=O)N(CC(=O)N2CCCC[C@H]2C(=O)OCCOCCOC(=O)c2ccc(-c3c4nc(c(-c5c(F)cccc5F)c5ccc([nH]5)c(-c5c(F)cccc5F)c5nc(c(-c6c(F)cccc6F)c6ccc3[nH]6)C=C5)C=C4)cc2)C1=O
REMARK SMILES IDX 20 1 19 2 18 3 16 4 17 5 15 6 10 7 11 8 12 9 14 10 13 11
REMARK SMILES IDX 8 12 9 13 7 14 6 15 1 16 2 17 3 18 81 19 4 20 82 21 5 22
REMARK SMILES IDX 21 23 22 24 23 25 24 26 25 27 26 28 27 29 28 30 80 31 29 32
REMARK SMILES IDX 79 33 30 34 31 35 32 36 73 37 33 38 78 39 72 40 74 41 34 42
REMARK SMILES IDX 77 43 71 44 70 45 35 47 61 48 44 49 60 50 45 51 48 52 59 53
REMARK SMILES IDX 75 54 46 55 47 56 58 58 76 59 49 60 36 61 37 62 42 63 38 64
REMARK SMILES IDX 39 65 41 66 43 67 40 68 62 69 63 70 68 71 64 72 65 73 67 74
REMARK SMILES IDX 69 75 66 76 50 77 51 78 56 79 52 80 53 81 55 82 57 83 54 84
REMARK H PARENT 74 46 48 57
REMARK Flexibility Score: inf
ROOT
ATOM      1  C   UNL A   1      33.282  30.364  26.651  1.00  0.00     0.202 C 
ENDROOT
BRANCH   1   2
ATOM      2  C   UNL A   1      33.418  28.994  27.314  1.00  0.00     0.261 C 
BRANCH   2   3
ATOM      3  O   UNL A   1      33.215  27.974  26.322  1.00  0.00    -0.462 OA
BRANCH   3   4
ATOM      4  C   UNL A   1      32.205  27.098  26.547  1.00  0.00     0.328 C 
ATOM      5  O   UNL A   1      31.160  27.375  27.124  1.00  0.00    -0.250 OA
BRANCH   4   6
ATOM      6  C   UNL A   1      32.583  25.654  26.150  1.00  0.00     0.195 C 
ATOM      7  N   UNL A   1      31.512  24.637  25.964  1.00  0.00    -0.327 N 
ATOM      8  C   UNL A   1      30.722  24.762  24.730  1.00  0.00     0.120 C 
ATOM      9  C   UNL A   1      31.609  24.794  23.495  1.00  0.00     0.022 C 
ATOM     10  C   UNL A   1      33.466  25.733  24.889  1.00  0.00     0.037 C 
ATOM     11  C   UNL A   1      32.646  25.903  23.612  1.00  0.00     0.005 C 
BRANCH   7  12
ATOM     12  C   UNL A   1      31.281  23.508  26.745  1.00  0.00     0.243 C 
ATOM     13  O   UNL A   1      30.184  23.372  27.311  1.00  0.00    -0.273 OA
BRANCH  12  14
ATOM     14  C   UNL A   1      32.378  22.522  27.189  1.00  0.00     0.230 C 
BRANCH  14  15
ATOM     15  N   UNL A   1      33.292  21.893  26.277  1.00  0.00    -0.253 N 
ATOM     16  C   UNL A   1      36.546  21.409  24.794  1.00  0.00     0.149 C 
ATOM     17  N   UNL A   1      35.185  21.335  25.264  1.00  0.00    -0.318 N 
ATOM     18  C   UNL A   1      34.219  20.424  24.700  1.00  0.00     0.221 C 
ATOM     19  C   UNL A   1      34.622  22.179  26.198  1.00  0.00     0.327 C 
ATOM     20  C   UNL A   1      32.967  20.861  25.442  1.00  0.00     0.250 C 
ATOM     21  O   UNL A   1      35.199  23.057  26.824  1.00  0.00    -0.248 OA
ATOM     22  O   UNL A   1      31.857  20.374  25.293  1.00  0.00    -0.272 OA
ENDBRANCH  14  15
ENDBRANCH  12  14
ENDBRANCH   7  12
ENDBRANCH   4   6
ENDBRANCH   3   4
ENDBRANCH   2   3
ENDBRANCH   1   2
BRANCH   1  23
ATOM     23  O   UNL A   1      31.979  30.686  26.163  1.00  0.00    -0.374 OA
BRANCH  23  24
ATOM     24  C   UNL A   1      31.313  31.805  26.749  1.00  0.00     0.202 C 
BRANCH  24  25
ATOM     25  C   UNL A   1      32.140  33.089  26.883  1.00  0.00     0.261 C 
BRANCH  25  26
ATOM     26  O   UNL A   1      32.183  33.587  28.232  1.00  0.00    -0.460 OA
BRANCH  26  27
ATOM     27  C   UNL A   1      33.241  34.383  28.499  1.00  0.00     0.338 C 
ATOM     28  O   UNL A   1      33.234  35.597  28.677  1.00  0.00    -0.246 OA
BRANCH  27  29
ATOM     29  C   UNL A   1      34.452  33.574  28.722  1.00  0.00     0.060 A 
ATOM     30  C   UNL A   1      34.289  32.354  29.389  1.00  0.00     0.016 A 
ATOM     31  C   UNL A   1      35.726  34.030  28.375  1.00  0.00     0.016 A 
ATOM     32  C   UNL A   1      35.405  31.612  29.766  1.00  0.00     0.010 A 
ATOM     33  C   UNL A   1      36.847  33.285  28.759  1.00  0.00     0.010 A 
ATOM     34  C   UNL A   1      36.692  32.095  29.494  1.00  0.00    -0.014 A 
BRANCH  34  35
ATOM     35  C   UNL A   1      37.854  31.421  30.125  1.00  0.00     0.031 A 
ATOM     36  C   UNL A   1      38.168  31.699  31.569  1.00  0.00     0.074 A 
ATOM     37  C   UNL A   1      38.578  30.517  29.441  1.00  0.00     0.049 A 
ATOM     38  N   UNL A   1      39.099  31.182  32.331  1.00  0.00    -0.248 NA
ATOM     39  C   UNL A   1      37.319  32.691  32.246  1.00  0.00     0.031 C 
ATOM     40  C   UNL A   1      38.356  30.139  28.047  1.00  0.00     0.029 A 
ATOM     41  N   UNL A   1      39.644  29.749  29.835  1.00  0.00    -0.354 N 
ATOM     42  C   UNL A   1      38.950  31.786  33.573  1.00  0.00     0.074 A 
ATOM     43  C   UNL A   1      37.863  32.734  33.453  1.00  0.00     0.031 C 
ATOM     44  C   UNL A   1      39.261  29.208  27.700  1.00  0.00     0.029 A 
ATOM     45  C   UNL A   1      40.137  28.942  28.840  1.00  0.00     0.049 A 
ATOM     46  H   UNL A   1      40.019  29.774  30.744  1.00  0.00     0.167 HD
ATOM     47  C   UNL A   1      39.644  31.564  34.714  1.00  0.00     0.037 A 
ATOM     48  C   UNL A   1      41.182  28.093  28.846  1.00  0.00     0.037 A 
ATOM     49  C   UNL A   1      40.724  30.617  34.837  1.00  0.00     0.049 A 
ATOM     50  C   UNL A   1      41.973  27.899  30.113  1.00  0.00     0.074 A 
ATOM     51  C   UNL A   1      41.468  30.298  35.959  1.00  0.00     0.029 A 
ATOM     52  N   UNL A   1      41.219  29.847  33.795  1.00  0.00    -0.354 N 
ATOM     53  N   UNL A   1      41.797  28.445  31.291  1.00  0.00    -0.248 NA
ATOM     54  C   UNL A   1      43.104  26.962  30.050  1.00  0.00     0.031 C 
ATOM     55  C   UNL A   1      42.449  29.373  35.585  1.00  0.00     0.029 A 
ATOM     56  C   UNL A   1      42.280  29.075  34.242  1.00  0.00     0.049 A 
ATOM     57  H   UNL A   1      40.869  29.847  32.876  1.00  0.00     0.167 HD
ATOM     58  C   UNL A   1      42.777  27.903  32.114  1.00  0.00     0.074 A 
ATOM     59  C   UNL A   1      43.532  26.970  31.305  1.00  0.00     0.031 C 
ATOM     60  C   UNL A   1      43.030  28.155  33.422  1.00  0.00     0.037 A 
BRANCH  47  61
ATOM     61  C   UNL A   1      39.274  32.381  35.917  1.00  0.00     0.057 A 
ATOM     62  C   UNL A   1      39.812  33.655  36.145  1.00  0.00     0.134 A 
ATOM     63  C   UNL A   1      38.351  31.895  36.852  1.00  0.00     0.134 A 
ATOM     64  F   UNL A   1      40.713  34.175  35.297  1.00  0.00    -0.206 F 
ATOM     65  C   UNL A   1      39.466  34.403  37.272  1.00  0.00     0.040 A 
ATOM     66  C   UNL A   1      37.976  32.645  37.968  1.00  0.00     0.040 A 
ATOM     67  F   UNL A   1      37.793  30.685  36.691  1.00  0.00    -0.206 F 
ATOM     68  C   UNL A   1      38.541  33.900  38.185  1.00  0.00     0.006 A 
ENDBRANCH  47  61
BRANCH  48  69
ATOM     69  C   UNL A   1      41.549  27.363  27.607  1.00  0.00     0.057 A 
ATOM     70  C   UNL A   1      42.365  27.947  26.631  1.00  0.00     0.134 A 
ATOM     71  C   UNL A   1      41.079  26.066  27.363  1.00  0.00     0.134 A 
ATOM     72  F   UNL A   1      42.827  29.195  26.796  1.00  0.00    -0.206 F 
ATOM     73  C   UNL A   1      42.687  27.275  25.450  1.00  0.00     0.040 A 
ATOM     74  C   UNL A   1      41.413  25.374  26.200  1.00  0.00     0.040 A 
ATOM     75  F   UNL A   1      40.294  25.451  28.260  1.00  0.00    -0.206 F 
ATOM     76  C   UNL A   1      42.215  25.982  25.235  1.00  0.00     0.006 A 
ENDBRANCH  48  69
BRANCH  60  77
ATOM     77  C   UNL A   1      44.156  27.394  34.062  1.00  0.00     0.057 A 
ATOM     78  C   UNL A   1      45.460  27.905  34.115  1.00  0.00     0.134 A 
ATOM     79  C   UNL A   1      43.931  26.142  34.649  1.00  0.00     0.134 A 
ATOM     80  F   UNL A   1      45.747  29.094  33.562  1.00  0.00    -0.206 F 
ATOM     81  C   UNL A   1      46.504  27.185  34.698  1.00  0.00     0.040 A 
ATOM     82  C   UNL A   1      44.961  25.426  35.261  1.00  0.00     0.040 A 
ATOM     83  F   UNL A   1      42.705  25.597  34.644  1.00  0.00    -0.206 F 
ATOM     84  C   UNL A   1      46.255  25.943  35.279  1.00  0.00     0.006 A 
ENDBRANCH  60  77
ENDBRANCH  34  35
ENDBRANCH  27  29
ENDBRANCH  26  27
ENDBRANCH  25  26
ENDBRANCH  24  25
ENDBRANCH  23  24
ENDBRANCH   1  23
TORSDOF 17
ENDMDL
MODEL 2
REMARK VINA RESULT:     -10.7      2.788      8.139
REMARK SMILES CN1CC(=O)N(CC(=O)N2CCCC[C@H]2C(=O)OCCOCCOC(=O)c2ccc(-c3c4nc(c(-c5c(F)cccc5F)c5ccc([nH]5)c(-c5c(F)cccc5F)c5nc(c(-c6c(F)cccc6F)c6ccc3[nH]6)C=C5)C=C4)cc2)C1=O
REMARK SMILES IDX 20 1 19 2 18 3 16 4 17 5 15 6 10 7 11 8 12 9 14 10 13 11
REMARK SMILES IDX 8 12 9 13 7 14 6 15 1 16 2 17 3 18 81 19 4 20 82 21 5 22
REMARK SMILES IDX 21 23 22 24 23 25 24 26 25 27 26 28 27 29 28 30 80 31 29 32
REMARK SMILES IDX 79 33 30 34 31 35 32 36 73 37 33 38 78 39 72 40 74 41 34 42
REMARK SMILES IDX 77 43 71 44 70 45 35 47 61 48 44 49 60 50 45 51 48 52 59 53
REMARK SMILES IDX 75 54 46 55 47 56 58 58 76 59 49 60 36 61 37 62 42 63 38 64
REMARK SMILES IDX 39 65 41 66 43 67 40 68 62 69 63 70 68 71 64 72 65 73 67 74
REMARK SMILES IDX 69 75 66 76 50 77 51 78 56 79 52 80 53 81 55 82 57 83 54 84
REMARK H PARENT 74 46 48 57
REMARK Flexibility Score: inf
ROOT
ATOM      1  C   UNL A   1      40.042  21.244  26.322  1.00  0.00     0.202 C 
ENDROOT
BRANCH   1   2
ATOM      2  C   UNL A   1      38.851  22.195  26.203  1.00  0.00     0.261 C 
BRANCH   2   3
ATOM      3  O   UNL A   1      38.170  21.935  24.965  1.00  0.00    -0.462 OA
BRANCH   3   4
ATOM      4  C   UNL A   1      37.102  21.103  25.019  1.00  0.00     0.328 C 
ATOM      5  O   UNL A   1      37.165  19.906  25.279  1.00  0.00    -0.250 OA
BRANCH   4   6
ATOM      6  C   UNL A   1      35.801  21.788  24.545  1.00  0.00     0.195 C 
ATOM      7  N   UNL A   1      34.491  21.338  25.091  1.00  0.00    -0.327 N 
ATOM      8  C   UNL A   1      34.199  21.755  26.471  1.00  0.00     0.120 C 
ATOM      9  C   UNL A   1      34.329  23.260  26.643  1.00  0.00     0.022 C 
ATOM     10  C   UNL A   1      35.970  23.305  24.752  1.00  0.00     0.037 C 
ATOM     11  C   UNL A   1      35.706  23.732  26.194  1.00  0.00     0.005 C 
BRANCH   7  12
ATOM     12  C   UNL A   1      33.464  20.706  24.396  1.00  0.00     0.243 C 
ATOM     13  O   UNL A   1      33.396  19.466  24.402  1.00  0.00    -0.273 OA
BRANCH  12  14
ATOM     14  C   UNL A   1      32.538  21.412  23.387  1.00  0.00     0.230 C 
BRANCH  14  15
ATOM     15  N   UNL A   1      32.354  22.835  23.343  1.00  0.00    -0.253 N 
ATOM     16  C   UNL A   1      32.882  26.113  21.929  1.00  0.00     0.149 C 
ATOM     17  N   UNL A   1      32.441  24.935  22.633  1.00  0.00    -0.318 N 
ATOM     18  C   UNL A   1      31.557  24.999  23.773  1.00  0.00     0.221 C 
ATOM     19  C   UNL A   1      32.884  23.653  22.391  1.00  0.00     0.327 C 
ATOM     20  C   UNL A   1      31.545  23.538  24.191  1.00  0.00     0.250 C 
ATOM     21  O   UNL A   1      33.650  23.306  21.502  1.00  0.00    -0.248 OA
ATOM     22  O   UNL A   1      30.925  23.085  25.141  1.00  0.00    -0.272 OA
ENDBRANCH  14  15
ENDBRANCH  12  14
ENDBRANCH   7  12
ENDBRANCH   4   6
ENDBRANCH   3   4
ENDBRANCH   2   3
ENDBRANCH   1   2
BRANCH   1  23
ATOM     23  O   UNL A   1      41.182  21.582  25.532  1.00  0.00    -0.374 OA
BRANCH  23  24
ATOM     24  C   UNL A   1      42.471  21.321  26.088  1.00  0.00     0.202 C 
BRANCH  24  25
ATOM     25  C   UNL A   1      43.655  22.016  25.405  1.00  0.00     0.261 C 
BRANCH  25  26
ATOM     26  O   UNL A   1      43.275  23.224  24.722  1.00  0.00    -0.460 OA
BRANCH  26  27
ATOM     27  C   UNL A   1      44.010  24.308  25.055  1.00  0.00     0.338 C 
ATOM     28  O   UNL A   1      45.115  24.621  24.622  1.00  0.00    -0.246 OA
BRANCH  27  29
ATOM     29  C   UNL A   1      43.234  25.209  25.924  1.00  0.00     0.060 A 
ATOM     30  C   UNL A   1      43.837  26.419  26.287  1.00  0.00     0.016 A 
ATOM     31  C   UNL A   1      41.990  24.850  26.447  1.00  0.00     0.016 A 
ATOM     32  C   UNL A   1      43.227  27.248  27.224  1.00  0.00     0.010 A 
ATOM     33  C   UNL A   1      41.379  25.682  27.393  1.00  0.00     0.010 A 
ATOM     34  C   UNL A   1      42.016  26.863  27.817  1.00  0.00    -0.014 A 
BRANCH  34  35
ATOM     35  C   UNL A   1      41.520  27.630  28.986  1.00  0.00     0.031 A 
ATOM     36  C   UNL A   1      42.250  27.524  30.297  1.00  0.00     0.074 A 
ATOM     37  C   UNL A   1      40.474  28.467  28.864  1.00  0.00     0.049 A 
ATOM     38  N   UNL A   1      42.022  28.145  31.427  1.00  0.00    -0.248 NA
ATOM     39  C   UNL A   1      43.390  26.596  30.339  1.00  0.00     0.031 C 
ATOM     40  C   UNL A   1      39.702  28.681  27.642  1.00  0.00     0.029 A 
ATOM     41  N   UNL A   1      39.889  29.300  29.785  1.00  0.00    -0.354 N 
ATOM     42  C   UNL A   1      42.986  27.682  32.313  1.00  0.00     0.074 A 
ATOM     43  C   UNL A   1      43.777  26.702  31.602  1.00  0.00     0.031 C 
ATOM     44  C   UNL A   1      38.741  29.588  27.888  1.00  0.00     0.029 A 
ATOM     45  C   UNL A   1      38.818  30.000  29.289  1.00  0.00     0.049 A 
ATOM     46  H   UNL A   1      40.206  29.386  30.712  1.00  0.00     0.167 HD
ATOM     47  C   UNL A   1      43.202  28.047  33.599  1.00  0.00     0.037 A 
ATOM     48  C   UNL A   1      37.988  30.868  29.898  1.00  0.00     0.037 A 
ATOM     49  C   UNL A   1      42.417  29.025  34.309  1.00  0.00     0.049 A 
ATOM     50  C   UNL A   1      38.216  31.222  31.344  1.00  0.00     0.074 A 
ATOM     51  C   UNL A   1      42.578  29.486  35.603  1.00  0.00     0.029 A 
ATOM     52  N   UNL A   1      41.316  29.685  33.783  1.00  0.00    -0.354 N 
ATOM     53  N   UNL A   1      39.155  30.808  32.160  1.00  0.00    -0.248 NA
ATOM     54  C   UNL A   1      37.271  32.171  31.950  1.00  0.00     0.031 C 
ATOM     55  C   UNL A   1      41.543  30.385  35.880  1.00  0.00     0.029 A 
ATOM     56  C   UNL A   1      40.769  30.526  34.739  1.00  0.00     0.049 A 
ATOM     57  H   UNL A   1      40.974  29.573  32.868  1.00  0.00     0.167 HD
ATOM     58  C   UNL A   1      38.929  31.461  33.366  1.00  0.00     0.074 A 
ATOM     59  C   UNL A   1      37.776  32.315  33.168  1.00  0.00     0.031 C 
ATOM     60  C   UNL A   1      39.614  31.364  34.532  1.00  0.00     0.037 A 
BRANCH  47  61
ATOM     61  C   UNL A   1      44.319  27.362  34.332  1.00  0.00     0.057 A 
ATOM     62  C   UNL A   1      44.131  26.147  35.006  1.00  0.00     0.134 A 
ATOM     63  C   UNL A   1      45.605  27.916  34.349  1.00  0.00     0.134 A 
ATOM     64  F   UNL A   1      42.920  25.570  35.042  1.00  0.00    -0.206 F 
ATOM     65  C   UNL A   1      45.176  25.524  35.691  1.00  0.00     0.040 A 
ATOM     66  C   UNL A   1      46.664  27.288  35.007  1.00  0.00     0.040 A 
ATOM     67  F   UNL A   1      45.855  29.074  33.719  1.00  0.00    -0.206 F 
ATOM     68  C   UNL A   1      46.448  26.092  35.688  1.00  0.00     0.006 A 
ENDBRANCH  47  61
BRANCH  48  69
ATOM     69  C   UNL A   1      36.856  31.462  29.145  1.00  0.00     0.057 A 
ATOM     70  C   UNL A   1      35.720  30.710  28.823  1.00  0.00     0.134 A 
ATOM     71  C   UNL A   1      36.890  32.795  28.715  1.00  0.00     0.134 A 
ATOM     72  F   UNL A   1      35.638  29.422  29.186  1.00  0.00    -0.206 F 
ATOM     73  C   UNL A   1      34.666  31.257  28.087  1.00  0.00     0.040 A 
ATOM     74  C   UNL A   1      35.833  33.361  28.002  1.00  0.00     0.040 A 
ATOM     75  F   UNL A   1      37.950  33.568  28.992  1.00  0.00    -0.206 F 
ATOM     76  C   UNL A   1      34.719  32.588  27.680  1.00  0.00     0.006 A 
ENDBRANCH  48  69
BRANCH  60  77
ATOM     77  C   UNL A   1      39.146  32.218  35.675  1.00  0.00     0.057 A 
ATOM     78  C   UNL A   1      38.259  31.734  36.647  1.00  0.00     0.134 A 
ATOM     79  C   UNL A   1      39.600  33.535  35.817  1.00  0.00     0.134 A 
ATOM     80  F   UNL A   1      37.776  30.484  36.564  1.00  0.00    -0.206 F 
ATOM     81  C   UNL A   1      37.817  32.539  37.698  1.00  0.00     0.040 A 
ATOM     82  C   UNL A   1      39.187  34.340  36.881  1.00  0.00     0.040 A 
ATOM     83  F   UNL A   1      40.458  34.061  34.930  1.00  0.00    -0.206 F 
ATOM     84  C   UNL A   1      38.286  33.845  37.821  1.00  0.00     0.006 A 
ENDBRANCH  60  77
ENDBRANCH  34  35
ENDBRANCH  27  29
ENDBRANCH  26  27
ENDBRANCH  25  26
ENDBRANCH  24  25
ENDBRANCH  23  24
ENDBRANCH   1  23
TORSDOF 17
ENDMDL
MODEL 3
REMARK VINA RESULT:     -10.5      1.161      2.214
REMARK SMILES CN1CC(=O)N(CC(=O)N2CCCC[C@H]2C(=O)OCCOCCOC(=O)c2ccc(-c3c4nc(c(-c5c(F)cccc5F)c5ccc([nH]5)c(-c5c(F)cccc5F)c5nc(c(-c6c(F)cccc6F)c6ccc3[nH]6)C=C5)C=C4)cc2)C1=O
REMARK SMILES IDX 20 1 19 2 18 3 16 4 17 5 15 6 10 7 11 8 12 9 14 10 13 11
REMARK SMILES IDX 8 12 9 13 7 14 6 15 1 16 2 17 3 18 81 19 4 20 82 21 5 22
REMARK SMILES IDX 21 23 22 24 23 25 24 26 25 27 26 28 27 29 28 30 80 31 29 32
REMARK SMILES IDX 79 33 30 34 31 35 32 36 73 37 33 38 78 39 72 40 74 41 34 42
REMARK SMILES IDX 77 43 71 44 70 45 35 47 61 48 44 49 60 50 45 51 48 52 59 53
REMARK SMILES IDX 75 54 46 55 47 56 58 58 76 59 49 60 36 61 37 62 42 63 38 64
REMARK SMILES IDX 39 65 41 66 43 67 40 68 62 69 63 70 68 71 64 72 65 73 67 74
REMARK SMILES IDX 69 75 66 76 50 77 51 78 56 79 52 80 53 81 55 82 57 83 54 84
REMARK H PARENT 74 46 48 57
REMARK Flexibility Score: inf
ROOT
ATOM      1  C   UNL A   1      33.038  30.030  27.229  1.00  0.00     0.202 C 
ENDROOT
BRANCH   1   2
ATOM      2  C   UNL A   1      32.594  28.574  27.364  1.00  0.00     0.261 C 
BRANCH   2   3
ATOM      3  O   UNL A   1      33.390  27.762  26.485  1.00  0.00    -0.462 OA
BRANCH   3   4
ATOM      4  C   UNL A   1      32.727  26.870  25.710  1.00  0.00     0.328 C 
ATOM      5  O   UNL A   1      32.030  25.958  26.141  1.00  0.00    -0.250 OA
BRANCH   4   6
ATOM      6  C   UNL A   1      33.081  27.016  24.214  1.00  0.00     0.195 C 
ATOM      7  N   UNL A   1      32.621  25.984  23.245  1.00  0.00    -0.327 N 
ATOM      8  C   UNL A   1      31.191  26.023  22.902  1.00  0.00     0.120 C 
ATOM      9  C   UNL A   1      30.768  27.400  22.415  1.00  0.00     0.022 C 
ATOM     10  C   UNL A   1      32.621  28.414  23.760  1.00  0.00     0.037 C 
ATOM     11  C   UNL A   1      31.128  28.464  23.443  1.00  0.00     0.005 C 
BRANCH   7  12
ATOM     12  C   UNL A   1      33.415  25.097  22.522  1.00  0.00     0.243 C 
ATOM     13  O   UNL A   1      33.275  25.017  21.291  1.00  0.00    -0.273 OA
BRANCH  12  14
ATOM     14  C   UNL A   1      34.287  23.998  23.159  1.00  0.00     0.230 C 
BRANCH  14  15
ATOM     15  N   UNL A   1      33.816  23.111  24.186  1.00  0.00    -0.253 N 
ATOM     16  C   UNL A   1      33.617  21.940  27.593  1.00  0.00     0.149 C 
ATOM     17  N   UNL A   1      33.449  22.243  26.194  1.00  0.00    -0.318 N 
ATOM     18  C   UNL A   1      32.612  21.452  25.325  1.00  0.00     0.221 C 
ATOM     19  C   UNL A   1      34.136  23.220  25.505  1.00  0.00     0.327 C 
ATOM     20  C   UNL A   1      32.911  22.107  23.987  1.00  0.00     0.250 C 
ATOM     21  O   UNL A   1      34.924  24.025  25.982  1.00  0.00    -0.248 OA
ATOM     22  O   UNL A   1      32.429  21.769  22.917  1.00  0.00    -0.272 OA
ENDBRANCH  14  15
ENDBRANCH  12  14
ENDBRANCH   7  12
ENDBRANCH   4   6
ENDBRANCH   3   4
ENDBRANCH   2   3
ENDBRANCH   1   2
BRANCH   1  23
ATOM     23  O   UNL A   1      32.324  30.806  26.267  1.00  0.00    -0.374 OA
BRANCH  23  24
ATOM     24  C   UNL A   1      31.480  31.849  26.755  1.00  0.00     0.202 C 
BRANCH  24  25
ATOM     25  C   UNL A   1      32.123  33.236  26.881  1.00  0.00     0.261 C 
BRANCH  25  26
ATOM     26  O   UNL A   1      32.204  33.691  28.243  1.00  0.00    -0.460 OA
BRANCH  26  27
ATOM     27  C   UNL A   1      33.283  34.459  28.511  1.00  0.00     0.338 C 
ATOM     28  O   UNL A   1      33.309  35.673  28.686  1.00  0.00    -0.246 OA
BRANCH  27  29
ATOM     29  C   UNL A   1      34.471  33.618  28.739  1.00  0.00     0.060 A 
ATOM     30  C   UNL A   1      34.292  32.455  29.498  1.00  0.00     0.016 A 
ATOM     31  C   UNL A   1      35.744  33.995  28.305  1.00  0.00     0.016 A 
ATOM     32  C   UNL A   1      35.395  31.696  29.879  1.00  0.00     0.010 A 
ATOM     33  C   UNL A   1      36.852  33.233  28.693  1.00  0.00     0.010 A 
ATOM     34  C   UNL A   1      36.685  32.104  29.518  1.00  0.00    -0.014 A 
BRANCH  34  35
ATOM     35  C   UNL A   1      37.848  31.428  30.144  1.00  0.00     0.031 A 
ATOM     36  C   UNL A   1      38.179  31.719  31.583  1.00  0.00     0.074 A 
ATOM     37  C   UNL A   1      38.559  30.512  29.463  1.00  0.00     0.049 A 
ATOM     38  N   UNL A   1      39.113  31.203  32.341  1.00  0.00    -0.248 NA
ATOM     39  C   UNL A   1      37.342  32.724  32.258  1.00  0.00     0.031 C 
ATOM     40  C   UNL A   1      38.322  30.122  28.075  1.00  0.00     0.029 A 
ATOM     41  N   UNL A   1      39.624  29.740  29.855  1.00  0.00    -0.354 N 
ATOM     42  C   UNL A   1      38.980  31.820  33.578  1.00  0.00     0.074 A 
ATOM     43  C   UNL A   1      37.899  32.775  33.459  1.00  0.00     0.031 C 
ATOM     44  C   UNL A   1      39.217  29.180  27.729  1.00  0.00     0.029 A 
ATOM     45  C   UNL A   1      40.101  28.920  28.864  1.00  0.00     0.049 A 
ATOM     46  H   UNL A   1      40.007  29.771  30.760  1.00  0.00     0.167 HD
ATOM     47  C   UNL A   1      39.683  31.605  34.715  1.00  0.00     0.037 A 
ATOM     48  C   UNL A   1      41.140  28.063  28.869  1.00  0.00     0.037 A 
ATOM     49  C   UNL A   1      40.757  30.651  34.837  1.00  0.00     0.049 A 
ATOM     50  C   UNL A   1      41.942  27.876  30.129  1.00  0.00     0.074 A 
ATOM     51  C   UNL A   1      41.509  30.338  35.955  1.00  0.00     0.029 A 
ATOM     52  N   UNL A   1      41.237  29.867  33.799  1.00  0.00    -0.354 N 
ATOM     53  N   UNL A   1      41.780  28.436  31.304  1.00  0.00    -0.248 NA
ATOM     54  C   UNL A   1      43.065  26.930  30.065  1.00  0.00     0.031 C 
ATOM     55  C   UNL A   1      42.480  29.402  35.582  1.00  0.00     0.029 A 
ATOM     56  C   UNL A   1      42.296  29.092  34.243  1.00  0.00     0.049 A 
ATOM     57  H   UNL A   1      40.878  29.861  32.883  1.00  0.00     0.167 HD
ATOM     58  C   UNL A   1      42.765  27.895  32.124  1.00  0.00     0.074 A 
ATOM     59  C   UNL A   1      43.504  26.948  31.316  1.00  0.00     0.031 C 
ATOM     60  C   UNL A   1      43.031  28.158  33.426  1.00  0.00     0.037 A 
BRANCH  47  61
ATOM     61  C   UNL A   1      39.330  32.437  35.913  1.00  0.00     0.057 A 
ATOM     62  C   UNL A   1      38.429  31.989  36.890  1.00  0.00     0.134 A 
ATOM     63  C   UNL A   1      39.914  33.696  36.103  1.00  0.00     0.134 A 
ATOM     64  F   UNL A   1      37.824  30.799  36.763  1.00  0.00    -0.206 F 
ATOM     65  C   UNL A   1      38.103  32.776  37.996  1.00  0.00     0.040 A 
ATOM     66  C   UNL A   1      39.616  34.480  37.219  1.00  0.00     0.040 A 
ATOM     67  F   UNL A   1      40.788  34.182  35.209  1.00  0.00    -0.206 F 
ATOM     68  C   UNL A   1      38.701  34.023  38.165  1.00  0.00     0.006 A 
ENDBRANCH  47  61
BRANCH  48  69
ATOM     69  C   UNL A   1      41.490  27.318  27.634  1.00  0.00     0.057 A 
ATOM     70  C   UNL A   1      40.994  26.031  27.393  1.00  0.00     0.134 A 
ATOM     71  C   UNL A   1      42.343  27.871  26.670  1.00  0.00     0.134 A 
ATOM     72  F   UNL A   1      40.191  25.439  28.289  1.00  0.00    -0.206 F 
ATOM     73  C   UNL A   1      41.346  25.315  26.247  1.00  0.00     0.040 A 
ATOM     74  C   UNL A   1      42.683  27.177  25.509  1.00  0.00     0.040 A 
ATOM     75  F   UNL A   1      42.852  29.100  26.843  1.00  0.00    -0.206 F 
ATOM     76  C   UNL A   1      42.189  25.891  25.298  1.00  0.00     0.006 A 
ENDBRANCH  48  69
BRANCH  60  77
ATOM     77  C   UNL A   1      44.158  27.396  34.063  1.00  0.00     0.057 A 
ATOM     78  C   UNL A   1      43.963  26.138  34.649  1.00  0.00     0.134 A 
ATOM     79  C   UNL A   1      45.458  27.916  34.074  1.00  0.00     0.134 A 
ATOM     80  F   UNL A   1      42.739  25.586  34.684  1.00  0.00    -0.206 F 
ATOM     81  C   UNL A   1      45.012  25.442  35.252  1.00  0.00     0.040 A 
ATOM     82  C   UNL A   1      46.521  27.216  34.648  1.00  0.00     0.040 A 
ATOM     83  F   UNL A   1      45.720  29.110  33.521  1.00  0.00    -0.206 F 
ATOM     84  C   UNL A   1      46.298  25.978  35.248  1.00  0.00     0.006 A 
ENDBRANCH  60  77
ENDBRANCH  34  35
ENDBRANCH  27  29
ENDBRANCH  26  27
ENDBRANCH  25  26
ENDBRANCH  24  25
ENDBRANCH  23  24
ENDBRANCH   1  23
TORSDOF 17
ENDMDL
