MODEL 1
REMARK VINA RESULT:     -11.0      0.000      0.000
REMARK SMILES O=C(N[C@@H]1C=C[C@@H](C(=O)OCCOCCOC(=O)c2ccc(-c3c4nc(c(-c5c(F)cccc5F)c5ccc([nH]5)c(-c5c(F)cccc5F)c5nc(c(-c6c(F)cccc6F)c6ccc3[nH]6)C=C5)C=C4)cc2)C1)Oc1ccccc1
REMARK SMILES IDX 12 1 11 2 10 3 8 4 9 5 7 6 4 7 5 8 73 9 6 10 3 11 1 12 2 13
REMARK SMILES IDX 74 15 75 16 76 17 80 18 77 19 79 20 78 21 13 22 14 23 15 24
REMARK SMILES IDX 16 25 17 26 18 27 19 28 20 29 72 30 21 31 71 32 22 33 23 34
REMARK SMILES IDX 24 35 65 36 25 37 70 38 64 39 66 40 26 41 69 42 63 43 62 44
REMARK SMILES IDX 27 46 53 47 36 48 52 49 37 50 40 51 51 52 67 53 38 54 39 55
REMARK SMILES IDX 50 57 68 58 41 59 28 60 29 61 34 62 30 63 31 64 33 65 35 66
REMARK SMILES IDX 32 67 54 68 55 69 60 70 56 71 57 72 59 73 61 74 58 75 42 76
REMARK SMILES IDX 43 77 48 78 44 79 45 80 47 81 49 82 46 83
REMARK H PARENT 3 14 66 45 40 56
REMARK Flexibility Score: inf
ROOT
ATOM      1  C   UNL A   1      33.478  33.762  28.347  1.00  0.00     0.202 C 
ENDROOT
BRANCH   1   2
ATOM      2  C   UNL A   1      34.279  32.453  28.280  1.00  0.00     0.261 C 
BRANCH   2   3
ATOM      3  O   UNL A   1      33.498  31.458  27.574  1.00  0.00    -0.463 OA
BRANCH   3   4
ATOM      4  C   UNL A   1      34.171  30.332  27.190  1.00  0.00     0.312 C 
ATOM      5  O   UNL A   1      35.341  30.104  27.474  1.00  0.00    -0.252 OA
BRANCH   4   6
ATOM      6  C   UNL A   1      33.227  29.331  26.512  1.00  0.00     0.124 C 
ATOM      7  C   UNL A   1      32.565  26.974  26.345  1.00  0.00     0.109 C 
ATOM      8  C   UNL A   1      31.539  27.786  27.063  1.00  0.00    -0.006 C 
ATOM      9  C   UNL A   1      33.774  27.910  26.345  1.00  0.00     0.049 C 
ATOM     10  C   UNL A   1      31.932  29.057  27.225  1.00  0.00    -0.014 C 
BRANCH   7  11
ATOM     11  N   UNL A   1      32.007  26.306  25.171  1.00  0.00    -0.315 N 
ATOM     12  O   UNL A   1      31.564  25.242  23.276  1.00  0.00    -0.224 OA
ATOM     13  C   UNL A   1      32.109  25.196  24.382  1.00  0.00     0.413 C 
ATOM     14  H   UNL A   1      31.283  26.870  24.813  1.00  0.00     0.167 HD
BRANCH  13  15
ATOM     15  O   UNL A   1      32.836  24.071  24.737  1.00  0.00    -0.410 OA
BRANCH  15  16
ATOM     16  C   UNL A   1      34.196  23.952  24.442  1.00  0.00     0.132 A 
ATOM     17  C   UNL A   1      35.048  24.379  25.461  1.00  0.00     0.047 A 
ATOM     18  C   UNL A   1      34.666  23.365  23.268  1.00  0.00     0.047 A 
ATOM     19  C   UNL A   1      36.360  23.957  25.436  1.00  0.00     0.004 A 
ATOM     20  C   UNL A   1      35.985  22.954  23.239  1.00  0.00     0.004 A 
ATOM     21  C   UNL A   1      36.773  23.179  24.364  1.00  0.00     0.000 A 
ENDBRANCH  15  16
ENDBRANCH  13  15
ENDBRANCH   7  11
ENDBRANCH   4   6
ENDBRANCH   3   4
ENDBRANCH   2   3
ENDBRANCH   1   2
BRANCH   1  22
ATOM     22  O   UNL A   1      33.461  34.283  29.679  1.00  0.00    -0.374 OA
BRANCH  22  23
ATOM     23  C   UNL A   1      34.674  34.138  30.438  1.00  0.00     0.202 C 
BRANCH  23  24
ATOM     24  C   UNL A   1      34.541  33.793  31.947  1.00  0.00     0.261 C 
BRANCH  24  25
ATOM     25  O   UNL A   1      34.744  32.401  32.243  1.00  0.00    -0.460 OA
BRANCH  25  26
ATOM     26  C   UNL A   1      35.895  32.168  32.906  1.00  0.00     0.338 C 
ATOM     27  O   UNL A   1      36.123  32.463  34.076  1.00  0.00    -0.246 OA
BRANCH  26  28
ATOM     28  C   UNL A   1      36.790  31.294  32.127  1.00  0.00     0.060 A 
ATOM     29  C   UNL A   1      37.976  30.914  32.764  1.00  0.00     0.016 A 
ATOM     30  C   UNL A   1      36.542  30.907  30.807  1.00  0.00     0.016 A 
ATOM     31  C   UNL A   1      38.966  30.244  32.056  1.00  0.00     0.010 A 
ATOM     32  C   UNL A   1      37.541  30.227  30.094  1.00  0.00     0.010 A 
ATOM     33  C   UNL A   1      38.780  29.948  30.700  1.00  0.00    -0.014 A 
BRANCH  33  34
ATOM     34  C   UNL A   1      39.969  29.526  29.914  1.00  0.00     0.031 A 
ATOM     35  C   UNL A   1      41.102  30.503  29.722  1.00  0.00     0.074 A 
ATOM     36  C   UNL A   1      40.101  28.256  29.488  1.00  0.00     0.049 A 
ATOM     37  N   UNL A   1      42.267  30.322  29.152  1.00  0.00    -0.248 NA
ATOM     38  C   UNL A   1      40.900  31.860  30.253  1.00  0.00     0.031 C 
ATOM     39  C   UNL A   1      39.103  27.202  29.658  1.00  0.00     0.029 A 
ATOM     40  N   UNL A   1      41.140  27.636  28.840  1.00  0.00    -0.354 N 
ATOM     41  C   UNL A   1      42.929  31.541  29.249  1.00  0.00     0.074 A 
ATOM     42  C   UNL A   1      42.028  32.461  29.905  1.00  0.00     0.031 C 
ATOM     43  C   UNL A   1      39.580  26.062  29.128  1.00  0.00     0.029 A 
ATOM     44  C   UNL A   1      40.902  26.313  28.558  1.00  0.00     0.049 A 
ATOM     45  H   UNL A   1      41.976  28.096  28.600  1.00  0.00     0.167 HD
ATOM     46  C   UNL A   1      44.180  31.861  28.840  1.00  0.00     0.037 A 
ATOM     47  C   UNL A   1      41.657  25.411  27.900  1.00  0.00     0.037 A 
ATOM     48  C   UNL A   1      45.086  30.942  28.202  1.00  0.00     0.049 A 
ATOM     49  C   UNL A   1      43.019  25.814  27.395  1.00  0.00     0.074 A 
ATOM     50  C   UNL A   1      46.385  31.168  27.781  1.00  0.00     0.029 A 
ATOM     51  N   UNL A   1      44.785  29.627  27.885  1.00  0.00    -0.354 N 
ATOM     52  N   UNL A   1      43.647  26.958  27.524  1.00  0.00    -0.248 NA
ATOM     53  C   UNL A   1      43.781  24.795  26.657  1.00  0.00     0.031 C 
ATOM     54  C   UNL A   1      46.848  30.008  27.151  1.00  0.00     0.029 A 
ATOM     55  C   UNL A   1      45.861  29.040  27.239  1.00  0.00     0.049 A 
ATOM     56  H   UNL A   1      43.933  29.177  28.089  1.00  0.00     0.167 HD
ATOM     57  C   UNL A   1      44.883  26.788  26.912  1.00  0.00     0.074 A 
ATOM     58  C   UNL A   1      44.924  25.425  26.425  1.00  0.00     0.031 C 
ATOM     59  C   UNL A   1      45.894  27.680  26.765  1.00  0.00     0.037 A 
BRANCH  46  60
ATOM     60  C   UNL A   1      44.637  33.278  29.038  1.00  0.00     0.057 A 
ATOM     61  C   UNL A   1      44.404  34.278  28.086  1.00  0.00     0.134 A 
ATOM     62  C   UNL A   1      45.279  33.654  30.226  1.00  0.00     0.134 A 
ATOM     63  F   UNL A   1      43.808  33.984  26.922  1.00  0.00    -0.206 F 
ATOM     64  C   UNL A   1      44.811  35.597  28.300  1.00  0.00     0.040 A 
ATOM     65  C   UNL A   1      45.665  34.974  30.463  1.00  0.00     0.040 A 
ATOM     66  F   UNL A   1      45.529  32.746  31.181  1.00  0.00    -0.206 F 
ATOM     67  C   UNL A   1      45.434  35.950  29.496  1.00  0.00     0.006 A 
ENDBRANCH  46  60
BRANCH  47  68
ATOM     68  C   UNL A   1      41.136  24.043  27.649  1.00  0.00     0.057 A 
ATOM     69  C   UNL A   1      41.645  22.927  28.322  1.00  0.00     0.134 A 
ATOM     70  C   UNL A   1      40.137  23.816  26.693  1.00  0.00     0.134 A 
ATOM     71  F   UNL A   1      42.620  23.073  29.232  1.00  0.00    -0.206 F 
ATOM     72  C   UNL A   1      41.198  21.635  28.038  1.00  0.00     0.040 A 
ATOM     73  C   UNL A   1      39.660  22.534  26.420  1.00  0.00     0.040 A 
ATOM     74  F   UNL A   1      39.607  24.843  26.010  1.00  0.00    -0.206 F 
ATOM     75  C   UNL A   1      40.199  21.437  27.087  1.00  0.00     0.006 A 
ENDBRANCH  47  68
BRANCH  59  76
ATOM     76  C   UNL A   1      47.145  27.203  26.083  1.00  0.00     0.057 A 
ATOM     77  C   UNL A   1      47.324  27.309  24.698  1.00  0.00     0.134 A 
ATOM     78  C   UNL A   1      48.202  26.667  26.831  1.00  0.00     0.134 A 
ATOM     79  F   UNL A   1      46.347  27.803  23.923  1.00  0.00    -0.206 F 
ATOM     80  C   UNL A   1      48.497  26.875  24.078  1.00  0.00     0.040 A 
ATOM     81  C   UNL A   1      49.392  26.258  26.226  1.00  0.00     0.040 A 
ATOM     82  F   UNL A   1      48.104  26.548  28.164  1.00  0.00    -0.206 F 
ATOM     83  C   UNL A   1      49.538  26.355  24.844  1.00  0.00     0.006 A 
ENDBRANCH  59  76
ENDBRANCH  33  34
ENDBRANCH  26  28
ENDBRANCH  25  26
ENDBRANCH  24  25
ENDBRANCH  23  24
ENDBRANCH  22  23
ENDBRANCH   1  22
TORSDOF 17
ENDMDL
MODEL 2
REMARK VINA RESULT:     -10.9      3.127      7.626
REMARK SMILES O=C(N[C@@H]1C=C[C@@H](C(=O)OCCOCCOC(=O)c2ccc(-c3c4nc(c(-c5c(F)cccc5F)c5ccc([nH]5)c(-c5c(F)cccc5F)c5nc(c(-c6c(F)cccc6F)c6ccc3[nH]6)C=C5)C=C4)cc2)C1)Oc1ccccc1
REMARK SMILES IDX 12 1 11 2 10 3 8 4 9 5 7 6 4 7 5 8 73 9 6 10 3 11 1 12 2 13
REMARK SMILES IDX 74 15 75 16 76 17 80 18 77 19 79 20 78 21 13 22 14 23 15 24
REMARK SMILES IDX 16 25 17 26 18 27 19 28 20 29 72 30 21 31 71 32 22 33 23 34
REMARK SMILES IDX 24 35 65 36 25 37 70 38 64 39 66 40 26 41 69 42 63 43 62 44
REMARK SMILES IDX 27 46 53 47 36 48 52 49 37 50 40 51 51 52 67 53 38 54 39 55
REMARK SMILES IDX 50 57 68 58 41 59 28 60 29 61 34 62 30 63 31 64 33 65 35 66
REMARK SMILES IDX 32 67 54 68 55 69 60 70 56 71 57 72 59 73 61 74 58 75 42 76
REMARK SMILES IDX 43 77 48 78 44 79 45 80 47 81 49 82 46 83
REMARK H PARENT 3 14 66 45 40 56
REMARK Flexibility Score: inf
ROOT
ATOM      1  C   UNL A   1      34.004  21.750  27.325  1.00  0.00     0.202 C 
ENDROOT
BRANCH   1   2
ATOM      2  C   UNL A   1      32.474  21.845  27.431  1.00  0.00     0.261 C 
BRANCH   2   3
ATOM      3  O   UNL A   1      32.088  23.240  27.460  1.00  0.00    -0.463 OA
BRANCH   3   4
ATOM      4  C   UNL A   1      30.919  23.550  26.822  1.00  0.00     0.312 C 
ATOM      5  O   UNL A   1      29.809  23.403  27.319  1.00  0.00    -0.252 OA
BRANCH   4   6
ATOM      6  C   UNL A   1      31.191  24.256  25.487  1.00  0.00     0.124 C 
ATOM      7  C   UNL A   1      30.590  24.384  23.112  1.00  0.00     0.109 C 
ATOM      8  C   UNL A   1      30.075  25.557  23.875  1.00  0.00    -0.006 C 
ATOM      9  C   UNL A   1      30.964  23.410  24.230  1.00  0.00     0.049 C 
ATOM     10  C   UNL A   1      30.333  25.453  25.186  1.00  0.00    -0.014 C 
BRANCH   7  11
ATOM     11  N   UNL A   1      31.463  24.789  22.012  1.00  0.00    -0.315 N 
ATOM     12  O   UNL A   1      32.938  25.686  20.619  1.00  0.00    -0.224 OA
ATOM     13  C   UNL A   1      32.755  25.089  21.682  1.00  0.00     0.413 C 
ATOM     14  H   UNL A   1      30.912  24.881  21.201  1.00  0.00     0.167 HD
BRANCH  13  15
ATOM     15  O   UNL A   1      33.836  24.813  22.504  1.00  0.00    -0.410 OA
BRANCH  15  16
ATOM     16  C   UNL A   1      34.056  25.518  23.690  1.00  0.00     0.132 A 
ATOM     17  C   UNL A   1      33.628  26.845  23.661  1.00  0.00     0.047 A 
ATOM     18  C   UNL A   1      34.572  24.920  24.839  1.00  0.00     0.047 A 
ATOM     19  C   UNL A   1      33.444  27.498  24.861  1.00  0.00     0.004 A 
ATOM     20  C   UNL A   1      34.398  25.581  26.040  1.00  0.00     0.004 A 
ATOM     21  C   UNL A   1      33.752  26.815  26.028  1.00  0.00     0.000 A 
ENDBRANCH  15  16
ENDBRANCH  13  15
ENDBRANCH   7  11
ENDBRANCH   4   6
ENDBRANCH   3   4
ENDBRANCH   2   3
ENDBRANCH   1   2
BRANCH   1  22
ATOM     22  O   UNL A   1      34.389  20.761  26.367  1.00  0.00    -0.374 OA
BRANCH  22  23
ATOM     23  C   UNL A   1      35.189  21.218  25.262  1.00  0.00     0.202 C 
BRANCH  23  24
ATOM     24  C   UNL A   1      36.568  20.537  25.042  1.00  0.00     0.261 C 
BRANCH  24  25
ATOM     25  O   UNL A   1      37.664  21.462  24.964  1.00  0.00    -0.460 OA
BRANCH  25  26
ATOM     26  C   UNL A   1      38.707  21.108  25.742  1.00  0.00     0.338 C 
ATOM     27  O   UNL A   1      39.259  20.011  25.748  1.00  0.00    -0.246 OA
BRANCH  26  28
ATOM     28  C   UNL A   1      39.274  22.277  26.436  1.00  0.00     0.060 A 
ATOM     29  C   UNL A   1      38.702  23.513  26.115  1.00  0.00     0.016 A 
ATOM     30  C   UNL A   1      40.362  22.208  27.311  1.00  0.00     0.016 A 
ATOM     31  C   UNL A   1      39.279  24.690  26.573  1.00  0.00     0.010 A 
ATOM     32  C   UNL A   1      40.942  23.398  27.777  1.00  0.00     0.010 A 
ATOM     33  C   UNL A   1      40.438  24.644  27.358  1.00  0.00    -0.014 A 
BRANCH  33  34
ATOM     34  C   UNL A   1      41.192  25.911  27.556  1.00  0.00     0.031 A 
ATOM     35  C   UNL A   1      40.557  27.021  28.355  1.00  0.00     0.074 A 
ATOM     36  C   UNL A   1      42.467  26.027  27.145  1.00  0.00     0.049 A 
ATOM     37  N   UNL A   1      41.062  28.170  28.726  1.00  0.00    -0.248 NA
ATOM     38  C   UNL A   1      39.173  26.802  28.805  1.00  0.00     0.031 C 
ATOM     39  C   UNL A   1      43.214  25.006  26.411  1.00  0.00     0.029 A 
ATOM     40  N   UNL A   1      43.366  27.052  27.305  1.00  0.00    -0.354 N 
ATOM     41  C   UNL A   1      40.058  28.811  29.443  1.00  0.00     0.074 A 
ATOM     42  C   UNL A   1      38.906  27.938  29.431  1.00  0.00     0.031 C 
ATOM     43  C   UNL A   1      44.460  25.456  26.186  1.00  0.00     0.029 A 
ATOM     44  C   UNL A   1      44.590  26.806  26.733  1.00  0.00     0.049 A 
ATOM     45  H   UNL A   1      43.154  27.885  27.784  1.00  0.00     0.167 HD
ATOM     46  C   UNL A   1      40.096  30.013  30.067  1.00  0.00     0.037 A 
ATOM     47  C   UNL A   1      45.686  27.586  26.646  1.00  0.00     0.037 A 
ATOM     48  C   UNL A   1      41.247  30.877  30.095  1.00  0.00     0.049 A 
ATOM     49  C   UNL A   1      45.678  28.948  27.291  1.00  0.00     0.074 A 
ATOM     50  C   UNL A   1      41.389  32.099  30.729  1.00  0.00     0.029 A 
ATOM     51  N   UNL A   1      42.448  30.615  29.457  1.00  0.00    -0.354 N 
ATOM     52  N   UNL A   1      44.736  29.526  27.996  1.00  0.00    -0.248 NA
ATOM     53  C   UNL A   1      46.892  29.763  27.134  1.00  0.00     0.031 C 
ATOM     54  C   UNL A   1      42.656  32.607  30.419  1.00  0.00     0.029 A 
ATOM     55  C   UNL A   1      43.325  31.670  29.649  1.00  0.00     0.049 A 
ATOM     56  H   UNL A   1      42.649  29.799  28.942  1.00  0.00     0.167 HD
ATOM     57  C   UNL A   1      45.251  30.756  28.388  1.00  0.00     0.074 A 
ATOM     58  C   UNL A   1      46.596  30.834  27.858  1.00  0.00     0.031 C 
ATOM     59  C   UNL A   1      44.664  31.734  29.121  1.00  0.00     0.037 A 
BRANCH  46  60
ATOM     60  C   UNL A   1      38.843  30.487  30.746  1.00  0.00     0.057 A 
ATOM     61  C   UNL A   1      38.561  30.192  32.085  1.00  0.00     0.134 A 
ATOM     62  C   UNL A   1      37.927  31.293  30.056  1.00  0.00     0.134 A 
ATOM     63  F   UNL A   1      39.388  29.414  32.800  1.00  0.00    -0.206 F 
ATOM     64  C   UNL A   1      37.405  30.667  32.709  1.00  0.00     0.040 A 
ATOM     65  C   UNL A   1      36.783  31.796  30.676  1.00  0.00     0.040 A 
ATOM     66  F   UNL A   1      38.138  31.617  28.771  1.00  0.00    -0.206 F 
ATOM     67  C   UNL A   1      36.517  31.479  32.007  1.00  0.00     0.006 A 
ENDBRANCH  46  60
BRANCH  47  68
ATOM     68  C   UNL A   1      46.878  27.116  25.894  1.00  0.00     0.057 A 
ATOM     69  C   UNL A   1      47.876  26.348  26.502  1.00  0.00     0.134 A 
ATOM     70  C   UNL A   1      47.064  27.463  24.549  1.00  0.00     0.134 A 
ATOM     71  F   UNL A   1      47.771  26.003  27.794  1.00  0.00    -0.206 F 
ATOM     72  C   UNL A   1      49.027  25.962  25.810  1.00  0.00     0.040 A 
ATOM     73  C   UNL A   1      48.194  27.060  23.837  1.00  0.00     0.040 A 
ATOM     74  F   UNL A   1      46.144  28.199  23.906  1.00  0.00    -0.206 F 
ATOM     75  C   UNL A   1      49.184  26.315  24.471  1.00  0.00     0.006 A 
ENDBRANCH  47  68
BRANCH  59  76
ATOM     76  C   UNL A   1      45.482  32.956  29.427  1.00  0.00     0.057 A 
ATOM     77  C   UNL A   1      45.445  34.098  28.615  1.00  0.00     0.134 A 
ATOM     78  C   UNL A   1      46.287  33.006  30.573  1.00  0.00     0.134 A 
ATOM     79  F   UNL A   1      44.703  34.113  27.498  1.00  0.00    -0.206 F 
ATOM     80  C   UNL A   1      46.200  35.233  28.917  1.00  0.00     0.040 A 
ATOM     81  C   UNL A   1      47.022  34.147  30.902  1.00  0.00     0.040 A 
ATOM     82  F   UNL A   1      46.360  31.953  31.402  1.00  0.00    -0.206 F 
ATOM     83  C   UNL A   1      46.985  35.262  30.068  1.00  0.00     0.006 A 
ENDBRANCH  59  76
ENDBRANCH  33  34
ENDBRANCH  26  28
ENDBRANCH  25  26
ENDBRANCH  24  25
ENDBRANCH  23  24
ENDBRANCH  22  23
ENDBRANCH   1  22
TORSDOF 17
ENDMDL
MODEL 3
REMARK VINA RESULT:     -10.7      3.141      7.959
REMARK SMILES O=C(N[C@@H]1C=C[C@@H](C(=O)OCCOCCOC(=O)c2ccc(-c3c4nc(c(-c5c(F)cccc5F)c5ccc([nH]5)c(-c5c(F)cccc5F)c5nc(c(-c6c(F)cccc6F)c6ccc3[nH]6)C=C5)C=C4)cc2)C1)Oc1ccccc1
REMARK SMILES IDX 12 1 11 2 10 3 8 4 9 5 7 6 4 7 5 8 73 9 6 10 3 11 1 12 2 13
REMARK SMILES IDX 74 15 75 16 76 17 80 18 77 19 79 20 78 21 13 22 14 23 15 24
REMARK SMILES IDX 16 25 17 26 18 27 19 28 20 29 72 30 21 31 71 32 22 33 23 34
REMARK SMILES IDX 24 35 65 36 25 37 70 38 64 39 66 40 26 41 69 42 63 43 62 44
REMARK SMILES IDX 27 46 53 47 36 48 52 49 37 50 40 51 51 52 67 53 38 54 39 55
REMARK SMILES IDX 50 57 68 58 41 59 28 60 29 61 34 62 30 63 31 64 33 65 35 66
REMARK SMILES IDX 32 67 54 68 55 69 60 70 56 71 57 72 59 73 61 74 58 75 42 76
REMARK SMILES IDX 43 77 48 78 44 79 45 80 47 81 49 82 46 83
REMARK H PARENT 3 14 66 45 40 56
REMARK Flexibility Score: inf
ROOT
ATOM      1  C   UNL A   1      34.337  21.570  27.257  1.00  0.00     0.202 C 
ENDROOT
BRANCH   1   2
ATOM      2  C   UNL A   1      32.816  21.768  27.161  1.00  0.00     0.261 C 
BRANCH   2   3
ATOM      3  O   UNL A   1      32.514  23.177  27.300  1.00  0.00    -0.463 OA
BRANCH   3   4
ATOM      4  C   UNL A   1      31.314  23.585  26.790  1.00  0.00     0.312 C 
ATOM      5  O   UNL A   1      30.255  23.533  27.405  1.00  0.00    -0.252 OA
BRANCH   4   6
ATOM      6  C   UNL A   1      31.497  24.262  25.425  1.00  0.00     0.124 C 
ATOM      7  C   UNL A   1      30.866  24.232  23.054  1.00  0.00     0.109 C 
ATOM      8  C   UNL A   1      30.234  25.373  23.778  1.00  0.00    -0.006 C 
ATOM      9  C   UNL A   1      31.352  23.348  24.204  1.00  0.00     0.049 C 
ATOM     10  C   UNL A   1      30.513  25.348  25.089  1.00  0.00    -0.014 C 
BRANCH   7  11
ATOM     11  N   UNL A   1      31.682  24.685  21.929  1.00  0.00    -0.315 N 
ATOM     12  O   UNL A   1      32.979  25.718  20.456  1.00  0.00    -0.224 OA
ATOM     13  C   UNL A   1      32.881  25.246  21.591  1.00  0.00     0.413 C 
ATOM     14  H   UNL A   1      31.175  24.524  21.100  1.00  0.00     0.167 HD
BRANCH  13  15
ATOM     15  O   UNL A   1      33.944  25.363  22.473  1.00  0.00    -0.410 OA
BRANCH  15  16
ATOM     16  C   UNL A   1      33.930  26.284  23.523  1.00  0.00     0.132 A 
ATOM     17  C   UNL A   1      33.504  27.563  23.164  1.00  0.00     0.047 A 
ATOM     18  C   UNL A   1      34.224  25.933  24.840  1.00  0.00     0.047 A 
ATOM     19  C   UNL A   1      33.091  28.418  24.163  1.00  0.00     0.004 A 
ATOM     20  C   UNL A   1      33.821  26.797  25.840  1.00  0.00     0.004 A 
ATOM     21  C   UNL A   1      33.178  27.977  25.476  1.00  0.00     0.000 A 
ENDBRANCH  15  16
ENDBRANCH  13  15
ENDBRANCH   7  11
ENDBRANCH   4   6
ENDBRANCH   3   4
ENDBRANCH   2   3
ENDBRANCH   1   2
BRANCH   1  22
ATOM     22  O   UNL A   1      34.829  20.839  26.130  1.00  0.00    -0.374 OA
BRANCH  22  23
ATOM     23  C   UNL A   1      35.522  21.601  25.126  1.00  0.00     0.202 C 
BRANCH  23  24
ATOM     24  C   UNL A   1      36.955  21.145  24.738  1.00  0.00     0.261 C 
BRANCH  24  25
ATOM     25  O   UNL A   1      37.970  22.121  25.021  1.00  0.00    -0.460 OA
BRANCH  25  26
ATOM     26  C   UNL A   1      38.877  21.691  25.922  1.00  0.00     0.338 C 
ATOM     27  O   UNL A   1      39.347  20.558  25.983  1.00  0.00    -0.246 OA
BRANCH  26  28
ATOM     28  C   UNL A   1      39.429  22.814  26.699  1.00  0.00     0.060 A 
ATOM     29  C   UNL A   1      38.843  24.063  26.467  1.00  0.00     0.016 A 
ATOM     30  C   UNL A   1      40.517  22.695  27.570  1.00  0.00     0.016 A 
ATOM     31  C   UNL A   1      39.405  25.211  27.010  1.00  0.00     0.010 A 
ATOM     32  C   UNL A   1      41.082  23.856  28.121  1.00  0.00     0.010 A 
ATOM     33  C   UNL A   1      40.564  25.122  27.792  1.00  0.00    -0.014 A 
BRANCH  33  34
ATOM     34  C   UNL A   1      41.302  26.380  28.082  1.00  0.00     0.031 A 
ATOM     35  C   UNL A   1      42.696  26.550  27.534  1.00  0.00     0.074 A 
ATOM     36  C   UNL A   1      40.699  27.406  28.710  1.00  0.00     0.049 A 
ATOM     37  N   UNL A   1      43.487  27.592  27.587  1.00  0.00    -0.248 NA
ATOM     38  C   UNL A   1      43.272  25.397  26.824  1.00  0.00     0.031 C 
ATOM     39  C   UNL A   1      39.336  27.388  29.238  1.00  0.00     0.029 A 
ATOM     40  N   UNL A   1      41.153  28.670  28.990  1.00  0.00    -0.354 N 
ATOM     41  C   UNL A   1      44.652  27.218  26.926  1.00  0.00     0.074 A 
ATOM     42  C   UNL A   1      44.477  25.845  26.507  1.00  0.00     0.031 C 
ATOM     43  C   UNL A   1      39.063  28.588  29.779  1.00  0.00     0.029 A 
ATOM     44  C   UNL A   1      40.240  29.448  29.660  1.00  0.00     0.049 A 
ATOM     45  H   UNL A   1      42.048  28.990  28.736  1.00  0.00     0.167 HD
ATOM     46  C   UNL A   1      45.761  27.955  26.679  1.00  0.00     0.037 A 
ATOM     47  C   UNL A   1      40.346  30.704  30.138  1.00  0.00     0.037 A 
ATOM     48  C   UNL A   1      45.931  29.326  27.080  1.00  0.00     0.049 A 
ATOM     49  C   UNL A   1      41.619  31.478  29.908  1.00  0.00     0.074 A 
ATOM     50  C   UNL A   1      47.008  30.164  26.846  1.00  0.00     0.029 A 
ATOM     51  N   UNL A   1      45.004  30.059  27.805  1.00  0.00    -0.354 N 
ATOM     52  N   UNL A   1      42.697  31.124  29.251  1.00  0.00    -0.248 NA
ATOM     53  C   UNL A   1      41.685  32.831  30.481  1.00  0.00     0.031 C 
ATOM     54  C   UNL A   1      46.760  31.383  27.486  1.00  0.00     0.029 A 
ATOM     55  C   UNL A   1      45.500  31.327  28.060  1.00  0.00     0.049 A 
ATOM     56  H   UNL A   1      44.124  29.727  28.095  1.00  0.00     0.167 HD
ATOM     57  C   UNL A   1      43.555  32.217  29.308  1.00  0.00     0.074 A 
ATOM     58  C   UNL A   1      42.865  33.252  30.049  1.00  0.00     0.031 C 
ATOM     59  C   UNL A   1      44.802  32.352  28.793  1.00  0.00     0.037 A 
BRANCH  46  60
ATOM     60  C   UNL A   1      46.901  27.283  25.967  1.00  0.00     0.057 A 
ATOM     61  C   UNL A   1      47.080  27.383  24.582  1.00  0.00     0.134 A 
ATOM     62  C   UNL A   1      47.861  26.564  26.692  1.00  0.00     0.134 A 
ATOM     63  F   UNL A   1      46.190  28.045  23.827  1.00  0.00    -0.206 F 
ATOM     64  C   UNL A   1      48.162  26.777  23.941  1.00  0.00     0.040 A 
ATOM     65  C   UNL A   1      48.961  25.977  26.066  1.00  0.00     0.040 A 
ATOM     66  F   UNL A   1      47.752  26.432  28.022  1.00  0.00    -0.206 F 
ATOM     67  C   UNL A   1      49.112  26.079  24.685  1.00  0.00     0.006 A 
ENDBRANCH  46  60
BRANCH  47  68
ATOM     68  C   UNL A   1      39.229  31.305  30.911  1.00  0.00     0.057 A 
ATOM     69  C   UNL A   1      38.215  32.040  30.287  1.00  0.00     0.134 A 
ATOM     70  C   UNL A   1      39.173  31.188  32.306  1.00  0.00     0.134 A 
ATOM     71  F   UNL A   1      38.224  32.211  28.957  1.00  0.00    -0.206 F 
ATOM     72  C   UNL A   1      37.201  32.658  31.023  1.00  0.00     0.040 A 
ATOM     73  C   UNL A   1      38.149  31.775  33.050  1.00  0.00     0.040 A 
ATOM     74  F   UNL A   1      40.114  30.496  32.966  1.00  0.00    -0.206 F 
ATOM     75  C   UNL A   1      37.165  32.521  32.409  1.00  0.00     0.006 A 
ENDBRANCH  47  68
BRANCH  59  76
ATOM     76  C   UNL A   1      45.489  33.674  28.979  1.00  0.00     0.057 A 
ATOM     77  C   UNL A   1      45.340  34.725  28.065  1.00  0.00     0.134 A 
ATOM     78  C   UNL A   1      46.279  33.913  30.112  1.00  0.00     0.134 A 
ATOM     79  F   UNL A   1      44.605  34.560  26.955  1.00  0.00    -0.206 F 
ATOM     80  C   UNL A   1      45.973  35.955  28.256  1.00  0.00     0.040 A 
ATOM     81  C   UNL A   1      46.892  35.148  30.330  1.00  0.00     0.040 A 
ATOM     82  F   UNL A   1      46.456  32.955  31.035  1.00  0.00    -0.206 F 
ATOM     83  C   UNL A   1      46.745  36.171  29.396  1.00  0.00     0.006 A 
ENDBRANCH  59  76
ENDBRANCH  33  34
ENDBRANCH  26  28
ENDBRANCH  25  26
ENDBRANCH  24  25
ENDBRANCH  23  24
ENDBRANCH  22  23
ENDBRANCH   1  22
TORSDOF 17
ENDMDL
