MODEL 1
REMARK VINA RESULT:      -9.7      0.000      0.000
REMARK SMILES CC[C@H](C)[NH2+]CCc1ccc(C(=O)OCCOCCOC(=O)c2ccc(-c3c4nc(c(-c5c(F)cccc5F)c5ccc([nH]5)c(-c5c(F)cccc5F)c5nc(c(-c6c(F)cccc6F)c6ccc3[nH]6)C=C5)C=C4)cc2)cc1
REMARK SMILES IDX 15 1 14 2 12 3 13 4 11 5 8 6 9 7 78 8 10 9 77 10 7 11 6 12
REMARK SMILES IDX 5 13 3 16 4 17 2 18 1 19 16 20 17 21 18 22 19 23 20 24 21 25
REMARK SMILES IDX 22 26 23 27 24 28 76 29 25 30 75 31 26 32 27 33 28 34 69 35
REMARK SMILES IDX 29 36 74 37 68 38 70 39 30 40 73 41 67 42 66 43 31 45 57 46
REMARK SMILES IDX 40 47 56 48 41 49 44 50 55 51 71 52 42 53 43 54 54 56 72 57
REMARK SMILES IDX 45 58 32 59 33 60 38 61 34 62 35 63 37 64 39 65 36 66 58 67
REMARK SMILES IDX 59 68 64 69 60 70 61 71 63 72 65 73 62 74 46 75 47 76 52 77
REMARK SMILES IDX 48 78 49 79 51 80 53 81 50 82
REMARK H PARENT 5 14 5 15 70 44 44 55
REMARK Flexibility Score: inf
ROOT
ATOM      1  C   UNL A   1      33.568  34.969  28.568  1.00  0.00     0.261 C 
ENDROOT
BRANCH   1   2
ATOM      2  O   UNL A   1      33.641  33.545  28.734  1.00  0.00    -0.460 OA
BRANCH   2   3
ATOM      3  C   UNL A   1      34.690  32.961  28.103  1.00  0.00     0.338 C 
ATOM      4  O   UNL A   1      35.799  33.445  27.931  1.00  0.00    -0.246 OA
BRANCH   3   5
ATOM      5  C   UNL A   1      34.372  31.564  27.736  1.00  0.00     0.060 A 
ATOM      6  C   UNL A   1      33.947  28.894  26.962  1.00  0.00    -0.042 A 
ATOM      7  C   UNL A   1      35.210  29.315  27.397  1.00  0.00     0.005 A 
ATOM      8  C   UNL A   1      32.896  29.827  26.931  1.00  0.00     0.005 A 
ATOM      9  C   UNL A   1      35.420  30.638  27.781  1.00  0.00     0.016 A 
ATOM     10  C   UNL A   1      33.099  31.154  27.329  1.00  0.00     0.016 A 
BRANCH   6  11
ATOM     11  C   UNL A   1      33.730  27.482  26.462  1.00  0.00     0.097 C 
BRANCH  11  12
ATOM     12  C   UNL A   1      33.395  27.326  24.965  1.00  0.00     0.265 C 
BRANCH  12  13
ATOM     13  N   UNL A   1      32.218  26.528  24.620  1.00  0.00    -0.344 N 
ATOM     14  H   UNL A   1      32.361  26.151  23.683  1.00  0.00     0.346 HD
ATOM     15  H   UNL A   1      32.143  25.817  25.346  1.00  0.00     0.346 HD
BRANCH  13  16
ATOM     16  C   UNL A   1      30.939  27.242  24.627  1.00  0.00     0.178 C 
ATOM     17  C   UNL A   1      31.148  28.543  23.844  1.00  0.00     0.075 C 
BRANCH  16  18
ATOM     18  C   UNL A   1      29.748  26.446  24.057  1.00  0.00     0.061 C 
ATOM     19  C   UNL A   1      28.541  27.274  23.631  1.00  0.00     0.010 C 
ENDBRANCH  16  18
ENDBRANCH  13  16
ENDBRANCH  12  13
ENDBRANCH  11  12
ENDBRANCH   6  11
ENDBRANCH   3   5
ENDBRANCH   2   3
ENDBRANCH   1   2
BRANCH   1  20
ATOM     20  C   UNL A   1      33.520  35.697  29.914  1.00  0.00     0.202 C 
BRANCH  20  21
ATOM     21  O   UNL A   1      32.881  34.999  30.981  1.00  0.00    -0.374 OA
BRANCH  21  22
ATOM     22  C   UNL A   1      33.666  34.771  32.156  1.00  0.00     0.202 C 
BRANCH  22  23
ATOM     23  C   UNL A   1      34.356  33.403  32.235  1.00  0.00     0.261 C 
BRANCH  23  24
ATOM     24  O   UNL A   1      35.789  33.534  32.177  1.00  0.00    -0.460 OA
BRANCH  24  25
ATOM     25  C   UNL A   1      36.479  32.666  32.953  1.00  0.00     0.338 C 
ATOM     26  O   UNL A   1      36.286  32.409  34.133  1.00  0.00    -0.246 OA
BRANCH  25  27
ATOM     27  C   UNL A   1      37.425  31.899  32.123  1.00  0.00     0.060 A 
ATOM     28  C   UNL A   1      38.358  31.089  32.786  1.00  0.00     0.016 A 
ATOM     29  C   UNL A   1      37.445  32.008  30.731  1.00  0.00     0.016 A 
ATOM     30  C   UNL A   1      39.344  30.423  32.061  1.00  0.00     0.010 A 
ATOM     31  C   UNL A   1      38.441  31.345  30.006  1.00  0.00     0.010 A 
ATOM     32  C   UNL A   1      39.416  30.578  30.671  1.00  0.00    -0.014 A 
BRANCH  32  33
ATOM     33  C   UNL A   1      40.592  30.055  29.935  1.00  0.00     0.031 A 
ATOM     34  C   UNL A   1      41.757  30.970  29.677  1.00  0.00     0.074 A 
ATOM     35  C   UNL A   1      40.634  28.775  29.524  1.00  0.00     0.049 A 
ATOM     36  N   UNL A   1      42.869  30.734  29.031  1.00  0.00    -0.248 NA
ATOM     37  C   UNL A   1      41.651  32.333  30.222  1.00  0.00     0.031 C 
ATOM     38  C   UNL A   1      39.586  27.780  29.745  1.00  0.00     0.029 A 
ATOM     39  N   UNL A   1      41.603  28.096  28.828  1.00  0.00    -0.354 N 
ATOM     40  C   UNL A   1      43.595  31.918  29.087  1.00  0.00     0.074 A 
ATOM     41  C   UNL A   1      42.783  32.879  29.802  1.00  0.00     0.031 C 
ATOM     42  C   UNL A   1      39.965  26.619  29.184  1.00  0.00     0.029 A 
ATOM     43  C   UNL A   1      41.265  26.796  28.543  1.00  0.00     0.049 A 
ATOM     44  H   UNL A   1      42.458  28.503  28.559  1.00  0.00     0.167 HD
ATOM     45  C   UNL A   1      44.829  32.179  28.593  1.00  0.00     0.037 A 
ATOM     46  C   UNL A   1      41.924  25.865  27.827  1.00  0.00     0.037 A 
ATOM     47  C   UNL A   1      45.636  31.223  27.882  1.00  0.00     0.049 A 
ATOM     48  C   UNL A   1      43.264  26.200  27.228  1.00  0.00     0.074 A 
ATOM     49  C   UNL A   1      46.909  31.387  27.363  1.00  0.00     0.029 A 
ATOM     50  N   UNL A   1      45.246  29.927  27.584  1.00  0.00    -0.354 N 
ATOM     51  N   UNL A   1      43.951  27.313  27.308  1.00  0.00    -0.248 NA
ATOM     52  C   UNL A   1      43.920  25.146  26.439  1.00  0.00     0.031 C 
ATOM     53  C   UNL A   1      47.269  30.203  26.710  1.00  0.00     0.029 A 
ATOM     54  C   UNL A   1      46.241  29.288  26.865  1.00  0.00     0.049 A 
ATOM     55  H   UNL A   1      44.388  29.521  27.845  1.00  0.00     0.167 HD
ATOM     56  C   UNL A   1      45.129  27.087  26.606  1.00  0.00     0.074 A 
ATOM     57  C   UNL A   1      45.068  25.726  26.116  1.00  0.00     0.031 C 
ATOM     58  C   UNL A   1      46.168  27.930  26.387  1.00  0.00     0.037 A 
BRANCH  45  59
ATOM     59  C   UNL A   1      45.371  33.564  28.788  1.00  0.00     0.057 A 
ATOM     60  C   UNL A   1      45.117  34.593  27.873  1.00  0.00     0.134 A 
ATOM     61  C   UNL A   1      46.133  33.877  29.921  1.00  0.00     0.134 A 
ATOM     62  F   UNL A   1      44.407  34.354  26.761  1.00  0.00    -0.206 F 
ATOM     63  C   UNL A   1      45.620  35.882  28.067  1.00  0.00     0.040 A 
ATOM     64  C   UNL A   1      46.621  35.167  30.138  1.00  0.00     0.040 A 
ATOM     65  F   UNL A   1      46.410  32.938  30.838  1.00  0.00    -0.206 F 
ATOM     66  C   UNL A   1      46.369  36.172  29.206  1.00  0.00     0.006 A 
ENDBRANCH  45  59
BRANCH  46  67
ATOM     67  C   UNL A   1      41.322  24.524  27.622  1.00  0.00     0.057 A 
ATOM     68  C   UNL A   1      40.261  24.334  26.729  1.00  0.00     0.134 A 
ATOM     69  C   UNL A   1      41.778  23.405  28.329  1.00  0.00     0.134 A 
ATOM     70  F   UNL A   1      39.765  25.372  26.041  1.00  0.00    -0.206 F 
ATOM     71  C   UNL A   1      39.664  23.082  26.559  1.00  0.00     0.040 A 
ATOM     72  C   UNL A   1      41.207  22.144  28.151  1.00  0.00     0.040 A 
ATOM     73  F   UNL A   1      42.792  23.522  29.200  1.00  0.00    -0.206 F 
ATOM     74  C   UNL A   1      40.142  21.983  27.268  1.00  0.00     0.006 A 
ENDBRANCH  46  67
BRANCH  58  75
ATOM     75  C   UNL A   1      47.336  27.397  25.611  1.00  0.00     0.057 A 
ATOM     76  C   UNL A   1      47.440  27.564  24.224  1.00  0.00     0.134 A 
ATOM     77  C   UNL A   1      48.389  26.742  26.264  1.00  0.00     0.134 A 
ATOM     78  F   UNL A   1      46.461  28.171  23.536  1.00  0.00    -0.206 F 
ATOM     79  C   UNL A   1      48.541  27.082  23.513  1.00  0.00     0.040 A 
ATOM     80  C   UNL A   1      49.505  26.279  25.568  1.00  0.00     0.040 A 
ATOM     81  F   UNL A   1      48.355  26.558  27.593  1.00  0.00    -0.206 F 
ATOM     82  C   UNL A   1      49.581  26.444  24.186  1.00  0.00     0.006 A 
ENDBRANCH  58  75
ENDBRANCH  32  33
ENDBRANCH  25  27
ENDBRANCH  24  25
ENDBRANCH  23  24
ENDBRANCH  22  23
ENDBRANCH  21  22
ENDBRANCH  20  21
ENDBRANCH   1  20
TORSDOF 19
ENDMDL
MODEL 2
REMARK VINA RESULT:      -9.7      5.267     11.190
REMARK SMILES CC[C@H](C)[NH2+]CCc1ccc(C(=O)OCCOCCOC(=O)c2ccc(-c3c4nc(c(-c5c(F)cccc5F)c5ccc([nH]5)c(-c5c(F)cccc5F)c5nc(c(-c6c(F)cccc6F)c6ccc3[nH]6)C=C5)C=C4)cc2)cc1
REMARK SMILES IDX 15 1 14 2 12 3 13 4 11 5 8 6 9 7 78 8 10 9 77 10 7 11 6 12
REMARK SMILES IDX 5 13 3 16 4 17 2 18 1 19 16 20 17 21 18 22 19 23 20 24 21 25
REMARK SMILES IDX 22 26 23 27 24 28 76 29 25 30 75 31 26 32 27 33 28 34 69 35
REMARK SMILES IDX 29 36 74 37 68 38 70 39 30 40 73 41 67 42 66 43 31 45 57 46
REMARK SMILES IDX 40 47 56 48 41 49 44 50 55 51 71 52 42 53 43 54 54 56 72 57
REMARK SMILES IDX 45 58 32 59 33 60 38 61 34 62 35 63 37 64 39 65 36 66 58 67
REMARK SMILES IDX 59 68 64 69 60 70 61 71 63 72 65 73 62 74 46 75 47 76 52 77
REMARK SMILES IDX 48 78 49 79 51 80 53 81 50 82
REMARK H PARENT 5 14 5 15 70 44 44 55
REMARK Flexibility Score: inf
ROOT
ATOM      1  C   UNL A   1      46.282  22.788  24.317  1.00  0.00     0.261 C 
ENDROOT
BRANCH   1   2
ATOM      2  O   UNL A   1      45.550  24.002  24.542  1.00  0.00    -0.460 OA
BRANCH   2   3
ATOM      3  C   UNL A   1      46.324  25.110  24.656  1.00  0.00     0.338 C 
ATOM      4  O   UNL A   1      47.479  25.233  24.278  1.00  0.00    -0.246 OA
BRANCH   3   5
ATOM      5  C   UNL A   1      45.544  26.243  25.200  1.00  0.00     0.060 A 
ATOM      6  C   UNL A   1      44.183  28.397  26.389  1.00  0.00    -0.042 A 
ATOM      7  C   UNL A   1      45.572  28.275  26.520  1.00  0.00     0.005 A 
ATOM      8  C   UNL A   1      43.486  27.430  25.644  1.00  0.00     0.005 A 
ATOM      9  C   UNL A   1      46.246  27.209  25.929  1.00  0.00     0.016 A 
ATOM     10  C   UNL A   1      44.161  26.363  25.038  1.00  0.00     0.016 A 
BRANCH   6  11
ATOM     11  C   UNL A   1      43.431  29.504  27.096  1.00  0.00     0.097 C 
BRANCH  11  12
ATOM     12  C   UNL A   1      44.007  30.927  26.952  1.00  0.00     0.265 C 
BRANCH  12  13
ATOM     13  N   UNL A   1      45.454  31.049  26.771  1.00  0.00    -0.344 N 
ATOM     14  H   UNL A   1      45.884  31.057  27.696  1.00  0.00     0.346 HD
ATOM     15  H   UNL A   1      45.729  30.257  26.192  1.00  0.00     0.346 HD
BRANCH  13  16
ATOM     16  C   UNL A   1      45.908  32.243  26.054  1.00  0.00     0.178 C 
ATOM     17  C   UNL A   1      44.669  33.104  25.788  1.00  0.00     0.075 C 
BRANCH  16  18
ATOM     18  C   UNL A   1      46.997  33.060  26.776  1.00  0.00     0.061 C 
ATOM     19  C   UNL A   1      46.803  34.572  26.773  1.00  0.00     0.010 C 
ENDBRANCH  16  18
ENDBRANCH  13  16
ENDBRANCH  12  13
ENDBRANCH  11  12
ENDBRANCH   6  11
ENDBRANCH   3   5
ENDBRANCH   2   3
ENDBRANCH   1   2
BRANCH   1  20
ATOM     20  C   UNL A   1      45.557  21.569  24.895  1.00  0.00     0.202 C 
BRANCH  20  21
ATOM     21  O   UNL A   1      46.376  20.443  25.207  1.00  0.00    -0.374 OA
BRANCH  21  22
ATOM     22  C   UNL A   1      45.719  19.173  25.267  1.00  0.00     0.202 C 
BRANCH  22  23
ATOM     23  C   UNL A   1      44.228  19.181  24.903  1.00  0.00     0.261 C 
BRANCH  23  24
ATOM     24  O   UNL A   1      43.401  19.104  26.079  1.00  0.00    -0.460 OA
BRANCH  24  25
ATOM     25  C   UNL A   1      42.177  19.670  25.960  1.00  0.00     0.338 C 
ATOM     26  O   UNL A   1      41.153  19.145  25.547  1.00  0.00    -0.246 OA
BRANCH  25  27
ATOM     27  C   UNL A   1      42.183  21.006  26.583  1.00  0.00     0.060 A 
ATOM     28  C   UNL A   1      42.390  22.110  25.745  1.00  0.00     0.016 A 
ATOM     29  C   UNL A   1      42.046  21.179  27.963  1.00  0.00     0.016 A 
ATOM     30  C   UNL A   1      42.511  23.387  26.290  1.00  0.00     0.010 A 
ATOM     31  C   UNL A   1      42.176  22.461  28.508  1.00  0.00     0.010 A 
ATOM     32  C   UNL A   1      42.444  23.565  27.677  1.00  0.00    -0.014 A 
BRANCH  32  33
ATOM     33  C   UNL A   1      42.795  24.880  28.265  1.00  0.00     0.031 A 
ATOM     34  C   UNL A   1      41.714  25.909  28.449  1.00  0.00     0.074 A 
ATOM     35  C   UNL A   1      44.054  25.147  28.654  1.00  0.00     0.049 A 
ATOM     36  N   UNL A   1      41.800  27.129  28.912  1.00  0.00    -0.248 NA
ATOM     37  C   UNL A   1      40.353  25.506  28.057  1.00  0.00     0.031 C 
ATOM     38  C   UNL A   1      45.182  24.221  28.563  1.00  0.00     0.029 A 
ATOM     39  N   UNL A   1      44.594  26.284  29.202  1.00  0.00    -0.354 N 
ATOM     40  C   UNL A   1      40.509  27.642  28.864  1.00  0.00     0.074 A 
ATOM     41  C   UNL A   1      39.665  26.612  28.298  1.00  0.00     0.031 C 
ATOM     42  C   UNL A   1      46.284  24.833  29.029  1.00  0.00     0.029 A 
ATOM     43  C   UNL A   1      45.946  26.198  29.424  1.00  0.00     0.049 A 
ATOM     44  H   UNL A   1      44.061  27.085  29.415  1.00  0.00     0.167 HD
ATOM     45  C   UNL A   1      40.066  28.858  29.263  1.00  0.00     0.037 A 
ATOM     46  C   UNL A   1      46.812  27.125  29.876  1.00  0.00     0.037 A 
ATOM     47  C   UNL A   1      40.906  29.882  29.826  1.00  0.00     0.049 A 
ATOM     48  C   UNL A   1      46.308  28.494  30.247  1.00  0.00     0.074 A 
ATOM     49  C   UNL A   1      40.545  31.139  30.281  1.00  0.00     0.029 A 
ATOM     50  N   UNL A   1      42.275  29.770  30.005  1.00  0.00    -0.354 N 
ATOM     51  N   UNL A   1      45.082  28.960  30.222  1.00  0.00    -0.248 NA
ATOM     52  C   UNL A   1      47.308  29.467  30.711  1.00  0.00     0.031 C 
ATOM     53  C   UNL A   1      41.706  31.804  30.692  1.00  0.00     0.029 A 
ATOM     54  C   UNL A   1      42.780  30.944  30.538  1.00  0.00     0.049 A 
ATOM     55  H   UNL A   1      42.810  28.973  29.784  1.00  0.00     0.167 HD
ATOM     56  C   UNL A   1      45.160  30.265  30.690  1.00  0.00     0.074 A 
ATOM     57  C   UNL A   1      46.552  30.515  31.003  1.00  0.00     0.031 C 
ATOM     58  C   UNL A   1      44.168  31.177  30.848  1.00  0.00     0.037 A 
BRANCH  45  59
ATOM     59  C   UNL A   1      38.606  29.154  29.081  1.00  0.00     0.057 A 
ATOM     60  C   UNL A   1      37.693  29.047  30.138  1.00  0.00     0.134 A 
ATOM     61  C   UNL A   1      38.115  29.579  27.841  1.00  0.00     0.134 A 
ATOM     62  F   UNL A   1      38.099  28.631  31.347  1.00  0.00    -0.206 F 
ATOM     63  C   UNL A   1      36.337  29.331  29.962  1.00  0.00     0.040 A 
ATOM     64  C   UNL A   1      36.766  29.889  27.658  1.00  0.00     0.040 A 
ATOM     65  F   UNL A   1      38.937  29.705  26.788  1.00  0.00    -0.206 F 
ATOM     66  C   UNL A   1      35.872  29.760  28.720  1.00  0.00     0.006 A 
ENDBRANCH  45  59
BRANCH  46  67
ATOM     67  C   UNL A   1      48.256  26.798  29.990  1.00  0.00     0.057 A 
ATOM     68  C   UNL A   1      49.158  27.129  28.973  1.00  0.00     0.134 A 
ATOM     69  C   UNL A   1      48.763  26.128  31.110  1.00  0.00     0.134 A 
ATOM     70  F   UNL A   1      48.727  27.750  27.865  1.00  0.00    -0.206 F 
ATOM     71  C   UNL A   1      50.510  26.791  29.057  1.00  0.00     0.040 A 
ATOM     72  C   UNL A   1      50.117  25.805  31.218  1.00  0.00     0.040 A 
ATOM     73  F   UNL A   1      47.949  25.783  32.119  1.00  0.00    -0.206 F 
ATOM     74  C   UNL A   1      50.993  26.132  30.185  1.00  0.00     0.006 A 
ENDBRANCH  46  67
BRANCH  58  75
ATOM     75  C   UNL A   1      44.545  32.515  31.411  1.00  0.00     0.057 A 
ATOM     76  C   UNL A   1      44.579  32.752  32.791  1.00  0.00     0.134 A 
ATOM     77  C   UNL A   1      44.916  33.568  30.565  1.00  0.00     0.134 A 
ATOM     78  F   UNL A   1      44.223  31.791  33.656  1.00  0.00    -0.206 F 
ATOM     79  C   UNL A   1      44.950  33.996  33.307  1.00  0.00     0.040 A 
ATOM     80  C   UNL A   1      45.313  34.806  31.069  1.00  0.00     0.040 A 
ATOM     81  F   UNL A   1      44.914  33.403  29.232  1.00  0.00    -0.206 F 
ATOM     82  C   UNL A   1      45.325  35.025  32.445  1.00  0.00     0.006 A 
ENDBRANCH  58  75
ENDBRANCH  32  33
ENDBRANCH  25  27
ENDBRANCH  24  25
ENDBRANCH  23  24
ENDBRANCH  22  23
ENDBRANCH  21  22
ENDBRANCH  20  21
ENDBRANCH   1  20
TORSDOF 19
ENDMDL
MODEL 3
REMARK VINA RESULT:      -9.5      1.269      2.290
REMARK SMILES CC[C@H](C)[NH2+]CCc1ccc(C(=O)OCCOCCOC(=O)c2ccc(-c3c4nc(c(-c5c(F)cccc5F)c5ccc([nH]5)c(-c5c(F)cccc5F)c5nc(c(-c6c(F)cccc6F)c6ccc3[nH]6)C=C5)C=C4)cc2)cc1
REMARK SMILES IDX 15 1 14 2 12 3 13 4 11 5 8 6 9 7 78 8 10 9 77 10 7 11 6 12
REMARK SMILES IDX 5 13 3 16 4 17 2 18 1 19 16 20 17 21 18 22 19 23 20 24 21 25
REMARK SMILES IDX 22 26 23 27 24 28 76 29 25 30 75 31 26 32 27 33 28 34 69 35
REMARK SMILES IDX 29 36 74 37 68 38 70 39 30 40 73 41 67 42 66 43 31 45 57 46
REMARK SMILES IDX 40 47 56 48 41 49 44 50 55 51 71 52 42 53 43 54 54 56 72 57
REMARK SMILES IDX 45 58 32 59 33 60 38 61 34 62 35 63 37 64 39 65 36 66 58 67
REMARK SMILES IDX 59 68 64 69 60 70 61 71 63 72 65 73 62 74 46 75 47 76 52 77
REMARK SMILES IDX 48 78 49 79 51 80 53 81 50 82
REMARK H PARENT 5 14 5 15 70 44 44 55
REMARK Flexibility Score: inf
ROOT
ATOM      1  C   UNL A   1      34.718  31.744  28.215  1.00  0.00     0.261 C 
ENDROOT
BRANCH   1   2
ATOM      2  O   UNL A   1      33.852  30.765  27.622  1.00  0.00    -0.460 OA
BRANCH   2   3
ATOM      3  C   UNL A   1      34.468  29.605  27.284  1.00  0.00     0.338 C 
ATOM      4  O   UNL A   1      35.660  29.358  27.379  1.00  0.00    -0.246 OA
BRANCH   3   5
ATOM      5  C   UNL A   1      33.477  28.580  26.886  1.00  0.00     0.060 A 
ATOM      6  C   UNL A   1      31.690  26.617  25.959  1.00  0.00    -0.042 A 
ATOM      7  C   UNL A   1      33.048  26.559  25.619  1.00  0.00     0.005 A 
ATOM      8  C   UNL A   1      31.242  27.667  26.780  1.00  0.00     0.005 A 
ATOM      9  C   UNL A   1      33.933  27.531  26.080  1.00  0.00     0.016 A 
ATOM     10  C   UNL A   1      32.131  28.639  27.256  1.00  0.00     0.016 A 
BRANCH   6  11
ATOM     11  C   UNL A   1      30.706  25.615  25.396  1.00  0.00     0.097 C 
BRANCH  11  12
ATOM     12  C   UNL A   1      30.625  25.521  23.859  1.00  0.00     0.265 C 
BRANCH  12  13
ATOM     13  N   UNL A   1      31.123  24.294  23.235  1.00  0.00    -0.344 N 
ATOM     14  H   UNL A   1      31.413  23.660  23.980  1.00  0.00     0.346 HD
ATOM     15  H   UNL A   1      30.355  23.941  22.665  1.00  0.00     0.346 HD
BRANCH  13  16
ATOM     16  C   UNL A   1      32.254  24.459  22.319  1.00  0.00     0.178 C 
ATOM     17  C   UNL A   1      32.389  25.960  22.039  1.00  0.00     0.075 C 
BRANCH  16  18
ATOM     18  C   UNL A   1      33.589  23.875  22.823  1.00  0.00     0.061 C 
ATOM     19  C   UNL A   1      33.545  23.207  24.192  1.00  0.00     0.010 C 
ENDBRANCH  16  18
ENDBRANCH  13  16
ENDBRANCH  12  13
ENDBRANCH  11  12
ENDBRANCH   6  11
ENDBRANCH   3   5
ENDBRANCH   2   3
ENDBRANCH   1   2
BRANCH   1  20
ATOM     20  C   UNL A   1      34.045  33.116  28.313  1.00  0.00     0.202 C 
BRANCH  20  21
ATOM     21  O   UNL A   1      33.629  33.518  29.617  1.00  0.00    -0.374 OA
BRANCH  21  22
ATOM     22  C   UNL A   1      34.445  34.492  30.276  1.00  0.00     0.202 C 
BRANCH  22  23
ATOM     23  C   UNL A   1      34.894  34.126  31.697  1.00  0.00     0.261 C 
BRANCH  23  24
ATOM     24  O   UNL A   1      34.948  32.698  31.879  1.00  0.00    -0.460 OA
BRANCH  24  25
ATOM     25  C   UNL A   1      35.914  32.260  32.720  1.00  0.00     0.338 C 
ATOM     26  O   UNL A   1      35.921  32.326  33.941  1.00  0.00    -0.246 OA
BRANCH  25  27
ATOM     27  C   UNL A   1      36.925  31.498  31.965  1.00  0.00     0.060 A 
ATOM     28  C   UNL A   1      37.956  30.892  32.695  1.00  0.00     0.016 A 
ATOM     29  C   UNL A   1      36.904  31.421  30.570  1.00  0.00     0.016 A 
ATOM     30  C   UNL A   1      38.998  30.248  32.029  1.00  0.00     0.010 A 
ATOM     31  C   UNL A   1      37.955  30.782  29.904  1.00  0.00     0.010 A 
ATOM     32  C   UNL A   1      39.024  30.223  30.629  1.00  0.00    -0.014 A 
BRANCH  32  33
ATOM     33  C   UNL A   1      40.237  29.739  29.927  1.00  0.00     0.031 A 
ATOM     34  C   UNL A   1      41.380  30.690  29.708  1.00  0.00     0.074 A 
ATOM     35  C   UNL A   1      40.331  28.463  29.514  1.00  0.00     0.049 A 
ATOM     36  N   UNL A   1      42.519  30.492  29.095  1.00  0.00    -0.248 NA
ATOM     37  C   UNL A   1      41.217  32.048  30.253  1.00  0.00     0.031 C 
ATOM     38  C   UNL A   1      39.308  27.435  29.700  1.00  0.00     0.029 A 
ATOM     39  N   UNL A   1      41.341  27.817  28.845  1.00  0.00    -0.354 N 
ATOM     40  C   UNL A   1      43.205  31.697  29.176  1.00  0.00     0.074 A 
ATOM     41  C   UNL A   1      42.343  32.630  29.870  1.00  0.00     0.031 C 
ATOM     42  C   UNL A   1      39.739  26.288  29.147  1.00  0.00     0.029 A 
ATOM     43  C   UNL A   1      41.052  26.509  28.546  1.00  0.00     0.049 A 
ATOM     44  H   UNL A   1      42.191  28.251  28.604  1.00  0.00     0.167 HD
ATOM     45  C   UNL A   1      44.445  31.998  28.721  1.00  0.00     0.037 A 
ATOM     46  C   UNL A   1      41.761  25.601  27.848  1.00  0.00     0.037 A 
ATOM     47  C   UNL A   1      45.302  31.070  28.032  1.00  0.00     0.049 A 
ATOM     48  C   UNL A   1      43.107  25.979  27.290  1.00  0.00     0.074 A 
ATOM     49  C   UNL A   1      46.585  31.275  27.552  1.00  0.00     0.029 A 
ATOM     50  N   UNL A   1      44.962  29.764  27.718  1.00  0.00    -0.354 N 
ATOM     51  N   UNL A   1      43.757  27.113  27.395  1.00  0.00    -0.248 NA
ATOM     52  C   UNL A   1      43.819  24.950  26.518  1.00  0.00     0.031 C 
ATOM     53  C   UNL A   1      47.001  30.105  26.907  1.00  0.00     0.029 A 
ATOM     54  C   UNL A   1      45.997  29.158  27.027  1.00  0.00     0.049 A 
ATOM     55  H   UNL A   1      44.108  29.331  27.952  1.00  0.00     0.167 HD
ATOM     56  C   UNL A   1      44.961  26.926  26.728  1.00  0.00     0.074 A 
ATOM     57  C   UNL A   1      44.958  25.565  26.232  1.00  0.00     0.031 C 
ATOM     58  C   UNL A   1      45.980  27.801  26.542  1.00  0.00     0.037 A 
BRANCH  45  59
ATOM     59  C   UNL A   1      44.938  33.398  28.937  1.00  0.00     0.057 A 
ATOM     60  C   UNL A   1      45.762  33.734  30.018  1.00  0.00     0.134 A 
ATOM     61  C   UNL A   1      44.607  34.416  28.033  1.00  0.00     0.134 A 
ATOM     62  F   UNL A   1      46.102  32.808  30.927  1.00  0.00    -0.206 F 
ATOM     63  C   UNL A   1      46.222  35.039  30.207  1.00  0.00     0.040 A 
ATOM     64  C   UNL A   1      45.080  35.719  28.198  1.00  0.00     0.040 A 
ATOM     65  F   UNL A   1      43.824  34.161  26.974  1.00  0.00    -0.206 F 
ATOM     66  C   UNL A   1      45.886  36.034  29.291  1.00  0.00     0.006 A 
ENDBRANCH  45  59
BRANCH  46  67
ATOM     67  C   UNL A   1      41.207  24.243  27.620  1.00  0.00     0.057 A 
ATOM     68  C   UNL A   1      40.182  24.023  26.693  1.00  0.00     0.134 A 
ATOM     69  C   UNL A   1      41.673  23.136  28.339  1.00  0.00     0.134 A 
ATOM     70  F   UNL A   1      39.677  25.048  25.990  1.00  0.00    -0.206 F 
ATOM     71  C   UNL A   1      39.629  22.755  26.500  1.00  0.00     0.040 A 
ATOM     72  C   UNL A   1      41.147  21.859  28.140  1.00  0.00     0.040 A 
ATOM     73  F   UNL A   1      42.654  23.281  29.243  1.00  0.00    -0.206 F 
ATOM     74  C   UNL A   1      40.117  21.668  27.222  1.00  0.00     0.006 A 
ENDBRANCH  46  67
BRANCH  58  75
ATOM     75  C   UNL A   1      47.187  27.307  25.800  1.00  0.00     0.057 A 
ATOM     76  C   UNL A   1      48.202  26.585  26.440  1.00  0.00     0.134 A 
ATOM     77  C   UNL A   1      47.317  27.524  24.423  1.00  0.00     0.134 A 
ATOM     78  F   UNL A   1      48.146  26.354  27.760  1.00  0.00    -0.206 F 
ATOM     79  C   UNL A   1      49.313  26.112  25.737  1.00  0.00     0.040 A 
ATOM     80  C   UNL A   1      48.409  27.034  23.705  1.00  0.00     0.040 A 
ATOM     81  F   UNL A   1      46.374  28.201  23.748  1.00  0.00    -0.206 F 
ATOM     82  C   UNL A   1      49.414  26.330  24.365  1.00  0.00     0.006 A 
ENDBRANCH  58  75
ENDBRANCH  32  33
ENDBRANCH  25  27
ENDBRANCH  24  25
ENDBRANCH  23  24
ENDBRANCH  22  23
ENDBRANCH  21  22
ENDBRANCH  20  21
ENDBRANCH   1  20
TORSDOF 19
ENDMDL
