MODEL 1
REMARK VINA RESULT:     -11.2      0.000      0.000
REMARK SMILES C#Cc1cc(Cl)c2c(c1)C=C(C(=O)OCCOCCOC(=O)c1ccc(-c3c4nc(c(-c5c(F)cccc5F)c5ccc([nH]5)c(-c5c(F)cccc5F)c5nc(c(-c6c(F)cccc6F)c6ccc3[nH]6)C=C5)C=C4)cc1)[C@@H](C(F)(F)F)O2
REMARK SMILES IDX 18 1 17 2 16 3 15 4 14 5 12 6 13 7 11 8 3 9 4 10 9 11 5 12
REMARK SMILES IDX 8 13 6 14 7 15 10 16 82 17 77 18 2 19 1 20 78 21 79 22 80 23
REMARK SMILES IDX 81 24 19 25 20 26 21 27 22 28 23 29 24 30 76 31 25 32 75 33
REMARK SMILES IDX 26 34 27 35 28 36 69 37 29 38 74 39 68 40 70 41 30 42 73 43
REMARK SMILES IDX 67 44 66 45 31 47 57 48 40 49 56 50 41 51 44 52 55 53 71 54
REMARK SMILES IDX 42 55 43 56 54 58 72 59 45 60 32 61 33 62 38 63 34 64 35 65
REMARK SMILES IDX 37 66 39 67 36 68 58 69 59 70 64 71 60 72 61 73 63 74 65 75
REMARK SMILES IDX 62 76 46 77 47 78 52 79 48 80 49 81 51 82 53 83 50 84
REMARK H PARENT 70 46 44 57
REMARK Flexibility Score: inf
ROOT
ATOM      1  C   UNL A   1      35.408  21.310  25.352  1.00  0.00     0.202 C 
ENDROOT
BRANCH   1   2
ATOM      2  O   UNL A   1      34.242  20.959  24.613  1.00  0.00    -0.374 OA
BRANCH   2   3
ATOM      3  C   UNL A   1      33.660  21.915  23.736  1.00  0.00     0.202 C 
BRANCH   3   4
ATOM      4  C   UNL A   1      32.147  21.888  23.497  1.00  0.00     0.261 C 
BRANCH   4   5
ATOM      5  O   UNL A   1      31.557  23.192  23.567  1.00  0.00    -0.460 OA
BRANCH   5   6
ATOM      6  C   UNL A   1      31.084  23.515  24.795  1.00  0.00     0.338 C 
ATOM      7  O   UNL A   1      30.837  22.746  25.709  1.00  0.00    -0.246 OA
BRANCH   6   8
ATOM      8  C   UNL A   1      31.032  24.982  24.936  1.00  0.00     0.087 C 
ATOM      9  C   UNL A   1      29.472  29.123  23.078  1.00  0.00     0.027 A 
ATOM     10  C   UNL A   1      30.371  29.827  23.879  1.00  0.00     0.041 A 
ATOM     11  C   UNL A   1      29.360  27.738  23.211  1.00  0.00     0.029 A 
ATOM     12  C   UNL A   1      31.141  29.146  24.826  1.00  0.00     0.084 A 
ATOM     13  C   UNL A   1      30.164  27.053  24.129  1.00  0.00     0.020 A 
ATOM     14  Cl  UNL A   1      32.248  30.058  25.789  1.00  0.00    -0.080 Cl
ATOM     15  C   UNL A   1      31.042  27.754  24.959  1.00  0.00     0.146 A 
ATOM     16  C   UNL A   1      30.145  25.604  24.150  1.00  0.00     0.027 C 
ATOM     17  O   UNL A   1      31.810  27.135  25.909  1.00  0.00    -0.474 OA
ATOM     18  C   UNL A   1      31.954  25.689  25.885  1.00  0.00     0.316 C 
BRANCH   9  19
ATOM     19  C   UNL A   1      28.693  29.804  22.094  1.00  0.00    -0.070 C 
ATOM     20  C   UNL A   1      28.036  30.357  21.252  1.00  0.00     0.010 C 
ENDBRANCH   9  19
BRANCH  18  21
ATOM     21  C   UNL A   1      33.431  25.348  25.634  1.00  0.00     0.430 C 
ATOM     22  F   UNL A   1      34.250  26.313  26.115  1.00  0.00    -0.167 F 
ATOM     23  F   UNL A   1      33.792  24.197  26.249  1.00  0.00    -0.167 F 
ATOM     24  F   UNL A   1      33.698  25.204  24.317  1.00  0.00    -0.167 F 
ENDBRANCH  18  21
ENDBRANCH   6   8
ENDBRANCH   5   6
ENDBRANCH   4   5
ENDBRANCH   3   4
ENDBRANCH   2   3
ENDBRANCH   1   2
BRANCH   1  25
ATOM     25  C   UNL A   1      36.739  20.593  25.081  1.00  0.00     0.261 C 
BRANCH  25  26
ATOM     26  O   UNL A   1      37.868  21.472  24.971  1.00  0.00    -0.460 OA
BRANCH  26  27
ATOM     27  C   UNL A   1      38.886  21.177  25.820  1.00  0.00     0.338 C 
ATOM     28  O   UNL A   1      39.453  20.108  25.955  1.00  0.00    -0.246 OA
BRANCH  27  29
ATOM     29  C   UNL A   1      39.368  22.412  26.461  1.00  0.00     0.060 A 
ATOM     30  C   UNL A   1      38.769  23.624  26.094  1.00  0.00     0.016 A 
ATOM     31  C   UNL A   1      40.456  22.386  27.331  1.00  0.00     0.016 A 
ATOM     32  C   UNL A   1      39.280  24.825  26.575  1.00  0.00     0.010 A 
ATOM     33  C   UNL A   1      40.977  23.596  27.802  1.00  0.00     0.010 A 
ATOM     34  C   UNL A   1      40.412  24.819  27.399  1.00  0.00    -0.014 A 
BRANCH  34  35
ATOM     35  C   UNL A   1      41.088  26.098  27.718  1.00  0.00     0.031 A 
ATOM     36  C   UNL A   1      42.502  26.311  27.251  1.00  0.00     0.074 A 
ATOM     37  C   UNL A   1      40.438  27.071  28.381  1.00  0.00     0.049 A 
ATOM     38  N   UNL A   1      43.298  27.329  27.459  1.00  0.00    -0.248 NA
ATOM     39  C   UNL A   1      43.101  25.235  26.443  1.00  0.00     0.031 C 
ATOM     40  C   UNL A   1      39.050  26.999  28.836  1.00  0.00     0.029 A 
ATOM     41  N   UNL A   1      40.862  28.311  28.787  1.00  0.00    -0.354 N 
ATOM     42  C   UNL A   1      44.486  27.015  26.811  1.00  0.00     0.074 A 
ATOM     43  C   UNL A   1      44.326  25.698  26.238  1.00  0.00     0.031 C 
ATOM     44  C   UNL A   1      38.737  28.146  29.461  1.00  0.00     0.029 A 
ATOM     45  C   UNL A   1      39.913  29.015  29.486  1.00  0.00     0.049 A 
ATOM     46  H   UNL A   1      41.761  28.663  28.596  1.00  0.00     0.167 HD
ATOM     47  C   UNL A   1      45.603  27.770  26.693  1.00  0.00     0.037 A 
ATOM     48  C   UNL A   1      39.992  30.214  30.096  1.00  0.00     0.037 A 
ATOM     49  C   UNL A   1      45.753  29.085  27.258  1.00  0.00     0.049 A 
ATOM     50  C   UNL A   1      41.281  30.990  30.029  1.00  0.00     0.074 A 
ATOM     51  C   UNL A   1      46.845  29.931  27.182  1.00  0.00     0.029 A 
ATOM     52  N   UNL A   1      44.786  29.743  28.001  1.00  0.00    -0.354 N 
ATOM     53  N   UNL A   1      42.393  30.694  29.400  1.00  0.00    -0.248 NA
ATOM     54  C   UNL A   1      41.328  32.269  30.755  1.00  0.00     0.031 C 
ATOM     55  C   UNL A   1      46.564  31.074  27.933  1.00  0.00     0.029 A 
ATOM     56  C   UNL A   1      45.270  30.973  28.417  1.00  0.00     0.049 A 
ATOM     57  H   UNL A   1      43.890  29.391  28.203  1.00  0.00     0.167 HD
ATOM     58  C   UNL A   1      43.258  31.760  29.628  1.00  0.00     0.074 A 
ATOM     59  C   UNL A   1      42.534  32.718  30.437  1.00  0.00     0.031 C 
ATOM     60  C   UNL A   1      44.535  31.927  29.209  1.00  0.00     0.037 A 
BRANCH  47  61
ATOM     61  C   UNL A   1      46.763  27.203  25.926  1.00  0.00     0.057 A 
ATOM     62  C   UNL A   1      46.949  27.475  24.565  1.00  0.00     0.134 A 
ATOM     63  C   UNL A   1      47.759  26.467  26.581  1.00  0.00     0.134 A 
ATOM     64  F   UNL A   1      46.028  28.164  23.877  1.00  0.00    -0.206 F 
ATOM     65  C   UNL A   1      48.084  27.033  23.883  1.00  0.00     0.040 A 
ATOM     66  C   UNL A   1      48.911  26.045  25.916  1.00  0.00     0.040 A 
ATOM     67  F   UNL A   1      47.645  26.175  27.886  1.00  0.00    -0.206 F 
ATOM     68  C   UNL A   1      49.076  26.329  24.563  1.00  0.00     0.006 A 
ENDBRANCH  47  61
BRANCH  48  69
ATOM     69  C   UNL A   1      38.818  30.757  30.829  1.00  0.00     0.057 A 
ATOM     70  C   UNL A   1      37.893  31.595  30.194  1.00  0.00     0.134 A 
ATOM     71  C   UNL A   1      38.597  30.466  32.181  1.00  0.00     0.134 A 
ATOM     72  F   UNL A   1      38.058  31.930  28.907  1.00  0.00    -0.206 F 
ATOM     73  C   UNL A   1      36.804  32.138  30.880  1.00  0.00     0.040 A 
ATOM     74  C   UNL A   1      37.496  30.976  32.871  1.00  0.00     0.040 A 
ATOM     75  F   UNL A   1      39.445  29.669  32.850  1.00  0.00    -0.206 F 
ATOM     76  C   UNL A   1      36.600  31.821  32.222  1.00  0.00     0.006 A 
ENDBRANCH  48  69
BRANCH  60  77
ATOM     77  C   UNL A   1      45.237  33.202  29.583  1.00  0.00     0.057 A 
ATOM     78  C   UNL A   1      46.028  33.299  30.733  1.00  0.00     0.134 A 
ATOM     79  C   UNL A   1      45.192  34.317  28.735  1.00  0.00     0.134 A 
ATOM     80  F   UNL A   1      46.110  32.272  31.593  1.00  0.00    -0.206 F 
ATOM     81  C   UNL A   1      46.736  34.464  31.035  1.00  0.00     0.040 A 
ATOM     82  C   UNL A   1      45.923  35.474  29.007  1.00  0.00     0.040 A 
ATOM     83  F   UNL A   1      44.466  34.288  27.607  1.00  0.00    -0.206 F 
ATOM     84  C   UNL A   1      46.695  35.551  30.164  1.00  0.00     0.006 A 
ENDBRANCH  60  77
ENDBRANCH  34  35
ENDBRANCH  27  29
ENDBRANCH  26  27
ENDBRANCH  25  26
ENDBRANCH   1  25
TORSDOF 16
ENDMDL
MODEL 2
REMARK VINA RESULT:     -11.2      1.449      6.429
REMARK SMILES C#Cc1cc(Cl)c2c(c1)C=C(C(=O)OCCOCCOC(=O)c1ccc(-c3c4nc(c(-c5c(F)cccc5F)c5ccc([nH]5)c(-c5c(F)cccc5F)c5nc(c(-c6c(F)cccc6F)c6ccc3[nH]6)C=C5)C=C4)cc1)[C@@H](C(F)(F)F)O2
REMARK SMILES IDX 18 1 17 2 16 3 15 4 14 5 12 6 13 7 11 8 3 9 4 10 9 11 5 12
REMARK SMILES IDX 8 13 6 14 7 15 10 16 82 17 77 18 2 19 1 20 78 21 79 22 80 23
REMARK SMILES IDX 81 24 19 25 20 26 21 27 22 28 23 29 24 30 76 31 25 32 75 33
REMARK SMILES IDX 26 34 27 35 28 36 69 37 29 38 74 39 68 40 70 41 30 42 73 43
REMARK SMILES IDX 67 44 66 45 31 47 57 48 40 49 56 50 41 51 44 52 55 53 71 54
REMARK SMILES IDX 42 55 43 56 54 58 72 59 45 60 32 61 33 62 38 63 34 64 35 65
REMARK SMILES IDX 37 66 39 67 36 68 58 69 59 70 64 71 60 72 61 73 63 74 65 75
REMARK SMILES IDX 62 76 46 77 47 78 52 79 48 80 49 81 51 82 53 83 50 84
REMARK H PARENT 70 46 44 57
REMARK Flexibility Score: inf
ROOT
ATOM      1  C   UNL A   1      35.899  20.309  25.006  1.00  0.00     0.202 C 
ENDROOT
BRANCH   1   2
ATOM      2  O   UNL A   1      35.378  21.130  26.047  1.00  0.00    -0.374 OA
BRANCH   2   3
ATOM      3  C   UNL A   1      33.990  21.072  26.351  1.00  0.00     0.202 C 
BRANCH   3   4
ATOM      4  C   UNL A   1      33.089  22.250  25.967  1.00  0.00     0.261 C 
BRANCH   4   5
ATOM      5  O   UNL A   1      33.826  23.461  25.759  1.00  0.00    -0.460 OA
BRANCH   5   6
ATOM      6  C   UNL A   1      33.849  23.875  24.470  1.00  0.00     0.338 C 
ATOM      7  O   UNL A   1      34.150  23.210  23.492  1.00  0.00    -0.246 OA
BRANCH   6   8
ATOM      8  C   UNL A   1      33.315  25.247  24.380  1.00  0.00     0.087 C 
ATOM      9  C   UNL A   1      33.314  29.667  26.250  1.00  0.00     0.027 A 
ATOM     10  C   UNL A   1      32.141  29.965  25.557  1.00  0.00     0.041 A 
ATOM     11  C   UNL A   1      33.941  28.435  26.056  1.00  0.00     0.029 A 
ATOM     12  C   UNL A   1      31.610  29.039  24.656  1.00  0.00     0.084 A 
ATOM     13  C   UNL A   1      33.383  27.492  25.186  1.00  0.00     0.020 A 
ATOM     14  Cl  UNL A   1      30.150  29.448  23.827  1.00  0.00    -0.080 Cl
ATOM     15  C   UNL A   1      32.228  27.796  24.462  1.00  0.00     0.146 A 
ATOM     16  C   UNL A   1      33.961  26.165  25.108  1.00  0.00     0.027 C 
ATOM     17  O   UNL A   1      31.674  26.927  23.560  1.00  0.00    -0.474 OA
ATOM     18  C   UNL A   1      32.105  25.540  23.542  1.00  0.00     0.316 C 
BRANCH   9  19
ATOM     19  C   UNL A   1      33.857  30.597  27.188  1.00  0.00    -0.070 C 
ATOM     20  C   UNL A   1      34.292  31.388  27.982  1.00  0.00     0.010 C 
ENDBRANCH   9  19
BRANCH  18  21
ATOM     21  C   UNL A   1      30.907  24.650  23.906  1.00  0.00     0.430 C 
ATOM     22  F   UNL A   1      29.746  25.167  23.439  1.00  0.00    -0.167 F 
ATOM     23  F   UNL A   1      31.019  23.412  23.370  1.00  0.00    -0.167 F 
ATOM     24  F   UNL A   1      30.779  24.501  25.244  1.00  0.00    -0.167 F 
ENDBRANCH  18  21
ENDBRANCH   6   8
ENDBRANCH   5   6
ENDBRANCH   4   5
ENDBRANCH   3   4
ENDBRANCH   2   3
ENDBRANCH   1   2
BRANCH   1  25
ATOM     25  C   UNL A   1      37.414  20.230  24.771  1.00  0.00     0.261 C 
BRANCH  25  26
ATOM     26  O   UNL A   1      38.136  21.396  25.197  1.00  0.00    -0.460 OA
BRANCH  26  27
ATOM     27  C   UNL A   1      39.194  21.128  26.005  1.00  0.00     0.338 C 
ATOM     28  O   UNL A   1      39.781  20.069  26.134  1.00  0.00    -0.246 OA
BRANCH  27  29
ATOM     29  C   UNL A   1      39.688  22.380  26.603  1.00  0.00     0.060 A 
ATOM     30  C   UNL A   1      39.150  23.589  26.143  1.00  0.00     0.016 A 
ATOM     31  C   UNL A   1      40.733  22.367  27.525  1.00  0.00     0.016 A 
ATOM     32  C   UNL A   1      39.679  24.798  26.583  1.00  0.00     0.010 A 
ATOM     33  C   UNL A   1      41.272  23.583  27.955  1.00  0.00     0.010 A 
ATOM     34  C   UNL A   1      40.770  24.800  27.461  1.00  0.00    -0.014 A 
BRANCH  34  35
ATOM     35  C   UNL A   1      41.475  26.072  27.744  1.00  0.00     0.031 A 
ATOM     36  C   UNL A   1      40.762  27.143  28.523  1.00  0.00     0.074 A 
ATOM     37  C   UNL A   1      42.746  26.254  27.346  1.00  0.00     0.049 A 
ATOM     38  N   UNL A   1      41.169  28.345  28.841  1.00  0.00    -0.248 NA
ATOM     39  C   UNL A   1      39.410  26.818  29.009  1.00  0.00     0.031 C 
ATOM     40  C   UNL A   1      43.556  25.268  26.631  1.00  0.00     0.029 A 
ATOM     41  N   UNL A   1      43.579  27.336  27.486  1.00  0.00    -0.354 N 
ATOM     42  C   UNL A   1      40.127  28.917  29.560  1.00  0.00     0.074 A 
ATOM     43  C   UNL A   1      39.053  27.950  29.598  1.00  0.00     0.031 C 
ATOM     44  C   UNL A   1      44.770  25.792  26.394  1.00  0.00     0.029 A 
ATOM     45  C   UNL A   1      44.810  27.162  26.902  1.00  0.00     0.049 A 
ATOM     46  H   UNL A   1      43.319  28.159  27.959  1.00  0.00     0.167 HD
ATOM     47  C   UNL A   1      40.082  30.135  30.149  1.00  0.00     0.037 A 
ATOM     48  C   UNL A   1      45.841  28.019  26.773  1.00  0.00     0.037 A 
ATOM     49  C   UNL A   1      41.158  31.089  30.116  1.00  0.00     0.049 A 
ATOM     50  C   UNL A   1      45.725  29.403  27.357  1.00  0.00     0.074 A 
ATOM     51  C   UNL A   1      41.208  32.345  30.693  1.00  0.00     0.029 A 
ATOM     52  N   UNL A   1      42.370  30.894  29.473  1.00  0.00    -0.354 N 
ATOM     53  N   UNL A   1      44.743  29.929  28.050  1.00  0.00    -0.248 NA
ATOM     54  C   UNL A   1      46.860  30.314  27.143  1.00  0.00     0.031 C 
ATOM     55  C   UNL A   1      42.424  32.937  30.345  1.00  0.00     0.029 A 
ATOM     56  C   UNL A   1      43.163  32.022  29.613  1.00  0.00     0.049 A 
ATOM     57  H   UNL A   1      42.630  30.077  28.990  1.00  0.00     0.167 HD
ATOM     58  C   UNL A   1      45.154  31.217  28.380  1.00  0.00     0.074 A 
ATOM     59  C   UNL A   1      46.482  31.385  27.828  1.00  0.00     0.031 C 
ATOM     60  C   UNL A   1      44.490  32.172  29.072  1.00  0.00     0.037 A 
BRANCH  47  61
ATOM     61  C   UNL A   1      38.830  30.520  30.884  1.00  0.00     0.057 A 
ATOM     62  C   UNL A   1      37.762  31.154  30.238  1.00  0.00     0.134 A 
ATOM     63  C   UNL A   1      38.651  30.158  32.225  1.00  0.00     0.134 A 
ATOM     64  F   UNL A   1      37.873  31.538  28.957  1.00  0.00    -0.206 F 
ATOM     65  C   UNL A   1      36.561  31.414  30.899  1.00  0.00     0.040 A 
ATOM     66  C   UNL A   1      37.445  30.387  32.888  1.00  0.00     0.040 A 
ATOM     67  F   UNL A   1      39.634  29.543  32.902  1.00  0.00    -0.206 F 
ATOM     68  C   UNL A   1      36.395  31.017  32.224  1.00  0.00     0.006 A 
ENDBRANCH  47  61
BRANCH  48  69
ATOM     69  C   UNL A   1      47.075  27.599  26.059  1.00  0.00     0.057 A 
ATOM     70  C   UNL A   1      47.167  27.675  24.664  1.00  0.00     0.134 A 
ATOM     71  C   UNL A   1      48.187  27.097  26.748  1.00  0.00     0.134 A 
ATOM     72  F   UNL A   1      46.130  28.125  23.944  1.00  0.00    -0.206 F 
ATOM     73  C   UNL A   1      48.308  27.251  23.980  1.00  0.00     0.040 A 
ATOM     74  C   UNL A   1      49.346  26.700  26.080  1.00  0.00     0.040 A 
ATOM     75  F   UNL A   1      48.167  26.997  28.086  1.00  0.00    -0.206 F 
ATOM     76  C   UNL A   1      49.406  26.769  24.690  1.00  0.00     0.006 A 
ENDBRANCH  48  69
BRANCH  60  77
ATOM     77  C   UNL A   1      45.188  33.483  29.309  1.00  0.00     0.057 A 
ATOM     78  C   UNL A   1      46.039  33.680  30.401  1.00  0.00     0.134 A 
ATOM     79  C   UNL A   1      45.074  34.529  28.382  1.00  0.00     0.134 A 
ATOM     80  F   UNL A   1      46.189  32.723  31.330  1.00  0.00    -0.206 F 
ATOM     81  C   UNL A   1      46.740  34.875  30.573  1.00  0.00     0.040 A 
ATOM     82  C   UNL A   1      45.796  35.714  28.525  1.00  0.00     0.040 A 
ATOM     83  F   UNL A   1      44.286  34.403  27.303  1.00  0.00    -0.206 F 
ATOM     84  C   UNL A   1      46.629  35.892  29.626  1.00  0.00     0.006 A 
ENDBRANCH  60  77
ENDBRANCH  34  35
ENDBRANCH  27  29
ENDBRANCH  26  27
ENDBRANCH  25  26
ENDBRANCH   1  25
TORSDOF 16
ENDMDL
MODEL 3
REMARK VINA RESULT:     -11.2      1.402      2.490
REMARK SMILES C#Cc1cc(Cl)c2c(c1)C=C(C(=O)OCCOCCOC(=O)c1ccc(-c3c4nc(c(-c5c(F)cccc5F)c5ccc([nH]5)c(-c5c(F)cccc5F)c5nc(c(-c6c(F)cccc6F)c6ccc3[nH]6)C=C5)C=C4)cc1)[C@@H](C(F)(F)F)O2
REMARK SMILES IDX 18 1 17 2 16 3 15 4 14 5 12 6 13 7 11 8 3 9 4 10 9 11 5 12
REMARK SMILES IDX 8 13 6 14 7 15 10 16 82 17 77 18 2 19 1 20 78 21 79 22 80 23
REMARK SMILES IDX 81 24 19 25 20 26 21 27 22 28 23 29 24 30 76 31 25 32 75 33
REMARK SMILES IDX 26 34 27 35 28 36 69 37 29 38 74 39 68 40 70 41 30 42 73 43
REMARK SMILES IDX 67 44 66 45 31 47 57 48 40 49 56 50 41 51 44 52 55 53 71 54
REMARK SMILES IDX 42 55 43 56 54 58 72 59 45 60 32 61 33 62 38 63 34 64 35 65
REMARK SMILES IDX 37 66 39 67 36 68 58 69 59 70 64 71 60 72 61 73 63 74 65 75
REMARK SMILES IDX 62 76 46 77 47 78 52 79 48 80 49 81 51 82 53 83 50 84
REMARK H PARENT 70 46 44 57
REMARK Flexibility Score: inf
ROOT
ATOM      1  C   UNL A   1      35.892  20.311  25.005  1.00  0.00     0.202 C 
ENDROOT
BRANCH   1   2
ATOM      2  O   UNL A   1      35.403  21.214  25.994  1.00  0.00    -0.374 OA
BRANCH   2   3
ATOM      3  C   UNL A   1      34.049  21.114  26.418  1.00  0.00     0.202 C 
BRANCH   3   4
ATOM      4  C   UNL A   1      32.992  22.014  25.770  1.00  0.00     0.261 C 
BRANCH   4   5
ATOM      5  O   UNL A   1      33.393  23.389  25.726  1.00  0.00    -0.460 OA
BRANCH   5   6
ATOM      6  C   UNL A   1      33.587  23.865  24.473  1.00  0.00     0.338 C 
ATOM      7  O   UNL A   1      33.985  23.237  23.506  1.00  0.00    -0.246 OA
BRANCH   6   8
ATOM      8  C   UNL A   1      33.111  25.258  24.392  1.00  0.00     0.087 C 
ATOM      9  C   UNL A   1      33.304  29.664  26.284  1.00  0.00     0.027 A 
ATOM     10  C   UNL A   1      32.142  30.015  25.598  1.00  0.00     0.041 A 
ATOM     11  C   UNL A   1      33.878  28.408  26.082  1.00  0.00     0.029 A 
ATOM     12  C   UNL A   1      31.568  29.117  24.694  1.00  0.00     0.084 A 
ATOM     13  C   UNL A   1      33.277  27.494  25.210  1.00  0.00     0.020 A 
ATOM     14  Cl  UNL A   1      30.124  29.592  23.873  1.00  0.00    -0.080 Cl
ATOM     15  C   UNL A   1      32.133  27.850  24.492  1.00  0.00     0.146 A 
ATOM     16  C   UNL A   1      33.798  26.144  25.123  1.00  0.00     0.027 C 
ATOM     17  O   UNL A   1      31.539  27.010  23.587  1.00  0.00    -0.474 OA
ATOM     18  C   UNL A   1      31.911  25.606  23.561  1.00  0.00     0.316 C 
BRANCH   9  19
ATOM     19  C   UNL A   1      33.889  30.566  27.225  1.00  0.00    -0.070 C 
ATOM     20  C   UNL A   1      34.368  31.342  28.009  1.00  0.00     0.010 C 
ENDBRANCH   9  19
BRANCH  18  21
ATOM     21  C   UNL A   1      30.678  24.766  23.926  1.00  0.00     0.430 C 
ATOM     22  F   UNL A   1      30.560  24.615  25.266  1.00  0.00    -0.167 F 
ATOM     23  F   UNL A   1      29.531  25.347  23.502  1.00  0.00    -0.167 F 
ATOM     24  F   UNL A   1      30.731  23.530  23.378  1.00  0.00    -0.167 F 
ENDBRANCH  18  21
ENDBRANCH   6   8
ENDBRANCH   5   6
ENDBRANCH   4   5
ENDBRANCH   3   4
ENDBRANCH   2   3
ENDBRANCH   1   2
BRANCH   1  25
ATOM     25  C   UNL A   1      37.403  20.154  24.785  1.00  0.00     0.261 C 
BRANCH  25  26
ATOM     26  O   UNL A   1      38.169  21.325  25.105  1.00  0.00    -0.460 OA
BRANCH  26  27
ATOM     27  C   UNL A   1      39.196  21.099  25.963  1.00  0.00     0.338 C 
ATOM     28  O   UNL A   1      39.813  20.061  26.125  1.00  0.00    -0.246 OA
BRANCH  27  29
ATOM     29  C   UNL A   1      39.617  22.369  26.577  1.00  0.00     0.060 A 
ATOM     30  C   UNL A   1      39.015  23.552  26.126  1.00  0.00     0.016 A 
ATOM     31  C   UNL A   1      40.655  22.404  27.506  1.00  0.00     0.016 A 
ATOM     32  C   UNL A   1      39.475  24.783  26.581  1.00  0.00     0.010 A 
ATOM     33  C   UNL A   1      41.124  23.643  27.952  1.00  0.00     0.010 A 
ATOM     34  C   UNL A   1      40.558  24.837  27.466  1.00  0.00    -0.014 A 
BRANCH  34  35
ATOM     35  C   UNL A   1      41.191  26.142  27.767  1.00  0.00     0.031 A 
ATOM     36  C   UNL A   1      42.604  26.390  27.315  1.00  0.00     0.074 A 
ATOM     37  C   UNL A   1      40.501  27.108  28.399  1.00  0.00     0.049 A 
ATOM     38  N   UNL A   1      43.364  27.435  27.512  1.00  0.00    -0.248 NA
ATOM     39  C   UNL A   1      43.247  25.315  26.539  1.00  0.00     0.031 C 
ATOM     40  C   UNL A   1      39.110  27.003  28.837  1.00  0.00     0.029 A 
ATOM     41  N   UNL A   1      40.880  28.369  28.785  1.00  0.00    -0.354 N 
ATOM     42  C   UNL A   1      44.571  27.146  26.887  1.00  0.00     0.074 A 
ATOM     43  C   UNL A   1      44.460  25.812  26.340  1.00  0.00     0.031 C 
ATOM     44  C   UNL A   1      38.752  28.153  29.433  1.00  0.00     0.029 A 
ATOM     45  C   UNL A   1      39.900  29.058  29.456  1.00  0.00     0.049 A 
ATOM     46  H   UNL A   1      41.771  28.744  28.598  1.00  0.00     0.167 HD
ATOM     47  C   UNL A   1      45.666  27.932  26.768  1.00  0.00     0.037 A 
ATOM     48  C   UNL A   1      39.933  30.271  30.041  1.00  0.00     0.037 A 
ATOM     49  C   UNL A   1      45.767  29.263  27.306  1.00  0.00     0.049 A 
ATOM     50  C   UNL A   1      41.199  31.086  29.974  1.00  0.00     0.074 A 
ATOM     51  C   UNL A   1      46.833  30.140  27.228  1.00  0.00     0.029 A 
ATOM     52  N   UNL A   1      44.769  29.906  28.022  1.00  0.00    -0.354 N 
ATOM     53  N   UNL A   1      42.329  30.811  29.367  1.00  0.00    -0.248 NA
ATOM     54  C   UNL A   1      41.196  32.380  30.673  1.00  0.00     0.031 C 
ATOM     55  C   UNL A   1      46.506  31.290  27.949  1.00  0.00     0.029 A 
ATOM     56  C   UNL A   1      45.209  31.159  28.418  1.00  0.00     0.049 A 
ATOM     57  H   UNL A   1      43.882  29.530  28.219  1.00  0.00     0.167 HD
ATOM     58  C   UNL A   1      43.156  31.908  29.584  1.00  0.00     0.074 A 
ATOM     59  C   UNL A   1      42.392  32.859  30.362  1.00  0.00     0.031 C 
ATOM     60  C   UNL A   1      44.433  32.106  29.179  1.00  0.00     0.037 A 
BRANCH  47  61
ATOM     61  C   UNL A   1      46.853  27.386  26.030  1.00  0.00     0.057 A 
ATOM     62  C   UNL A   1      47.849  26.646  26.680  1.00  0.00     0.134 A 
ATOM     63  C   UNL A   1      46.947  27.512  24.638  1.00  0.00     0.134 A 
ATOM     64  F   UNL A   1      47.825  26.498  28.012  1.00  0.00    -0.206 F 
ATOM     65  C   UNL A   1      48.895  26.051  25.972  1.00  0.00     0.040 A 
ATOM     66  C   UNL A   1      47.971  26.898  23.916  1.00  0.00     0.040 A 
ATOM     67  F   UNL A   1      46.023  28.204  23.952  1.00  0.00    -0.206 F 
ATOM     68  C   UNL A   1      48.949  26.165  24.584  1.00  0.00     0.006 A 
ENDBRANCH  47  61
BRANCH  48  69
ATOM     69  C   UNL A   1      38.732  30.792  30.745  1.00  0.00     0.057 A 
ATOM     70  C   UNL A   1      37.790  31.586  30.080  1.00  0.00     0.134 A 
ATOM     71  C   UNL A   1      38.503  30.525  32.100  1.00  0.00     0.134 A 
ATOM     72  F   UNL A   1      37.962  31.897  28.787  1.00  0.00    -0.206 F 
ATOM     73  C   UNL A   1      36.676  32.109  30.738  1.00  0.00     0.040 A 
ATOM     74  C   UNL A   1      37.377  31.015  32.765  1.00  0.00     0.040 A 
ATOM     75  F   UNL A   1      39.366  29.771  32.799  1.00  0.00    -0.206 F 
ATOM     76  C   UNL A   1      36.463  31.816  32.084  1.00  0.00     0.006 A 
ENDBRANCH  48  69
BRANCH  60  77
ATOM     77  C   UNL A   1      45.091  33.410  29.535  1.00  0.00     0.057 A 
ATOM     78  C   UNL A   1      44.955  34.549  28.734  1.00  0.00     0.134 A 
ATOM     79  C   UNL A   1      45.794  33.548  30.740  1.00  0.00     0.134 A 
ATOM     80  F   UNL A   1      44.300  34.485  27.564  1.00  0.00    -0.206 F 
ATOM     81  C   UNL A   1      45.507  35.775  29.109  1.00  0.00     0.040 A 
ATOM     82  C   UNL A   1      46.321  34.776  31.142  1.00  0.00     0.040 A 
ATOM     83  F   UNL A   1      45.950  32.500  31.564  1.00  0.00    -0.206 F 
ATOM     84  C   UNL A   1      46.182  35.893  30.323  1.00  0.00     0.006 A 
ENDBRANCH  60  77
ENDBRANCH  34  35
ENDBRANCH  27  29
ENDBRANCH  26  27
ENDBRANCH  25  26
ENDBRANCH   1  25
TORSDOF 16
ENDMDL
