MODEL 1
REMARK VINA RESULT:     -10.2      0.000      0.000
REMARK SMILES CN(CC(N)=O)c1ccccc1/C=C/C(=O)OCCOCCOC(=O)c1ccc(-c2c3nc(c(-c4c(F)cccc4F)c4ccc([nH]4)c(-c4c(F)cccc4F)c4nc(c(-c5c(F)cccc5F)c5ccc2[nH]5)C=C4)C=C3)cc1
REMARK SMILES IDX 19 1 18 2 17 3 15 4 16 5 14 6 13 7 12 8 7 9 8 10 9 11 11 12
REMARK SMILES IDX 10 13 2 14 1 15 3 16 4 17 5 18 6 19 20 22 21 23 22 24 23 25
REMARK SMILES IDX 24 26 25 27 26 28 27 29 79 30 28 31 78 32 29 33 30 34 31 35
REMARK SMILES IDX 72 36 32 37 77 38 71 39 73 40 33 41 76 42 70 43 69 44 34 46
REMARK SMILES IDX 60 47 43 48 59 49 44 50 47 51 58 52 74 53 45 54 46 55 57 57
REMARK SMILES IDX 75 58 48 59 35 60 36 61 41 62 37 63 38 64 40 65 42 66 39 67
REMARK SMILES IDX 61 68 62 69 67 70 63 71 64 72 66 73 68 74 65 75 49 76 50 77
REMARK SMILES IDX 55 78 51 79 52 80 54 81 56 82 53 83
REMARK H PARENT 5 20 5 21 73 45 47 56
REMARK Flexibility Score: inf
ROOT
ATOM      1  C   UNL A   1      39.996  20.963  26.392  1.00  0.00     0.202 C 
ENDROOT
BRANCH   1   2
ATOM      2  C   UNL A   1      38.630  21.345  25.824  1.00  0.00     0.261 C 
BRANCH   2   3
ATOM      3  O   UNL A   1      38.639  22.699  25.340  1.00  0.00    -0.460 OA
BRANCH   3   4
ATOM      4  C   UNL A   1      38.017  23.597  26.137  1.00  0.00     0.330 C 
ATOM      5  O   UNL A   1      38.538  24.288  27.001  1.00  0.00    -0.247 OA
BRANCH   4   6
ATOM      6  C   UNL A   1      36.575  23.698  25.853  1.00  0.00     0.094 C 
ATOM      7  C   UNL A   1      35.979  23.677  24.650  1.00  0.00     0.018 C 
BRANCH   7   8
ATOM      8  C   UNL A   1      34.511  23.815  24.545  1.00  0.00    -0.002 A 
ATOM      9  C   UNL A   1      33.604  22.919  25.158  1.00  0.00     0.044 A 
ATOM     10  C   UNL A   1      32.234  23.241  25.071  1.00  0.00     0.026 A 
ATOM     11  C   UNL A   1      31.760  24.339  24.351  1.00  0.00     0.002 A 
ATOM     12  C   UNL A   1      34.016  24.889  23.769  1.00  0.00     0.010 A 
ATOM     13  C   UNL A   1      32.652  25.150  23.672  1.00  0.00     0.001 A 
BRANCH   9  14
ATOM     14  N   UNL A   1      33.989  21.768  25.835  1.00  0.00    -0.365 N 
ATOM     15  C   UNL A   1      34.008  21.735  27.288  1.00  0.00     0.144 C 
BRANCH  14  16
ATOM     16  C   UNL A   1      34.238  20.518  25.103  1.00  0.00     0.215 C 
BRANCH  16  17
ATOM     17  C   UNL A   1      33.091  19.506  25.223  1.00  0.00     0.236 C 
ATOM     18  N   UNL A   1      33.415  18.311  25.809  1.00  0.00    -0.368 N 
ATOM     19  O   UNL A   1      31.946  19.708  24.828  1.00  0.00    -0.273 OA
ATOM     20  H   UNL A   1      34.333  18.151  26.125  1.00  0.00     0.159 HD
ATOM     21  H   UNL A   1      32.730  17.611  25.912  1.00  0.00     0.159 HD
ENDBRANCH  16  17
ENDBRANCH  14  16
ENDBRANCH   9  14
ENDBRANCH   7   8
ENDBRANCH   4   6
ENDBRANCH   3   4
ENDBRANCH   2   3
ENDBRANCH   1   2
BRANCH   1  22
ATOM     22  O   UNL A   1      41.098  21.726  25.901  1.00  0.00    -0.374 OA
BRANCH  22  23
ATOM     23  C   UNL A   1      42.401  21.174  26.095  1.00  0.00     0.202 C 
BRANCH  23  24
ATOM     24  C   UNL A   1      43.544  21.900  25.373  1.00  0.00     0.261 C 
BRANCH  24  25
ATOM     25  O   UNL A   1      43.118  23.163  24.827  1.00  0.00    -0.460 OA
BRANCH  25  26
ATOM     26  C   UNL A   1      43.907  24.217  25.138  1.00  0.00     0.338 C 
ATOM     27  O   UNL A   1      44.994  24.499  24.653  1.00  0.00    -0.246 OA
BRANCH  26  28
ATOM     28  C   UNL A   1      43.197  25.125  26.057  1.00  0.00     0.060 A 
ATOM     29  C   UNL A   1      43.683  26.433  26.183  1.00  0.00     0.016 A 
ATOM     30  C   UNL A   1      42.118  24.692  26.832  1.00  0.00     0.016 A 
ATOM     31  C   UNL A   1      43.124  27.299  27.119  1.00  0.00     0.010 A 
ATOM     32  C   UNL A   1      41.563  25.561  27.778  1.00  0.00     0.010 A 
ATOM     33  C   UNL A   1      42.086  26.856  27.949  1.00  0.00    -0.014 A 
BRANCH  33  34
ATOM     34  C   UNL A   1      41.646  27.699  29.087  1.00  0.00     0.031 A 
ATOM     35  C   UNL A   1      42.384  27.606  30.393  1.00  0.00     0.074 A 
ATOM     36  C   UNL A   1      40.615  28.551  28.954  1.00  0.00     0.049 A 
ATOM     37  N   UNL A   1      42.151  28.222  31.524  1.00  0.00    -0.248 NA
ATOM     38  C   UNL A   1      43.536  26.693  30.430  1.00  0.00     0.031 C 
ATOM     39  C   UNL A   1      39.839  28.755  27.732  1.00  0.00     0.029 A 
ATOM     40  N   UNL A   1      40.037  29.397  29.867  1.00  0.00    -0.354 N 
ATOM     41  C   UNL A   1      43.121  27.766  32.408  1.00  0.00     0.074 A 
ATOM     42  C   UNL A   1      43.926  26.799  31.691  1.00  0.00     0.031 C 
ATOM     43  C   UNL A   1      38.878  29.661  27.974  1.00  0.00     0.029 A 
ATOM     44  C   UNL A   1      38.953  30.078  29.374  1.00  0.00     0.049 A 
ATOM     45  H   UNL A   1      40.369  29.505  30.788  1.00  0.00     0.167 HD
ATOM     46  C   UNL A   1      43.328  28.125  33.697  1.00  0.00     0.037 A 
ATOM     47  C   UNL A   1      38.106  30.926  29.988  1.00  0.00     0.037 A 
ATOM     48  C   UNL A   1      42.529  29.088  34.409  1.00  0.00     0.049 A 
ATOM     49  C   UNL A   1      38.317  31.267  31.438  1.00  0.00     0.074 A 
ATOM     50  C   UNL A   1      42.677  29.542  35.708  1.00  0.00     0.029 A 
ATOM     51  N   UNL A   1      41.423  29.739  33.881  1.00  0.00    -0.354 N 
ATOM     52  N   UNL A   1      39.256  30.855  32.256  1.00  0.00    -0.248 NA
ATOM     53  C   UNL A   1      37.354  32.194  32.049  1.00  0.00     0.031 C 
ATOM     54  C   UNL A   1      41.633  30.430  35.982  1.00  0.00     0.029 A 
ATOM     55  C   UNL A   1      40.863  30.570  34.839  1.00  0.00     0.049 A 
ATOM     56  H   UNL A   1      41.087  29.627  32.963  1.00  0.00     0.167 HD
ATOM     57  C   UNL A   1      39.013  31.490  33.468  1.00  0.00     0.074 A 
ATOM     58  C   UNL A   1      37.844  32.323  33.275  1.00  0.00     0.031 C 
ATOM     59  C   UNL A   1      39.700  31.395  34.632  1.00  0.00     0.037 A 
BRANCH  46  60
ATOM     60  C   UNL A   1      44.450  27.448  34.428  1.00  0.00     0.057 A 
ATOM     61  C   UNL A   1      44.282  26.210  35.063  1.00  0.00     0.134 A 
ATOM     62  C   UNL A   1      45.720  28.036  34.484  1.00  0.00     0.134 A 
ATOM     63  F   UNL A   1      43.087  25.601  35.059  1.00  0.00    -0.206 F 
ATOM     64  C   UNL A   1      45.330  25.595  35.751  1.00  0.00     0.040 A 
ATOM     65  C   UNL A   1      46.782  27.418  35.146  1.00  0.00     0.040 A 
ATOM     66  F   UNL A   1      45.950  29.219  33.895  1.00  0.00    -0.206 F 
ATOM     67  C   UNL A   1      46.587  26.197  35.789  1.00  0.00     0.006 A 
ENDBRANCH  46  60
BRANCH  47  68
ATOM     68  C   UNL A   1      36.970  31.508  29.230  1.00  0.00     0.057 A 
ATOM     69  C   UNL A   1      37.017  32.821  28.747  1.00  0.00     0.134 A 
ATOM     70  C   UNL A   1      35.811  30.766  28.974  1.00  0.00     0.134 A 
ATOM     71  F   UNL A   1      38.091  33.588  28.981  1.00  0.00    -0.206 F 
ATOM     72  C   UNL A   1      35.947  33.377  28.042  1.00  0.00     0.040 A 
ATOM     73  C   UNL A   1      34.744  31.302  28.252  1.00  0.00     0.040 A 
ATOM     74  F   UNL A   1      35.706  29.502  29.410  1.00  0.00    -0.206 F 
ATOM     75  C   UNL A   1      34.809  32.613  27.788  1.00  0.00     0.006 A 
ENDBRANCH  47  68
BRANCH  59  76
ATOM     76  C   UNL A   1      39.225  32.235  35.783  1.00  0.00     0.057 A 
ATOM     77  C   UNL A   1      39.628  33.567  35.941  1.00  0.00     0.134 A 
ATOM     78  C   UNL A   1      38.319  31.717  36.717  1.00  0.00     0.134 A 
ATOM     79  F   UNL A   1      40.502  34.120  35.087  1.00  0.00    -0.206 F 
ATOM     80  C   UNL A   1      39.161  34.348  37.001  1.00  0.00     0.040 A 
ATOM     81  C   UNL A   1      37.826  32.496  37.765  1.00  0.00     0.040 A 
ATOM     82  F   UNL A   1      37.887  30.451  36.617  1.00  0.00    -0.206 F 
ATOM     83  C   UNL A   1      38.252  33.814  37.912  1.00  0.00     0.006 A 
ENDBRANCH  59  76
ENDBRANCH  33  34
ENDBRANCH  26  28
ENDBRANCH  25  26
ENDBRANCH  24  25
ENDBRANCH  23  24
ENDBRANCH  22  23
ENDBRANCH   1  22
TORSDOF 18
ENDMDL
MODEL 2
REMARK VINA RESULT:     -10.1      4.280      8.188
REMARK SMILES CN(CC(N)=O)c1ccccc1/C=C/C(=O)OCCOCCOC(=O)c1ccc(-c2c3nc(c(-c4c(F)cccc4F)c4ccc([nH]4)c(-c4c(F)cccc4F)c4nc(c(-c5c(F)cccc5F)c5ccc2[nH]5)C=C4)C=C3)cc1
REMARK SMILES IDX 19 1 18 2 17 3 15 4 16 5 14 6 13 7 12 8 7 9 8 10 9 11 11 12
REMARK SMILES IDX 10 13 2 14 1 15 3 16 4 17 5 18 6 19 20 22 21 23 22 24 23 25
REMARK SMILES IDX 24 26 25 27 26 28 27 29 79 30 28 31 78 32 29 33 30 34 31 35
REMARK SMILES IDX 72 36 32 37 77 38 71 39 73 40 33 41 76 42 70 43 69 44 34 46
REMARK SMILES IDX 60 47 43 48 59 49 44 50 47 51 58 52 74 53 45 54 46 55 57 57
REMARK SMILES IDX 75 58 48 59 35 60 36 61 41 62 37 63 38 64 40 65 42 66 39 67
REMARK SMILES IDX 61 68 62 69 67 70 63 71 64 72 66 73 68 74 65 75 49 76 50 77
REMARK SMILES IDX 55 78 51 79 52 80 54 81 56 82 53 83
REMARK H PARENT 5 20 5 21 73 45 47 56
REMARK Flexibility Score: inf
ROOT
ATOM      1  C   UNL A   1      33.828  20.839  25.438  1.00  0.00     0.202 C 
ENDROOT
BRANCH   1   2
ATOM      2  C   UNL A   1      32.906  22.054  25.357  1.00  0.00     0.261 C 
BRANCH   2   3
ATOM      3  O   UNL A   1      33.005  22.850  26.550  1.00  0.00    -0.460 OA
BRANCH   3   4
ATOM      4  C   UNL A   1      31.897  23.559  26.861  1.00  0.00     0.330 C 
ATOM      5  O   UNL A   1      30.850  23.116  27.311  1.00  0.00    -0.247 OA
BRANCH   4   6
ATOM      6  C   UNL A   1      32.064  25.002  26.616  1.00  0.00     0.094 C 
ATOM      7  C   UNL A   1      31.098  25.905  26.381  1.00  0.00     0.018 C 
BRANCH   7   8
ATOM      8  C   UNL A   1      31.446  27.320  26.130  1.00  0.00    -0.002 A 
ATOM      9  C   UNL A   1      31.612  27.856  24.832  1.00  0.00     0.044 A 
ATOM     10  C   UNL A   1      31.827  29.246  24.740  1.00  0.00     0.026 A 
ATOM     11  C   UNL A   1      31.957  30.067  25.862  1.00  0.00     0.002 A 
ATOM     12  C   UNL A   1      31.639  28.149  27.259  1.00  0.00     0.010 A 
ATOM     13  C   UNL A   1      31.892  29.511  27.128  1.00  0.00     0.001 A 
BRANCH   9  14
ATOM     14  N   UNL A   1      31.566  27.098  23.668  1.00  0.00    -0.365 N 
ATOM     15  C   UNL A   1      30.417  27.175  22.780  1.00  0.00     0.144 C 
BRANCH  14  16
ATOM     16  C   UNL A   1      32.736  26.323  23.233  1.00  0.00     0.215 C 
BRANCH  16  17
ATOM     17  C   UNL A   1      33.239  26.715  21.838  1.00  0.00     0.236 C 
ATOM     18  N   UNL A   1      33.653  28.014  21.701  1.00  0.00    -0.368 N 
ATOM     19  O   UNL A   1      33.278  25.952  20.876  1.00  0.00    -0.273 OA
ATOM     20  H   UNL A   1      33.622  28.624  22.473  1.00  0.00     0.159 HD
ATOM     21  H   UNL A   1      33.981  28.338  20.831  1.00  0.00     0.159 HD
ENDBRANCH  16  17
ENDBRANCH  14  16
ENDBRANCH   9  14
ENDBRANCH   7   8
ENDBRANCH   4   6
ENDBRANCH   3   4
ENDBRANCH   2   3
ENDBRANCH   1   2
BRANCH   1  22
ATOM     22  O   UNL A   1      35.226  21.128  25.429  1.00  0.00    -0.374 OA
BRANCH  22  23
ATOM     23  C   UNL A   1      36.098  20.080  25.003  1.00  0.00     0.202 C 
BRANCH  23  24
ATOM     24  C   UNL A   1      37.562  20.483  24.785  1.00  0.00     0.261 C 
BRANCH  24  25
ATOM     25  O   UNL A   1      38.007  21.442  25.763  1.00  0.00    -0.460 OA
BRANCH  25  26
ATOM     26  C   UNL A   1      39.271  21.258  26.212  1.00  0.00     0.338 C 
ATOM     27  O   UNL A   1      39.960  20.253  26.101  1.00  0.00    -0.246 OA
BRANCH  26  28
ATOM     28  C   UNL A   1      39.810  22.528  26.731  1.00  0.00     0.060 A 
ATOM     29  C   UNL A   1      39.353  23.716  26.145  1.00  0.00     0.016 A 
ATOM     30  C   UNL A   1      40.792  22.560  27.725  1.00  0.00     0.016 A 
ATOM     31  C   UNL A   1      39.911  24.937  26.514  1.00  0.00     0.010 A 
ATOM     32  C   UNL A   1      41.356  23.787  28.089  1.00  0.00     0.010 A 
ATOM     33  C   UNL A   1      40.943  24.977  27.462  1.00  0.00    -0.014 A 
BRANCH  33  34
ATOM     34  C   UNL A   1      41.682  26.241  27.689  1.00  0.00     0.031 A 
ATOM     35  C   UNL A   1      41.014  27.350  28.454  1.00  0.00     0.074 A 
ATOM     36  C   UNL A   1      42.939  26.395  27.240  1.00  0.00     0.049 A 
ATOM     37  N   UNL A   1      41.459  28.547  28.738  1.00  0.00    -0.248 NA
ATOM     38  C   UNL A   1      39.662  27.073  28.961  1.00  0.00     0.031 C 
ATOM     39  C   UNL A   1      43.706  25.384  26.513  1.00  0.00     0.029 A 
ATOM     40  N   UNL A   1      43.788  27.469  27.321  1.00  0.00    -0.354 N 
ATOM     41  C   UNL A   1      40.440  29.168  29.450  1.00  0.00     0.074 A 
ATOM     42  C   UNL A   1      39.343  28.227  29.527  1.00  0.00     0.031 C 
ATOM     43  C   UNL A   1      44.911  25.891  26.205  1.00  0.00     0.029 A 
ATOM     44  C   UNL A   1      44.988  27.270  26.686  1.00  0.00     0.049 A 
ATOM     45  H   UNL A   1      43.558  28.304  27.790  1.00  0.00     0.167 HD
ATOM     46  C   UNL A   1      40.423  30.407  29.997  1.00  0.00     0.037 A 
ATOM     47  C   UNL A   1      46.023  28.112  26.498  1.00  0.00     0.037 A 
ATOM     48  C   UNL A   1      41.515  31.342  29.922  1.00  0.00     0.049 A 
ATOM     49  C   UNL A   1      45.959  29.504  27.062  1.00  0.00     0.074 A 
ATOM     50  C   UNL A   1      41.605  32.610  30.470  1.00  0.00     0.029 A 
ATOM     51  N   UNL A   1      42.705  31.111  29.249  1.00  0.00    -0.354 N 
ATOM     52  N   UNL A   1      45.005  30.071  27.760  1.00  0.00    -0.248 NA
ATOM     53  C   UNL A   1      47.119  30.374  26.816  1.00  0.00     0.031 C 
ATOM     54  C   UNL A   1      42.829  33.166  30.087  1.00  0.00     0.029 A 
ATOM     55  C   UNL A   1      43.525  32.225  29.343  1.00  0.00     0.049 A 
ATOM     56  H   UNL A   1      42.934  30.280  28.774  1.00  0.00     0.167 HD
ATOM     57  C   UNL A   1      45.457  31.351  28.058  1.00  0.00     0.074 A 
ATOM     58  C   UNL A   1      46.776  31.474  27.474  1.00  0.00     0.031 C 
ATOM     59  C   UNL A   1      44.837  32.333  28.757  1.00  0.00     0.037 A 
BRANCH  46  60
ATOM     60  C   UNL A   1      39.167  30.830  30.701  1.00  0.00     0.057 A 
ATOM     61  C   UNL A   1      38.092  31.413  30.015  1.00  0.00     0.134 A 
ATOM     62  C   UNL A   1      39.025  30.638  32.081  1.00  0.00     0.134 A 
ATOM     63  F   UNL A   1      38.170  31.638  28.695  1.00  0.00    -0.206 F 
ATOM     64  C   UNL A   1      36.933  31.814  30.682  1.00  0.00     0.040 A 
ATOM     65  C   UNL A   1      37.861  31.011  32.753  1.00  0.00     0.040 A 
ATOM     66  F   UNL A   1      40.014  30.083  32.796  1.00  0.00    -0.206 F 
ATOM     67  C   UNL A   1      36.812  31.608  32.055  1.00  0.00     0.006 A 
ENDBRANCH  46  60
BRANCH  47  68
ATOM     68  C   UNL A   1      47.209  27.658  25.729  1.00  0.00     0.057 A 
ATOM     69  C   UNL A   1      48.341  27.149  26.376  1.00  0.00     0.134 A 
ATOM     70  C   UNL A   1      47.238  27.725  24.331  1.00  0.00     0.134 A 
ATOM     71  F   UNL A   1      48.380  27.082  27.714  1.00  0.00    -0.206 F 
ATOM     72  C   UNL A   1      49.464  26.731  25.659  1.00  0.00     0.040 A 
ATOM     73  C   UNL A   1      48.345  27.289  23.602  1.00  0.00     0.040 A 
ATOM     74  F   UNL A   1      46.184  28.203  23.654  1.00  0.00    -0.206 F 
ATOM     75  C   UNL A   1      49.464  26.794  24.267  1.00  0.00     0.006 A 
ENDBRANCH  47  68
BRANCH  59  76
ATOM     76  C   UNL A   1      45.589  33.617  28.957  1.00  0.00     0.057 A 
ATOM     77  C   UNL A   1      46.463  33.802  30.035  1.00  0.00     0.134 A 
ATOM     78  C   UNL A   1      45.470  34.663  28.033  1.00  0.00     0.134 A 
ATOM     79  F   UNL A   1      46.614  32.843  30.962  1.00  0.00    -0.206 F 
ATOM     80  C   UNL A   1      47.177  34.991  30.199  1.00  0.00     0.040 A 
ATOM     81  C   UNL A   1      46.198  35.846  28.172  1.00  0.00     0.040 A 
ATOM     82  F   UNL A   1      44.657  34.546  26.973  1.00  0.00    -0.206 F 
ATOM     83  C   UNL A   1      47.050  36.014  29.261  1.00  0.00     0.006 A 
ENDBRANCH  59  76
ENDBRANCH  33  34
ENDBRANCH  26  28
ENDBRANCH  25  26
ENDBRANCH  24  25
ENDBRANCH  23  24
ENDBRANCH  22  23
ENDBRANCH   1  22
TORSDOF 18
ENDMDL
MODEL 3
REMARK VINA RESULT:     -10.0      4.520      8.567
REMARK SMILES CN(CC(N)=O)c1ccccc1/C=C/C(=O)OCCOCCOC(=O)c1ccc(-c2c3nc(c(-c4c(F)cccc4F)c4ccc([nH]4)c(-c4c(F)cccc4F)c4nc(c(-c5c(F)cccc5F)c5ccc2[nH]5)C=C4)C=C3)cc1
REMARK SMILES IDX 19 1 18 2 17 3 15 4 16 5 14 6 13 7 12 8 7 9 8 10 9 11 11 12
REMARK SMILES IDX 10 13 2 14 1 15 3 16 4 17 5 18 6 19 20 22 21 23 22 24 23 25
REMARK SMILES IDX 24 26 25 27 26 28 27 29 79 30 28 31 78 32 29 33 30 34 31 35
REMARK SMILES IDX 72 36 32 37 77 38 71 39 73 40 33 41 76 42 70 43 69 44 34 46
REMARK SMILES IDX 60 47 43 48 59 49 44 50 47 51 58 52 74 53 45 54 46 55 57 57
REMARK SMILES IDX 75 58 48 59 35 60 36 61 41 62 37 63 38 64 40 65 42 66 39 67
REMARK SMILES IDX 61 68 62 69 67 70 63 71 64 72 66 73 68 74 65 75 49 76 50 77
REMARK SMILES IDX 55 78 51 79 52 80 54 81 56 82 53 83
REMARK H PARENT 5 20 5 21 73 45 47 56
REMARK Flexibility Score: inf
ROOT
ATOM      1  C   UNL A   1      37.217  21.754  24.650  1.00  0.00     0.202 C 
ENDROOT
BRANCH   1   2
ATOM      2  C   UNL A   1      35.924  22.551  24.814  1.00  0.00     0.261 C 
BRANCH   2   3
ATOM      3  O   UNL A   1      35.965  23.755  24.029  1.00  0.00    -0.460 OA
BRANCH   3   4
ATOM      4  C   UNL A   1      34.770  24.170  23.550  1.00  0.00     0.330 C 
ATOM      5  O   UNL A   1      34.216  23.776  22.533  1.00  0.00    -0.247 OA
BRANCH   4   6
ATOM      6  C   UNL A   1      34.138  25.184  24.412  1.00  0.00     0.094 C 
ATOM      7  C   UNL A   1      33.805  26.442  24.079  1.00  0.00     0.018 C 
BRANCH   7   8
ATOM      8  C   UNL A   1      33.195  27.340  25.081  1.00  0.00    -0.002 A 
ATOM      9  C   UNL A   1      31.828  27.701  25.065  1.00  0.00     0.044 A 
ATOM     10  C   UNL A   1      31.359  28.469  26.150  1.00  0.00     0.026 A 
ATOM     11  C   UNL A   1      32.198  28.937  27.163  1.00  0.00     0.002 A 
ATOM     12  C   UNL A   1      34.046  27.869  26.079  1.00  0.00     0.010 A 
ATOM     13  C   UNL A   1      33.553  28.661  27.113  1.00  0.00     0.001 A 
BRANCH   9  14
ATOM     14  N   UNL A   1      30.941  27.335  24.060  1.00  0.00    -0.365 N 
ATOM     15  C   UNL A   1      29.745  26.568  24.370  1.00  0.00     0.144 C 
BRANCH  14  16
ATOM     16  C   UNL A   1      31.112  27.842  22.691  1.00  0.00     0.215 C 
BRANCH  16  17
ATOM     17  C   UNL A   1      30.283  29.100  22.402  1.00  0.00     0.236 C 
ATOM     18  N   UNL A   1      30.900  30.052  21.634  1.00  0.00    -0.368 N 
ATOM     19  O   UNL A   1      29.143  29.287  22.818  1.00  0.00    -0.273 OA
ATOM     20  H   UNL A   1      31.814  29.900  21.301  1.00  0.00     0.159 HD
ATOM     21  H   UNL A   1      30.430  30.889  21.415  1.00  0.00     0.159 HD
ENDBRANCH  16  17
ENDBRANCH  14  16
ENDBRANCH   9  14
ENDBRANCH   7   8
ENDBRANCH   4   6
ENDBRANCH   3   4
ENDBRANCH   2   3
ENDBRANCH   1   2
BRANCH   1  22
ATOM     22  O   UNL A   1      37.225  20.466  25.266  1.00  0.00    -0.374 OA
BRANCH  22  23
ATOM     23  C   UNL A   1      38.308  19.598  24.929  1.00  0.00     0.202 C 
BRANCH  23  24
ATOM     24  C   UNL A   1      39.458  19.548  25.942  1.00  0.00     0.261 C 
BRANCH  24  25
ATOM     25  O   UNL A   1      40.648  18.967  25.377  1.00  0.00    -0.460 OA
BRANCH  25  26
ATOM     26  C   UNL A   1      41.764  19.098  26.131  1.00  0.00     0.338 C 
ATOM     27  O   UNL A   1      42.608  18.243  26.363  1.00  0.00    -0.246 OA
BRANCH  26  28
ATOM     28  C   UNL A   1      41.942  20.507  26.526  1.00  0.00     0.060 A 
ATOM     29  C   UNL A   1      42.111  21.451  25.505  1.00  0.00     0.016 A 
ATOM     30  C   UNL A   1      42.010  20.892  27.868  1.00  0.00     0.016 A 
ATOM     31  C   UNL A   1      42.398  22.777  25.820  1.00  0.00     0.010 A 
ATOM     32  C   UNL A   1      42.305  22.223  28.182  1.00  0.00     0.010 A 
ATOM     33  C   UNL A   1      42.534  23.164  27.160  1.00  0.00    -0.014 A 
BRANCH  33  34
ATOM     34  C   UNL A   1      43.054  24.513  27.485  1.00  0.00     0.031 A 
ATOM     35  C   UNL A   1      42.088  25.584  27.912  1.00  0.00     0.074 A 
ATOM     36  C   UNL A   1      44.370  24.779  27.422  1.00  0.00     0.049 A 
ATOM     37  N   UNL A   1      42.318  26.838  28.209  1.00  0.00    -0.248 NA
ATOM     38  C   UNL A   1      40.675  25.189  28.012  1.00  0.00     0.031 C 
ATOM     39  C   UNL A   1      45.408  23.818  27.052  1.00  0.00     0.029 A 
ATOM     40  N   UNL A   1      45.055  25.944  27.658  1.00  0.00    -0.354 N 
ATOM     41  C   UNL A   1      41.079  27.383  28.523  1.00  0.00     0.074 A 
ATOM     42  C   UNL A   1      40.098  26.332  28.351  1.00  0.00     0.031 C 
ATOM     43  C   UNL A   1      46.600  24.437  27.076  1.00  0.00     0.029 A 
ATOM     44  C   UNL A   1      46.405  25.842  27.433  1.00  0.00     0.049 A 
ATOM     45  H   UNL A   1      44.619  26.774  27.960  1.00  0.00     0.167 HD
ATOM     46  C   UNL A   1      40.785  28.642  28.927  1.00  0.00     0.037 A 
ATOM     47  C   UNL A   1      47.369  26.780  27.489  1.00  0.00     0.037 A 
ATOM     48  C   UNL A   1      41.761  29.686  29.100  1.00  0.00     0.049 A 
ATOM     49  C   UNL A   1      47.013  28.188  27.881  1.00  0.00     0.074 A 
ATOM     50  C   UNL A   1      41.567  30.986  29.534  1.00  0.00     0.029 A 
ATOM     51  N   UNL A   1      43.116  29.549  28.838  1.00  0.00    -0.354 N 
ATOM     52  N   UNL A   1      45.844  28.686  28.208  1.00  0.00    -0.248 NA
ATOM     53  C   UNL A   1      48.111  29.165  27.918  1.00  0.00     0.031 C 
ATOM     54  C   UNL A   1      42.796  31.650  29.488  1.00  0.00     0.029 A 
ATOM     55  C   UNL A   1      43.766  30.751  29.075  1.00  0.00     0.049 A 
ATOM     56  H   UNL A   1      43.552  28.723  28.530  1.00  0.00     0.167 HD
ATOM     57  C   UNL A   1      46.068  30.023  28.512  1.00  0.00     0.074 A 
ATOM     58  C   UNL A   1      47.487  30.256  28.342  1.00  0.00     0.031 C 
ATOM     59  C   UNL A   1      45.180  30.969  28.902  1.00  0.00     0.037 A 
BRANCH  46  60
ATOM     60  C   UNL A   1      39.342  28.963  29.180  1.00  0.00     0.057 A 
ATOM     61  C   UNL A   1      38.496  29.430  28.165  1.00  0.00     0.134 A 
ATOM     62  C   UNL A   1      38.787  28.790  30.454  1.00  0.00     0.134 A 
ATOM     63  F   UNL A   1      38.969  29.632  26.926  1.00  0.00    -0.206 F 
ATOM     64  C   UNL A   1      37.157  29.738  28.415  1.00  0.00     0.040 A 
ATOM     65  C   UNL A   1      37.444  29.069  30.710  1.00  0.00     0.040 A 
ATOM     66  F   UNL A   1      39.540  28.343  31.470  1.00  0.00    -0.206 F 
ATOM     67  C   UNL A   1      36.626  29.552  29.690  1.00  0.00     0.006 A 
ENDBRANCH  46  60
BRANCH  47  68
ATOM     68  C   UNL A   1      48.769  26.417  27.156  1.00  0.00     0.057 A 
ATOM     69  C   UNL A   1      49.267  26.561  25.857  1.00  0.00     0.134 A 
ATOM     70  C   UNL A   1      49.640  25.915  28.131  1.00  0.00     0.134 A 
ATOM     71  F   UNL A   1      48.472  27.014  24.876  1.00  0.00    -0.206 F 
ATOM     72  C   UNL A   1      50.579  26.210  25.535  1.00  0.00     0.040 A 
ATOM     73  C   UNL A   1      50.961  25.583  27.828  1.00  0.00     0.040 A 
ATOM     74  F   UNL A   1      49.223  25.755  29.395  1.00  0.00    -0.206 F 
ATOM     75  C   UNL A   1      51.433  25.726  26.525  1.00  0.00     0.006 A 
ENDBRANCH  47  68
BRANCH  59  76
ATOM     76  C   UNL A   1      45.718  32.338  29.203  1.00  0.00     0.057 A 
ATOM     77  C   UNL A   1      45.763  33.346  28.232  1.00  0.00     0.134 A 
ATOM     78  C   UNL A   1      46.155  32.663  30.494  1.00  0.00     0.134 A 
ATOM     79  F   UNL A   1      45.369  33.095  26.974  1.00  0.00    -0.206 F 
ATOM     80  C   UNL A   1      46.242  34.623  28.528  1.00  0.00     0.040 A 
ATOM     81  C   UNL A   1      46.612  33.944  30.809  1.00  0.00     0.040 A 
ATOM     82  F   UNL A   1      46.130  31.747  31.473  1.00  0.00    -0.206 F 
ATOM     83  C   UNL A   1      46.662  34.926  29.822  1.00  0.00     0.006 A 
ENDBRANCH  59  76
ENDBRANCH  33  34
ENDBRANCH  26  28
ENDBRANCH  25  26
ENDBRANCH  24  25
ENDBRANCH  23  24
ENDBRANCH  22  23
ENDBRANCH   1  22
TORSDOF 18
ENDMDL
