MODEL 1
REMARK VINA RESULT:     -10.8      0.000      0.000
REMARK SMILES O=C(OCCOCCOC(=O)[C@@H]1CS[C@H](c2ncc(-c3ccccc3)s2)[NH2+]1)c1ccc(-c2c3nc(c(-c4c(F)cccc4F)c4ccc([nH]4)c(-c4c(F)cccc4F)c4nc(c(-c5c(F)cccc5F)c5ccc2[nH]5)C=C4)C=C3)cc1
REMARK SMILES IDX 6 1 5 2 4 3 3 4 2 5 1 6 28 7 29 8 81 9 30 10 80 11 31 12
REMARK SMILES IDX 32 13 33 14 74 15 34 16 79 17 73 18 75 19 35 20 78 21 72 22
REMARK SMILES IDX 71 23 36 25 62 26 45 27 61 28 46 29 49 30 60 31 76 32 47 33
REMARK SMILES IDX 48 34 59 36 77 37 50 38 37 39 38 40 43 41 39 42 40 43 42 44
REMARK SMILES IDX 44 45 41 46 63 47 64 48 69 49 65 50 66 51 68 52 70 53 67 54
REMARK SMILES IDX 51 55 52 56 57 57 53 58 54 59 56 60 58 61 55 62 7 63 8 64
REMARK SMILES IDX 9 65 10 66 11 67 12 68 13 69 27 70 14 71 15 72 16 75 17 76
REMARK SMILES IDX 26 77 18 78 19 79 20 80 21 81 25 82 22 83 24 84 23 85
REMARK H PARENT 75 24 49 35 27 73 27 74
REMARK Flexibility Score: inf
ROOT
ATOM      1  O   UNL A   1      32.630  28.812  24.162  1.00  0.00    -0.374 OA
ENDROOT
BRANCH   1   2
ATOM      2  C   UNL A   1      31.449  29.332  24.768  1.00  0.00     0.202 C 
BRANCH   2   3
ATOM      3  C   UNL A   1      31.693  30.375  25.859  1.00  0.00     0.261 C 
BRANCH   3   4
ATOM      4  O   UNL A   1      33.088  30.461  26.170  1.00  0.00    -0.460 OA
BRANCH   4   5
ATOM      5  C   UNL A   1      33.647  31.306  27.070  1.00  0.00     0.338 C 
ATOM      6  O   UNL A   1      33.059  32.340  27.375  1.00  0.00    -0.246 OA
BRANCH   5   7
ATOM      7  C   UNL A   1      34.930  30.999  27.758  1.00  0.00     0.060 A 
ATOM      8  C   UNL A   1      35.887  31.958  28.092  1.00  0.00     0.016 A 
ATOM      9  C   UNL A   1      35.130  29.681  28.190  1.00  0.00     0.016 A 
ATOM     10  C   UNL A   1      37.019  31.640  28.807  1.00  0.00     0.010 A 
ATOM     11  C   UNL A   1      36.251  29.353  28.955  1.00  0.00     0.010 A 
ATOM     12  C   UNL A   1      37.182  30.346  29.274  1.00  0.00    -0.014 A 
BRANCH  12  13
ATOM     13  C   UNL A   1      38.377  30.095  30.079  1.00  0.00     0.031 A 
ATOM     14  C   UNL A   1      39.525  29.402  29.435  1.00  0.00     0.074 A 
ATOM     15  C   UNL A   1      38.443  30.639  31.307  1.00  0.00     0.049 A 
ATOM     16  N   UNL A   1      40.642  29.001  29.970  1.00  0.00    -0.248 NA
ATOM     17  C   UNL A   1      39.404  29.126  27.992  1.00  0.00     0.031 C 
ATOM     18  C   UNL A   1      37.395  31.467  31.919  1.00  0.00     0.029 A 
ATOM     19  N   UNL A   1      39.439  30.626  32.241  1.00  0.00    -0.354 N 
ATOM     20  C   UNL A   1      41.324  28.355  28.951  1.00  0.00     0.074 A 
ATOM     21  C   UNL A   1      40.525  28.463  27.752  1.00  0.00     0.031 C 
ATOM     22  C   UNL A   1      37.824  31.909  33.111  1.00  0.00     0.029 A 
ATOM     23  C   UNL A   1      39.125  31.317  33.386  1.00  0.00     0.049 A 
ATOM     24  H   UNL A   1      40.299  30.165  32.106  1.00  0.00     0.167 HD
ATOM     25  C   UNL A   1      42.494  27.690  29.050  1.00  0.00     0.037 A 
ATOM     26  C   UNL A   1      39.807  31.404  34.542  1.00  0.00     0.037 A 
ATOM     27  C   UNL A   1      43.248  27.633  30.273  1.00  0.00     0.049 A 
ATOM     28  C   UNL A   1      41.085  30.614  34.636  1.00  0.00     0.074 A 
ATOM     29  C   UNL A   1      44.420  26.956  30.536  1.00  0.00     0.029 A 
ATOM     30  N   UNL A   1      42.883  28.291  31.443  1.00  0.00    -0.354 N 
ATOM     31  N   UNL A   1      41.702  29.929  33.698  1.00  0.00    -0.248 NA
ATOM     32  C   UNL A   1      41.738  30.563  35.948  1.00  0.00     0.031 C 
ATOM     33  C   UNL A   1      44.735  27.157  31.884  1.00  0.00     0.029 A 
ATOM     34  C   UNL A   1      43.790  28.006  32.446  1.00  0.00     0.049 A 
ATOM     35  H   UNL A   1      42.096  28.873  31.543  1.00  0.00     0.167 HD
ATOM     36  C   UNL A   1      42.806  29.354  34.309  1.00  0.00     0.074 A 
ATOM     37  C   UNL A   1      42.800  29.813  35.686  1.00  0.00     0.031 C 
ATOM     38  C   UNL A   1      43.730  28.503  33.798  1.00  0.00     0.037 A 
BRANCH  25  39
ATOM     39  C   UNL A   1      42.933  26.888  27.867  1.00  0.00     0.057 A 
ATOM     40  C   UNL A   1      42.731  25.507  27.764  1.00  0.00     0.134 A 
ATOM     41  C   UNL A   1      43.604  27.522  26.813  1.00  0.00     0.134 A 
ATOM     42  F   UNL A   1      42.128  24.832  28.755  1.00  0.00    -0.206 F 
ATOM     43  C   UNL A   1      43.191  24.784  26.661  1.00  0.00     0.040 A 
ATOM     44  C   UNL A   1      44.050  26.815  25.695  1.00  0.00     0.040 A 
ATOM     45  F   UNL A   1      43.849  28.841  26.857  1.00  0.00    -0.206 F 
ATOM     46  C   UNL A   1      43.847  25.440  25.620  1.00  0.00     0.006 A 
ENDBRANCH  25  39
BRANCH  26  47
ATOM     47  C   UNL A   1      39.265  32.158  35.704  1.00  0.00     0.057 A 
ATOM     48  C   UNL A   1      38.344  31.577  36.584  1.00  0.00     0.134 A 
ATOM     49  C   UNL A   1      39.619  33.493  35.947  1.00  0.00     0.134 A 
ATOM     50  F   UNL A   1      37.950  30.307  36.405  1.00  0.00    -0.206 F 
ATOM     51  C   UNL A   1      37.777  32.298  37.638  1.00  0.00     0.040 A 
ATOM     52  C   UNL A   1      39.091  34.215  37.018  1.00  0.00     0.040 A 
ATOM     53  F   UNL A   1      40.495  34.120  35.146  1.00  0.00    -0.206 F 
ATOM     54  C   UNL A   1      38.156  33.621  37.861  1.00  0.00     0.006 A 
ENDBRANCH  26  47
BRANCH  38  55
ATOM     55  C   UNL A   1      44.795  28.027  34.736  1.00  0.00     0.057 A 
ATOM     56  C   UNL A   1      44.639  26.850  35.479  1.00  0.00     0.134 A 
ATOM     57  C   UNL A   1      46.015  28.704  34.827  1.00  0.00     0.134 A 
ATOM     58  F   UNL A   1      43.484  26.168  35.439  1.00  0.00    -0.206 F 
ATOM     59  C   UNL A   1      45.662  26.368  36.290  1.00  0.00     0.040 A 
ATOM     60  C   UNL A   1      47.056  28.215  35.612  1.00  0.00     0.040 A 
ATOM     61  F   UNL A   1      46.224  29.830  34.129  1.00  0.00    -0.206 F 
ATOM     62  C   UNL A   1      46.881  27.043  36.348  1.00  0.00     0.006 A 
ENDBRANCH  38  55
ENDBRANCH  12  13
ENDBRANCH   5   7
ENDBRANCH   4   5
ENDBRANCH   3   4
ENDBRANCH   2   3
ENDBRANCH   1   2
BRANCH   1  63
ATOM     63  C   UNL A   1      32.686  28.846  22.739  1.00  0.00     0.202 C 
BRANCH  63  64
ATOM     64  C   UNL A   1      33.792  27.916  22.247  1.00  0.00     0.261 C 
BRANCH  64  65
ATOM     65  O   UNL A   1      33.576  26.591  22.771  1.00  0.00    -0.459 OA
BRANCH  65  66
ATOM     66  C   UNL A   1      33.005  25.718  21.881  1.00  0.00     0.365 C 
ATOM     67  O   UNL A   1      33.277  25.661  20.695  1.00  0.00    -0.245 OA
BRANCH  66  68
ATOM     68  C   UNL A   1      32.029  24.788  22.610  1.00  0.00     0.304 C 
ATOM     69  C   UNL A   1      32.007  25.091  24.109  1.00  0.00     0.153 C 
ATOM     70  N   UNL A   1      32.376  23.351  22.348  1.00  0.00    -0.317 N 
ATOM     71  S   UNL A   1      31.850  23.473  24.874  1.00  0.00    -0.085 SA
ATOM     72  C   UNL A   1      32.926  22.757  23.587  1.00  0.00     0.303 C 
ATOM     73  H   UNL A   1      33.072  23.297  21.604  1.00  0.00     0.348 HD
ATOM     74  H   UNL A   1      31.540  22.841  22.061  1.00  0.00     0.348 HD
BRANCH  72  75
ATOM     75  C   UNL A   1      34.407  23.031  23.844  1.00  0.00     0.162 A 
ATOM     76  N   UNL A   1      35.326  23.169  22.901  1.00  0.00    -0.242 NA
ATOM     77  S   UNL A   1      35.015  23.239  25.456  1.00  0.00    -0.112 S 
ATOM     78  C   UNL A   1      36.579  23.262  23.471  1.00  0.00     0.132 A 
ATOM     79  C   UNL A   1      36.617  23.197  24.849  1.00  0.00     0.055 A 
BRANCH  79  80
ATOM     80  C   UNL A   1      37.779  23.063  25.720  1.00  0.00    -0.007 A 
ATOM     81  C   UNL A   1      38.485  21.850  25.730  1.00  0.00     0.009 A 
ATOM     82  C   UNL A   1      38.247  24.127  26.498  1.00  0.00     0.009 A 
ATOM     83  C   UNL A   1      39.648  21.710  26.488  1.00  0.00     0.001 A 
ATOM     84  C   UNL A   1      39.412  23.982  27.261  1.00  0.00     0.001 A 
ATOM     85  C   UNL A   1      40.113  22.777  27.252  1.00  0.00     0.000 A 
ENDBRANCH  79  80
ENDBRANCH  72  75
ENDBRANCH  66  68
ENDBRANCH  65  66
ENDBRANCH  64  65
ENDBRANCH  63  64
ENDBRANCH   1  63
TORSDOF 16
ENDMDL
MODEL 2
REMARK VINA RESULT:     -10.8      2.056      3.271
REMARK SMILES O=C(OCCOCCOC(=O)[C@@H]1CS[C@H](c2ncc(-c3ccccc3)s2)[NH2+]1)c1ccc(-c2c3nc(c(-c4c(F)cccc4F)c4ccc([nH]4)c(-c4c(F)cccc4F)c4nc(c(-c5c(F)cccc5F)c5ccc2[nH]5)C=C4)C=C3)cc1
REMARK SMILES IDX 6 1 5 2 4 3 3 4 2 5 1 6 28 7 29 8 81 9 30 10 80 11 31 12
REMARK SMILES IDX 32 13 33 14 74 15 34 16 79 17 73 18 75 19 35 20 78 21 72 22
REMARK SMILES IDX 71 23 36 25 62 26 45 27 61 28 46 29 49 30 60 31 76 32 47 33
REMARK SMILES IDX 48 34 59 36 77 37 50 38 37 39 38 40 43 41 39 42 40 43 42 44
REMARK SMILES IDX 44 45 41 46 63 47 64 48 69 49 65 50 66 51 68 52 70 53 67 54
REMARK SMILES IDX 51 55 52 56 57 57 53 58 54 59 56 60 58 61 55 62 7 63 8 64
REMARK SMILES IDX 9 65 10 66 11 67 12 68 13 69 27 70 14 71 15 72 16 75 17 76
REMARK SMILES IDX 26 77 18 78 19 79 20 80 21 81 25 82 22 83 24 84 23 85
REMARK H PARENT 75 24 49 35 27 73 27 74
REMARK Flexibility Score: inf
ROOT
ATOM      1  O   UNL A   1      33.129  30.402  27.544  1.00  0.00    -0.374 OA
ENDROOT
BRANCH   1   2
ATOM      2  C   UNL A   1      32.249  31.093  26.662  1.00  0.00     0.202 C 
BRANCH   2   3
ATOM      3  C   UNL A   1      31.647  32.378  27.231  1.00  0.00     0.261 C 
BRANCH   3   4
ATOM      4  O   UNL A   1      32.611  33.436  27.216  1.00  0.00    -0.460 OA
BRANCH   4   5
ATOM      5  C   UNL A   1      33.111  34.067  28.306  1.00  0.00     0.338 C 
ATOM      6  O   UNL A   1      32.484  34.998  28.806  1.00  0.00    -0.246 OA
BRANCH   5   7
ATOM      7  C   UNL A   1      34.372  33.634  28.966  1.00  0.00     0.060 A 
ATOM      8  C   UNL A   1      34.437  32.670  29.973  1.00  0.00     0.016 A 
ATOM      9  C   UNL A   1      35.573  34.152  28.462  1.00  0.00     0.016 A 
ATOM     10  C   UNL A   1      35.636  32.239  30.493  1.00  0.00     0.010 A 
ATOM     11  C   UNL A   1      36.798  33.690  28.947  1.00  0.00     0.010 A 
ATOM     12  C   UNL A   1      36.818  32.718  29.952  1.00  0.00    -0.014 A 
BRANCH  12  13
ATOM     13  C   UNL A   1      38.054  32.169  30.511  1.00  0.00     0.031 A 
ATOM     14  C   UNL A   1      38.687  31.017  29.817  1.00  0.00     0.074 A 
ATOM     15  C   UNL A   1      38.640  32.828  31.527  1.00  0.00     0.049 A 
ATOM     16  N   UNL A   1      39.726  30.319  30.173  1.00  0.00    -0.248 NA
ATOM     17  C   UNL A   1      38.073  30.593  28.545  1.00  0.00     0.031 C 
ATOM     18  C   UNL A   1      38.129  34.063  32.137  1.00  0.00     0.029 A 
ATOM     19  N   UNL A   1      39.807  32.589  32.194  1.00  0.00    -0.354 N 
ATOM     20  C   UNL A   1      39.845  29.324  29.215  1.00  0.00     0.074 A 
ATOM     21  C   UNL A   1      38.809  29.538  28.231  1.00  0.00     0.031 C 
ATOM     22  C   UNL A   1      39.001  34.488  33.063  1.00  0.00     0.029 A 
ATOM     23  C   UNL A   1      40.072  33.509  33.180  1.00  0.00     0.049 A 
ATOM     24  H   UNL A   1      40.401  31.831  31.989  1.00  0.00     0.167 HD
ATOM     25  C   UNL A   1      40.724  28.299  29.212  1.00  0.00     0.037 A 
ATOM     26  C   UNL A   1      41.051  33.510  34.102  1.00  0.00     0.037 A 
ATOM     27  C   UNL A   1      41.742  28.153  30.216  1.00  0.00     0.049 A 
ATOM     28  C   UNL A   1      41.986  32.331  34.099  1.00  0.00     0.074 A 
ATOM     29  C   UNL A   1      42.666  27.140  30.370  1.00  0.00     0.029 A 
ATOM     30  N   UNL A   1      41.957  29.064  31.244  1.00  0.00    -0.354 N 
ATOM     31  N   UNL A   1      42.057  31.336  33.242  1.00  0.00    -0.248 NA
ATOM     32  C   UNL A   1      42.941  32.239  35.209  1.00  0.00     0.031 C 
ATOM     33  C   UNL A   1      43.404  27.409  31.527  1.00  0.00     0.029 A 
ATOM     34  C   UNL A   1      42.979  28.619  32.061  1.00  0.00     0.049 A 
ATOM     35  H   UNL A   1      41.458  29.902  31.371  1.00  0.00     0.167 HD
ATOM     36  C   UNL A   1      43.052  30.494  33.715  1.00  0.00     0.074 A 
ATOM     37  C   UNL A   1      43.590  31.122  34.908  1.00  0.00     0.031 C 
ATOM     38  C   UNL A   1      43.472  29.299  33.233  1.00  0.00     0.037 A 
BRANCH  25  39
ATOM     39  C   UNL A   1      40.525  27.226  28.189  1.00  0.00     0.057 A 
ATOM     40  C   UNL A   1      41.151  27.241  26.938  1.00  0.00     0.134 A 
ATOM     41  C   UNL A   1      39.657  26.161  28.464  1.00  0.00     0.134 A 
ATOM     42  F   UNL A   1      41.965  28.251  26.596  1.00  0.00    -0.206 F 
ATOM     43  C   UNL A   1      40.910  26.242  25.991  1.00  0.00     0.040 A 
ATOM     44  C   UNL A   1      39.424  25.146  27.536  1.00  0.00     0.040 A 
ATOM     45  F   UNL A   1      39.009  26.097  29.638  1.00  0.00    -0.206 F 
ATOM     46  C   UNL A   1      40.049  25.187  26.293  1.00  0.00     0.006 A 
ENDBRANCH  25  39
BRANCH  26  47
ATOM     47  C   UNL A   1      41.134  34.574  35.138  1.00  0.00     0.057 A 
ATOM     48  C   UNL A   1      41.947  35.700  34.963  1.00  0.00     0.134 A 
ATOM     49  C   UNL A   1      40.434  34.479  36.350  1.00  0.00     0.134 A 
ATOM     50  F   UNL A   1      42.655  35.851  33.833  1.00  0.00    -0.206 F 
ATOM     51  C   UNL A   1      42.084  36.671  35.958  1.00  0.00     0.040 A 
ATOM     52  C   UNL A   1      40.530  35.460  37.338  1.00  0.00     0.040 A 
ATOM     53  F   UNL A   1      39.636  33.428  36.593  1.00  0.00    -0.206 F 
ATOM     54  C   UNL A   1      41.369  36.554  37.149  1.00  0.00     0.006 A 
ENDBRANCH  26  47
BRANCH  38  55
ATOM     55  C   UNL A   1      44.557  28.610  34.000  1.00  0.00     0.057 A 
ATOM     56  C   UNL A   1      44.263  27.659  34.986  1.00  0.00     0.134 A 
ATOM     57  C   UNL A   1      45.902  28.838  33.688  1.00  0.00     0.134 A 
ATOM     58  F   UNL A   1      42.992  27.412  35.335  1.00  0.00    -0.206 F 
ATOM     59  C   UNL A   1      45.275  26.963  35.642  1.00  0.00     0.040 A 
ATOM     60  C   UNL A   1      46.921  28.126  34.317  1.00  0.00     0.040 A 
ATOM     61  F   UNL A   1      46.242  29.728  32.744  1.00  0.00    -0.206 F 
ATOM     62  C   UNL A   1      46.608  27.186  35.299  1.00  0.00     0.006 A 
ENDBRANCH  38  55
ENDBRANCH  12  13
ENDBRANCH   5   7
ENDBRANCH   4   5
ENDBRANCH   3   4
ENDBRANCH   2   3
ENDBRANCH   1   2
BRANCH   1  63
ATOM     63  C   UNL A   1      33.415  29.043  27.226  1.00  0.00     0.202 C 
BRANCH  63  64
ATOM     64  C   UNL A   1      34.111  28.970  25.869  1.00  0.00     0.261 C 
BRANCH  64  65
ATOM     65  O   UNL A   1      33.257  28.293  24.926  1.00  0.00    -0.459 OA
BRANCH  65  66
ATOM     66  C   UNL A   1      33.208  28.878  23.687  1.00  0.00     0.365 C 
ATOM     67  O   UNL A   1      34.179  29.283  23.073  1.00  0.00    -0.245 OA
BRANCH  66  68
ATOM     68  C   UNL A   1      31.766  28.888  23.166  1.00  0.00     0.304 C 
ATOM     69  C   UNL A   1      30.791  28.459  24.264  1.00  0.00     0.153 C 
ATOM     70  N   UNL A   1      31.640  28.015  21.951  1.00  0.00    -0.317 N 
ATOM     71  S   UNL A   1      29.562  27.481  23.391  1.00  0.00    -0.085 SA
ATOM     72  C   UNL A   1      30.866  26.805  22.308  1.00  0.00     0.303 C 
ATOM     73  H   UNL A   1      32.568  27.744  21.626  1.00  0.00     0.348 HD
ATOM     74  H   UNL A   1      31.161  28.525  21.209  1.00  0.00     0.348 HD
BRANCH  72  75
ATOM     75  C   UNL A   1      31.666  25.691  22.982  1.00  0.00     0.162 A 
ATOM     76  N   UNL A   1      31.206  24.902  23.941  1.00  0.00    -0.242 NA
ATOM     77  S   UNL A   1      33.291  25.329  22.490  1.00  0.00    -0.112 S 
ATOM     78  C   UNL A   1      32.223  24.107  24.427  1.00  0.00     0.132 A 
ATOM     79  C   UNL A   1      33.459  24.286  23.840  1.00  0.00     0.055 A 
BRANCH  79  80
ATOM     80  C   UNL A   1      34.751  23.757  24.261  1.00  0.00    -0.007 A 
ATOM     81  C   UNL A   1      35.491  22.975  23.360  1.00  0.00     0.009 A 
ATOM     82  C   UNL A   1      35.303  24.057  25.510  1.00  0.00     0.009 A 
ATOM     83  C   UNL A   1      36.766  22.518  23.695  1.00  0.00     0.001 A 
ATOM     84  C   UNL A   1      36.581  23.594  25.845  1.00  0.00     0.001 A 
ATOM     85  C   UNL A   1      37.312  22.830  24.937  1.00  0.00     0.000 A 
ENDBRANCH  79  80
ENDBRANCH  72  75
ENDBRANCH  66  68
ENDBRANCH  65  66
ENDBRANCH  64  65
ENDBRANCH  63  64
ENDBRANCH   1  63
TORSDOF 16
ENDMDL
MODEL 3
REMARK VINA RESULT:     -10.7      0.546      6.201
REMARK SMILES O=C(OCCOCCOC(=O)[C@@H]1CS[C@H](c2ncc(-c3ccccc3)s2)[NH2+]1)c1ccc(-c2c3nc(c(-c4c(F)cccc4F)c4ccc([nH]4)c(-c4c(F)cccc4F)c4nc(c(-c5c(F)cccc5F)c5ccc2[nH]5)C=C4)C=C3)cc1
REMARK SMILES IDX 6 1 5 2 4 3 3 4 2 5 1 6 28 7 29 8 81 9 30 10 80 11 31 12
REMARK SMILES IDX 32 13 33 14 74 15 34 16 79 17 73 18 75 19 35 20 78 21 72 22
REMARK SMILES IDX 71 23 36 25 62 26 45 27 61 28 46 29 49 30 60 31 76 32 47 33
REMARK SMILES IDX 48 34 59 36 77 37 50 38 37 39 38 40 43 41 39 42 40 43 42 44
REMARK SMILES IDX 44 45 41 46 63 47 64 48 69 49 65 50 66 51 68 52 70 53 67 54
REMARK SMILES IDX 51 55 52 56 57 57 53 58 54 59 56 60 58 61 55 62 7 63 8 64
REMARK SMILES IDX 9 65 10 66 11 67 12 68 13 69 27 70 14 71 15 72 16 75 17 76
REMARK SMILES IDX 26 77 18 78 19 79 20 80 21 81 25 82 22 83 24 84 23 85
REMARK H PARENT 75 24 49 35 27 73 27 74
REMARK Flexibility Score: inf
ROOT
ATOM      1  O   UNL A   1      32.544  28.904  24.340  1.00  0.00    -0.374 OA
ENDROOT
BRANCH   1   2
ATOM      2  C   UNL A   1      31.406  29.443  25.008  1.00  0.00     0.202 C 
BRANCH   2   3
ATOM      3  C   UNL A   1      31.716  30.563  26.002  1.00  0.00     0.261 C 
BRANCH   3   4
ATOM      4  O   UNL A   1      33.125  30.644  26.246  1.00  0.00    -0.460 OA
BRANCH   4   5
ATOM      5  C   UNL A   1      33.720  31.406  27.194  1.00  0.00     0.338 C 
ATOM      6  O   UNL A   1      33.167  32.432  27.582  1.00  0.00    -0.246 OA
BRANCH   5   7
ATOM      7  C   UNL A   1      35.004  31.016  27.837  1.00  0.00     0.060 A 
ATOM      8  C   UNL A   1      36.048  31.904  28.104  1.00  0.00     0.016 A 
ATOM      9  C   UNL A   1      35.118  29.697  28.299  1.00  0.00     0.016 A 
ATOM     10  C   UNL A   1      37.181  31.514  28.781  1.00  0.00     0.010 A 
ATOM     11  C   UNL A   1      36.242  29.300  29.027  1.00  0.00     0.010 A 
ATOM     12  C   UNL A   1      37.261  30.224  29.278  1.00  0.00    -0.014 A 
BRANCH  12  13
ATOM     13  C   UNL A   1      38.467  29.898  30.040  1.00  0.00     0.031 A 
ATOM     14  C   UNL A   1      38.541  30.340  31.458  1.00  0.00     0.074 A 
ATOM     15  C   UNL A   1      39.376  29.084  29.475  1.00  0.00     0.049 A 
ATOM     16  N   UNL A   1      39.534  30.240  32.294  1.00  0.00    -0.248 NA
ATOM     17  C   UNL A   1      37.333  30.973  32.017  1.00  0.00     0.031 C 
ATOM     18  C   UNL A   1      39.262  28.496  28.134  1.00  0.00     0.029 A 
ATOM     19  N   UNL A   1      40.543  28.570  29.962  1.00  0.00    -0.354 N 
ATOM     20  C   UNL A   1      39.103  30.870  33.451  1.00  0.00     0.074 A 
ATOM     21  C   UNL A   1      37.740  31.300  33.234  1.00  0.00     0.031 C 
ATOM     22  C   UNL A   1      40.302  27.675  27.925  1.00  0.00     0.029 A 
ATOM     23  C   UNL A   1      41.198  27.757  29.070  1.00  0.00     0.049 A 
ATOM     24  H   UNL A   1      40.883  28.765  30.866  1.00  0.00     0.167 HD
ATOM     25  C   UNL A   1      39.825  31.102  34.568  1.00  0.00     0.037 A 
ATOM     26  C   UNL A   1      42.416  27.194  29.166  1.00  0.00     0.037 A 
ATOM     27  C   UNL A   1      41.174  30.633  34.725  1.00  0.00     0.049 A 
ATOM     28  C   UNL A   1      43.212  27.509  30.403  1.00  0.00     0.074 A 
ATOM     29  C   UNL A   1      42.044  30.837  35.776  1.00  0.00     0.029 A 
ATOM     30  N   UNL A   1      41.845  29.861  33.783  1.00  0.00    -0.354 N 
ATOM     31  N   UNL A   1      42.843  28.175  31.475  1.00  0.00    -0.248 NA
ATOM     32  C   UNL A   1      44.604  27.045  30.432  1.00  0.00     0.031 C 
ATOM     33  C   UNL A   1      43.262  30.235  35.444  1.00  0.00     0.029 A 
ATOM     34  C   UNL A   1      43.134  29.608  34.212  1.00  0.00     0.049 A 
ATOM     35  H   UNL A   1      41.459  29.540  32.936  1.00  0.00     0.167 HD
ATOM     36  C   UNL A   1      43.957  28.222  32.298  1.00  0.00     0.074 A 
ATOM     37  C   UNL A   1      45.001  27.474  31.623  1.00  0.00     0.031 C 
ATOM     38  C   UNL A   1      44.123  28.846  33.491  1.00  0.00     0.037 A 
BRANCH  25  39
ATOM     39  C   UNL A   1      39.218  31.989  35.608  1.00  0.00     0.057 A 
ATOM     40  C   UNL A   1      38.338  31.520  36.589  1.00  0.00     0.134 A 
ATOM     41  C   UNL A   1      39.508  33.360  35.602  1.00  0.00     0.134 A 
ATOM     42  F   UNL A   1      37.988  30.226  36.629  1.00  0.00    -0.206 F 
ATOM     43  C   UNL A   1      37.758  32.386  37.521  1.00  0.00     0.040 A 
ATOM     44  C   UNL A   1      38.952  34.231  36.539  1.00  0.00     0.040 A 
ATOM     45  F   UNL A   1      40.328  33.878  34.675  1.00  0.00    -0.206 F 
ATOM     46  C   UNL A   1      38.071  33.745  37.500  1.00  0.00     0.006 A 
ENDBRANCH  25  39
BRANCH  26  47
ATOM     47  C   UNL A   1      42.984  26.388  28.052  1.00  0.00     0.057 A 
ATOM     48  C   UNL A   1      42.941  24.989  28.069  1.00  0.00     0.134 A 
ATOM     49  C   UNL A   1      43.619  26.990  26.956  1.00  0.00     0.134 A 
ATOM     50  F   UNL A   1      42.359  24.345  29.092  1.00  0.00    -0.206 F 
ATOM     51  C   UNL A   1      43.532  24.223  27.061  1.00  0.00     0.040 A 
ATOM     52  C   UNL A   1      44.179  26.239  25.922  1.00  0.00     0.040 A 
ATOM     53  F   UNL A   1      43.702  28.326  26.868  1.00  0.00    -0.206 F 
ATOM     54  C   UNL A   1      44.149  24.848  25.980  1.00  0.00     0.006 A 
ENDBRANCH  26  47
BRANCH  38  55
ATOM     55  C   UNL A   1      45.476  28.737  34.122  1.00  0.00     0.057 A 
ATOM     56  C   UNL A   1      45.806  27.664  34.959  1.00  0.00     0.134 A 
ATOM     57  C   UNL A   1      46.477  29.666  33.820  1.00  0.00     0.134 A 
ATOM     58  F   UNL A   1      44.880  26.752  35.293  1.00  0.00    -0.206 F 
ATOM     59  C   UNL A   1      47.089  27.524  35.482  1.00  0.00     0.040 A 
ATOM     60  C   UNL A   1      47.772  29.519  34.313  1.00  0.00     0.040 A 
ATOM     61  F   UNL A   1      46.221  30.708  33.014  1.00  0.00    -0.206 F 
ATOM     62  C   UNL A   1      48.080  28.446  35.148  1.00  0.00     0.006 A 
ENDBRANCH  38  55
ENDBRANCH  12  13
ENDBRANCH   5   7
ENDBRANCH   4   5
ENDBRANCH   3   4
ENDBRANCH   2   3
ENDBRANCH   1   2
BRANCH   1  63
ATOM     63  C   UNL A   1      32.503  28.893  22.916  1.00  0.00     0.202 C 
BRANCH  63  64
ATOM     64  C   UNL A   1      33.668  28.067  22.377  1.00  0.00     0.261 C 
BRANCH  64  65
ATOM     65  O   UNL A   1      33.552  26.708  22.843  1.00  0.00    -0.459 OA
BRANCH  65  66
ATOM     66  C   UNL A   1      33.006  25.842  21.930  1.00  0.00     0.365 C 
ATOM     67  O   UNL A   1      33.301  25.805  20.749  1.00  0.00    -0.245 OA
BRANCH  66  68
ATOM     68  C   UNL A   1      32.026  24.892  22.628  1.00  0.00     0.304 C 
ATOM     69  C   UNL A   1      32.012  25.140  24.137  1.00  0.00     0.153 C 
ATOM     70  N   UNL A   1      32.361  23.464  22.311  1.00  0.00    -0.317 N 
ATOM     71  S   UNL A   1      31.845  23.495  24.842  1.00  0.00    -0.085 SA
ATOM     72  C   UNL A   1      32.911  22.820  23.525  1.00  0.00     0.303 C 
ATOM     73  H   UNL A   1      33.054  23.433  21.563  1.00  0.00     0.348 HD
ATOM     74  H   UNL A   1      31.521  22.971  22.008  1.00  0.00     0.348 HD
BRANCH  72  75
ATOM     75  C   UNL A   1      34.396  23.074  23.786  1.00  0.00     0.162 A 
ATOM     76  N   UNL A   1      35.325  23.160  22.848  1.00  0.00    -0.242 NA
ATOM     77  S   UNL A   1      34.993  23.327  25.396  1.00  0.00    -0.112 S 
ATOM     78  C   UNL A   1      36.574  23.248  23.427  1.00  0.00     0.132 A 
ATOM     79  C   UNL A   1      36.599  23.232  24.806  1.00  0.00     0.055 A 
BRANCH  79  80
ATOM     80  C   UNL A   1      37.750  23.106  25.693  1.00  0.00    -0.007 A 
ATOM     81  C   UNL A   1      38.464  21.898  25.714  1.00  0.00     0.009 A 
ATOM     82  C   UNL A   1      38.202  24.174  26.475  1.00  0.00     0.009 A 
ATOM     83  C   UNL A   1      39.618  21.766  26.487  1.00  0.00     0.001 A 
ATOM     84  C   UNL A   1      39.357  24.038  27.254  1.00  0.00     0.001 A 
ATOM     85  C   UNL A   1      40.066  22.837  27.256  1.00  0.00     0.000 A 
ENDBRANCH  79  80
ENDBRANCH  72  75
ENDBRANCH  66  68
ENDBRANCH  65  66
ENDBRANCH  64  65
ENDBRANCH  63  64
ENDBRANCH   1  63
TORSDOF 16
ENDMDL
