MODEL 1
REMARK VINA RESULT:     -11.9      0.000      0.000
REMARK SMILES O=C(OCCOCCOC(=O)[C@H]1C[C@](O)(c2ccccc2Cl)[C@@H](c2ccccc2Cl)O1)c1ccc(-c2c3nc(c(-c4c(F)cccc4F)c4ccc([nH]4)c(-c4c(F)cccc4F)c4nc(c(-c5c(F)cccc5F)c5ccc2[nH]5)C=C4)C=C3)cc1
REMARK SMILES IDX 5 1 4 2 3 3 2 4 1 5 32 6 33 7 85 8 34 9 84 10 35 11 36 12
REMARK SMILES IDX 37 13 78 14 38 15 83 16 77 17 79 18 39 19 82 20 76 21 75 22
REMARK SMILES IDX 40 24 66 25 49 26 65 27 50 28 53 29 64 30 80 31 51 32 52 33
REMARK SMILES IDX 63 35 81 36 54 37 41 38 42 39 47 40 43 41 44 42 46 43 48 44
REMARK SMILES IDX 45 45 67 46 68 47 73 48 69 49 70 50 72 51 74 52 71 53 55 54
REMARK SMILES IDX 56 55 61 56 57 57 58 58 60 59 62 60 59 61 6 62 7 63 8 64
REMARK SMILES IDX 9 65 10 66 11 67 12 68 13 69 31 70 14 71 23 72 16 73 17 74
REMARK SMILES IDX 21 75 18 76 20 77 22 78 19 79 15 80 24 82 25 83 29 84 26 85
REMARK SMILES IDX 28 86 30 87 27 88
REMARK H PARENT 79 23 53 34 15 81
REMARK Flexibility Score: inf
ROOT
ATOM      1  C   UNL A   1      43.255  21.627  25.858  1.00  0.00     0.202 C 
ENDROOT
BRANCH   1   2
ATOM      2  C   UNL A   1      44.037  22.391  24.774  1.00  0.00     0.261 C 
BRANCH   2   3
ATOM      3  O   UNL A   1      43.564  23.753  24.661  1.00  0.00    -0.460 OA
BRANCH   3   4
ATOM      4  C   UNL A   1      44.088  24.887  25.185  1.00  0.00     0.338 C 
ATOM      5  O   UNL A   1      45.150  25.315  24.738  1.00  0.00    -0.246 OA
BRANCH   4   6
ATOM      6  C   UNL A   1      43.476  25.592  26.346  1.00  0.00     0.060 A 
ATOM      7  C   UNL A   1      43.725  26.926  26.642  1.00  0.00     0.016 A 
ATOM      8  C   UNL A   1      42.534  24.915  27.139  1.00  0.00     0.016 A 
ATOM      9  C   UNL A   1      43.096  27.587  27.666  1.00  0.00     0.010 A 
ATOM     10  C   UNL A   1      41.871  25.576  28.184  1.00  0.00     0.010 A 
ATOM     11  C   UNL A   1      42.157  26.919  28.434  1.00  0.00    -0.014 A 
BRANCH  11  12
ATOM     12  C   UNL A   1      41.643  27.696  29.564  1.00  0.00     0.031 A 
ATOM     13  C   UNL A   1      42.500  27.792  30.780  1.00  0.00     0.074 A 
ATOM     14  C   UNL A   1      40.599  28.516  29.349  1.00  0.00     0.049 A 
ATOM     15  N   UNL A   1      42.297  28.457  31.882  1.00  0.00    -0.248 NA
ATOM     16  C   UNL A   1      43.786  27.070  30.736  1.00  0.00     0.031 C 
ATOM     17  C   UNL A   1      39.867  28.632  28.081  1.00  0.00     0.029 A 
ATOM     18  N   UNL A   1      40.022  29.457  30.152  1.00  0.00    -0.354 N 
ATOM     19  C   UNL A   1      43.403  28.201  32.677  1.00  0.00     0.074 A 
ATOM     20  C   UNL A   1      44.292  27.345  31.927  1.00  0.00     0.031 C 
ATOM     21  C   UNL A   1      38.953  29.609  28.190  1.00  0.00     0.029 A 
ATOM     22  C   UNL A   1      38.981  30.123  29.553  1.00  0.00     0.049 A 
ATOM     23  H   UNL A   1      40.323  29.641  31.072  1.00  0.00     0.167 HD
ATOM     24  C   UNL A   1      43.628  28.634  33.937  1.00  0.00     0.037 A 
ATOM     25  C   UNL A   1      38.120  31.010  30.081  1.00  0.00     0.037 A 
ATOM     26  C   UNL A   1      42.705  29.485  34.636  1.00  0.00     0.049 A 
ATOM     27  C   UNL A   1      38.314  31.372  31.526  1.00  0.00     0.074 A 
ATOM     28  C   UNL A   1      42.737  29.908  35.949  1.00  0.00     0.029 A 
ATOM     29  N   UNL A   1      41.573  30.045  34.054  1.00  0.00    -0.354 N 
ATOM     30  N   UNL A   1      39.285  31.020  32.339  1.00  0.00    -0.248 NA
ATOM     31  C   UNL A   1      37.290  32.222  32.141  1.00  0.00     0.031 C 
ATOM     32  C   UNL A   1      41.595  30.688  36.174  1.00  0.00     0.029 A 
ATOM     33  C   UNL A   1      40.883  30.795  34.986  1.00  0.00     0.049 A 
ATOM     34  H   UNL A   1      41.303  29.925  33.115  1.00  0.00     0.167 HD
ATOM     35  C   UNL A   1      38.994  31.607  33.560  1.00  0.00     0.074 A 
ATOM     36  C   UNL A   1      37.767  32.360  33.370  1.00  0.00     0.031 C 
ATOM     37  C   UNL A   1      39.666  31.529  34.736  1.00  0.00     0.037 A 
BRANCH  24  38
ATOM     38  C   UNL A   1      44.831  28.081  34.636  1.00  0.00     0.057 A 
ATOM     39  C   UNL A   1      44.805  26.874  35.346  1.00  0.00     0.134 A 
ATOM     40  C   UNL A   1      46.023  28.818  34.658  1.00  0.00     0.134 A 
ATOM     41  F   UNL A   1      43.683  26.141  35.401  1.00  0.00    -0.206 F 
ATOM     42  C   UNL A   1      45.915  26.432  36.072  1.00  0.00     0.040 A 
ATOM     43  C   UNL A   1      47.144  28.377  35.362  1.00  0.00     0.040 A 
ATOM     44  F   UNL A   1      46.109  29.992  34.014  1.00  0.00    -0.206 F 
ATOM     45  C   UNL A   1      47.089  27.184  36.080  1.00  0.00     0.006 A 
ENDBRANCH  24  38
BRANCH  25  46
ATOM     46  C   UNL A   1      36.974  31.519  29.283  1.00  0.00     0.057 A 
ATOM     47  C   UNL A   1      35.851  30.730  29.012  1.00  0.00     0.134 A 
ATOM     48  C   UNL A   1      36.981  32.821  28.758  1.00  0.00     0.134 A 
ATOM     49  F   UNL A   1      35.786  29.470  29.467  1.00  0.00    -0.206 F 
ATOM     50  C   UNL A   1      34.788  31.209  28.242  1.00  0.00     0.040 A 
ATOM     51  C   UNL A   1      35.913  33.322  28.013  1.00  0.00     0.040 A 
ATOM     52  F   UNL A   1      38.026  33.634  28.975  1.00  0.00    -0.206 F 
ATOM     53  C   UNL A   1      34.814  32.512  27.746  1.00  0.00     0.006 A 
ENDBRANCH  25  46
BRANCH  37  54
ATOM     54  C   UNL A   1      39.094  32.300  35.882  1.00  0.00     0.057 A 
ATOM     55  C   UNL A   1      38.239  31.705  36.816  1.00  0.00     0.134 A 
ATOM     56  C   UNL A   1      39.451  33.640  36.080  1.00  0.00     0.134 A 
ATOM     57  F   UNL A   1      37.853  30.428  36.668  1.00  0.00    -0.206 F 
ATOM     58  C   UNL A   1      37.743  32.423  37.903  1.00  0.00     0.040 A 
ATOM     59  C   UNL A   1      38.983  34.359  37.177  1.00  0.00     0.040 A 
ATOM     60  F   UNL A   1      40.275  34.259  35.221  1.00  0.00    -0.206 F 
ATOM     61  C   UNL A   1      38.123  33.751  38.090  1.00  0.00     0.006 A 
ENDBRANCH  37  54
ENDBRANCH  11  12
ENDBRANCH   4   6
ENDBRANCH   3   4
ENDBRANCH   2   3
ENDBRANCH   1   2
BRANCH   1  62
ATOM     62  O   UNL A   1      41.975  21.104  25.494  1.00  0.00    -0.374 OA
BRANCH  62  63
ATOM     63  C   UNL A   1      40.954  21.202  26.491  1.00  0.00     0.202 C 
BRANCH  63  64
ATOM     64  C   UNL A   1      39.991  22.359  26.222  1.00  0.00     0.261 C 
BRANCH  64  65
ATOM     65  O   UNL A   1      38.639  21.890  26.144  1.00  0.00    -0.461 OA
BRANCH  65  66
ATOM     66  C   UNL A   1      37.776  22.609  25.380  1.00  0.00     0.335 C 
ATOM     67  O   UNL A   1      37.708  23.833  25.347  1.00  0.00    -0.249 OA
BRANCH  66  68
ATOM     68  C   UNL A   1      36.941  21.696  24.475  1.00  0.00     0.232 C 
ATOM     69  C   UNL A   1      36.127  20.708  25.292  1.00  0.00     0.087 C 
ATOM     70  O   UNL A   1      36.067  22.375  23.578  1.00  0.00    -0.355 OA
ATOM     71  C   UNL A   1      34.663  20.979  24.950  1.00  0.00     0.124 C 
ATOM     72  C   UNL A   1      34.697  22.231  24.004  1.00  0.00     0.187 C 
BRANCH  71  73
ATOM     73  C   UNL A   1      34.073  19.664  24.394  1.00  0.00     0.005 A 
ATOM     74  C   UNL A   1      34.796  18.462  24.615  1.00  0.00     0.008 A 
ATOM     75  C   UNL A   1      32.931  19.561  23.571  1.00  0.00     0.047 A 
ATOM     76  C   UNL A   1      34.375  17.229  24.108  1.00  0.00     0.001 A 
ATOM     77  C   UNL A   1      32.501  18.316  23.083  1.00  0.00     0.021 A 
ATOM     78  Cl  UNL A   1      32.018  20.910  22.996  1.00  0.00    -0.084 Cl
ATOM     79  C   UNL A   1      33.216  17.155  23.354  1.00  0.00     0.002 A 
ENDBRANCH  71  73
BRANCH  71  80
ATOM     80  O   UNL A   1      33.960  21.267  26.169  1.00  0.00    -0.382 OA
ATOM     81  H   UNL A   1      34.260  20.663  26.866  1.00  0.00     0.212 HD
ENDBRANCH  71  80
BRANCH  72  82
ATOM     82  C   UNL A   1      34.230  23.639  24.381  1.00  0.00     0.003 A 
ATOM     83  C   UNL A   1      34.403  24.208  25.653  1.00  0.00     0.008 A 
ATOM     84  C   UNL A   1      33.656  24.480  23.398  1.00  0.00     0.046 A 
ATOM     85  C   UNL A   1      34.036  25.529  25.940  1.00  0.00     0.000 A 
ATOM     86  C   UNL A   1      33.290  25.804  23.684  1.00  0.00     0.021 A 
ATOM     87  Cl  UNL A   1      33.362  23.945  21.774  1.00  0.00    -0.084 Cl
ATOM     88  C   UNL A   1      33.485  26.332  24.954  1.00  0.00     0.002 A 
ENDBRANCH  72  82
ENDBRANCH  66  68
ENDBRANCH  65  66
ENDBRANCH  64  65
ENDBRANCH  63  64
ENDBRANCH  62  63
ENDBRANCH   1  62
TORSDOF 17
ENDMDL
MODEL 2
REMARK VINA RESULT:     -11.7      0.663      2.969
REMARK SMILES O=C(OCCOCCOC(=O)[C@H]1C[C@](O)(c2ccccc2Cl)[C@@H](c2ccccc2Cl)O1)c1ccc(-c2c3nc(c(-c4c(F)cccc4F)c4ccc([nH]4)c(-c4c(F)cccc4F)c4nc(c(-c5c(F)cccc5F)c5ccc2[nH]5)C=C4)C=C3)cc1
REMARK SMILES IDX 5 1 4 2 3 3 2 4 1 5 32 6 33 7 85 8 34 9 84 10 35 11 36 12
REMARK SMILES IDX 37 13 78 14 38 15 83 16 77 17 79 18 39 19 82 20 76 21 75 22
REMARK SMILES IDX 40 24 66 25 49 26 65 27 50 28 53 29 64 30 80 31 51 32 52 33
REMARK SMILES IDX 63 35 81 36 54 37 41 38 42 39 47 40 43 41 44 42 46 43 48 44
REMARK SMILES IDX 45 45 67 46 68 47 73 48 69 49 70 50 72 51 74 52 71 53 55 54
REMARK SMILES IDX 56 55 61 56 57 57 58 58 60 59 62 60 59 61 6 62 7 63 8 64
REMARK SMILES IDX 9 65 10 66 11 67 12 68 13 69 31 70 14 71 23 72 16 73 17 74
REMARK SMILES IDX 21 75 18 76 20 77 22 78 19 79 15 80 24 82 25 83 29 84 26 85
REMARK SMILES IDX 28 86 30 87 27 88
REMARK H PARENT 79 23 53 34 15 81
REMARK Flexibility Score: inf
ROOT
ATOM      1  C   UNL A   1      43.528  21.420  25.805  1.00  0.00     0.202 C 
ENDROOT
BRANCH   1   2
ATOM      2  C   UNL A   1      44.072  22.257  24.633  1.00  0.00     0.261 C 
BRANCH   2   3
ATOM      3  O   UNL A   1      43.518  23.593  24.653  1.00  0.00    -0.460 OA
BRANCH   3   4
ATOM      4  C   UNL A   1      44.047  24.731  25.161  1.00  0.00     0.338 C 
ATOM      5  O   UNL A   1      45.107  25.152  24.702  1.00  0.00    -0.246 OA
BRANCH   4   6
ATOM      6  C   UNL A   1      43.444  25.451  26.318  1.00  0.00     0.060 A 
ATOM      7  C   UNL A   1      43.711  26.782  26.608  1.00  0.00     0.016 A 
ATOM      8  C   UNL A   1      42.494  24.789  27.115  1.00  0.00     0.016 A 
ATOM      9  C   UNL A   1      43.091  27.457  27.628  1.00  0.00     0.010 A 
ATOM     10  C   UNL A   1      41.839  25.464  28.156  1.00  0.00     0.010 A 
ATOM     11  C   UNL A   1      42.143  26.805  28.399  1.00  0.00    -0.014 A 
BRANCH  11  12
ATOM     12  C   UNL A   1      41.639  27.594  29.525  1.00  0.00     0.031 A 
ATOM     13  C   UNL A   1      42.502  27.694  30.737  1.00  0.00     0.074 A 
ATOM     14  C   UNL A   1      40.600  28.421  29.307  1.00  0.00     0.049 A 
ATOM     15  N   UNL A   1      42.308  28.369  31.834  1.00  0.00    -0.248 NA
ATOM     16  C   UNL A   1      43.782  26.962  30.694  1.00  0.00     0.031 C 
ATOM     17  C   UNL A   1      39.864  28.532  28.042  1.00  0.00     0.029 A 
ATOM     18  N   UNL A   1      40.033  29.372  30.106  1.00  0.00    -0.354 N 
ATOM     19  C   UNL A   1      43.416  28.111  32.627  1.00  0.00     0.074 A 
ATOM     20  C   UNL A   1      44.295  27.243  31.880  1.00  0.00     0.031 C 
ATOM     21  C   UNL A   1      38.958  29.516  28.146  1.00  0.00     0.029 A 
ATOM     22  C   UNL A   1      38.994  30.040  29.505  1.00  0.00     0.049 A 
ATOM     23  H   UNL A   1      40.339  29.560  31.023  1.00  0.00     0.167 HD
ATOM     24  C   UNL A   1      43.648  28.552  33.883  1.00  0.00     0.037 A 
ATOM     25  C   UNL A   1      38.143  30.938  30.030  1.00  0.00     0.037 A 
ATOM     26  C   UNL A   1      42.735  29.414  34.579  1.00  0.00     0.049 A 
ATOM     27  C   UNL A   1      38.345  31.310  31.471  1.00  0.00     0.074 A 
ATOM     28  C   UNL A   1      42.774  29.848  35.889  1.00  0.00     0.029 A 
ATOM     29  N   UNL A   1      41.604  29.979  33.997  1.00  0.00    -0.354 N 
ATOM     30  N   UNL A   1      39.316  30.957  32.283  1.00  0.00    -0.248 NA
ATOM     31  C   UNL A   1      37.329  32.171  32.084  1.00  0.00     0.031 C 
ATOM     32  C   UNL A   1      41.639  30.638  36.112  1.00  0.00     0.029 A 
ATOM     33  C   UNL A   1      40.923  30.740  34.926  1.00  0.00     0.049 A 
ATOM     34  H   UNL A   1      41.329  29.853  33.060  1.00  0.00     0.167 HD
ATOM     35  C   UNL A   1      39.034  31.555  33.501  1.00  0.00     0.074 A 
ATOM     36  C   UNL A   1      37.813  32.316  33.310  1.00  0.00     0.031 C 
ATOM     37  C   UNL A   1      39.710  31.481  34.674  1.00  0.00     0.037 A 
BRANCH  24  38
ATOM     38  C   UNL A   1      44.850  27.996  34.581  1.00  0.00     0.057 A 
ATOM     39  C   UNL A   1      44.817  26.797  35.304  1.00  0.00     0.134 A 
ATOM     40  C   UNL A   1      46.049  28.721  34.589  1.00  0.00     0.134 A 
ATOM     41  F   UNL A   1      43.689  26.074  35.374  1.00  0.00    -0.206 F 
ATOM     42  C   UNL A   1      45.927  26.353  36.030  1.00  0.00     0.040 A 
ATOM     43  C   UNL A   1      47.169  28.278  35.292  1.00  0.00     0.040 A 
ATOM     44  F   UNL A   1      46.142  29.888  33.932  1.00  0.00    -0.206 F 
ATOM     45  C   UNL A   1      47.108  27.093  36.023  1.00  0.00     0.006 A 
ENDBRANCH  24  38
BRANCH  25  46
ATOM     46  C   UNL A   1      36.997  31.449  29.233  1.00  0.00     0.057 A 
ATOM     47  C   UNL A   1      36.979  32.745  28.707  1.00  0.00     0.134 A 
ATOM     48  C   UNL A   1      35.873  30.644  28.986  1.00  0.00     0.134 A 
ATOM     49  F   UNL A   1      38.011  33.574  28.920  1.00  0.00    -0.206 F 
ATOM     50  C   UNL A   1      35.887  33.225  27.978  1.00  0.00     0.040 A 
ATOM     51  C   UNL A   1      34.790  31.101  28.235  1.00  0.00     0.040 A 
ATOM     52  F   UNL A   1      35.818  29.392  29.462  1.00  0.00    -0.206 F 
ATOM     53  C   UNL A   1      34.791  32.400  27.735  1.00  0.00     0.006 A 
ENDBRANCH  25  46
BRANCH  37  54
ATOM     54  C   UNL A   1      39.148  32.266  35.817  1.00  0.00     0.057 A 
ATOM     55  C   UNL A   1      38.279  31.689  36.748  1.00  0.00     0.134 A 
ATOM     56  C   UNL A   1      39.531  33.598  36.014  1.00  0.00     0.134 A 
ATOM     57  F   UNL A   1      37.868  30.419  36.601  1.00  0.00    -0.206 F 
ATOM     58  C   UNL A   1      37.791  32.418  37.832  1.00  0.00     0.040 A 
ATOM     59  C   UNL A   1      39.072  34.329  37.108  1.00  0.00     0.040 A 
ATOM     60  F   UNL A   1      40.370  34.200  35.158  1.00  0.00    -0.206 F 
ATOM     61  C   UNL A   1      38.196  33.739  38.018  1.00  0.00     0.006 A 
ENDBRANCH  37  54
ENDBRANCH  11  12
ENDBRANCH   4   6
ENDBRANCH   3   4
ENDBRANCH   2   3
ENDBRANCH   1   2
BRANCH   1  62
ATOM     62  O   UNL A   1      42.220  20.860  25.656  1.00  0.00    -0.374 OA
BRANCH  62  63
ATOM     63  C   UNL A   1      41.157  21.582  26.285  1.00  0.00     0.202 C 
BRANCH  63  64
ATOM     64  C   UNL A   1      39.795  20.927  26.052  1.00  0.00     0.261 C 
BRANCH  64  65
ATOM     65  O   UNL A   1      38.734  21.872  26.244  1.00  0.00    -0.461 OA
BRANCH  65  66
ATOM     66  C   UNL A   1      37.712  21.848  25.350  1.00  0.00     0.335 C 
ATOM     67  O   UNL A   1      37.602  21.057  24.420  1.00  0.00    -0.249 OA
BRANCH  66  68
ATOM     68  C   UNL A   1      36.641  22.885  25.703  1.00  0.00     0.232 C 
ATOM     69  C   UNL A   1      36.390  23.833  24.543  1.00  0.00     0.087 C 
ATOM     70  O   UNL A   1      35.393  22.343  26.125  1.00  0.00    -0.355 OA
ATOM     71  C   UNL A   1      34.916  23.674  24.174  1.00  0.00     0.124 C 
ATOM     72  C   UNL A   1      34.395  22.518  25.099  1.00  0.00     0.187 C 
BRANCH  71  73
ATOM     73  C   UNL A   1      34.258  25.066  24.311  1.00  0.00     0.005 A 
ATOM     74  C   UNL A   1      34.328  25.716  25.571  1.00  0.00     0.008 A 
ATOM     75  C   UNL A   1      33.482  25.706  23.322  1.00  0.00     0.047 A 
ATOM     76  C   UNL A   1      33.720  26.951  25.812  1.00  0.00     0.001 A 
ATOM     77  C   UNL A   1      32.892  26.957  23.563  1.00  0.00     0.021 A 
ATOM     78  Cl  UNL A   1      33.085  25.009  21.791  1.00  0.00    -0.084 Cl
ATOM     79  C   UNL A   1      33.014  27.580  24.800  1.00  0.00     0.002 A 
ENDBRANCH  71  73
BRANCH  71  80
ATOM     80  O   UNL A   1      34.833  23.309  22.788  1.00  0.00    -0.382 OA
ATOM     81  H   UNL A   1      34.272  23.946  22.319  1.00  0.00     0.212 HD
ENDBRANCH  71  80
BRANCH  72  82
ATOM     82  C   UNL A   1      34.028  21.107  24.632  1.00  0.00     0.003 A 
ATOM     83  C   UNL A   1      34.782  19.962  24.933  1.00  0.00     0.008 A 
ATOM     84  C   UNL A   1      32.825  20.889  23.920  1.00  0.00     0.046 A 
ATOM     85  C   UNL A   1      34.374  18.675  24.557  1.00  0.00     0.000 A 
ATOM     86  C   UNL A   1      32.414  19.600  23.546  1.00  0.00     0.021 A 
ATOM     87  Cl  UNL A   1      31.771  22.186  23.457  1.00  0.00    -0.084 Cl
ATOM     88  C   UNL A   1      33.186  18.491  23.870  1.00  0.00     0.002 A 
ENDBRANCH  72  82
ENDBRANCH  66  68
ENDBRANCH  65  66
ENDBRANCH  64  65
ENDBRANCH  63  64
ENDBRANCH  62  63
ENDBRANCH   1  62
TORSDOF 17
ENDMDL
MODEL 3
REMARK VINA RESULT:     -11.7      4.139      9.675
REMARK SMILES O=C(OCCOCCOC(=O)[C@H]1C[C@](O)(c2ccccc2Cl)[C@@H](c2ccccc2Cl)O1)c1ccc(-c2c3nc(c(-c4c(F)cccc4F)c4ccc([nH]4)c(-c4c(F)cccc4F)c4nc(c(-c5c(F)cccc5F)c5ccc2[nH]5)C=C4)C=C3)cc1
REMARK SMILES IDX 5 1 4 2 3 3 2 4 1 5 32 6 33 7 85 8 34 9 84 10 35 11 36 12
REMARK SMILES IDX 37 13 78 14 38 15 83 16 77 17 79 18 39 19 82 20 76 21 75 22
REMARK SMILES IDX 40 24 66 25 49 26 65 27 50 28 53 29 64 30 80 31 51 32 52 33
REMARK SMILES IDX 63 35 81 36 54 37 41 38 42 39 47 40 43 41 44 42 46 43 48 44
REMARK SMILES IDX 45 45 67 46 68 47 73 48 69 49 70 50 72 51 74 52 71 53 55 54
REMARK SMILES IDX 56 55 61 56 57 57 58 58 60 59 62 60 59 61 6 62 7 63 8 64
REMARK SMILES IDX 9 65 10 66 11 67 12 68 13 69 31 70 14 71 23 72 16 73 17 74
REMARK SMILES IDX 21 75 18 76 20 77 22 78 19 79 15 80 24 82 25 83 29 84 26 85
REMARK SMILES IDX 28 86 30 87 27 88
REMARK H PARENT 79 23 53 34 15 81
REMARK Flexibility Score: inf
ROOT
ATOM      1  C   UNL A   1      33.355  34.393  28.780  1.00  0.00     0.202 C 
ENDROOT
BRANCH   1   2
ATOM      2  C   UNL A   1      32.915  35.670  29.519  1.00  0.00     0.261 C 
BRANCH   2   3
ATOM      3  O   UNL A   1      32.315  35.347  30.794  1.00  0.00    -0.460 OA
BRANCH   3   4
ATOM      4  C   UNL A   1      32.840  35.449  32.038  1.00  0.00     0.338 C 
ATOM      5  O   UNL A   1      32.310  36.207  32.848  1.00  0.00    -0.246 OA
BRANCH   4   6
ATOM      6  C   UNL A   1      34.092  34.749  32.442  1.00  0.00     0.060 A 
ATOM      7  C   UNL A   1      34.104  33.483  33.013  1.00  0.00     0.016 A 
ATOM      8  C   UNL A   1      35.332  35.348  32.161  1.00  0.00     0.016 A 
ATOM      9  C   UNL A   1      35.265  32.815  33.309  1.00  0.00     0.010 A 
ATOM     10  C   UNL A   1      36.531  34.677  32.445  1.00  0.00     0.010 A 
ATOM     11  C   UNL A   1      36.483  33.403  33.015  1.00  0.00    -0.014 A 
BRANCH  11  12
ATOM     12  C   UNL A   1      37.645  32.644  33.482  1.00  0.00     0.031 A 
ATOM     13  C   UNL A   1      38.265  31.678  32.530  1.00  0.00     0.074 A 
ATOM     14  C   UNL A   1      38.270  33.062  34.598  1.00  0.00     0.049 A 
ATOM     15  N   UNL A   1      39.323  30.934  32.682  1.00  0.00    -0.248 NA
ATOM     16  C   UNL A   1      37.628  31.563  31.204  1.00  0.00     0.031 C 
ATOM     17  C   UNL A   1      37.825  34.175  35.446  1.00  0.00     0.029 A 
ATOM     18  N   UNL A   1      39.443  32.658  35.168  1.00  0.00    -0.354 N 
ATOM     19  C   UNL A   1      39.454  30.231  31.494  1.00  0.00     0.074 A 
ATOM     20  C   UNL A   1      38.389  30.655  30.616  1.00  0.00     0.031 C 
ATOM     21  C   UNL A   1      38.732  34.378  36.414  1.00  0.00     0.029 A 
ATOM     22  C   UNL A   1      39.768  33.360  36.304  1.00  0.00     0.049 A 
ATOM     23  H   UNL A   1      40.002  31.935  34.801  1.00  0.00     0.167 HD
ATOM     24  C   UNL A   1      40.379  29.294  31.192  1.00  0.00     0.037 A 
ATOM     25  C   UNL A   1      40.769  33.152  37.175  1.00  0.00     0.037 A 
ATOM     26  C   UNL A   1      41.416  28.911  32.107  1.00  0.00     0.049 A 
ATOM     27  C   UNL A   1      41.707  32.016  36.881  1.00  0.00     0.074 A 
ATOM     28  C   UNL A   1      42.350  27.901  31.990  1.00  0.00     0.029 A 
ATOM     29  N   UNL A   1      41.650  29.543  33.324  1.00  0.00    -0.354 N 
ATOM     30  N   UNL A   1      41.754  31.243  35.820  1.00  0.00    -0.248 NA
ATOM     31  C   UNL A   1      42.705  31.696  37.906  1.00  0.00     0.031 C 
ATOM     32  C   UNL A   1      43.120  27.893  33.161  1.00  0.00     0.029 A 
ATOM     33  C   UNL A   1      42.700  28.932  33.981  1.00  0.00     0.049 A 
ATOM     34  H   UNL A   1      41.142  30.313  33.667  1.00  0.00     0.167 HD
ATOM     35  C   UNL A   1      42.788  30.348  36.043  1.00  0.00     0.074 A 
ATOM     36  C   UNL A   1      43.358  30.694  37.333  1.00  0.00     0.031 C 
ATOM     37  C   UNL A   1      43.227  29.327  35.266  1.00  0.00     0.037 A 
BRANCH  24  38
ATOM     38  C   UNL A   1      40.204  28.568  29.894  1.00  0.00     0.057 A 
ATOM     39  C   UNL A   1      39.406  27.423  29.771  1.00  0.00     0.134 A 
ATOM     40  C   UNL A   1      40.912  28.987  28.760  1.00  0.00     0.134 A 
ATOM     41  F   UNL A   1      38.735  26.943  30.829  1.00  0.00    -0.206 F 
ATOM     42  C   UNL A   1      39.341  26.706  28.572  1.00  0.00     0.040 A 
ATOM     43  C   UNL A   1      40.837  28.292  27.552  1.00  0.00     0.040 A 
ATOM     44  F   UNL A   1      41.708  30.065  28.815  1.00  0.00    -0.206 F 
ATOM     45  C   UNL A   1      40.056  27.142  27.458  1.00  0.00     0.006 A 
ENDBRANCH  24  38
BRANCH  25  46
ATOM     46  C   UNL A   1      40.866  33.956  38.422  1.00  0.00     0.057 A 
ATOM     47  C   UNL A   1      40.089  33.673  39.549  1.00  0.00     0.134 A 
ATOM     48  C   UNL A   1      41.743  35.049  38.510  1.00  0.00     0.134 A 
ATOM     49  F   UNL A   1      39.216  32.655  39.529  1.00  0.00    -0.206 F 
ATOM     50  C   UNL A   1      40.169  34.449  40.709  1.00  0.00     0.040 A 
ATOM     51  C   UNL A   1      41.855  35.814  39.672  1.00  0.00     0.040 A 
ATOM     52  F   UNL A   1      42.517  35.383  37.467  1.00  0.00    -0.206 F 
ATOM     53  C   UNL A   1      41.060  35.519  40.774  1.00  0.00     0.006 A 
ENDBRANCH  25  46
BRANCH  37  54
ATOM     54  C   UNL A   1      44.390  28.544  35.788  1.00  0.00     0.057 A 
ATOM     55  C   UNL A   1      44.213  27.403  36.578  1.00  0.00     0.134 A 
ATOM     56  C   UNL A   1      45.697  28.910  35.447  1.00  0.00     0.134 A 
ATOM     57  F   UNL A   1      42.983  27.014  36.947  1.00  0.00    -0.206 F 
ATOM     58  C   UNL A   1      45.303  26.659  37.028  1.00  0.00     0.040 A 
ATOM     59  C   UNL A   1      46.792  28.159  35.868  1.00  0.00     0.040 A 
ATOM     60  F   UNL A   1      45.926  29.990  34.684  1.00  0.00    -0.206 F 
ATOM     61  C   UNL A   1      46.596  27.031  36.664  1.00  0.00     0.006 A 
ENDBRANCH  37  54
ENDBRANCH  11  12
ENDBRANCH   4   6
ENDBRANCH   3   4
ENDBRANCH   2   3
ENDBRANCH   1   2
BRANCH   1  62
ATOM     62  O   UNL A   1      34.745  34.264  28.470  1.00  0.00    -0.374 OA
BRANCH  62  63
ATOM     63  C   UNL A   1      35.167  32.974  28.019  1.00  0.00     0.202 C 
BRANCH  63  64
ATOM     64  C   UNL A   1      34.031  31.952  28.043  1.00  0.00     0.261 C 
BRANCH  64  65
ATOM     65  O   UNL A   1      34.177  30.999  26.981  1.00  0.00    -0.461 OA
BRANCH  65  66
ATOM     66  C   UNL A   1      33.650  29.763  27.179  1.00  0.00     0.335 C 
ATOM     67  O   UNL A   1      34.230  28.821  27.708  1.00  0.00    -0.249 OA
BRANCH  66  68
ATOM     68  C   UNL A   1      32.184  29.707  26.738  1.00  0.00     0.232 C 
ATOM     69  C   UNL A   1      32.028  30.139  25.290  1.00  0.00     0.087 C 
ATOM     70  O   UNL A   1      31.553  28.441  26.906  1.00  0.00    -0.355 OA
ATOM     71  C   UNL A   1      31.419  28.946  24.554  1.00  0.00     0.124 C 
ATOM     72  C   UNL A   1      31.355  27.803  25.628  1.00  0.00     0.187 C 
BRANCH  71  73
ATOM     73  C   UNL A   1      30.092  29.427  23.925  1.00  0.00     0.005 A 
ATOM     74  C   UNL A   1      29.755  30.800  24.048  1.00  0.00     0.008 A 
ATOM     75  C   UNL A   1      29.115  28.596  23.338  1.00  0.00     0.047 A 
ATOM     76  C   UNL A   1      28.554  31.324  23.560  1.00  0.00     0.001 A 
ATOM     77  C   UNL A   1      27.920  29.131  22.830  1.00  0.00     0.021 A 
ATOM     78  Cl  UNL A   1      29.213  26.872  23.270  1.00  0.00    -0.084 Cl
ATOM     79  C   UNL A   1      27.642  30.489  22.936  1.00  0.00     0.002 A 
ENDBRANCH  71  73
BRANCH  71  80
ATOM     80  O   UNL A   1      32.290  28.592  23.469  1.00  0.00    -0.382 OA
ATOM     81  H   UNL A   1      32.354  27.626  23.407  1.00  0.00     0.212 HD
ENDBRANCH  71  80
BRANCH  72  82
ATOM     82  C   UNL A   1      32.241  26.554  25.646  1.00  0.00     0.003 A 
ATOM     83  C   UNL A   1      33.627  26.574  25.425  1.00  0.00     0.008 A 
ATOM     84  C   UNL A   1      31.683  25.297  25.979  1.00  0.00     0.046 A 
ATOM     85  C   UNL A   1      34.419  25.423  25.529  1.00  0.00     0.000 A 
ATOM     86  C   UNL A   1      32.476  24.144  26.086  1.00  0.00     0.021 A 
ATOM     87  Cl  UNL A   1      29.988  25.083  26.279  1.00  0.00    -0.084 Cl
ATOM     88  C   UNL A   1      33.846  24.208  25.867  1.00  0.00     0.002 A 
ENDBRANCH  72  82
ENDBRANCH  66  68
ENDBRANCH  65  66
ENDBRANCH  64  65
ENDBRANCH  63  64
ENDBRANCH  62  63
ENDBRANCH   1  62
TORSDOF 17
ENDMDL
