MODEL 1
REMARK VINA RESULT:     -11.2      0.000      0.000
REMARK SMILES Cc1cc(C)c2c(=O)n(CCCC(=O)OCCOCCOC(=O)c3ccc(-c4c5nc(c(-c6c(F)cccc6F)c6ccc([nH]6)c(-c6c(F)cccc6F)c6nc(c(-c7c(F)cccc7F)c7ccc4[nH]7)C=C6)C=C5)cc3)sc2n1
REMARK SMILES IDX 17 1 16 2 15 3 13 4 14 5 12 6 11 7 10 8 9 9 1 10 2 11 3 12
REMARK SMILES IDX 80 13 4 14 79 15 5 16 6 17 78 18 7 19 8 20 18 21 19 22 20 23
REMARK SMILES IDX 21 24 22 25 23 26 24 27 25 28 77 29 26 30 76 31 27 32 28 33
REMARK SMILES IDX 29 34 70 35 30 36 75 37 69 38 71 39 31 40 74 41 68 42 67 43
REMARK SMILES IDX 32 45 58 46 41 47 57 48 42 49 45 50 56 51 72 52 43 53 44 54
REMARK SMILES IDX 55 56 73 57 46 58 33 59 34 60 39 61 35 62 36 63 38 64 40 65
REMARK SMILES IDX 37 66 59 67 60 68 65 69 61 70 62 71 64 72 66 73 63 74 47 75
REMARK SMILES IDX 48 76 53 77 49 78 50 79 52 80 54 81 51 82
REMARK H PARENT 71 44 45 55
REMARK Flexibility Score: inf
ROOT
ATOM      1  C   UNL A   1      36.012  31.546  32.000  1.00  0.00     0.202 C 
ENDROOT
BRANCH   1   2
ATOM      2  C   UNL A   1      36.320  32.238  30.671  1.00  0.00     0.261 C 
BRANCH   2   3
ATOM      3  O   UNL A   1      35.127  32.482  29.868  1.00  0.00    -0.463 OA
BRANCH   3   4
ATOM      4  C   UNL A   1      35.070  32.068  28.562  1.00  0.00     0.305 C 
ATOM      5  O   UNL A   1      34.955  32.852  27.626  1.00  0.00    -0.252 OA
BRANCH   4   6
ATOM      6  C   UNL A   1      35.418  30.547  28.323  1.00  0.00     0.124 C 
BRANCH   6   7
ATOM      7  C   UNL A   1      34.773  29.623  27.247  1.00  0.00     0.035 C 
BRANCH   7   8
ATOM      8  C   UNL A   1      33.375  30.011  26.770  1.00  0.00     0.139 C 
BRANCH   8   9
ATOM      9  N   UNL A   1      32.814  28.973  25.951  1.00  0.00    -0.262 N 
ATOM     10  C   UNL A   1      31.028  23.589  23.966  1.00  0.00     0.067 C 
ATOM     11  C   UNL A   1      31.100  25.051  24.216  1.00  0.00     0.039 A 
ATOM     12  C   UNL A   1      30.216  25.954  23.613  1.00  0.00     0.027 A 
ATOM     13  N   UNL A   1      32.067  25.438  25.041  1.00  0.00    -0.241 NA
ATOM     14  C   UNL A   1      30.299  27.332  23.877  1.00  0.00    -0.033 A 
ATOM     15  C   UNL A   1      32.131  26.754  25.216  1.00  0.00     0.146 A 
ATOM     16  C   UNL A   1      29.397  28.319  23.233  1.00  0.00     0.045 C 
ATOM     17  C   UNL A   1      31.292  27.730  24.728  1.00  0.00     0.081 A 
ATOM     18  S   UNL A   1      33.541  27.435  25.901  1.00  0.00    -0.035 S 
ATOM     19  C   UNL A   1      31.682  29.086  25.180  1.00  0.00     0.270 A 
ATOM     20  O   UNL A   1      31.077  30.111  24.919  1.00  0.00    -0.268 OA
ENDBRANCH   8   9
ENDBRANCH   7   8
ENDBRANCH   6   7
ENDBRANCH   4   6
ENDBRANCH   3   4
ENDBRANCH   2   3
ENDBRANCH   1   2
BRANCH   1  21
ATOM     21  O   UNL A   1      36.278  30.172  32.270  1.00  0.00    -0.374 OA
BRANCH  21  22
ATOM     22  C   UNL A   1      37.604  29.943  32.733  1.00  0.00     0.202 C 
BRANCH  22  23
ATOM     23  C   UNL A   1      38.726  29.285  31.925  1.00  0.00     0.261 C 
BRANCH  23  24
ATOM     24  O   UNL A   1      38.375  28.831  30.591  1.00  0.00    -0.460 OA
BRANCH  24  25
ATOM     25  C   UNL A   1      38.910  29.545  29.563  1.00  0.00     0.338 C 
ATOM     26  O   UNL A   1      39.540  30.581  29.693  1.00  0.00    -0.246 OA
BRANCH  25  27
ATOM     27  C   UNL A   1      38.764  28.833  28.253  1.00  0.00     0.060 A 
ATOM     28  C   UNL A   1      38.527  27.505  28.398  1.00  0.00     0.016 A 
ATOM     29  C   UNL A   1      39.788  29.134  27.329  1.00  0.00     0.016 A 
ATOM     30  C   UNL A   1      39.788  26.673  28.068  1.00  0.00     0.010 A 
ATOM     31  C   UNL A   1      40.710  28.193  26.769  1.00  0.00     0.010 A 
ATOM     32  C   UNL A   1      41.271  27.291  27.657  1.00  0.00    -0.014 A 
BRANCH  32  33
ATOM     33  C   UNL A   1      43.139  26.877  27.189  1.00  0.00     0.031 A 
ATOM     34  C   UNL A   1      42.194  25.107  27.195  1.00  0.00     0.074 A 
ATOM     35  C   UNL A   1      44.681  27.599  26.874  1.00  0.00     0.049 A 
ATOM     36  N   UNL A   1      41.812  24.389  28.265  1.00  0.00    -0.248 NA
ATOM     37  C   UNL A   1      40.867  24.240  26.261  1.00  0.00     0.031 C 
ATOM     38  C   UNL A   1      45.790  29.116  26.445  1.00  0.00     0.029 A 
ATOM     39  N   UNL A   1      46.362  27.258  26.830  1.00  0.00    -0.354 N 
ATOM     40  C   UNL A   1      41.700  23.034  27.735  1.00  0.00     0.074 A 
ATOM     41  C   UNL A   1      40.859  22.937  26.635  1.00  0.00     0.031 C 
ATOM     42  C   UNL A   1      47.146  29.238  25.851  1.00  0.00     0.029 A 
ATOM     43  C   UNL A   1      47.485  27.843  25.866  1.00  0.00     0.049 A 
ATOM     44  H   UNL A   1      46.677  26.606  27.498  1.00  0.00     0.167 HD
ATOM     45  C   UNL A   1      42.835  22.333  27.603  1.00  0.00     0.037 A 
ATOM     46  C   UNL A   1      48.496  27.177  25.119  1.00  0.00     0.037 A 
ATOM     47  C   UNL A   1      43.763  22.967  28.447  1.00  0.00     0.049 A 
ATOM     48  C   UNL A   1      48.102  25.849  25.604  1.00  0.00     0.074 A 
ATOM     49  C   UNL A   1      43.612  23.364  29.756  1.00  0.00     0.029 A 
ATOM     50  N   UNL A   1      44.563  23.857  27.828  1.00  0.00    -0.354 N 
ATOM     51  N   UNL A   1      48.226  25.485  26.863  1.00  0.00    -0.248 NA
ATOM     52  C   UNL A   1      46.951  25.374  24.837  1.00  0.00     0.031 C 
ATOM     53  C   UNL A   1      44.452  24.463  29.941  1.00  0.00     0.029 A 
ATOM     54  C   UNL A   1      45.124  24.671  28.752  1.00  0.00     0.049 A 
ATOM     55  H   UNL A   1      44.715  23.908  26.858  1.00  0.00     0.167 HD
ATOM     56  C   UNL A   1      46.945  25.050  27.221  1.00  0.00     0.074 A 
ATOM     57  C   UNL A   1      46.231  24.899  25.857  1.00  0.00     0.031 C 
ATOM     58  C   UNL A   1      46.310  25.380  28.439  1.00  0.00     0.037 A 
BRANCH  45  59
ATOM     59  C   UNL A   1      43.184  21.341  26.567  1.00  0.00     0.057 A 
ATOM     60  C   UNL A   1      42.657  20.105  26.897  1.00  0.00     0.134 A 
ATOM     61  C   UNL A   1      43.984  21.434  25.402  1.00  0.00     0.134 A 
ATOM     62  F   UNL A   1      41.868  19.983  27.975  1.00  0.00    -0.206 F 
ATOM     63  C   UNL A   1      42.910  18.985  26.145  1.00  0.00     0.040 A 
ATOM     64  C   UNL A   1      44.225  20.308  24.614  1.00  0.00     0.040 A 
ATOM     65  F   UNL A   1      44.558  22.578  24.991  1.00  0.00    -0.206 F 
ATOM     66  C   UNL A   1      43.693  19.080  25.001  1.00  0.00     0.006 A 
ENDBRANCH  45  59
BRANCH  46  67
ATOM     67  C   UNL A   1      48.963  27.451  23.620  1.00  0.00     0.057 A 
ATOM     68  C   UNL A   1      50.226  27.154  23.036  1.00  0.00     0.134 A 
ATOM     69  C   UNL A   1      47.996  27.814  22.652  1.00  0.00     0.134 A 
ATOM     70  F   UNL A   1      51.295  26.907  23.805  1.00  0.00    -0.206 F 
ATOM     71  C   UNL A   1      50.450  27.104  21.624  1.00  0.00     0.040 A 
ATOM     72  C   UNL A   1      48.195  27.756  21.249  1.00  0.00     0.040 A 
ATOM     73  F   UNL A   1      46.778  28.202  23.050  1.00  0.00    -0.206 F 
ATOM     74  C   UNL A   1      49.418  27.362  20.727  1.00  0.00     0.006 A 
ENDBRANCH  46  67
BRANCH  58  75
ATOM     75  C   UNL A   1      46.838  26.282  29.615  1.00  0.00     0.057 A 
ATOM     76  C   UNL A   1      46.197  27.324  30.366  1.00  0.00     0.134 A 
ATOM     77  C   UNL A   1      48.064  25.910  30.141  1.00  0.00     0.134 A 
ATOM     78  F   UNL A   1      44.935  27.704  30.167  1.00  0.00    -0.206 F 
ATOM     79  C   UNL A   1      46.814  28.074  31.374  1.00  0.00     0.040 A 
ATOM     80  C   UNL A   1      48.660  26.581  31.215  1.00  0.00     0.040 A 
ATOM     81  F   UNL A   1      48.684  24.828  29.652  1.00  0.00    -0.206 F 
ATOM     82  C   UNL A   1      48.062  27.692  31.806  1.00  0.00     0.006 A 
ENDBRANCH  58  75
ENDBRANCH  32  33
ENDBRANCH  25  27
ENDBRANCH  24  25
ENDBRANCH  23  24
ENDBRANCH  22  23
ENDBRANCH  21  22
ENDBRANCH   1  21
TORSDOF 17
ENDMDL
MODEL 2
REMARK VINA RESULT:     -11.1      2.220      3.593
REMARK SMILES Cc1cc(C)c2c(=O)n(CCCC(=O)OCCOCCOC(=O)c3ccc(-c4c5nc(c(-c6c(F)cccc6F)c6ccc([nH]6)c(-c6c(F)cccc6F)c6nc(c(-c7c(F)cccc7F)c7ccc4[nH]7)C=C6)C=C5)cc3)sc2n1
REMARK SMILES IDX 17 1 16 2 15 3 13 4 14 5 12 6 11 7 10 8 9 9 1 10 2 11 3 12
REMARK SMILES IDX 80 13 4 14 79 15 5 16 6 17 78 18 7 19 8 20 18 21 19 22 20 23
REMARK SMILES IDX 21 24 22 25 23 26 24 27 25 28 77 29 26 30 76 31 27 32 28 33
REMARK SMILES IDX 29 34 70 35 30 36 75 37 69 38 71 39 31 40 74 41 68 42 67 43
REMARK SMILES IDX 32 45 58 46 41 47 57 48 42 49 45 50 56 51 72 52 43 53 44 54
REMARK SMILES IDX 55 56 73 57 46 58 33 59 34 60 39 61 35 62 36 63 38 64 40 65
REMARK SMILES IDX 37 66 59 67 60 68 65 69 61 70 62 71 64 72 66 73 63 74 47 75
REMARK SMILES IDX 48 76 53 77 49 78 50 79 52 80 54 81 51 82
REMARK H PARENT 71 44 45 55
REMARK Flexibility Score: inf
ROOT
ATOM      1  C   UNL A   1      34.434  29.323  27.618  1.00  0.00     0.202 C 
ENDROOT
BRANCH   1   2
ATOM      2  C   UNL A   1      33.589  29.147  26.355  1.00  0.00     0.261 C 
BRANCH   2   3
ATOM      3  O   UNL A   1      34.111  28.119  25.460  1.00  0.00    -0.463 OA
BRANCH   3   4
ATOM      4  C   UNL A   1      33.386  26.982  25.208  1.00  0.00     0.305 C 
ATOM      5  O   UNL A   1      33.199  26.117  26.056  1.00  0.00    -0.252 OA
BRANCH   4   6
ATOM      6  C   UNL A   1      32.596  26.979  23.841  1.00  0.00     0.124 C 
BRANCH   6   7
ATOM      7  C   UNL A   1      33.123  26.421  22.485  1.00  0.00     0.035 C 
BRANCH   7   8
ATOM      8  C   UNL A   1      32.478  25.129  21.988  1.00  0.00     0.139 C 
BRANCH   8   9
ATOM      9  N   UNL A   1      32.824  24.029  22.846  1.00  0.00    -0.262 N 
ATOM     10  C   UNL A   1      32.724  18.722  25.664  1.00  0.00     0.067 C 
ATOM     11  C   UNL A   1      33.202  19.970  25.016  1.00  0.00     0.039 A 
ATOM     12  C   UNL A   1      34.559  20.316  24.975  1.00  0.00     0.027 A 
ATOM     13  N   UNL A   1      32.251  20.735  24.491  1.00  0.00    -0.241 NA
ATOM     14  C   UNL A   1      34.984  21.497  24.344  1.00  0.00    -0.033 A 
ATOM     15  C   UNL A   1      32.704  21.862  23.952  1.00  0.00     0.146 A 
ATOM     16  C   UNL A   1      36.409  21.909  24.307  1.00  0.00     0.045 C 
ATOM     17  C   UNL A   1      34.006  22.284  23.801  1.00  0.00     0.081 A 
ATOM     18  S   UNL A   1      31.602  23.124  23.611  1.00  0.00    -0.035 S 
ATOM     19  C   UNL A   1      34.098  23.593  23.113  1.00  0.00     0.270 A 
ATOM     20  O   UNL A   1      35.138  24.159  22.825  1.00  0.00    -0.268 OA
ENDBRANCH   8   9
ENDBRANCH   7   8
ENDBRANCH   6   7
ENDBRANCH   4   6
ENDBRANCH   3   4
ENDBRANCH   2   3
ENDBRANCH   1   2
BRANCH   1  21
ATOM     21  O   UNL A   1      35.551  30.202  27.719  1.00  0.00    -0.374 OA
BRANCH  21  22
ATOM     22  C   UNL A   1      35.887  30.521  29.064  1.00  0.00     0.202 C 
BRANCH  22  23
ATOM     23  C   UNL A   1      36.994  29.854  29.885  1.00  0.00     0.261 C 
BRANCH  23  24
ATOM     24  O   UNL A   1      37.475  28.574  29.393  1.00  0.00    -0.460 OA
BRANCH  24  25
ATOM     25  C   UNL A   1      38.824  28.404  29.411  1.00  0.00     0.338 C 
ATOM     26  O   UNL A   1      39.396  27.443  29.901  1.00  0.00    -0.246 OA
BRANCH  25  27
ATOM     27  C   UNL A   1      39.532  29.464  28.624  1.00  0.00     0.060 A 
ATOM     28  C   UNL A   1      39.357  29.333  27.285  1.00  0.00     0.016 A 
ATOM     29  C   UNL A   1      40.878  29.651  29.010  1.00  0.00     0.016 A 
ATOM     30  C   UNL A   1      40.630  28.773  26.608  1.00  0.00     0.010 A 
ATOM     31  C   UNL A   1      42.021  29.462  28.169  1.00  0.00     0.010 A 
ATOM     32  C   UNL A   1      42.019  28.316  27.391  1.00  0.00    -0.014 A 
BRANCH  32  33
ATOM     33  C   UNL A   1      43.829  27.566  27.200  1.00  0.00     0.031 A 
ATOM     34  C   UNL A   1      42.600  25.979  27.195  1.00  0.00     0.074 A 
ATOM     35  C   UNL A   1      45.499  27.997  27.046  1.00  0.00     0.049 A 
ATOM     36  N   UNL A   1      41.975  25.427  28.248  1.00  0.00    -0.248 NA
ATOM     37  C   UNL A   1      41.264  25.265  26.151  1.00  0.00     0.031 C 
ATOM     38  C   UNL A   1      46.896  29.271  26.671  1.00  0.00     0.029 A 
ATOM     39  N   UNL A   1      47.089  27.384  27.246  1.00  0.00    -0.354 N 
ATOM     40  C   UNL A   1      41.695  24.068  27.795  1.00  0.00     0.074 A 
ATOM     41  C   UNL A   1      40.987  24.016  26.602  1.00  0.00     0.031 C 
ATOM     42  C   UNL A   1      48.314  29.120  26.255  1.00  0.00     0.029 A 
ATOM     43  C   UNL A   1      48.403  27.695  26.403  1.00  0.00     0.049 A 
ATOM     44  H   UNL A   1      47.206  26.749  27.990  1.00  0.00     0.167 HD
ATOM     45  C   UNL A   1      42.701  23.183  27.858  1.00  0.00     0.037 A 
ATOM     46  C   UNL A   1      49.366  26.813  25.840  1.00  0.00     0.037 A 
ATOM     47  C   UNL A   1      43.616  23.727  28.776  1.00  0.00     0.049 A 
ATOM     48  C   UNL A   1      48.694  25.612  26.351  1.00  0.00     0.074 A 
ATOM     49  C   UNL A   1      43.381  24.252  30.025  1.00  0.00     0.029 A 
ATOM     50  N   UNL A   1      44.626  24.419  28.212  1.00  0.00    -0.354 N 
ATOM     51  N   UNL A   1      48.603  25.341  27.637  1.00  0.00    -0.248 NA
ATOM     52  C   UNL A   1      47.578  25.268  25.471  1.00  0.00     0.031 C 
ATOM     53  C   UNL A   1      44.370  25.212  30.249  1.00  0.00     0.029 A 
ATOM     54  C   UNL A   1      45.205  25.206  29.148  1.00  0.00     0.049 A 
ATOM     55  H   UNL A   1      44.899  24.362  27.269  1.00  0.00     0.167 HD
ATOM     56  C   UNL A   1      47.232  25.153  27.850  1.00  0.00     0.074 A 
ATOM     57  C   UNL A   1      46.671  25.004  26.416  1.00  0.00     0.031 C 
ATOM     58  C   UNL A   1      46.523  25.683  28.950  1.00  0.00     0.037 A 
BRANCH  45  59
ATOM     59  C   UNL A   1      42.994  22.064  26.943  1.00  0.00     0.057 A 
ATOM     60  C   UNL A   1      42.258  20.949  27.305  1.00  0.00     0.134 A 
ATOM     61  C   UNL A   1      43.907  21.937  25.867  1.00  0.00     0.134 A 
ATOM     62  F   UNL A   1      41.360  21.037  28.298  1.00  0.00    -0.206 F 
ATOM     63  C   UNL A   1      42.411  19.741  26.670  1.00  0.00     0.040 A 
ATOM     64  C   UNL A   1      44.051  20.723  25.196  1.00  0.00     0.040 A 
ATOM     65  F   UNL A   1      44.683  22.947  25.437  1.00  0.00    -0.206 F 
ATOM     66  C   UNL A   1      43.305  19.622  25.614  1.00  0.00     0.006 A 
ENDBRANCH  45  59
BRANCH  46  67
ATOM     67  C   UNL A   1      50.048  26.878  24.401  1.00  0.00     0.057 A 
ATOM     68  C   UNL A   1      49.474  27.353  23.189  1.00  0.00     0.134 A 
ATOM     69  C   UNL A   1      51.445  26.674  24.290  1.00  0.00     0.134 A 
ATOM     70  F   UNL A   1      48.147  27.491  23.067  1.00  0.00    -0.206 F 
ATOM     71  C   UNL A   1      50.245  27.705  22.035  1.00  0.00     0.040 A 
ATOM     72  C   UNL A   1      52.226  27.031  23.161  1.00  0.00     0.040 A 
ATOM     73  F   UNL A   1      52.119  26.152  25.321  1.00  0.00    -0.206 F 
ATOM     74  C   UNL A   1      51.630  27.585  22.038  1.00  0.00     0.006 A 
ENDBRANCH  46  67
BRANCH  58  75
ATOM     75  C   UNL A   1      47.055  26.584  30.126  1.00  0.00     0.057 A 
ATOM     76  C   UNL A   1      46.542  27.801  30.688  1.00  0.00     0.134 A 
ATOM     77  C   UNL A   1      48.093  26.040  30.863  1.00  0.00     0.134 A 
ATOM     78  F   UNL A   1      45.425  28.393  30.265  1.00  0.00    -0.206 F 
ATOM     79  C   UNL A   1      47.152  28.518  31.723  1.00  0.00     0.040 A 
ATOM     80  C   UNL A   1      48.657  26.692  31.967  1.00  0.00     0.040 A 
ATOM     81  F   UNL A   1      48.540  24.815  30.559  1.00  0.00    -0.206 F 
ATOM     82  C   UNL A   1      48.223  27.952  32.373  1.00  0.00     0.006 A 
ENDBRANCH  58  75
ENDBRANCH  32  33
ENDBRANCH  25  27
ENDBRANCH  24  25
ENDBRANCH  23  24
ENDBRANCH  22  23
ENDBRANCH  21  22
ENDBRANCH   1  21
TORSDOF 17
ENDMDL
MODEL 3
REMARK VINA RESULT:     -11.0      1.858      3.235
REMARK SMILES Cc1cc(C)c2c(=O)n(CCCC(=O)OCCOCCOC(=O)c3ccc(-c4c5nc(c(-c6c(F)cccc6F)c6ccc([nH]6)c(-c6c(F)cccc6F)c6nc(c(-c7c(F)cccc7F)c7ccc4[nH]7)C=C6)C=C5)cc3)sc2n1
REMARK SMILES IDX 17 1 16 2 15 3 13 4 14 5 12 6 11 7 10 8 9 9 1 10 2 11 3 12
REMARK SMILES IDX 80 13 4 14 79 15 5 16 6 17 78 18 7 19 8 20 18 21 19 22 20 23
REMARK SMILES IDX 21 24 22 25 23 26 24 27 25 28 77 29 26 30 76 31 27 32 28 33
REMARK SMILES IDX 29 34 70 35 30 36 75 37 69 38 71 39 31 40 74 41 68 42 67 43
REMARK SMILES IDX 32 45 58 46 41 47 57 48 42 49 45 50 56 51 72 52 43 53 44 54
REMARK SMILES IDX 55 56 73 57 46 58 33 59 34 60 39 61 35 62 36 63 38 64 40 65
REMARK SMILES IDX 37 66 59 67 60 68 65 69 61 70 62 71 64 72 66 73 63 74 47 75
REMARK SMILES IDX 48 76 53 77 49 78 50 79 52 80 54 81 51 82
REMARK H PARENT 71 44 45 55
REMARK Flexibility Score: inf
ROOT
ATOM      1  C   UNL A   1      34.475  28.943  27.528  1.00  0.00     0.202 C 
ENDROOT
BRANCH   1   2
ATOM      2  C   UNL A   1      33.738  28.763  26.200  1.00  0.00     0.261 C 
BRANCH   2   3
ATOM      3  O   UNL A   1      34.321  27.718  25.364  1.00  0.00    -0.463 OA
BRANCH   3   4
ATOM      4  C   UNL A   1      34.054  26.397  25.613  1.00  0.00     0.305 C 
ATOM      5  O   UNL A   1      34.931  25.541  25.648  1.00  0.00    -0.252 OA
BRANCH   4   6
ATOM      6  C   UNL A   1      32.586  26.090  26.106  1.00  0.00     0.124 C 
BRANCH   6   7
ATOM      7  C   UNL A   1      31.444  25.476  25.240  1.00  0.00     0.035 C 
BRANCH   7   8
ATOM      8  C   UNL A   1      31.477  25.799  23.748  1.00  0.00     0.139 C 
BRANCH   8   9
ATOM      9  N   UNL A   1      30.667  26.950  23.462  1.00  0.00    -0.262 N 
ATOM     10  C   UNL A   1      28.454  31.873  20.817  1.00  0.00     0.067 C 
ATOM     11  C   UNL A   1      28.558  30.606  21.586  1.00  0.00     0.039 A 
ATOM     12  C   UNL A   1      27.460  30.045  22.249  1.00  0.00     0.027 A 
ATOM     13  N   UNL A   1      29.767  30.055  21.607  1.00  0.00    -0.241 NA
ATOM     14  C   UNL A   1      27.584  28.839  22.959  1.00  0.00    -0.033 A 
ATOM     15  C   UNL A   1      29.839  28.943  22.333  1.00  0.00     0.146 A 
ATOM     16  C   UNL A   1      26.449  28.231  23.697  1.00  0.00     0.045 C 
ATOM     17  C   UNL A   1      28.827  28.269  22.979  1.00  0.00     0.081 A 
ATOM     18  S   UNL A   1      31.373  28.349  22.796  1.00  0.00    -0.035 S 
ATOM     19  C   UNL A   1      29.311  27.043  23.656  1.00  0.00     0.270 A 
ATOM     20  O   UNL A   1      28.605  26.253  24.260  1.00  0.00    -0.268 OA
ENDBRANCH   8   9
ENDBRANCH   7   8
ENDBRANCH   6   7
ENDBRANCH   4   6
ENDBRANCH   3   4
ENDBRANCH   2   3
ENDBRANCH   1   2
BRANCH   1  21
ATOM     21  O   UNL A   1      35.441  29.961  27.778  1.00  0.00    -0.374 OA
BRANCH  21  22
ATOM     22  C   UNL A   1      35.800  30.061  29.152  1.00  0.00     0.202 C 
BRANCH  22  23
ATOM     23  C   UNL A   1      37.086  29.511  29.776  1.00  0.00     0.261 C 
BRANCH  23  24
ATOM     24  O   UNL A   1      37.723  28.414  29.069  1.00  0.00    -0.460 OA
BRANCH  24  25
ATOM     25  C   UNL A   1      39.072  28.318  29.220  1.00  0.00     0.338 C 
ATOM     26  O   UNL A   1      39.644  27.407  29.795  1.00  0.00    -0.246 OA
BRANCH  25  27
ATOM     27  C   UNL A   1      39.796  29.392  28.465  1.00  0.00     0.060 A 
ATOM     28  C   UNL A   1      39.645  29.284  27.121  1.00  0.00     0.016 A 
ATOM     29  C   UNL A   1      41.135  29.569  28.878  1.00  0.00     0.016 A 
ATOM     30  C   UNL A   1      40.929  28.734  26.457  1.00  0.00     0.010 A 
ATOM     31  C   UNL A   1      42.293  29.392  28.055  1.00  0.00     0.010 A 
ATOM     32  C   UNL A   1      42.302  28.261  27.257  1.00  0.00    -0.014 A 
BRANCH  32  33
ATOM     33  C   UNL A   1      44.115  27.510  27.084  1.00  0.00     0.031 A 
ATOM     34  C   UNL A   1      42.884  25.925  27.046  1.00  0.00     0.074 A 
ATOM     35  C   UNL A   1      45.787  27.941  26.959  1.00  0.00     0.049 A 
ATOM     36  N   UNL A   1      42.243  25.363  28.085  1.00  0.00    -0.248 NA
ATOM     37  C   UNL A   1      41.563  25.222  25.976  1.00  0.00     0.031 C 
ATOM     38  C   UNL A   1      47.191  29.217  26.617  1.00  0.00     0.029 A 
ATOM     39  N   UNL A   1      47.374  27.325  27.176  1.00  0.00    -0.354 N 
ATOM     40  C   UNL A   1      41.969  24.010  27.615  1.00  0.00     0.074 A 
ATOM     41  C   UNL A   1      41.278  23.970  26.411  1.00  0.00     0.031 C 
ATOM     42  C   UNL A   1      48.614  29.068  26.220  1.00  0.00     0.029 A 
ATOM     43  C   UNL A   1      48.700  27.642  26.355  1.00  0.00     0.049 A 
ATOM     44  H   UNL A   1      47.479  26.682  27.915  1.00  0.00     0.167 HD
ATOM     45  C   UNL A   1      42.973  23.123  27.684  1.00  0.00     0.037 A 
ATOM     46  C   UNL A   1      49.670  26.764  25.798  1.00  0.00     0.037 A 
ATOM     47  C   UNL A   1      43.875  23.657  28.620  1.00  0.00     0.049 A 
ATOM     48  C   UNL A   1      48.990  25.559  26.288  1.00  0.00     0.074 A 
ATOM     49  C   UNL A   1      43.622  24.170  29.871  1.00  0.00     0.029 A 
ATOM     50  N   UNL A   1      44.893  24.353  28.078  1.00  0.00    -0.354 N 
ATOM     51  N   UNL A   1      48.879  25.276  27.569  1.00  0.00    -0.248 NA
ATOM     52  C   UNL A   1      47.887  25.225  25.388  1.00  0.00     0.031 C 
ATOM     53  C   UNL A   1      44.609  25.127  30.118  1.00  0.00     0.029 A 
ATOM     54  C   UNL A   1      45.459  25.130  29.030  1.00  0.00     0.049 A 
ATOM     55  H   UNL A   1      45.180  24.305  27.138  1.00  0.00     0.167 HD
ATOM     56  C   UNL A   1      47.506  25.087  27.761  1.00  0.00     0.074 A 
ATOM     57  C   UNL A   1      46.965  24.953  26.318  1.00  0.00     0.031 C 
ATOM     58  C   UNL A   1      46.781  25.608  28.855  1.00  0.00     0.037 A 
BRANCH  45  59
ATOM     59  C   UNL A   1      43.279  22.012  26.762  1.00  0.00     0.057 A 
ATOM     60  C   UNL A   1      42.509  20.906  27.080  1.00  0.00     0.134 A 
ATOM     61  C   UNL A   1      44.227  21.884  25.719  1.00  0.00     0.134 A 
ATOM     62  F   UNL A   1      41.578  20.996  28.041  1.00  0.00    -0.206 F 
ATOM     63  C   UNL A   1      42.663  19.705  26.432  1.00  0.00     0.040 A 
ATOM     64  C   UNL A   1      44.373  20.677  25.033  1.00  0.00     0.040 A 
ATOM     65  F   UNL A   1      45.036  22.886  25.333  1.00  0.00    -0.206 F 
ATOM     66  C   UNL A   1      43.593  19.585  25.407  1.00  0.00     0.006 A 
ENDBRANCH  45  59
BRANCH  46  67
ATOM     67  C   UNL A   1      50.373  26.843  24.370  1.00  0.00     0.057 A 
ATOM     68  C   UNL A   1      49.818  27.330  23.154  1.00  0.00     0.134 A 
ATOM     69  C   UNL A   1      51.771  26.638  24.277  1.00  0.00     0.134 A 
ATOM     70  F   UNL A   1      48.492  27.470  23.014  1.00  0.00    -0.206 F 
ATOM     71  C   UNL A   1      50.605  27.692  22.016  1.00  0.00     0.040 A 
ATOM     72  C   UNL A   1      52.570  27.005  23.164  1.00  0.00     0.040 A 
ATOM     73  F   UNL A   1      52.430  26.105  25.313  1.00  0.00    -0.206 F 
ATOM     74  C   UNL A   1      51.991  27.570  22.037  1.00  0.00     0.006 A 
ENDBRANCH  46  67
BRANCH  58  75
ATOM     75  C   UNL A   1      47.296  26.496  30.047  1.00  0.00     0.057 A 
ATOM     76  C   UNL A   1      46.764  27.697  30.628  1.00  0.00     0.134 A 
ATOM     77  C   UNL A   1      48.340  25.956  30.779  1.00  0.00     0.134 A 
ATOM     78  F   UNL A   1      45.640  28.280  30.212  1.00  0.00    -0.206 F 
ATOM     79  C   UNL A   1      47.361  28.406  31.677  1.00  0.00     0.040 A 
ATOM     80  C   UNL A   1      48.892  26.598  31.895  1.00  0.00     0.040 A 
ATOM     81  F   UNL A   1      48.807  24.743  30.456  1.00  0.00    -0.206 F 
ATOM     82  C   UNL A   1      48.438  27.844  32.321  1.00  0.00     0.006 A 
ENDBRANCH  58  75
ENDBRANCH  32  33
ENDBRANCH  25  27
ENDBRANCH  24  25
ENDBRANCH  23  24
ENDBRANCH  22  23
ENDBRANCH  21  22
ENDBRANCH   1  21
TORSDOF 17
ENDMDL
