MODEL 1
REMARK VINA RESULT:     -11.0      0.000      0.000
REMARK SMILES C=C(C)COc1cc(/C=C/c2cc(C(=O)OCCOCCOC(=O)c3ccc(-c4c5nc(c(-c6c(F)cccc6F)c6ccc([nH]6)c(-c6c(F)cccc6F)c6nc(c(-c7c(F)cccc7F)c7ccc4[nH]7)C=C6)C=C5)cc3)ncn2)ccc1OC
REMARK SMILES IDX 17 1 16 2 14 3 15 4 13 5 11 6 12 7 81 8 80 9 79 10 10 11
REMARK SMILES IDX 9 12 8 13 6 14 7 15 84 16 83 17 82 18 5 19 4 20 2 21 1 22
REMARK SMILES IDX 3 23 85 24 86 25 18 26 19 27 20 28 21 29 22 30 23 31 24 32
REMARK SMILES IDX 25 33 26 34 78 35 27 36 77 37 28 38 29 39 30 40 71 41 31 42
REMARK SMILES IDX 76 43 70 44 72 45 32 46 75 47 69 48 68 49 33 51 59 52 42 53
REMARK SMILES IDX 58 54 43 55 46 56 57 57 73 58 44 59 45 60 56 62 74 63 47 64
REMARK SMILES IDX 34 65 35 66 40 67 36 68 37 69 39 70 41 71 38 72 60 73 61 74
REMARK SMILES IDX 66 75 62 76 63 77 65 78 67 79 64 80 48 81 49 82 54 83 50 84
REMARK SMILES IDX 51 85 53 86 55 87 52 88
REMARK H PARENT 72 50 46 61
REMARK Flexibility Score: inf
ROOT
ATOM      1  C   UNL A   1      44.331  18.899  25.009  1.00  0.00     0.261 C 
ENDROOT
BRANCH   1   2
ATOM      2  O   UNL A   1      42.921  19.178  25.086  1.00  0.00    -0.459 OA
BRANCH   2   3
ATOM      3  C   UNL A   1      42.379  19.085  26.332  1.00  0.00     0.357 C 
ATOM      4  O   UNL A   1      42.665  18.257  27.180  1.00  0.00    -0.244 OA
BRANCH   3   5
ATOM      5  C   UNL A   1      41.451  20.234  26.566  1.00  0.00     0.152 A 
ATOM      6  C   UNL A   1      39.536  21.501  26.127  1.00  0.00     0.067 A 
ATOM      7  C   UNL A   1      40.335  20.426  25.783  1.00  0.00     0.064 A 
ATOM      8  N   UNL A   1      39.859  22.364  27.106  1.00  0.00    -0.237 NA
ATOM      9  C   UNL A   1      40.975  22.089  27.796  1.00  0.00     0.223 A 
ATOM     10  N   UNL A   1      41.792  21.054  27.585  1.00  0.00    -0.229 NA
BRANCH   6  11
ATOM     11  C   UNL A   1      38.273  21.770  25.422  1.00  0.00     0.029 C 
ATOM     12  C   UNL A   1      37.558  22.867  25.719  1.00  0.00     0.010 C 
BRANCH  12  13
ATOM     13  C   UNL A   1      36.203  23.236  25.276  1.00  0.00    -0.022 A 
ATOM     14  C   UNL A   1      34.013  24.301  25.465  1.00  0.00     0.162 A 
ATOM     15  C   UNL A   1      35.232  23.891  26.046  1.00  0.00     0.058 A 
ATOM     16  C   UNL A   1      33.768  24.080  24.103  1.00  0.00     0.160 A 
ATOM     17  C   UNL A   1      34.709  23.364  23.362  1.00  0.00     0.051 A 
ATOM     18  C   UNL A   1      35.906  22.947  23.937  1.00  0.00     0.012 A 
BRANCH  14  19
ATOM     19  O   UNL A   1      33.147  25.018  26.251  1.00  0.00    -0.485 OA
BRANCH  19  20
ATOM     20  C   UNL A   1      33.127  26.418  25.933  1.00  0.00     0.260 C 
BRANCH  20  21
ATOM     21  C   UNL A   1      31.849  27.029  26.469  1.00  0.00    -0.043 C 
ATOM     22  C   UNL A   1      31.849  28.024  27.376  1.00  0.00     0.011 C 
ATOM     23  C   UNL A   1      30.561  26.535  25.871  1.00  0.00     0.042 C 
ENDBRANCH  20  21
ENDBRANCH  19  20
ENDBRANCH  14  19
BRANCH  16  24
ATOM     24  O   UNL A   1      32.693  24.445  23.347  1.00  0.00    -0.493 OA
ATOM     25  C   UNL A   1      31.469  23.751  23.517  1.00  0.00     0.278 C 
ENDBRANCH  16  24
ENDBRANCH  12  13
ENDBRANCH   6  11
ENDBRANCH   3   5
ENDBRANCH   2   3
ENDBRANCH   1   2
BRANCH   1  26
ATOM     26  C   UNL A   1      45.009  19.732  23.917  1.00  0.00     0.202 C 
BRANCH  26  27
ATOM     27  O   UNL A   1      45.449  21.036  24.293  1.00  0.00    -0.374 OA
BRANCH  27  28
ATOM     28  C   UNL A   1      44.676  22.148  23.841  1.00  0.00     0.202 C 
BRANCH  28  29
ATOM     29  C   UNL A   1      43.703  22.766  24.852  1.00  0.00     0.261 C 
BRANCH  29  30
ATOM     30  O   UNL A   1      43.416  24.147  24.563  1.00  0.00    -0.460 OA
BRANCH  30  31
ATOM     31  C   UNL A   1      44.225  25.034  25.194  1.00  0.00     0.338 C 
ATOM     32  O   UNL A   1      45.379  25.311  24.920  1.00  0.00    -0.246 OA
BRANCH  31  33
ATOM     33  C   UNL A   1      43.456  25.783  26.205  1.00  0.00     0.060 A 
ATOM     34  C   UNL A   1      43.744  27.146  26.356  1.00  0.00     0.016 A 
ATOM     35  C   UNL A   1      42.533  25.156  27.043  1.00  0.00     0.016 A 
ATOM     36  C   UNL A   1      43.143  27.878  27.379  1.00  0.00     0.010 A 
ATOM     37  C   UNL A   1      41.936  25.891  28.074  1.00  0.00     0.010 A 
ATOM     38  C   UNL A   1      42.265  27.245  28.267  1.00  0.00    -0.014 A 
BRANCH  38  39
ATOM     39  C   UNL A   1      41.793  27.968  29.474  1.00  0.00     0.031 A 
ATOM     40  C   UNL A   1      40.548  28.808  29.386  1.00  0.00     0.074 A 
ATOM     41  C   UNL A   1      42.453  27.861  30.641  1.00  0.00     0.049 A 
ATOM     42  N   UNL A   1      39.983  29.554  30.300  1.00  0.00    -0.248 NA
ATOM     43  C   UNL A   1      39.847  28.805  28.092  1.00  0.00     0.031 C 
ATOM     44  C   UNL A   1      43.649  27.052  30.864  1.00  0.00     0.029 A 
ATOM     45  N   UNL A   1      42.210  28.449  31.857  1.00  0.00    -0.354 N 
ATOM     46  C   UNL A   1      38.868  30.117  29.692  1.00  0.00     0.074 A 
ATOM     47  C   UNL A   1      38.852  29.650  28.323  1.00  0.00     0.031 C 
ATOM     48  C   UNL A   1      44.044  27.201  32.140  1.00  0.00     0.029 A 
ATOM     49  C   UNL A   1      43.148  28.142  32.812  1.00  0.00     0.049 A 
ATOM     50  H   UNL A   1      41.437  29.033  32.029  1.00  0.00     0.167 HD
ATOM     51  C   UNL A   1      37.937  30.941  30.229  1.00  0.00     0.037 A 
ATOM     52  C   UNL A   1      43.283  28.588  34.076  1.00  0.00     0.037 A 
ATOM     53  C   UNL A   1      37.953  31.403  31.592  1.00  0.00     0.049 A 
ATOM     54  C   UNL A   1      42.273  29.559  34.629  1.00  0.00     0.074 A 
ATOM     55  C   UNL A   1      37.040  32.221  32.236  1.00  0.00     0.029 A 
ATOM     56  N   UNL A   1      38.935  31.093  32.520  1.00  0.00    -0.354 N 
ATOM     57  N   UNL A   1      41.207  30.062  34.054  1.00  0.00    -0.248 NA
ATOM     58  C   UNL A   1      42.484  30.020  36.009  1.00  0.00     0.031 C 
ATOM     59  C   UNL A   1      37.498  32.447  33.539  1.00  0.00     0.029 A 
ATOM     60  C   UNL A   1      38.666  31.725  33.722  1.00  0.00     0.049 A 
ATOM     61  H   UNL A   1      39.709  30.509  32.349  1.00  0.00     0.167 HD
ATOM     62  C   UNL A   1      40.606  30.874  35.009  1.00  0.00     0.074 A 
ATOM     63  C   UNL A   1      41.420  30.786  36.204  1.00  0.00     0.031 C 
ATOM     64  C   UNL A   1      39.480  31.622  34.907  1.00  0.00     0.037 A 
BRANCH  51  65
ATOM     65  C   UNL A   1      36.833  31.418  29.330  1.00  0.00     0.057 A 
ATOM     66  C   UNL A   1      36.831  32.706  28.779  1.00  0.00     0.134 A 
ATOM     67  C   UNL A   1      35.777  30.565  28.984  1.00  0.00     0.134 A 
ATOM     68  F   UNL A   1      37.805  33.576  29.081  1.00  0.00    -0.206 F 
ATOM     69  C   UNL A   1      35.806  33.134  27.932  1.00  0.00     0.040 A 
ATOM     70  C   UNL A   1      34.763  30.973  28.117  1.00  0.00     0.040 A 
ATOM     71  F   UNL A   1      35.722  29.316  29.473  1.00  0.00    -0.206 F 
ATOM     72  C   UNL A   1      34.773  32.264  27.593  1.00  0.00     0.006 A 
ENDBRANCH  51  65
BRANCH  52  73
ATOM     73  C   UNL A   1      44.426  28.134  34.907  1.00  0.00     0.057 A 
ATOM     74  C   UNL A   1      45.594  28.897  35.016  1.00  0.00     0.134 A 
ATOM     75  C   UNL A   1      44.388  26.912  35.591  1.00  0.00     0.134 A 
ATOM     76  F   UNL A   1      45.700  30.065  34.365  1.00  0.00    -0.206 F 
ATOM     77  C   UNL A   1      46.689  28.456  35.761  1.00  0.00     0.040 A 
ATOM     78  C   UNL A   1      45.465  26.470  36.361  1.00  0.00     0.040 A 
ATOM     79  F   UNL A   1      43.297  26.135  35.528  1.00  0.00    -0.206 F 
ATOM     80  C   UNL A   1      46.625  27.240  36.439  1.00  0.00     0.006 A 
ENDBRANCH  52  73
BRANCH  64  81
ATOM     81  C   UNL A   1      39.039  32.375  36.129  1.00  0.00     0.057 A 
ATOM     82  C   UNL A   1      38.210  31.795  37.098  1.00  0.00     0.134 A 
ATOM     83  C   UNL A   1      39.484  33.683  36.359  1.00  0.00     0.134 A 
ATOM     84  F   UNL A   1      37.738  30.550  36.933  1.00  0.00    -0.206 F 
ATOM     85  C   UNL A   1      37.821  32.499  38.241  1.00  0.00     0.040 A 
ATOM     86  C   UNL A   1      39.124  34.386  37.510  1.00  0.00     0.040 A 
ATOM     87  F   UNL A   1      40.289  34.294  35.476  1.00  0.00    -0.206 F 
ATOM     88  C   UNL A   1      38.285  33.795  38.452  1.00  0.00     0.006 A 
ENDBRANCH  64  81
ENDBRANCH  38  39
ENDBRANCH  31  33
ENDBRANCH  30  31
ENDBRANCH  29  30
ENDBRANCH  28  29
ENDBRANCH  27  28
ENDBRANCH  26  27
ENDBRANCH   1  26
TORSDOF 20
ENDMDL
MODEL 2
REMARK VINA RESULT:     -10.7      3.764     10.131
REMARK SMILES C=C(C)COc1cc(/C=C/c2cc(C(=O)OCCOCCOC(=O)c3ccc(-c4c5nc(c(-c6c(F)cccc6F)c6ccc([nH]6)c(-c6c(F)cccc6F)c6nc(c(-c7c(F)cccc7F)c7ccc4[nH]7)C=C6)C=C5)cc3)ncn2)ccc1OC
REMARK SMILES IDX 17 1 16 2 14 3 15 4 13 5 11 6 12 7 81 8 80 9 79 10 10 11
REMARK SMILES IDX 9 12 8 13 6 14 7 15 84 16 83 17 82 18 5 19 4 20 2 21 1 22
REMARK SMILES IDX 3 23 85 24 86 25 18 26 19 27 20 28 21 29 22 30 23 31 24 32
REMARK SMILES IDX 25 33 26 34 78 35 27 36 77 37 28 38 29 39 30 40 71 41 31 42
REMARK SMILES IDX 76 43 70 44 72 45 32 46 75 47 69 48 68 49 33 51 59 52 42 53
REMARK SMILES IDX 58 54 43 55 46 56 57 57 73 58 44 59 45 60 56 62 74 63 47 64
REMARK SMILES IDX 34 65 35 66 40 67 36 68 37 69 39 70 41 71 38 72 60 73 61 74
REMARK SMILES IDX 66 75 62 76 63 77 65 78 67 79 64 80 48 81 49 82 54 83 50 84
REMARK SMILES IDX 51 85 53 86 55 87 52 88
REMARK H PARENT 72 50 46 61
REMARK Flexibility Score: inf
ROOT
ATOM      1  C   UNL A   1      36.123  32.940  28.340  1.00  0.00     0.261 C 
ENDROOT
BRANCH   1   2
ATOM      2  O   UNL A   1      35.269  31.810  28.594  1.00  0.00    -0.459 OA
BRANCH   2   3
ATOM      3  C   UNL A   1      35.536  30.702  27.849  1.00  0.00     0.357 C 
ATOM      4  O   UNL A   1      36.631  30.192  27.687  1.00  0.00    -0.244 OA
BRANCH   3   5
ATOM      5  C   UNL A   1      34.258  30.114  27.342  1.00  0.00     0.152 A 
ATOM      6  C   UNL A   1      32.932  28.364  26.539  1.00  0.00     0.067 A 
ATOM      7  C   UNL A   1      34.180  28.797  26.951  1.00  0.00     0.064 A 
ATOM      8  N   UNL A   1      31.873  29.186  26.439  1.00  0.00    -0.237 NA
ATOM      9  C   UNL A   1      32.065  30.453  26.834  1.00  0.00     0.223 A 
ATOM     10  N   UNL A   1      33.209  30.965  27.296  1.00  0.00    -0.229 NA
BRANCH   6  11
ATOM     11  C   UNL A   1      32.694  26.960  26.171  1.00  0.00     0.029 C 
ATOM     12  C   UNL A   1      33.730  26.118  26.025  1.00  0.00     0.010 C 
BRANCH  12  13
ATOM     13  C   UNL A   1      33.738  24.744  25.498  1.00  0.00    -0.022 A 
ATOM     14  C   UNL A   1      34.576  22.877  24.162  1.00  0.00     0.162 A 
ATOM     15  C   UNL A   1      34.580  24.250  24.492  1.00  0.00     0.058 A 
ATOM     16  C   UNL A   1      33.744  21.986  24.853  1.00  0.00     0.160 A 
ATOM     17  C   UNL A   1      32.858  22.498  25.802  1.00  0.00     0.051 A 
ATOM     18  C   UNL A   1      32.853  23.854  26.119  1.00  0.00     0.012 A 
BRANCH  14  19
ATOM     19  O   UNL A   1      35.490  22.446  23.234  1.00  0.00    -0.485 OA
BRANCH  19  20
ATOM     20  C   UNL A   1      36.819  22.920  23.493  1.00  0.00     0.260 C 
BRANCH  20  21
ATOM     21  C   UNL A   1      37.375  22.202  24.704  1.00  0.00    -0.043 C 
ATOM     22  C   UNL A   1      37.504  20.862  24.754  1.00  0.00     0.011 C 
ATOM     23  C   UNL A   1      37.869  23.062  25.833  1.00  0.00     0.042 C 
ENDBRANCH  20  21
ENDBRANCH  19  20
ENDBRANCH  14  19
BRANCH  16  24
ATOM     24  O   UNL A   1      33.633  20.632  24.728  1.00  0.00    -0.493 OA
ATOM     25  C   UNL A   1      32.350  20.068  24.515  1.00  0.00     0.278 C 
ENDBRANCH  16  24
ENDBRANCH  12  13
ENDBRANCH   6  11
ENDBRANCH   3   5
ENDBRANCH   2   3
ENDBRANCH   1   2
BRANCH   1  26
ATOM     26  C   UNL A   1      35.627  34.194  29.067  1.00  0.00     0.202 C 
BRANCH  26  27
ATOM     27  O   UNL A   1      34.792  35.074  28.317  1.00  0.00    -0.374 OA
BRANCH  27  28
ATOM     28  C   UNL A   1      33.395  35.072  28.617  1.00  0.00     0.202 C 
BRANCH  28  29
ATOM     29  C   UNL A   1      32.939  35.971  29.773  1.00  0.00     0.261 C 
BRANCH  29  30
ATOM     30  O   UNL A   1      32.470  35.213  30.903  1.00  0.00    -0.460 OA
BRANCH  30  31
ATOM     31  C   UNL A   1      32.781  35.750  32.109  1.00  0.00     0.338 C 
ATOM     32  O   UNL A   1      32.164  36.600  32.725  1.00  0.00    -0.246 OA
BRANCH  31  33
ATOM     33  C   UNL A   1      33.928  35.032  32.697  1.00  0.00     0.060 A 
ATOM     34  C   UNL A   1      35.185  35.645  32.615  1.00  0.00     0.016 A 
ATOM     35  C   UNL A   1      33.796  33.754  33.244  1.00  0.00     0.016 A 
ATOM     36  C   UNL A   1      36.324  34.963  33.037  1.00  0.00     0.010 A 
ATOM     37  C   UNL A   1      34.943  33.068  33.661  1.00  0.00     0.010 A 
ATOM     38  C   UNL A   1      36.213  33.655  33.527  1.00  0.00    -0.014 A 
BRANCH  38  39
ATOM     39  C   UNL A   1      37.440  32.858  33.776  1.00  0.00     0.031 A 
ATOM     40  C   UNL A   1      38.241  33.116  35.024  1.00  0.00     0.074 A 
ATOM     41  C   UNL A   1      37.825  31.901  32.914  1.00  0.00     0.049 A 
ATOM     42  N   UNL A   1      39.362  32.569  35.418  1.00  0.00    -0.248 NA
ATOM     43  C   UNL A   1      37.705  34.126  35.949  1.00  0.00     0.031 C 
ATOM     44  C   UNL A   1      37.116  31.533  31.690  1.00  0.00     0.029 A 
ATOM     45  N   UNL A   1      38.918  31.071  32.935  1.00  0.00    -0.354 N 
ATOM     46  C   UNL A   1      39.671  33.173  36.630  1.00  0.00     0.074 A 
ATOM     47  C   UNL A   1      38.635  34.149  36.893  1.00  0.00     0.031 C 
ATOM     48  C   UNL A   1      37.799  30.555  31.070  1.00  0.00     0.029 A 
ATOM     49  C   UNL A   1      39.007  30.254  31.835  1.00  0.00     0.049 A 
ATOM     50  H   UNL A   1      39.574  31.062  33.668  1.00  0.00     0.167 HD
ATOM     51  C   UNL A   1      40.717  32.930  37.455  1.00  0.00     0.037 A 
ATOM     52  C   UNL A   1      39.968  29.380  31.476  1.00  0.00     0.037 A 
ATOM     53  C   UNL A   1      41.746  31.957  37.194  1.00  0.00     0.049 A 
ATOM     54  C   UNL A   1      41.158  29.177  32.376  1.00  0.00     0.074 A 
ATOM     55  C   UNL A   1      42.835  31.621  37.980  1.00  0.00     0.029 A 
ATOM     56  N   UNL A   1      41.817  31.168  36.056  1.00  0.00    -0.354 N 
ATOM     57  N   UNL A   1      41.425  29.733  33.533  1.00  0.00    -0.248 NA
ATOM     58  C   UNL A   1      42.178  28.222  31.920  1.00  0.00     0.031 C 
ATOM     59  C   UNL A   1      43.592  30.666  37.294  1.00  0.00     0.029 A 
ATOM     60  C   UNL A   1      42.945  30.367  36.106  1.00  0.00     0.049 A 
ATOM     61  H   UNL A   1      41.162  31.177  35.322  1.00  0.00     0.167 HD
ATOM     62  C   UNL A   1      42.626  29.175  33.957  1.00  0.00     0.074 A 
ATOM     63  C   UNL A   1      43.028  28.228  32.937  1.00  0.00     0.031 C 
ATOM     64  C   UNL A   1      43.330  29.422  35.088  1.00  0.00     0.037 A 
BRANCH  51  65
ATOM     65  C   UNL A   1      40.817  33.750  38.709  1.00  0.00     0.057 A 
ATOM     66  C   UNL A   1      40.157  33.383  39.888  1.00  0.00     0.134 A 
ATOM     67  C   UNL A   1      41.613  34.902  38.745  1.00  0.00     0.134 A 
ATOM     68  F   UNL A   1      39.368  32.298  39.917  1.00  0.00    -0.206 F 
ATOM     69  C   UNL A   1      40.268  34.145  41.053  1.00  0.00     0.040 A 
ATOM     70  C   UNL A   1      41.754  35.655  39.911  1.00  0.00     0.040 A 
ATOM     71  F   UNL A   1      42.278  35.306  37.651  1.00  0.00    -0.206 F 
ATOM     72  C   UNL A   1      41.074  35.281  41.068  1.00  0.00     0.006 A 
ENDBRANCH  51  65
BRANCH  52  73
ATOM     73  C   UNL A   1      39.854  28.636  30.196  1.00  0.00     0.057 A 
ATOM     74  C   UNL A   1      39.174  27.415  30.123  1.00  0.00     0.134 A 
ATOM     75  C   UNL A   1      40.447  29.116  29.021  1.00  0.00     0.134 A 
ATOM     76  F   UNL A   1      38.605  26.893  31.219  1.00  0.00    -0.206 F 
ATOM     77  C   UNL A   1      39.100  26.690  28.932  1.00  0.00     0.040 A 
ATOM     78  C   UNL A   1      40.360  28.413  27.818  1.00  0.00     0.040 A 
ATOM     79  F   UNL A   1      41.113  30.280  29.025  1.00  0.00    -0.206 F 
ATOM     80  C   UNL A   1      39.691  27.191  27.774  1.00  0.00     0.006 A 
ENDBRANCH  52  73
BRANCH  64  81
ATOM     81  C   UNL A   1      44.587  28.630  35.306  1.00  0.00     0.057 A 
ATOM     82  C   UNL A   1      45.842  29.106  34.906  1.00  0.00     0.134 A 
ATOM     83  C   UNL A   1      44.544  27.394  35.963  1.00  0.00     0.134 A 
ATOM     84  F   UNL A   1      45.952  30.277  34.261  1.00  0.00    -0.206 F 
ATOM     85  C   UNL A   1      47.007  28.368  35.131  1.00  0.00     0.040 A 
ATOM     86  C   UNL A   1      45.704  26.661  36.217  1.00  0.00     0.040 A 
ATOM     87  F   UNL A   1      43.375  26.884  36.382  1.00  0.00    -0.206 F 
ATOM     88  C   UNL A   1      46.940  27.145  35.796  1.00  0.00     0.006 A 
ENDBRANCH  64  81
ENDBRANCH  38  39
ENDBRANCH  31  33
ENDBRANCH  30  31
ENDBRANCH  29  30
ENDBRANCH  28  29
ENDBRANCH  27  28
ENDBRANCH  26  27
ENDBRANCH   1  26
TORSDOF 20
ENDMDL
MODEL 3
REMARK VINA RESULT:     -10.6      1.190      2.177
REMARK SMILES C=C(C)COc1cc(/C=C/c2cc(C(=O)OCCOCCOC(=O)c3ccc(-c4c5nc(c(-c6c(F)cccc6F)c6ccc([nH]6)c(-c6c(F)cccc6F)c6nc(c(-c7c(F)cccc7F)c7ccc4[nH]7)C=C6)C=C5)cc3)ncn2)ccc1OC
REMARK SMILES IDX 17 1 16 2 14 3 15 4 13 5 11 6 12 7 81 8 80 9 79 10 10 11
REMARK SMILES IDX 9 12 8 13 6 14 7 15 84 16 83 17 82 18 5 19 4 20 2 21 1 22
REMARK SMILES IDX 3 23 85 24 86 25 18 26 19 27 20 28 21 29 22 30 23 31 24 32
REMARK SMILES IDX 25 33 26 34 78 35 27 36 77 37 28 38 29 39 30 40 71 41 31 42
REMARK SMILES IDX 76 43 70 44 72 45 32 46 75 47 69 48 68 49 33 51 59 52 42 53
REMARK SMILES IDX 58 54 43 55 46 56 57 57 73 58 44 59 45 60 56 62 74 63 47 64
REMARK SMILES IDX 34 65 35 66 40 67 36 68 37 69 39 70 41 71 38 72 60 73 61 74
REMARK SMILES IDX 66 75 62 76 63 77 65 78 67 79 64 80 48 81 49 82 54 83 50 84
REMARK SMILES IDX 51 85 53 86 55 87 52 88
REMARK H PARENT 72 50 46 61
REMARK Flexibility Score: inf
ROOT
ATOM      1  C   UNL A   1      42.777  19.447  26.502  1.00  0.00     0.261 C 
ENDROOT
BRANCH   1   2
ATOM      2  O   UNL A   1      41.352  19.469  26.300  1.00  0.00    -0.459 OA
BRANCH   2   3
ATOM      3  C   UNL A   1      40.728  20.611  26.699  1.00  0.00     0.357 C 
ATOM      4  O   UNL A   1      41.191  21.461  27.441  1.00  0.00    -0.244 OA
BRANCH   3   5
ATOM      5  C   UNL A   1      39.415  20.742  25.996  1.00  0.00     0.152 A 
ATOM      6  C   UNL A   1      37.608  21.957  25.144  1.00  0.00     0.067 A 
ATOM      7  C   UNL A   1      38.799  21.964  25.848  1.00  0.00     0.064 A 
ATOM      8  N   UNL A   1      37.032  20.826  24.699  1.00  0.00    -0.237 NA
ATOM      9  C   UNL A   1      37.713  19.691  24.910  1.00  0.00     0.223 A 
ATOM     10  N   UNL A   1      38.891  19.586  25.531  1.00  0.00    -0.229 NA
BRANCH   6  11
ATOM     11  C   UNL A   1      36.890  23.206  24.846  1.00  0.00     0.029 C 
ATOM     12  C   UNL A   1      35.554  23.198  24.717  1.00  0.00     0.010 C 
BRANCH  12  13
ATOM     13  C   UNL A   1      34.663  24.275  24.252  1.00  0.00    -0.022 A 
ATOM     14  C   UNL A   1      33.759  26.544  24.191  1.00  0.00     0.162 A 
ATOM     15  C   UNL A   1      34.560  25.558  24.807  1.00  0.00     0.058 A 
ATOM     16  C   UNL A   1      33.075  26.258  23.002  1.00  0.00     0.160 A 
ATOM     17  C   UNL A   1      33.126  24.958  22.497  1.00  0.00     0.051 A 
ATOM     18  C   UNL A   1      33.905  23.981  23.111  1.00  0.00     0.012 A 
BRANCH  14  19
ATOM     19  O   UNL A   1      33.776  27.804  24.733  1.00  0.00    -0.485 OA
BRANCH  19  20
ATOM     20  C   UNL A   1      33.561  27.808  26.152  1.00  0.00     0.260 C 
BRANCH  20  21
ATOM     21  C   UNL A   1      32.274  28.548  26.455  1.00  0.00    -0.043 C 
ATOM     22  C   UNL A   1      31.758  29.470  25.620  1.00  0.00     0.011 C 
ATOM     23  C   UNL A   1      31.538  28.141  27.700  1.00  0.00     0.042 C 
ENDBRANCH  20  21
ENDBRANCH  19  20
ENDBRANCH  14  19
BRANCH  16  24
ATOM     24  O   UNL A   1      32.305  27.077  22.228  1.00  0.00    -0.493 OA
ATOM     25  C   UNL A   1      30.949  27.282  22.588  1.00  0.00     0.278 C 
ENDBRANCH  16  24
ENDBRANCH  12  13
ENDBRANCH   6  11
ENDBRANCH   3   5
ENDBRANCH   2   3
ENDBRANCH   1   2
BRANCH   1  26
ATOM     26  C   UNL A   1      43.530  19.859  25.232  1.00  0.00     0.202 C 
BRANCH  26  27
ATOM     27  O   UNL A   1      44.901  20.217  25.396  1.00  0.00    -0.374 OA
BRANCH  27  28
ATOM     28  C   UNL A   1      45.267  21.568  25.115  1.00  0.00     0.202 C 
BRANCH  28  29
ATOM     29  C   UNL A   1      44.242  22.412  24.347  1.00  0.00     0.261 C 
BRANCH  29  30
ATOM     30  O   UNL A   1      43.536  23.329  25.204  1.00  0.00    -0.460 OA
BRANCH  30  31
ATOM     31  C   UNL A   1      44.106  24.556  25.307  1.00  0.00     0.338 C 
ATOM     32  O   UNL A   1      45.002  25.018  24.623  1.00  0.00    -0.246 OA
BRANCH  31  33
ATOM     33  C   UNL A   1      43.368  25.371  26.291  1.00  0.00     0.060 A 
ATOM     34  C   UNL A   1      43.790  26.693  26.481  1.00  0.00     0.016 A 
ATOM     35  C   UNL A   1      42.340  24.835  27.069  1.00  0.00     0.016 A 
ATOM     36  C   UNL A   1      43.217  27.472  27.485  1.00  0.00     0.010 A 
ATOM     37  C   UNL A   1      41.771  25.617  28.081  1.00  0.00     0.010 A 
ATOM     38  C   UNL A   1      42.230  26.925  28.315  1.00  0.00    -0.014 A 
BRANCH  38  39
ATOM     39  C   UNL A   1      41.775  27.680  29.509  1.00  0.00     0.031 A 
ATOM     40  C   UNL A   1      40.556  28.555  29.402  1.00  0.00     0.074 A 
ATOM     41  C   UNL A   1      42.426  27.570  30.680  1.00  0.00     0.049 A 
ATOM     42  N   UNL A   1      40.009  29.331  30.302  1.00  0.00    -0.248 NA
ATOM     43  C   UNL A   1      39.861  28.554  28.105  1.00  0.00     0.031 C 
ATOM     44  C   UNL A   1      43.596  26.729  30.921  1.00  0.00     0.029 A 
ATOM     45  N   UNL A   1      42.195  28.182  31.887  1.00  0.00    -0.354 N 
ATOM     46  C   UNL A   1      38.914  29.917  29.680  1.00  0.00     0.074 A 
ATOM     47  C   UNL A   1      38.890  29.431  28.318  1.00  0.00     0.031 C 
ATOM     48  C   UNL A   1      43.989  26.886  32.197  1.00  0.00     0.029 A 
ATOM     49  C   UNL A   1      43.119  27.862  32.850  1.00  0.00     0.049 A 
ATOM     50  H   UNL A   1      41.438  28.791  32.046  1.00  0.00     0.167 HD
ATOM     51  C   UNL A   1      38.005  30.776  30.200  1.00  0.00     0.037 A 
ATOM     52  C   UNL A   1      43.260  28.322  34.109  1.00  0.00     0.037 A 
ATOM     53  C   UNL A   1      38.028  31.257  31.557  1.00  0.00     0.049 A 
ATOM     54  C   UNL A   1      42.277  29.331  34.643  1.00  0.00     0.074 A 
ATOM     55  C   UNL A   1      37.137  32.111  32.184  1.00  0.00     0.029 A 
ATOM     56  N   UNL A   1      38.996  30.931  32.495  1.00  0.00    -0.354 N 
ATOM     57  N   UNL A   1      41.229  29.856  34.055  1.00  0.00    -0.248 NA
ATOM     58  C   UNL A   1      42.495  29.805  36.017  1.00  0.00     0.031 C 
ATOM     59  C   UNL A   1      37.595  32.342  33.486  1.00  0.00     0.029 A 
ATOM     60  C   UNL A   1      38.740  31.589  33.686  1.00  0.00     0.049 A 
ATOM     61  H   UNL A   1      39.753  30.322  32.336  1.00  0.00     0.167 HD
ATOM     62  C   UNL A   1      40.648  30.699  34.995  1.00  0.00     0.074 A 
ATOM     63  C   UNL A   1      41.454  30.605  36.195  1.00  0.00     0.031 C 
ATOM     64  C   UNL A   1      39.546  31.480  34.876  1.00  0.00     0.037 A 
BRANCH  51  65
ATOM     65  C   UNL A   1      36.920  31.272  29.289  1.00  0.00     0.057 A 
ATOM     66  C   UNL A   1      35.819  30.477  28.945  1.00  0.00     0.134 A 
ATOM     67  C   UNL A   1      36.959  32.576  28.778  1.00  0.00     0.134 A 
ATOM     68  F   UNL A   1      35.728  29.214  29.390  1.00  0.00    -0.206 F 
ATOM     69  C   UNL A   1      34.808  30.953  28.109  1.00  0.00     0.040 A 
ATOM     70  C   UNL A   1      35.941  33.072  27.964  1.00  0.00     0.040 A 
ATOM     71  F   UNL A   1      37.983  33.393  29.073  1.00  0.00    -0.206 F 
ATOM     72  C   UNL A   1      34.864  32.257  27.622  1.00  0.00     0.006 A 
ENDBRANCH  51  65
BRANCH  52  73
ATOM     73  C   UNL A   1      44.386  27.847  34.952  1.00  0.00     0.057 A 
ATOM     74  C   UNL A   1      44.246  26.735  35.791  1.00  0.00     0.134 A 
ATOM     75  C   UNL A   1      45.620  28.509  34.959  1.00  0.00     0.134 A 
ATOM     76  F   UNL A   1      43.081  26.073  35.845  1.00  0.00    -0.206 F 
ATOM     77  C   UNL A   1      45.286  26.308  36.618  1.00  0.00     0.040 A 
ATOM     78  C   UNL A   1      46.677  28.078  35.762  1.00  0.00     0.040 A 
ATOM     79  F   UNL A   1      45.818  29.580  34.177  1.00  0.00    -0.206 F 
ATOM     80  C   UNL A   1      46.508  26.979  36.602  1.00  0.00     0.006 A 
ENDBRANCH  52  73
BRANCH  64  81
ATOM     81  C   UNL A   1      39.120  32.262  36.085  1.00  0.00     0.057 A 
ATOM     82  C   UNL A   1      39.552  33.576  36.308  1.00  0.00     0.134 A 
ATOM     83  C   UNL A   1      38.232  31.708  37.016  1.00  0.00     0.134 A 
ATOM     84  F   UNL A   1      40.412  34.162  35.462  1.00  0.00    -0.206 F 
ATOM     85  C   UNL A   1      39.135  34.301  37.427  1.00  0.00     0.040 A 
ATOM     86  C   UNL A   1      37.787  32.432  38.122  1.00  0.00     0.040 A 
ATOM     87  F   UNL A   1      37.771  30.457  36.857  1.00  0.00    -0.206 F 
ATOM     88  C   UNL A   1      38.243  33.731  38.333  1.00  0.00     0.006 A 
ENDBRANCH  64  81
ENDBRANCH  38  39
ENDBRANCH  31  33
ENDBRANCH  30  31
ENDBRANCH  29  30
ENDBRANCH  28  29
ENDBRANCH  27  28
ENDBRANCH  26  27
ENDBRANCH   1  26
TORSDOF 20
ENDMDL
