MODEL 1
REMARK VINA RESULT:     -11.9      0.000      0.000
REMARK SMILES CN(C(=O)C[C@@H]1SC(=O)N(c2ccccc2)C1=O)c1ccccc1C(=O)OCCOCCOC(=O)c1ccc(-c2c3nc(c(-c4c(F)cccc4F)c4ccc([nH]4)c(-c4c(F)cccc4F)c4nc(c(-c5c(F)cccc5F)c5ccc2[nH]5)C=C4)C=C3)cc1
REMARK SMILES IDX 28 1 27 2 25 3 26 4 24 5 19 6 20 7 21 8 23 9 22 10 2 11 1 12
REMARK SMILES IDX 3 13 4 14 5 15 6 16 7 17 17 18 8 19 10 20 18 21 9 22 11 23
REMARK SMILES IDX 12 24 16 25 13 26 15 27 14 28 29 29 30 30 31 31 32 32 33 33
REMARK SMILES IDX 34 34 35 35 36 36 37 37 89 38 38 39 88 40 39 41 40 42 41 43
REMARK SMILES IDX 82 44 42 45 87 46 81 47 83 48 43 49 86 50 80 51 79 52 44 54
REMARK SMILES IDX 70 55 53 56 69 57 54 58 57 59 68 60 84 61 55 62 56 63 67 65
REMARK SMILES IDX 85 66 58 67 45 68 46 69 51 70 47 71 48 72 50 73 52 74 49 75
REMARK SMILES IDX 71 76 72 77 77 78 73 79 74 80 76 81 78 82 75 83 59 84 60 85
REMARK SMILES IDX 65 86 61 87 62 88 64 89 66 90 63 91
REMARK H PARENT 83 53 57 64
REMARK Flexibility Score: inf
ROOT
ATOM      1  C   UNL A   1      36.174  24.079  25.267  1.00  0.00     0.261 C 
ENDROOT
BRANCH   1   2
ATOM      2  O   UNL A   1      34.835  24.441  25.654  1.00  0.00    -0.460 OA
BRANCH   2   3
ATOM      3  C   UNL A   1      34.203  25.335  24.868  1.00  0.00     0.340 C 
ATOM      4  O   UNL A   1      34.189  25.346  23.648  1.00  0.00    -0.246 OA
BRANCH   3   5
ATOM      5  C   UNL A   1      33.356  26.234  25.691  1.00  0.00     0.083 A 
ATOM      6  C   UNL A   1      31.982  26.080  25.965  1.00  0.00     0.058 A 
ATOM      7  C   UNL A   1      31.359  27.062  26.768  1.00  0.00     0.027 A 
ATOM      8  C   UNL A   1      32.048  28.178  27.241  1.00  0.00     0.002 A 
ATOM      9  C   UNL A   1      34.037  27.377  26.157  1.00  0.00     0.018 A 
ATOM     10  C   UNL A   1      33.386  28.346  26.920  1.00  0.00     0.001 A 
BRANCH   6  11
ATOM     11  N   UNL A   1      31.157  24.980  25.536  1.00  0.00    -0.315 N 
ATOM     12  C   UNL A   1      30.361  25.198  24.326  1.00  0.00     0.153 C 
BRANCH  11  13
ATOM     13  C   UNL A   1      31.218  23.787  26.270  1.00  0.00     0.228 C 
ATOM     14  O   UNL A   1      31.278  23.740  27.503  1.00  0.00    -0.274 OA
BRANCH  13  15
ATOM     15  C   UNL A   1      31.159  22.462  25.542  1.00  0.00     0.125 C 
BRANCH  15  16
ATOM     16  C   UNL A   1      32.484  22.185  24.846  1.00  0.00     0.156 C 
ATOM     17  S   UNL A   1      32.166  21.882  23.087  1.00  0.00    -0.050 SA
ATOM     18  C   UNL A   1      33.140  20.913  25.331  1.00  0.00     0.248 C 
ATOM     19  C   UNL A   1      32.398  20.154  23.259  1.00  0.00     0.293 C 
ATOM     20  N   UNL A   1      32.880  19.850  24.501  1.00  0.00    -0.240 N 
ATOM     21  O   UNL A   1      33.767  20.865  26.379  1.00  0.00    -0.273 OA
ATOM     22  O   UNL A   1      32.159  19.382  22.338  1.00  0.00    -0.261 OA
BRANCH  20  23
ATOM     23  C   UNL A   1      33.270  18.529  24.818  1.00  0.00     0.053 A 
ATOM     24  C   UNL A   1      32.372  17.655  25.439  1.00  0.00     0.027 A 
ATOM     25  C   UNL A   1      34.530  18.059  24.436  1.00  0.00     0.027 A 
ATOM     26  C   UNL A   1      32.730  16.322  25.655  1.00  0.00     0.002 A 
ATOM     27  C   UNL A   1      34.868  16.717  24.609  1.00  0.00     0.002 A 
ATOM     28  C   UNL A   1      33.967  15.848  25.219  1.00  0.00     0.000 A 
ENDBRANCH  20  23
ENDBRANCH  15  16
ENDBRANCH  13  15
ENDBRANCH  11  13
ENDBRANCH   6  11
ENDBRANCH   3   5
ENDBRANCH   2   3
ENDBRANCH   1   2
BRANCH   1  29
ATOM     29  C   UNL A   1      36.159  22.833  24.367  1.00  0.00     0.202 C 
BRANCH  29  30
ATOM     30  O   UNL A   1      37.418  22.161  24.271  1.00  0.00    -0.374 OA
BRANCH  30  31
ATOM     31  C   UNL A   1      37.734  21.286  25.356  1.00  0.00     0.202 C 
BRANCH  31  32
ATOM     32  C   UNL A   1      39.220  21.187  25.722  1.00  0.00     0.261 C 
BRANCH  32  33
ATOM     33  O   UNL A   1      39.656  19.858  26.060  1.00  0.00    -0.460 OA
BRANCH  33  34
ATOM     34  C   UNL A   1      40.997  19.664  26.064  1.00  0.00     0.338 C 
ATOM     35  O   UNL A   1      41.598  18.664  25.708  1.00  0.00    -0.246 OA
BRANCH  34  36
ATOM     36  C   UNL A   1      41.701  20.893  26.510  1.00  0.00     0.060 A 
ATOM     37  C   UNL A   1      41.703  21.206  27.877  1.00  0.00     0.016 A 
ATOM     38  C   UNL A   1      42.299  21.771  25.605  1.00  0.00     0.016 A 
ATOM     39  C   UNL A   1      42.304  22.386  28.345  1.00  0.00     0.010 A 
ATOM     40  C   UNL A   1      42.900  22.947  26.075  1.00  0.00     0.010 A 
ATOM     41  C   UNL A   1      42.898  23.278  27.446  1.00  0.00    -0.014 A 
BRANCH  41  42
ATOM     42  C   UNL A   1      43.367  24.633  27.859  1.00  0.00     0.031 A 
ATOM     43  C   UNL A   1      42.343  25.719  28.052  1.00  0.00     0.074 A 
ATOM     44  C   UNL A   1      44.669  24.949  28.007  1.00  0.00     0.049 A 
ATOM     45  N   UNL A   1      42.523  26.990  28.301  1.00  0.00    -0.248 NA
ATOM     46  C   UNL A   1      40.931  25.308  27.995  1.00  0.00     0.031 C 
ATOM     47  C   UNL A   1      45.789  24.018  27.984  1.00  0.00     0.029 A 
ATOM     48  N   UNL A   1      45.273  26.185  28.122  1.00  0.00    -0.354 N 
ATOM     49  C   UNL A   1      41.257  27.509  28.519  1.00  0.00     0.074 A 
ATOM     50  C   UNL A   1      40.310  26.451  28.240  1.00  0.00     0.031 C 
ATOM     51  C   UNL A   1      46.938  24.714  27.907  1.00  0.00     0.029 A 
ATOM     52  C   UNL A   1      46.633  26.140  27.908  1.00  0.00     0.049 A 
ATOM     53  H   UNL A   1      44.782  27.012  28.335  1.00  0.00     0.167 HD
ATOM     54  C   UNL A   1      40.915  28.730  28.992  1.00  0.00     0.037 A 
ATOM     55  C   UNL A   1      47.525  27.131  27.713  1.00  0.00     0.037 A 
ATOM     56  C   UNL A   1      41.846  29.795  29.246  1.00  0.00     0.049 A 
ATOM     57  C   UNL A   1      47.108  28.548  27.987  1.00  0.00     0.074 A 
ATOM     58  C   UNL A   1      41.597  31.059  29.750  1.00  0.00     0.029 A 
ATOM     59  N   UNL A   1      43.208  29.726  28.994  1.00  0.00    -0.354 N 
ATOM     60  N   UNL A   1      45.923  29.011  28.301  1.00  0.00    -0.248 NA
ATOM     61  C   UNL A   1      48.170  29.566  27.997  1.00  0.00     0.031 C 
ATOM     62  C   UNL A   1      42.802  31.773  29.759  1.00  0.00     0.029 A 
ATOM     63  C   UNL A   1      43.807  30.937  29.302  1.00  0.00     0.049 A 
ATOM     64  H   UNL A   1      43.679  28.935  28.648  1.00  0.00     0.167 HD
ATOM     65  C   UNL A   1      46.119  30.337  28.660  1.00  0.00     0.074 A 
ATOM     66  C   UNL A   1      47.526  30.620  28.478  1.00  0.00     0.031 C 
ATOM     67  C   UNL A   1      45.212  31.218  29.148  1.00  0.00     0.037 A 
BRANCH  54  68
ATOM     68  C   UNL A   1      39.468  28.942  29.312  1.00  0.00     0.057 A 
ATOM     69  C   UNL A   1      38.575  29.405  28.333  1.00  0.00     0.134 A 
ATOM     70  C   UNL A   1      38.959  28.689  30.588  1.00  0.00     0.134 A 
ATOM     71  F   UNL A   1      39.008  29.680  27.093  1.00  0.00    -0.206 F 
ATOM     72  C   UNL A   1      37.232  29.637  28.624  1.00  0.00     0.040 A 
ATOM     73  C   UNL A   1      37.610  28.895  30.884  1.00  0.00     0.040 A 
ATOM     74  F   UNL A   1      39.761  28.244  31.567  1.00  0.00    -0.206 F 
ATOM     75  C   UNL A   1      36.745  29.377  29.904  1.00  0.00     0.006 A 
ENDBRANCH  54  68
BRANCH  55  76
ATOM     76  C   UNL A   1      48.928  26.835  27.322  1.00  0.00     0.057 A 
ATOM     77  C   UNL A   1      49.294  26.732  25.975  1.00  0.00     0.134 A 
ATOM     78  C   UNL A   1      49.911  26.558  28.280  1.00  0.00     0.134 A 
ATOM     79  F   UNL A   1      48.386  26.949  25.014  1.00  0.00    -0.206 F 
ATOM     80  C   UNL A   1      50.579  26.338  25.594  1.00  0.00     0.040 A 
ATOM     81  C   UNL A   1      51.206  26.180  27.912  1.00  0.00     0.040 A 
ATOM     82  F   UNL A   1      49.620  26.611  29.589  1.00  0.00    -0.206 F 
ATOM     83  C   UNL A   1      51.539  26.059  26.563  1.00  0.00     0.006 A 
ENDBRANCH  55  76
BRANCH  67  84
ATOM     84  C   UNL A   1      45.720  32.552  29.604  1.00  0.00     0.057 A 
ATOM     85  C   UNL A   1      45.759  33.667  28.759  1.00  0.00     0.134 A 
ATOM     86  C   UNL A   1      46.147  32.730  30.928  1.00  0.00     0.134 A 
ATOM     87  F   UNL A   1      45.382  33.560  27.475  1.00  0.00    -0.206 F 
ATOM     88  C   UNL A   1      46.223  34.904  29.207  1.00  0.00     0.040 A 
ATOM     89  C   UNL A   1      46.585  33.969  31.395  1.00  0.00     0.040 A 
ATOM     90  F   UNL A   1      46.132  31.703  31.793  1.00  0.00    -0.206 F 
ATOM     91  C   UNL A   1      46.629  35.060  30.532  1.00  0.00     0.006 A 
ENDBRANCH  67  84
ENDBRANCH  41  42
ENDBRANCH  34  36
ENDBRANCH  33  34
ENDBRANCH  32  33
ENDBRANCH  31  32
ENDBRANCH  30  31
ENDBRANCH  29  30
ENDBRANCH   1  29
TORSDOF 19
ENDMDL
MODEL 2
REMARK VINA RESULT:     -11.4      4.808      9.998
REMARK SMILES CN(C(=O)C[C@@H]1SC(=O)N(c2ccccc2)C1=O)c1ccccc1C(=O)OCCOCCOC(=O)c1ccc(-c2c3nc(c(-c4c(F)cccc4F)c4ccc([nH]4)c(-c4c(F)cccc4F)c4nc(c(-c5c(F)cccc5F)c5ccc2[nH]5)C=C4)C=C3)cc1
REMARK SMILES IDX 28 1 27 2 25 3 26 4 24 5 19 6 20 7 21 8 23 9 22 10 2 11 1 12
REMARK SMILES IDX 3 13 4 14 5 15 6 16 7 17 17 18 8 19 10 20 18 21 9 22 11 23
REMARK SMILES IDX 12 24 16 25 13 26 15 27 14 28 29 29 30 30 31 31 32 32 33 33
REMARK SMILES IDX 34 34 35 35 36 36 37 37 89 38 38 39 88 40 39 41 40 42 41 43
REMARK SMILES IDX 82 44 42 45 87 46 81 47 83 48 43 49 86 50 80 51 79 52 44 54
REMARK SMILES IDX 70 55 53 56 69 57 54 58 57 59 68 60 84 61 55 62 56 63 67 65
REMARK SMILES IDX 85 66 58 67 45 68 46 69 51 70 47 71 48 72 50 73 52 74 49 75
REMARK SMILES IDX 71 76 72 77 77 78 73 79 74 80 76 81 78 82 75 83 59 84 60 85
REMARK SMILES IDX 65 86 61 87 62 88 64 89 66 90 63 91
REMARK H PARENT 83 53 57 64
REMARK Flexibility Score: inf
ROOT
ATOM      1  C   UNL A   1      33.197  28.192  26.833  1.00  0.00     0.261 C 
ENDROOT
BRANCH   1   2
ATOM      2  O   UNL A   1      33.154  27.262  25.734  1.00  0.00    -0.460 OA
BRANCH   2   3
ATOM      3  C   UNL A   1      32.860  25.983  26.041  1.00  0.00     0.340 C 
ATOM      4  O   UNL A   1      31.911  25.596  26.703  1.00  0.00    -0.246 OA
BRANCH   3   5
ATOM      5  C   UNL A   1      33.761  25.059  25.309  1.00  0.00     0.083 A 
ATOM      6  C   UNL A   1      33.812  24.861  23.914  1.00  0.00     0.058 A 
ATOM      7  C   UNL A   1      34.743  23.920  23.419  1.00  0.00     0.027 A 
ATOM      8  C   UNL A   1      35.557  23.168  24.265  1.00  0.00     0.002 A 
ATOM      9  C   UNL A   1      34.575  24.278  26.156  1.00  0.00     0.018 A 
ATOM     10  C   UNL A   1      35.460  23.334  25.637  1.00  0.00     0.001 A 
BRANCH   6  11
ATOM     11  N   UNL A   1      33.026  25.567  22.935  1.00  0.00    -0.315 N 
ATOM     12  C   UNL A   1      33.707  26.637  22.203  1.00  0.00     0.153 C 
BRANCH  11  13
ATOM     13  C   UNL A   1      31.704  25.148  22.728  1.00  0.00     0.228 C 
ATOM     14  O   UNL A   1      31.323  23.981  22.863  1.00  0.00    -0.274 OA
BRANCH  13  15
ATOM     15  C   UNL A   1      30.649  26.169  22.366  1.00  0.00     0.125 C 
BRANCH  15  16
ATOM     16  C   UNL A   1      30.262  26.984  23.593  1.00  0.00     0.156 C 
ATOM     17  S   UNL A   1      28.573  26.538  24.079  1.00  0.00    -0.050 SA
ATOM     18  C   UNL A   1      30.189  28.466  23.307  1.00  0.00     0.248 C 
ATOM     19  C   UNL A   1      27.908  28.022  23.427  1.00  0.00     0.293 C 
ATOM     20  N   UNL A   1      28.904  28.880  23.057  1.00  0.00    -0.240 N 
ATOM     21  O   UNL A   1      31.190  29.165  23.251  1.00  0.00    -0.273 OA
ATOM     22  O   UNL A   1      26.698  28.207  23.363  1.00  0.00    -0.261 OA
BRANCH  20  23
ATOM     23  C   UNL A   1      28.602  30.193  22.630  1.00  0.00     0.053 A 
ATOM     24  C   UNL A   1      28.664  31.262  23.531  1.00  0.00     0.027 A 
ATOM     25  C   UNL A   1      28.320  30.446  21.285  1.00  0.00     0.027 A 
ATOM     26  C   UNL A   1      28.464  32.569  23.079  1.00  0.00     0.002 A 
ATOM     27  C   UNL A   1      28.170  31.755  20.827  1.00  0.00     0.002 A 
ATOM     28  C   UNL A   1      28.241  32.817  21.725  1.00  0.00     0.000 A 
ENDBRANCH  20  23
ENDBRANCH  15  16
ENDBRANCH  13  15
ENDBRANCH  11  13
ENDBRANCH   6  11
ENDBRANCH   3   5
ENDBRANCH   2   3
ENDBRANCH   1   2
BRANCH   1  29
ATOM     29  C   UNL A   1      31.996  29.149  26.779  1.00  0.00     0.202 C 
BRANCH  29  30
ATOM     30  O   UNL A   1      32.269  30.402  26.144  1.00  0.00    -0.374 OA
BRANCH  30  31
ATOM     31  C   UNL A   1      31.702  31.551  26.777  1.00  0.00     0.202 C 
BRANCH  31  32
ATOM     32  C   UNL A   1      32.705  32.563  27.344  1.00  0.00     0.261 C 
BRANCH  32  33
ATOM     33  O   UNL A   1      32.137  33.854  27.635  1.00  0.00    -0.460 OA
BRANCH  33  34
ATOM     34  C   UNL A   1      32.891  34.661  28.420  1.00  0.00     0.338 C 
ATOM     35  O   UNL A   1      32.615  35.789  28.796  1.00  0.00    -0.246 OA
BRANCH  34  36
ATOM     36  C   UNL A   1      34.129  33.964  28.853  1.00  0.00     0.060 A 
ATOM     37  C   UNL A   1      34.095  33.211  30.034  1.00  0.00     0.016 A 
ATOM     38  C   UNL A   1      35.330  34.094  28.155  1.00  0.00     0.016 A 
ATOM     39  C   UNL A   1      35.252  32.580  30.519  1.00  0.00     0.010 A 
ATOM     40  C   UNL A   1      36.484  33.462  28.641  1.00  0.00     0.010 A 
ATOM     41  C   UNL A   1      36.465  32.710  29.835  1.00  0.00    -0.014 A 
BRANCH  41  42
ATOM     42  C   UNL A   1      37.759  32.237  30.406  1.00  0.00     0.031 A 
ATOM     43  C   UNL A   1      38.291  30.900  29.968  1.00  0.00     0.074 A 
ATOM     44  C   UNL A   1      38.446  32.922  31.343  1.00  0.00     0.049 A 
ATOM     45  N   UNL A   1      39.332  30.239  30.406  1.00  0.00    -0.248 NA
ATOM     46  C   UNL A   1      37.577  30.239  28.863  1.00  0.00     0.031 C 
ATOM     47  C   UNL A   1      38.162  34.275  31.800  1.00  0.00     0.029 A 
ATOM     48  N   UNL A   1      39.492  32.516  32.147  1.00  0.00    -0.354 N 
ATOM     49  C   UNL A   1      39.449  29.137  29.575  1.00  0.00     0.074 A 
ATOM     50  C   UNL A   1      38.300  29.142  28.696  1.00  0.00     0.031 C 
ATOM     51  C   UNL A   1      38.886  34.525  32.907  1.00  0.00     0.029 A 
ATOM     52  C   UNL A   1      39.707  33.361  33.214  1.00  0.00     0.049 A 
ATOM     53  H   UNL A   1      40.027  31.708  31.976  1.00  0.00     0.167 HD
ATOM     54  C   UNL A   1      40.466  28.247  29.493  1.00  0.00     0.037 A 
ATOM     55  C   UNL A   1      40.458  33.203  34.322  1.00  0.00     0.037 A 
ATOM     56  C   UNL A   1      41.597  28.218  30.379  1.00  0.00     0.049 A 
ATOM     57  C   UNL A   1      41.436  32.064  34.380  1.00  0.00     0.074 A 
ATOM     58  C   UNL A   1      42.690  27.369  30.358  1.00  0.00     0.029 A 
ATOM     59  N   UNL A   1      41.770  29.066  31.462  1.00  0.00    -0.354 N 
ATOM     60  N   UNL A   1      41.609  31.085  33.527  1.00  0.00    -0.248 NA
ATOM     61  C   UNL A   1      42.402  32.069  35.490  1.00  0.00     0.031 C 
ATOM     62  C   UNL A   1      43.502  27.674  31.457  1.00  0.00     0.029 A 
ATOM     63  C   UNL A   1      42.936  28.740  32.136  1.00  0.00     0.049 A 
ATOM     64  H   UNL A   1      41.156  29.792  31.714  1.00  0.00     0.167 HD
ATOM     65  C   UNL A   1      42.768  30.435  33.929  1.00  0.00     0.074 A 
ATOM     66  C   UNL A   1      43.228  31.098  35.129  1.00  0.00     0.031 C 
ATOM     67  C   UNL A   1      43.414  29.413  33.317  1.00  0.00     0.037 A 
BRANCH  54  68
ATOM     68  C   UNL A   1      40.408  27.269  28.361  1.00  0.00     0.057 A 
ATOM     69  C   UNL A   1      39.680  26.075  28.478  1.00  0.00     0.134 A 
ATOM     70  C   UNL A   1      41.073  27.508  27.156  1.00  0.00     0.134 A 
ATOM     71  F   UNL A   1      39.032  25.782  29.616  1.00  0.00    -0.206 F 
ATOM     72  C   UNL A   1      39.642  25.140  27.444  1.00  0.00     0.040 A 
ATOM     73  C   UNL A   1      41.022  26.591  26.105  1.00  0.00     0.040 A 
ATOM     74  F   UNL A   1      41.785  28.632  26.981  1.00  0.00    -0.206 F 
ATOM     75  C   UNL A   1      40.312  25.400  26.251  1.00  0.00     0.006 A 
ENDBRANCH  54  68
BRANCH  55  76
ATOM     76  C   UNL A   1      40.399  34.185  35.435  1.00  0.00     0.057 A 
ATOM     77  C   UNL A   1      39.532  33.997  36.517  1.00  0.00     0.134 A 
ATOM     78  C   UNL A   1      41.137  35.375  35.400  1.00  0.00     0.134 A 
ATOM     79  F   UNL A   1      38.773  32.894  36.584  1.00  0.00    -0.206 F 
ATOM     80  C   UNL A   1      39.378  34.967  37.510  1.00  0.00     0.040 A 
ATOM     81  C   UNL A   1      41.006  36.347  36.397  1.00  0.00     0.040 A 
ATOM     82  F   UNL A   1      41.967  35.633  34.378  1.00  0.00    -0.206 F 
ATOM     83  C   UNL A   1      40.115  36.147  37.452  1.00  0.00     0.006 A 
ENDBRANCH  55  76
BRANCH  67  84
ATOM     84  C   UNL A   1      44.738  28.994  33.881  1.00  0.00     0.057 A 
ATOM     85  C   UNL A   1      44.857  27.978  34.836  1.00  0.00     0.134 A 
ATOM     86  C   UNL A   1      45.920  29.601  33.432  1.00  0.00     0.134 A 
ATOM     87  F   UNL A   1      43.763  27.370  35.321  1.00  0.00    -0.206 F 
ATOM     88  C   UNL A   1      46.100  27.593  35.339  1.00  0.00     0.040 A 
ATOM     89  C   UNL A   1      47.170  29.205  33.906  1.00  0.00     0.040 A 
ATOM     90  F   UNL A   1      45.878  30.579  32.515  1.00  0.00    -0.206 F 
ATOM     91  C   UNL A   1      47.263  28.201  34.867  1.00  0.00     0.006 A 
ENDBRANCH  67  84
ENDBRANCH  41  42
ENDBRANCH  34  36
ENDBRANCH  33  34
ENDBRANCH  32  33
ENDBRANCH  31  32
ENDBRANCH  30  31
ENDBRANCH  29  30
ENDBRANCH   1  29
TORSDOF 19
ENDMDL
MODEL 3
REMARK VINA RESULT:     -11.4      1.870      4.684
REMARK SMILES CN(C(=O)C[C@@H]1SC(=O)N(c2ccccc2)C1=O)c1ccccc1C(=O)OCCOCCOC(=O)c1ccc(-c2c3nc(c(-c4c(F)cccc4F)c4ccc([nH]4)c(-c4c(F)cccc4F)c4nc(c(-c5c(F)cccc5F)c5ccc2[nH]5)C=C4)C=C3)cc1
REMARK SMILES IDX 28 1 27 2 25 3 26 4 24 5 19 6 20 7 21 8 23 9 22 10 2 11 1 12
REMARK SMILES IDX 3 13 4 14 5 15 6 16 7 17 17 18 8 19 10 20 18 21 9 22 11 23
REMARK SMILES IDX 12 24 16 25 13 26 15 27 14 28 29 29 30 30 31 31 32 32 33 33
REMARK SMILES IDX 34 34 35 35 36 36 37 37 89 38 38 39 88 40 39 41 40 42 41 43
REMARK SMILES IDX 82 44 42 45 87 46 81 47 83 48 43 49 86 50 80 51 79 52 44 54
REMARK SMILES IDX 70 55 53 56 69 57 54 58 57 59 68 60 84 61 55 62 56 63 67 65
REMARK SMILES IDX 85 66 58 67 45 68 46 69 51 70 47 71 48 72 50 73 52 74 49 75
REMARK SMILES IDX 71 76 72 77 77 78 73 79 74 80 76 81 78 82 75 83 59 84 60 85
REMARK SMILES IDX 65 86 61 87 62 88 64 89 66 90 63 91
REMARK H PARENT 83 53 57 64
REMARK Flexibility Score: inf
ROOT
ATOM      1  C   UNL A   1      36.427  23.294  26.121  1.00  0.00     0.261 C 
ENDROOT
BRANCH   1   2
ATOM      2  O   UNL A   1      35.364  23.151  25.160  1.00  0.00    -0.460 OA
BRANCH   2   3
ATOM      3  C   UNL A   1      34.170  22.751  25.640  1.00  0.00     0.340 C 
ATOM      4  O   UNL A   1      33.589  23.207  26.611  1.00  0.00    -0.246 OA
BRANCH   3   5
ATOM      5  C   UNL A   1      33.546  21.774  24.714  1.00  0.00     0.083 A 
ATOM      6  C   UNL A   1      32.639  22.060  23.673  1.00  0.00     0.058 A 
ATOM      7  C   UNL A   1      32.153  20.974  22.911  1.00  0.00     0.027 A 
ATOM      8  C   UNL A   1      32.504  19.654  23.192  1.00  0.00     0.002 A 
ATOM      9  C   UNL A   1      33.878  20.434  25.002  1.00  0.00     0.018 A 
ATOM     10  C   UNL A   1      33.355  19.382  24.252  1.00  0.00     0.001 A 
BRANCH   6  11
ATOM     11  N   UNL A   1      32.194  23.373  23.283  1.00  0.00    -0.315 N 
ATOM     12  C   UNL A   1      30.795  23.698  23.573  1.00  0.00     0.153 C 
BRANCH  11  13
ATOM     13  C   UNL A   1      33.133  24.242  22.710  1.00  0.00     0.228 C 
ATOM     14  O   UNL A   1      33.653  24.061  21.604  1.00  0.00    -0.274 OA
BRANCH  13  15
ATOM     15  C   UNL A   1      33.516  25.509  23.442  1.00  0.00     0.125 C 
BRANCH  15  16
ATOM     16  C   UNL A   1      33.366  26.713  22.522  1.00  0.00     0.156 C 
ATOM     17  S   UNL A   1      33.855  28.205  23.430  1.00  0.00    -0.050 SA
ATOM     18  C   UNL A   1      31.929  26.969  22.130  1.00  0.00     0.248 C 
ATOM     19  C   UNL A   1      32.192  28.715  23.646  1.00  0.00     0.293 C 
ATOM     20  N   UNL A   1      31.345  27.933  22.914  1.00  0.00    -0.240 N 
ATOM     21  O   UNL A   1      31.372  26.324  21.254  1.00  0.00    -0.273 OA
ATOM     22  O   UNL A   1      31.904  29.670  24.357  1.00  0.00    -0.261 OA
BRANCH  20  23
ATOM     23  C   UNL A   1      29.969  28.246  22.828  1.00  0.00     0.053 A 
ATOM     24  C   UNL A   1      29.022  27.471  23.506  1.00  0.00     0.027 A 
ATOM     25  C   UNL A   1      29.551  29.385  22.133  1.00  0.00     0.027 A 
ATOM     26  C   UNL A   1      27.677  27.848  23.501  1.00  0.00     0.002 A 
ATOM     27  C   UNL A   1      28.216  29.786  22.169  1.00  0.00     0.002 A 
ATOM     28  C   UNL A   1      27.278  29.017  22.853  1.00  0.00     0.000 A 
ENDBRANCH  20  23
ENDBRANCH  15  16
ENDBRANCH  13  15
ENDBRANCH  11  13
ENDBRANCH   6  11
ENDBRANCH   3   5
ENDBRANCH   2   3
ENDBRANCH   1   2
BRANCH   1  29
ATOM     29  C   UNL A   1      37.648  22.457  25.708  1.00  0.00     0.202 C 
BRANCH  29  30
ATOM     30  O   UNL A   1      37.394  21.528  24.649  1.00  0.00    -0.374 OA
BRANCH  30  31
ATOM     31  C   UNL A   1      37.497  20.148  25.002  1.00  0.00     0.202 C 
BRANCH  31  32
ATOM     32  C   UNL A   1      38.917  19.568  25.019  1.00  0.00     0.261 C 
BRANCH  32  33
ATOM     33  O   UNL A   1      39.667  19.883  26.207  1.00  0.00    -0.460 OA
BRANCH  33  34
ATOM     34  C   UNL A   1      41.006  19.703  26.119  1.00  0.00     0.338 C 
ATOM     35  O   UNL A   1      41.592  18.695  25.757  1.00  0.00    -0.246 OA
BRANCH  34  36
ATOM     36  C   UNL A   1      41.727  20.955  26.464  1.00  0.00     0.060 A 
ATOM     37  C   UNL A   1      41.933  21.257  27.817  1.00  0.00     0.016 A 
ATOM     38  C   UNL A   1      42.140  21.861  25.487  1.00  0.00     0.016 A 
ATOM     39  C   UNL A   1      42.557  22.456  28.200  1.00  0.00     0.010 A 
ATOM     40  C   UNL A   1      42.765  23.057  25.871  1.00  0.00     0.010 A 
ATOM     41  C   UNL A   1      42.968  23.377  27.230  1.00  0.00    -0.014 A 
BRANCH  41  42
ATOM     42  C   UNL A   1      43.446  24.746  27.581  1.00  0.00     0.031 A 
ATOM     43  C   UNL A   1      42.423  25.808  27.882  1.00  0.00     0.074 A 
ATOM     44  C   UNL A   1      44.748  25.095  27.582  1.00  0.00     0.049 A 
ATOM     45  N   UNL A   1      42.598  27.086  28.104  1.00  0.00    -0.248 NA
ATOM     46  C   UNL A   1      41.024  25.363  27.985  1.00  0.00     0.031 C 
ATOM     47  C   UNL A   1      45.881  24.191  27.439  1.00  0.00     0.029 A 
ATOM     48  N   UNL A   1      45.330  26.346  27.623  1.00  0.00    -0.354 N 
ATOM     49  C   UNL A   1      41.351  27.575  28.459  1.00  0.00     0.074 A 
ATOM     50  C   UNL A   1      40.406  26.493  28.292  1.00  0.00     0.031 C 
ATOM     51  C   UNL A   1      46.997  24.914  27.231  1.00  0.00     0.029 A 
ATOM     52  C   UNL A   1      46.659  26.332  27.260  1.00  0.00     0.049 A 
ATOM     53  H   UNL A   1      44.846  27.162  27.885  1.00  0.00     0.167 HD
ATOM     54  C   UNL A   1      41.034  28.791  28.961  1.00  0.00     0.037 A 
ATOM     55  C   UNL A   1      47.498  27.343  26.961  1.00  0.00     0.037 A 
ATOM     56  C   UNL A   1      41.961  29.881  29.104  1.00  0.00     0.049 A 
ATOM     57  C   UNL A   1      47.080  28.752  27.273  1.00  0.00     0.074 A 
ATOM     58  C   UNL A   1      41.738  31.142  29.627  1.00  0.00     0.029 A 
ATOM     59  N   UNL A   1      43.287  29.843  28.702  1.00  0.00    -0.354 N 
ATOM     60  N   UNL A   1      45.925  29.188  27.714  1.00  0.00    -0.248 NA
ATOM     61  C   UNL A   1      48.110  29.795  27.160  1.00  0.00     0.031 C 
ATOM     62  C   UNL A   1      42.918  31.885  29.498  1.00  0.00     0.029 A 
ATOM     63  C   UNL A   1      43.886  31.070  28.936  1.00  0.00     0.049 A 
ATOM     64  H   UNL A   1      43.736  29.060  28.310  1.00  0.00     0.167 HD
ATOM     65  C   UNL A   1      46.127  30.521  28.043  1.00  0.00     0.074 A 
ATOM     66  C   UNL A   1      47.497  30.837  27.704  1.00  0.00     0.031 C 
ATOM     67  C   UNL A   1      45.258  31.384  28.625  1.00  0.00     0.037 A 
BRANCH  54  68
ATOM     68  C   UNL A   1      39.627  28.971  29.439  1.00  0.00     0.057 A 
ATOM     69  C   UNL A   1      39.278  28.693  30.770  1.00  0.00     0.134 A 
ATOM     70  C   UNL A   1      38.618  29.419  28.583  1.00  0.00     0.134 A 
ATOM     71  F   UNL A   1      40.200  28.245  31.635  1.00  0.00    -0.206 F 
ATOM     72  C   UNL A   1      37.966  28.826  31.222  1.00  0.00     0.040 A 
ATOM     73  C   UNL A   1      37.305  29.579  29.031  1.00  0.00     0.040 A 
ATOM     74  F   UNL A   1      38.888  29.703  27.300  1.00  0.00    -0.206 F 
ATOM     75  C   UNL A   1      36.975  29.275  30.350  1.00  0.00     0.006 A 
ENDBRANCH  54  68
BRANCH  55  76
ATOM     76  C   UNL A   1      48.856  27.078  26.418  1.00  0.00     0.057 A 
ATOM     77  C   UNL A   1      49.086  27.042  25.038  1.00  0.00     0.134 A 
ATOM     78  C   UNL A   1      49.931  26.765  27.259  1.00  0.00     0.134 A 
ATOM     79  F   UNL A   1      48.084  27.296  24.184  1.00  0.00    -0.206 F 
ATOM     80  C   UNL A   1      50.327  26.677  24.511  1.00  0.00     0.040 A 
ATOM     81  C   UNL A   1      51.184  26.416  26.745  1.00  0.00     0.040 A 
ATOM     82  F   UNL A   1      49.773  26.754  28.591  1.00  0.00    -0.206 F 
ATOM     83  C   UNL A   1      51.381  26.362  25.365  1.00  0.00     0.006 A 
ENDBRANCH  55  76
BRANCH  67  84
ATOM     84  C   UNL A   1      45.780  32.733  29.015  1.00  0.00     0.057 A 
ATOM     85  C   UNL A   1      45.664  33.850  28.181  1.00  0.00     0.134 A 
ATOM     86  C   UNL A   1      46.382  32.922  30.268  1.00  0.00     0.134 A 
ATOM     87  F   UNL A   1      45.116  33.734  26.961  1.00  0.00    -0.206 F 
ATOM     88  C   UNL A   1      46.145  35.102  28.568  1.00  0.00     0.040 A 
ATOM     89  C   UNL A   1      46.840  34.174  30.678  1.00  0.00     0.040 A 
ATOM     90  F   UNL A   1      46.522  31.893  31.119  1.00  0.00    -0.206 F 
ATOM     91  C   UNL A   1      46.727  35.268  29.825  1.00  0.00     0.006 A 
ENDBRANCH  67  84
ENDBRANCH  41  42
ENDBRANCH  34  36
ENDBRANCH  33  34
ENDBRANCH  32  33
ENDBRANCH  31  32
ENDBRANCH  30  31
ENDBRANCH  29  30
ENDBRANCH   1  29
TORSDOF 19
ENDMDL
