MODEL 1
REMARK VINA RESULT:     -11.1      0.000      0.000
REMARK SMILES O=C(Cc1ccccc1-c1ccn(C(F)F)c(=O)c1)OCCOCCOC(=O)c1ccc(-c2c3nc(c(-c4c(F)cccc4F)c4ccc([nH]4)c(-c4c(F)cccc4F)c4nc(c(-c5c(F)cccc5F)c5ccc2[nH]5)C=C4)C=C3)cc1
REMARK SMILES IDX 22 1 21 2 20 3 2 4 1 5 3 6 4 7 5 8 9 9 6 10 8 11 7 12 10 13
REMARK SMILES IDX 11 14 19 15 12 16 17 17 13 18 18 19 14 20 15 21 16 22 23 23
REMARK SMILES IDX 24 24 25 25 26 26 27 27 28 28 29 29 30 30 82 31 31 32 81 33
REMARK SMILES IDX 32 34 33 35 34 36 75 37 35 38 80 39 74 40 76 41 36 42 79 43
REMARK SMILES IDX 73 44 72 45 37 47 63 48 46 49 62 50 47 51 50 52 61 53 77 54
REMARK SMILES IDX 48 55 49 56 60 58 78 59 51 60 38 61 39 62 44 63 40 64 41 65
REMARK SMILES IDX 43 66 45 67 42 68 64 69 65 70 70 71 66 72 67 73 69 74 71 75
REMARK SMILES IDX 68 76 52 77 53 78 58 79 54 80 55 81 57 82 59 83 56 84
REMARK H PARENT 76 46 50 57
REMARK Flexibility Score: inf
ROOT
ATOM      1  C   UNL A   1      33.282  30.609  27.107  1.00  0.00     0.202 C 
ENDROOT
BRANCH   1   2
ATOM      2  C   UNL A   1      33.604  29.168  27.508  1.00  0.00     0.261 C 
BRANCH   2   3
ATOM      3  O   UNL A   1      32.501  28.263  27.578  1.00  0.00    -0.463 OA
BRANCH   3   4
ATOM      4  C   UNL A   1      32.468  27.287  26.630  1.00  0.00     0.310 C 
ATOM      5  O   UNL A   1      33.415  27.068  25.887  1.00  0.00    -0.252 OA
BRANCH   4   6
ATOM      6  C   UNL A   1      31.092  26.735  26.424  1.00  0.00     0.158 C 
BRANCH   6   7
ATOM      7  C   UNL A   1      30.789  25.711  25.345  1.00  0.00    -0.029 A 
ATOM      8  C   UNL A   1      31.279  24.423  25.669  1.00  0.00     0.005 A 
ATOM      9  C   UNL A   1      30.243  25.907  24.051  1.00  0.00    -0.014 A 
ATOM     10  C   UNL A   1      31.253  23.371  24.760  1.00  0.00     0.000 A 
ATOM     11  C   UNL A   1      30.230  24.829  23.144  1.00  0.00     0.009 A 
ATOM     12  C   UNL A   1      30.736  23.577  23.492  1.00  0.00     0.001 A 
BRANCH   9  13
ATOM     13  C   UNL A   1      29.698  27.174  23.521  1.00  0.00    -0.011 A 
ATOM     14  C   UNL A   1      30.541  28.256  23.027  1.00  0.00     0.027 A 
ATOM     15  C   UNL A   1      28.363  27.332  23.495  1.00  0.00     0.080 A 
ATOM     16  C   UNL A   1      30.029  29.491  22.910  1.00  0.00     0.095 A 
ATOM     17  C   UNL A   1      27.770  28.672  23.243  1.00  0.00     0.255 A 
ATOM     18  N   UNL A   1      28.684  29.709  23.147  1.00  0.00    -0.258 N 
ATOM     19  O   UNL A   1      26.551  28.798  23.212  1.00  0.00    -0.269 OA
BRANCH  18  20
ATOM     20  C   UNL A   1      28.180  31.017  23.457  1.00  0.00     0.451 C 
ATOM     21  F   UNL A   1      29.033  31.733  24.221  1.00  0.00    -0.185 F 
ATOM     22  F   UNL A   1      27.943  31.713  22.316  1.00  0.00    -0.185 F 
ENDBRANCH  18  20
ENDBRANCH   9  13
ENDBRANCH   6   7
ENDBRANCH   4   6
ENDBRANCH   3   4
ENDBRANCH   2   3
ENDBRANCH   1   2
BRANCH   1  23
ATOM     23  O   UNL A   1      32.099  30.853  26.366  1.00  0.00    -0.374 OA
BRANCH  23  24
ATOM     24  C   UNL A   1      31.364  32.040  26.638  1.00  0.00     0.202 C 
BRANCH  24  25
ATOM     25  C   UNL A   1      32.179  33.316  26.869  1.00  0.00     0.261 C 
BRANCH  25  26
ATOM     26  O   UNL A   1      32.172  33.785  28.230  1.00  0.00    -0.460 OA
BRANCH  26  27
ATOM     27  C   UNL A   1      33.186  34.607  28.590  1.00  0.00     0.338 C 
ATOM     28  O   UNL A   1      33.148  35.823  28.691  1.00  0.00    -0.246 OA
BRANCH  27  29
ATOM     29  C   UNL A   1      34.387  33.813  28.941  1.00  0.00     0.060 A 
ATOM     30  C   UNL A   1      34.252  32.715  29.803  1.00  0.00     0.016 A 
ATOM     31  C   UNL A   1      35.656  34.200  28.498  1.00  0.00     0.016 A 
ATOM     32  C   UNL A   1      35.385  32.018  30.247  1.00  0.00     0.010 A 
ATOM     33  C   UNL A   1      36.786  33.512  28.951  1.00  0.00     0.010 A 
ATOM     34  C   UNL A   1      36.663  32.433  29.848  1.00  0.00    -0.014 A 
BRANCH  34  35
ATOM     35  C   UNL A   1      37.892  31.934  30.516  1.00  0.00     0.031 A 
ATOM     36  C   UNL A   1      38.648  30.831  29.834  1.00  0.00     0.074 A 
ATOM     37  C   UNL A   1      38.285  32.359  31.731  1.00  0.00     0.049 A 
ATOM     38  N   UNL A   1      39.637  30.101  30.276  1.00  0.00    -0.248 NA
ATOM     39  C   UNL A   1      38.221  30.510  28.462  1.00  0.00     0.031 C 
ATOM     40  C   UNL A   1      37.695  33.461  32.478  1.00  0.00     0.029 A 
ATOM     41  N   UNL A   1      39.254  31.869  32.574  1.00  0.00    -0.354 N 
ATOM     42  C   UNL A   1      39.957  29.240  29.236  1.00  0.00     0.074 A 
ATOM     43  C   UNL A   1      39.026  29.506  28.160  1.00  0.00     0.031 C 
ATOM     44  C   UNL A   1      38.240  33.508  33.705  1.00  0.00     0.029 A 
ATOM     45  C   UNL A   1      39.230  32.443  33.826  1.00  0.00     0.049 A 
ATOM     46  H   UNL A   1      39.901  31.177  32.309  1.00  0.00     0.167 HD
ATOM     47  C   UNL A   1      40.944  28.318  29.175  1.00  0.00     0.037 A 
ATOM     48  C   UNL A   1      39.912  32.126  34.944  1.00  0.00     0.037 A 
ATOM     49  C   UNL A   1      41.842  28.026  30.257  1.00  0.00     0.049 A 
ATOM     50  C   UNL A   1      40.929  31.018  34.899  1.00  0.00     0.074 A 
ATOM     51  C   UNL A   1      42.879  27.112  30.296  1.00  0.00     0.029 A 
ATOM     52  N   UNL A   1      41.792  28.632  31.504  1.00  0.00    -0.354 N 
ATOM     53  N   UNL A   1      41.261  30.242  33.896  1.00  0.00    -0.248 NA
ATOM     54  C   UNL A   1      41.683  30.754  36.135  1.00  0.00     0.031 C 
ATOM     55  C   UNL A   1      43.426  27.130  31.584  1.00  0.00     0.029 A 
ATOM     56  C   UNL A   1      42.765  28.095  32.328  1.00  0.00     0.049 A 
ATOM     57  H   UNL A   1      41.159  29.339  31.764  1.00  0.00     0.167 HD
ATOM     58  C   UNL A   1      42.298  29.440  34.359  1.00  0.00     0.074 A 
ATOM     59  C   UNL A   1      42.529  29.812  35.739  1.00  0.00     0.031 C 
ATOM     60  C   UNL A   1      43.004  28.494  33.693  1.00  0.00     0.037 A 
BRANCH  47  61
ATOM     61  C   UNL A   1      41.062  27.547  27.894  1.00  0.00     0.057 A 
ATOM     62  C   UNL A   1      40.423  26.312  27.716  1.00  0.00     0.134 A 
ATOM     63  C   UNL A   1      41.857  28.023  26.845  1.00  0.00     0.134 A 
ATOM     64  F   UNL A   1      39.666  25.792  28.695  1.00  0.00    -0.206 F 
ATOM     65  C   UNL A   1      40.607  25.556  26.558  1.00  0.00     0.040 A 
ATOM     66  C   UNL A   1      42.026  27.289  25.670  1.00  0.00     0.040 A 
ATOM     67  F   UNL A   1      42.497  29.195  26.952  1.00  0.00    -0.206 F 
ATOM     68  C   UNL A   1      41.409  26.046  25.530  1.00  0.00     0.006 A 
ENDBRANCH  47  61
BRANCH  48  69
ATOM     69  C   UNL A   1      39.667  32.875  36.204  1.00  0.00     0.057 A 
ATOM     70  C   UNL A   1      38.678  32.471  37.108  1.00  0.00     0.134 A 
ATOM     71  C   UNL A   1      40.400  34.025  36.524  1.00  0.00     0.134 A 
ATOM     72  F   UNL A   1      37.926  31.391  36.845  1.00  0.00    -0.206 F 
ATOM     73  C   UNL A   1      38.415  33.190  38.276  1.00  0.00     0.040 A 
ATOM     74  C   UNL A   1      40.162  34.741  37.698  1.00  0.00     0.040 A 
ATOM     75  F   UNL A   1      41.356  34.470  35.695  1.00  0.00    -0.206 F 
ATOM     76  C   UNL A   1      39.161  34.327  38.575  1.00  0.00     0.006 A 
ENDBRANCH  48  69
BRANCH  60  77
ATOM     77  C   UNL A   1      44.146  27.839  34.413  1.00  0.00     0.057 A 
ATOM     78  C   UNL A   1      44.002  26.624  35.092  1.00  0.00     0.134 A 
ATOM     79  C   UNL A   1      45.429  28.399  34.352  1.00  0.00     0.134 A 
ATOM     80  F   UNL A   1      42.799  26.040  35.197  1.00  0.00    -0.206 F 
ATOM     81  C   UNL A   1      45.093  25.994  35.695  1.00  0.00     0.040 A 
ATOM     82  C   UNL A   1      46.531  27.768  34.928  1.00  0.00     0.040 A 
ATOM     83  F   UNL A   1      45.635  29.559  33.708  1.00  0.00    -0.206 F 
ATOM     84  C   UNL A   1      46.364  26.561  35.603  1.00  0.00     0.006 A 
ENDBRANCH  60  77
ENDBRANCH  34  35
ENDBRANCH  27  29
ENDBRANCH  26  27
ENDBRANCH  25  26
ENDBRANCH  24  25
ENDBRANCH  23  24
ENDBRANCH   1  23
TORSDOF 17
ENDMDL
MODEL 2
REMARK VINA RESULT:     -11.0      3.251      8.238
REMARK SMILES O=C(Cc1ccccc1-c1ccn(C(F)F)c(=O)c1)OCCOCCOC(=O)c1ccc(-c2c3nc(c(-c4c(F)cccc4F)c4ccc([nH]4)c(-c4c(F)cccc4F)c4nc(c(-c5c(F)cccc5F)c5ccc2[nH]5)C=C4)C=C3)cc1
REMARK SMILES IDX 22 1 21 2 20 3 2 4 1 5 3 6 4 7 5 8 9 9 6 10 8 11 7 12 10 13
REMARK SMILES IDX 11 14 19 15 12 16 17 17 13 18 18 19 14 20 15 21 16 22 23 23
REMARK SMILES IDX 24 24 25 25 26 26 27 27 28 28 29 29 30 30 82 31 31 32 81 33
REMARK SMILES IDX 32 34 33 35 34 36 75 37 35 38 80 39 74 40 76 41 36 42 79 43
REMARK SMILES IDX 73 44 72 45 37 47 63 48 46 49 62 50 47 51 50 52 61 53 77 54
REMARK SMILES IDX 48 55 49 56 60 58 78 59 51 60 38 61 39 62 44 63 40 64 41 65
REMARK SMILES IDX 43 66 45 67 42 68 64 69 65 70 70 71 66 72 67 73 69 74 71 75
REMARK SMILES IDX 68 76 52 77 53 78 58 79 54 80 55 81 57 82 59 83 56 84
REMARK H PARENT 76 46 50 57
REMARK Flexibility Score: inf
ROOT
ATOM      1  C   UNL A   1      39.401  21.242  26.093  1.00  0.00     0.202 C 
ENDROOT
BRANCH   1   2
ATOM      2  C   UNL A   1      38.383  22.318  25.711  1.00  0.00     0.261 C 
BRANCH   2   3
ATOM      3  O   UNL A   1      37.412  21.958  24.726  1.00  0.00    -0.463 OA
BRANCH   3   4
ATOM      4  C   UNL A   1      36.695  22.983  24.191  1.00  0.00     0.310 C 
ATOM      5  O   UNL A   1      36.661  23.197  22.987  1.00  0.00    -0.252 OA
BRANCH   4   6
ATOM      6  C   UNL A   1      36.211  23.946  25.230  1.00  0.00     0.158 C 
BRANCH   6   7
ATOM      7  C   UNL A   1      34.891  23.753  25.953  1.00  0.00    -0.029 A 
ATOM      8  C   UNL A   1      34.948  22.714  26.914  1.00  0.00     0.005 A 
ATOM      9  C   UNL A   1      33.630  24.345  25.691  1.00  0.00    -0.014 A 
ATOM     10  C   UNL A   1      33.816  22.260  27.581  1.00  0.00     0.000 A 
ATOM     11  C   UNL A   1      32.494  23.867  26.375  1.00  0.00     0.009 A 
ATOM     12  C   UNL A   1      32.585  22.831  27.304  1.00  0.00     0.001 A 
BRANCH   9  13
ATOM     13  C   UNL A   1      33.361  25.426  24.719  1.00  0.00    -0.011 A 
ATOM     14  C   UNL A   1      33.678  26.825  24.980  1.00  0.00     0.027 A 
ATOM     15  C   UNL A   1      32.798  25.099  23.542  1.00  0.00     0.080 A 
ATOM     16  C   UNL A   1      33.092  27.782  24.246  1.00  0.00     0.095 A 
ATOM     17  C   UNL A   1      32.252  26.158  22.652  1.00  0.00     0.255 A 
ATOM     18  N   UNL A   1      32.282  27.439  23.179  1.00  0.00    -0.258 N 
ATOM     19  O   UNL A   1      31.751  25.845  21.578  1.00  0.00    -0.269 OA
BRANCH  18  20
ATOM     20  C   UNL A   1      31.315  28.357  22.646  1.00  0.00     0.451 C 
ATOM     21  F   UNL A   1      30.363  28.685  23.545  1.00  0.00    -0.185 F 
ATOM     22  F   UNL A   1      31.923  29.497  22.234  1.00  0.00    -0.185 F 
ENDBRANCH  18  20
ENDBRANCH   9  13
ENDBRANCH   6   7
ENDBRANCH   4   6
ENDBRANCH   3   4
ENDBRANCH   2   3
ENDBRANCH   1   2
BRANCH   1  23
ATOM     23  O   UNL A   1      40.727  21.367  25.609  1.00  0.00    -0.374 OA
BRANCH  23  24
ATOM     24  C   UNL A   1      41.779  20.779  26.362  1.00  0.00     0.202 C 
BRANCH  24  25
ATOM     25  C   UNL A   1      43.207  21.074  25.894  1.00  0.00     0.261 C 
BRANCH  25  26
ATOM     26  O   UNL A   1      43.746  22.318  26.381  1.00  0.00    -0.460 OA
BRANCH  26  27
ATOM     27  C   UNL A   1      43.611  23.393  25.569  1.00  0.00     0.338 C 
ATOM     28  O   UNL A   1      43.878  23.454  24.379  1.00  0.00    -0.246 OA
BRANCH  27  29
ATOM     29  C   UNL A   1      42.996  24.519  26.310  1.00  0.00     0.060 A 
ATOM     30  C   UNL A   1      43.573  25.794  26.217  1.00  0.00     0.016 A 
ATOM     31  C   UNL A   1      41.911  24.306  27.166  1.00  0.00     0.016 A 
ATOM     32  C   UNL A   1      43.087  26.852  26.997  1.00  0.00     0.010 A 
ATOM     33  C   UNL A   1      41.435  25.359  27.954  1.00  0.00     0.010 A 
ATOM     34  C   UNL A   1      42.034  26.632  27.895  1.00  0.00    -0.014 A 
BRANCH  34  35
ATOM     35  C   UNL A   1      41.685  27.619  28.949  1.00  0.00     0.031 A 
ATOM     36  C   UNL A   1      42.391  27.498  30.268  1.00  0.00     0.074 A 
ATOM     37  C   UNL A   1      40.711  28.535  28.797  1.00  0.00     0.049 A 
ATOM     38  N   UNL A   1      42.154  28.107  31.399  1.00  0.00    -0.248 NA
ATOM     39  C   UNL A   1      43.519  26.554  30.310  1.00  0.00     0.031 C 
ATOM     40  C   UNL A   1      39.992  28.813  27.562  1.00  0.00     0.029 A 
ATOM     41  N   UNL A   1      40.123  29.370  29.717  1.00  0.00    -0.354 N 
ATOM     42  C   UNL A   1      43.107  27.626  32.286  1.00  0.00     0.074 A 
ATOM     43  C   UNL A   1      43.894  26.642  31.575  1.00  0.00     0.031 C 
ATOM     44  C   UNL A   1      38.995  29.678  27.812  1.00  0.00     0.029 A 
ATOM     45  C   UNL A   1      39.014  30.025  29.230  1.00  0.00     0.049 A 
ATOM     46  H   UNL A   1      40.461  29.488  30.633  1.00  0.00     0.167 HD
ATOM     47  C   UNL A   1      43.318  27.981  33.574  1.00  0.00     0.037 A 
ATOM     48  C   UNL A   1      38.108  30.796  29.863  1.00  0.00     0.037 A 
ATOM     49  C   UNL A   1      42.512  28.928  34.292  1.00  0.00     0.049 A 
ATOM     50  C   UNL A   1      38.285  31.091  31.328  1.00  0.00     0.074 A 
ATOM     51  C   UNL A   1      42.644  29.359  35.600  1.00  0.00     0.029 A 
ATOM     52  N   UNL A   1      41.404  29.576  33.764  1.00  0.00    -0.354 N 
ATOM     53  N   UNL A   1      39.219  30.674  32.147  1.00  0.00    -0.248 NA
ATOM     54  C   UNL A   1      37.296  31.984  31.953  1.00  0.00     0.031 C 
ATOM     55  C   UNL A   1      41.586  30.231  35.878  1.00  0.00     0.029 A 
ATOM     56  C   UNL A   1      40.830  30.386  34.727  1.00  0.00     0.049 A 
ATOM     57  H   UNL A   1      41.077  29.474  32.842  1.00  0.00     0.167 HD
ATOM     58  C   UNL A   1      38.965  31.294  33.365  1.00  0.00     0.074 A 
ATOM     59  C   UNL A   1      37.780  32.105  33.182  1.00  0.00     0.031 C 
ATOM     60  C   UNL A   1      39.664  31.211  34.523  1.00  0.00     0.037 A 
BRANCH  47  61
ATOM     61  C   UNL A   1      44.453  27.299  34.278  1.00  0.00     0.057 A 
ATOM     62  C   UNL A   1      45.749  27.834  34.277  1.00  0.00     0.134 A 
ATOM     63  C   UNL A   1      44.258  26.074  34.926  1.00  0.00     0.134 A 
ATOM     64  F   UNL A   1      46.004  28.994  33.653  1.00  0.00    -0.206 F 
ATOM     65  C   UNL A   1      46.820  27.153  34.856  1.00  0.00     0.040 A 
ATOM     66  C   UNL A   1      45.316  25.397  35.534  1.00  0.00     0.040 A 
ATOM     67  F   UNL A   1      43.044  25.506  34.962  1.00  0.00    -0.206 F 
ATOM     68  C   UNL A   1      46.604  25.931  35.489  1.00  0.00     0.006 A 
ENDBRANCH  47  61
BRANCH  48  69
ATOM     69  C   UNL A   1      36.952  31.356  29.115  1.00  0.00     0.057 A 
ATOM     70  C   UNL A   1      36.952  32.681  28.665  1.00  0.00     0.134 A 
ATOM     71  C   UNL A   1      35.811  30.587  28.852  1.00  0.00     0.134 A 
ATOM     72  F   UNL A   1      38.006  33.474  28.908  1.00  0.00    -0.206 F 
ATOM     73  C   UNL A   1      35.855  33.227  27.995  1.00  0.00     0.040 A 
ATOM     74  C   UNL A   1      34.716  31.114  28.164  1.00  0.00     0.040 A 
ATOM     75  F   UNL A   1      35.744  29.313  29.265  1.00  0.00    -0.206 F 
ATOM     76  C   UNL A   1      34.735  32.441  27.740  1.00  0.00     0.006 A 
ENDBRANCH  48  69
BRANCH  60  77
ATOM     77  C   UNL A   1      39.219  32.070  35.671  1.00  0.00     0.057 A 
ATOM     78  C   UNL A   1      38.342  31.604  36.657  1.00  0.00     0.134 A 
ATOM     79  C   UNL A   1      39.746  33.359  35.828  1.00  0.00     0.134 A 
ATOM     80  F   UNL A   1      37.794  30.384  36.559  1.00  0.00    -0.206 F 
ATOM     81  C   UNL A   1      37.997  32.394  37.755  1.00  0.00     0.040 A 
ATOM     82  C   UNL A   1      39.429  34.148  36.934  1.00  0.00     0.040 A 
ATOM     83  F   UNL A   1      40.599  33.861  34.922  1.00  0.00    -0.206 F 
ATOM     84  C   UNL A   1      38.551  33.666  37.901  1.00  0.00     0.006 A 
ENDBRANCH  60  77
ENDBRANCH  34  35
ENDBRANCH  27  29
ENDBRANCH  26  27
ENDBRANCH  25  26
ENDBRANCH  24  25
ENDBRANCH  23  24
ENDBRANCH   1  23
TORSDOF 17
ENDMDL
MODEL 3
REMARK VINA RESULT:     -10.8      1.897      6.646
REMARK SMILES O=C(Cc1ccccc1-c1ccn(C(F)F)c(=O)c1)OCCOCCOC(=O)c1ccc(-c2c3nc(c(-c4c(F)cccc4F)c4ccc([nH]4)c(-c4c(F)cccc4F)c4nc(c(-c5c(F)cccc5F)c5ccc2[nH]5)C=C4)C=C3)cc1
REMARK SMILES IDX 22 1 21 2 20 3 2 4 1 5 3 6 4 7 5 8 9 9 6 10 8 11 7 12 10 13
REMARK SMILES IDX 11 14 19 15 12 16 17 17 13 18 18 19 14 20 15 21 16 22 23 23
REMARK SMILES IDX 24 24 25 25 26 26 27 27 28 28 29 29 30 30 82 31 31 32 81 33
REMARK SMILES IDX 32 34 33 35 34 36 75 37 35 38 80 39 74 40 76 41 36 42 79 43
REMARK SMILES IDX 73 44 72 45 37 47 63 48 46 49 62 50 47 51 50 52 61 53 77 54
REMARK SMILES IDX 48 55 49 56 60 58 78 59 51 60 38 61 39 62 44 63 40 64 41 65
REMARK SMILES IDX 43 66 45 67 42 68 64 69 65 70 70 71 66 72 67 73 69 74 71 75
REMARK SMILES IDX 68 76 52 77 53 78 58 79 54 80 55 81 57 82 59 83 56 84
REMARK H PARENT 76 46 50 57
REMARK Flexibility Score: inf
ROOT
ATOM      1  C   UNL A   1      34.624  32.065  27.741  1.00  0.00     0.202 C 
ENDROOT
BRANCH   1   2
ATOM      2  C   UNL A   1      33.918  30.710  27.676  1.00  0.00     0.261 C 
BRANCH   2   3
ATOM      3  O   UNL A   1      33.575  30.230  26.374  1.00  0.00    -0.463 OA
BRANCH   3   4
ATOM      4  C   UNL A   1      32.246  30.080  26.124  1.00  0.00     0.310 C 
ATOM      5  O   UNL A   1      31.492  31.037  26.015  1.00  0.00    -0.252 OA
BRANCH   4   6
ATOM      6  C   UNL A   1      31.790  28.663  26.278  1.00  0.00     0.158 C 
BRANCH   6   7
ATOM      7  C   UNL A   1      32.193  27.576  25.299  1.00  0.00    -0.029 A 
ATOM      8  C   UNL A   1      33.272  26.792  25.776  1.00  0.00     0.005 A 
ATOM      9  C   UNL A   1      31.753  27.359  23.969  1.00  0.00    -0.014 A 
ATOM     10  C   UNL A   1      33.906  25.845  24.980  1.00  0.00     0.000 A 
ATOM     11  C   UNL A   1      32.412  26.397  23.179  1.00  0.00     0.009 A 
ATOM     12  C   UNL A   1      33.482  25.653  23.676  1.00  0.00     0.001 A 
BRANCH   9  13
ATOM     13  C   UNL A   1      30.659  28.082  23.286  1.00  0.00    -0.011 A 
ATOM     14  C   UNL A   1      30.892  29.199  22.378  1.00  0.00     0.027 A 
ATOM     15  C   UNL A   1      29.394  27.690  23.517  1.00  0.00     0.080 A 
ATOM     16  C   UNL A   1      29.884  30.034  22.087  1.00  0.00     0.095 A 
ATOM     17  C   UNL A   1      28.254  28.544  23.091  1.00  0.00     0.255 A 
ATOM     18  N   UNL A   1      28.609  29.771  22.555  1.00  0.00    -0.258 N 
ATOM     19  O   UNL A   1      27.106  28.168  23.299  1.00  0.00    -0.269 OA
BRANCH  18  20
ATOM     20  C   UNL A   1      27.616  30.805  22.649  1.00  0.00     0.451 C 
ATOM     21  F   UNL A   1      27.409  31.210  23.920  1.00  0.00    -0.185 F 
ATOM     22  F   UNL A   1      27.988  31.883  21.913  1.00  0.00    -0.185 F 
ENDBRANCH  18  20
ENDBRANCH   9  13
ENDBRANCH   6   7
ENDBRANCH   4   6
ENDBRANCH   3   4
ENDBRANCH   2   3
ENDBRANCH   1   2
BRANCH   1  23
ATOM     23  O   UNL A   1      34.236  32.979  28.753  1.00  0.00    -0.374 OA
BRANCH  23  24
ATOM     24  C   UNL A   1      33.424  34.086  28.387  1.00  0.00     0.202 C 
BRANCH  24  25
ATOM     25  C   UNL A   1      33.393  35.268  29.360  1.00  0.00     0.261 C 
BRANCH  25  26
ATOM     26  O   UNL A   1      32.457  35.119  30.444  1.00  0.00    -0.460 OA
BRANCH  26  27
ATOM     27  C   UNL A   1      32.758  35.767  31.594  1.00  0.00     0.338 C 
ATOM     28  O   UNL A   1      32.203  36.755  32.049  1.00  0.00    -0.246 OA
BRANCH  27  29
ATOM     29  C   UNL A   1      33.841  35.057  32.313  1.00  0.00     0.060 A 
ATOM     30  C   UNL A   1      35.128  35.616  32.335  1.00  0.00     0.016 A 
ATOM     31  C   UNL A   1      33.617  33.800  32.885  1.00  0.00     0.016 A 
ATOM     32  C   UNL A   1      36.198  34.911  32.904  1.00  0.00     0.010 A 
ATOM     33  C   UNL A   1      34.688  33.092  33.441  1.00  0.00     0.010 A 
ATOM     34  C   UNL A   1      35.989  33.630  33.433  1.00  0.00    -0.014 A 
BRANCH  34  35
ATOM     35  C   UNL A   1      37.122  32.727  33.765  1.00  0.00     0.031 A 
ATOM     36  C   UNL A   1      37.931  33.057  34.986  1.00  0.00     0.074 A 
ATOM     37  C   UNL A   1      37.497  31.706  32.973  1.00  0.00     0.049 A 
ATOM     38  N   UNL A   1      39.061  32.548  35.399  1.00  0.00    -0.248 NA
ATOM     39  C   UNL A   1      37.384  34.111  35.855  1.00  0.00     0.031 C 
ATOM     40  C   UNL A   1      36.774  31.228  31.803  1.00  0.00     0.029 A 
ATOM     41  N   UNL A   1      38.621  30.915  33.013  1.00  0.00    -0.354 N 
ATOM     42  C   UNL A   1      39.357  33.214  36.580  1.00  0.00     0.074 A 
ATOM     43  C   UNL A   1      38.314  34.195  36.791  1.00  0.00     0.031 C 
ATOM     44  C   UNL A   1      37.511  30.297  31.175  1.00  0.00     0.029 A 
ATOM     45  C   UNL A   1      38.757  30.103  31.910  1.00  0.00     0.049 A 
ATOM     46  H   UNL A   1      39.265  30.929  33.757  1.00  0.00     0.167 HD
ATOM     47  C   UNL A   1      40.398  33.020  37.422  1.00  0.00     0.037 A 
ATOM     48  C   UNL A   1      39.781  29.314  31.528  1.00  0.00     0.037 A 
ATOM     49  C   UNL A   1      41.455  32.075  37.192  1.00  0.00     0.049 A 
ATOM     50  C   UNL A   1      40.990  29.193  32.416  1.00  0.00     0.074 A 
ATOM     51  C   UNL A   1      42.554  31.799  37.985  1.00  0.00     0.029 A 
ATOM     52  N   UNL A   1      41.554  31.265  36.069  1.00  0.00    -0.354 N 
ATOM     53  N   UNL A   1      41.239  29.787  33.557  1.00  0.00    -0.248 NA
ATOM     54  C   UNL A   1      42.051  28.274  31.975  1.00  0.00     0.031 C 
ATOM     55  C   UNL A   1      43.345  30.856  37.318  1.00  0.00     0.029 A 
ATOM     56  C   UNL A   1      42.708  30.505  36.137  1.00  0.00     0.049 A 
ATOM     57  H   UNL A   1      40.900  31.236  35.335  1.00  0.00     0.167 HD
ATOM     58  C   UNL A   1      42.453  29.275  33.999  1.00  0.00     0.074 A 
ATOM     59  C   UNL A   1      42.899  28.332  32.994  1.00  0.00     0.031 C 
ATOM     60  C   UNL A   1      43.127  29.550  35.142  1.00  0.00     0.037 A 
BRANCH  47  61
ATOM     61  C   UNL A   1      40.438  33.884  38.647  1.00  0.00     0.057 A 
ATOM     62  C   UNL A   1      41.110  35.114  38.659  1.00  0.00     0.134 A 
ATOM     63  C   UNL A   1      39.838  33.461  39.838  1.00  0.00     0.134 A 
ATOM     64  F   UNL A   1      41.726  35.562  37.555  1.00  0.00    -0.206 F 
ATOM     65  C   UNL A   1      41.221  35.872  39.825  1.00  0.00     0.040 A 
ATOM     66  C   UNL A   1      39.917  34.224  41.003  1.00  0.00     0.040 A 
ATOM     67  F   UNL A   1      39.181  32.293  39.895  1.00  0.00    -0.206 F 
ATOM     68  C   UNL A   1      40.622  35.428  41.001  1.00  0.00     0.006 A 
ENDBRANCH  47  61
BRANCH  48  69
ATOM     69  C   UNL A   1      39.707  28.564  30.247  1.00  0.00     0.057 A 
ATOM     70  C   UNL A   1      39.124  27.293  30.183  1.00  0.00     0.134 A 
ATOM     71  C   UNL A   1      40.237  29.089  29.062  1.00  0.00     0.134 A 
ATOM     72  F   UNL A   1      38.621  26.727  31.291  1.00  0.00    -0.206 F 
ATOM     73  C   UNL A   1      39.084  26.564  28.993  1.00  0.00     0.040 A 
ATOM     74  C   UNL A   1      40.185  28.381  27.860  1.00  0.00     0.040 A 
ATOM     75  F   UNL A   1      40.817  30.298  29.058  1.00  0.00    -0.206 F 
ATOM     76  C   UNL A   1      39.612  27.110  27.826  1.00  0.00     0.006 A 
ENDBRANCH  48  69
BRANCH  60  77
ATOM     77  C   UNL A   1      44.382  28.774  35.417  1.00  0.00     0.057 A 
ATOM     78  C   UNL A   1      44.370  27.551  36.099  1.00  0.00     0.134 A 
ATOM     79  C   UNL A   1      45.610  29.226  34.917  1.00  0.00     0.134 A 
ATOM     80  F   UNL A   1      43.230  27.068  36.611  1.00  0.00    -0.206 F 
ATOM     81  C   UNL A   1      45.540  26.810  36.281  1.00  0.00     0.040 A 
ATOM     82  C   UNL A   1      46.781  28.483  35.071  1.00  0.00     0.040 A 
ATOM     83  F   UNL A   1      45.688  30.387  34.248  1.00  0.00    -0.206 F 
ATOM     84  C   UNL A   1      46.747  27.271  35.756  1.00  0.00     0.006 A 
ENDBRANCH  60  77
ENDBRANCH  34  35
ENDBRANCH  27  29
ENDBRANCH  26  27
ENDBRANCH  25  26
ENDBRANCH  24  25
ENDBRANCH  23  24
ENDBRANCH   1  23
TORSDOF 17
ENDMDL
