MODEL 1
REMARK VINA RESULT:     -11.0      0.000      0.000
REMARK SMILES O=C(CC1(CC(=O)OCCOCCOC(=O)c2ccc(-c3c4nc(c(-c5c(F)cccc5F)c5ccc([nH]5)c(-c5c(F)cccc5F)c5nc(c(-c6c(F)cccc6F)c6ccc3[nH]6)C=C5)C=C4)cc2)CCCC1)NNc1ccc([N+](=O)[O-])cc1
REMARK SMILES IDX 9 1 8 2 6 3 7 4 5 5 4 6 71 7 74 8 72 9 73 10 3 11 2 12 1 13
REMARK SMILES IDX 75 14 76 16 77 18 78 19 85 20 79 21 84 22 80 23 81 24 82 25
REMARK SMILES IDX 83 26 10 27 11 28 12 29 13 30 14 31 15 32 16 33 17 34 18 35
REMARK SMILES IDX 70 36 19 37 69 38 20 39 21 40 22 41 63 42 23 43 68 44 62 45
REMARK SMILES IDX 64 46 24 47 67 48 61 49 60 50 25 52 51 53 34 54 50 55 35 56
REMARK SMILES IDX 38 57 49 58 65 59 36 60 37 61 48 63 66 64 39 65 26 66 27 67
REMARK SMILES IDX 32 68 28 69 29 70 31 71 33 72 30 73 52 74 53 75 58 76 54 77
REMARK SMILES IDX 55 78 57 79 59 80 56 81 40 82 41 83 46 84 42 85 43 86 45 87
REMARK SMILES IDX 47 88 44 89
REMARK H PARENT 75 15 76 17 64 51 38 62
REMARK Flexibility Score: inf
ROOT
ATOM      1  C   UNL A   1      32.969  29.127  24.824  1.00  0.00     0.261 C 
ENDROOT
BRANCH   1   2
ATOM      2  O   UNL A   1      32.553  27.741  24.809  1.00  0.00    -0.463 OA
BRANCH   2   3
ATOM      3  C   UNL A   1      33.333  26.900  24.088  1.00  0.00     0.306 C 
ATOM      4  O   UNL A   1      33.652  27.084  22.919  1.00  0.00    -0.252 OA
BRANCH   3   5
ATOM      5  C   UNL A   1      33.653  25.589  24.786  1.00  0.00     0.130 C 
BRANCH   5   6
ATOM      6  C   UNL A   1      32.787  24.300  24.662  1.00  0.00    -0.010 C 
ATOM      7  C   UNL A   1      33.688  23.101  25.111  1.00  0.00     0.008 C 
ATOM      8  C   UNL A   1      32.579  23.868  23.188  1.00  0.00     0.008 C 
ATOM      9  C   UNL A   1      34.652  22.834  23.964  1.00  0.00     0.001 C 
ATOM     10  C   UNL A   1      33.947  23.361  22.716  1.00  0.00     0.001 C 
BRANCH   6  11
ATOM     11  C   UNL A   1      31.495  24.172  25.534  1.00  0.00     0.109 C 
BRANCH  11  12
ATOM     12  C   UNL A   1      30.363  25.179  25.521  1.00  0.00     0.238 C 
ATOM     13  O   UNL A   1      30.031  25.789  26.540  1.00  0.00    -0.273 OA
ATOM     14  N   UNL A   1      29.793  25.441  24.305  1.00  0.00    -0.270 N 
ATOM     15  H   UNL A   1      30.167  25.071  23.473  1.00  0.00     0.191 HD
BRANCH  14  16
ATOM     16  N   UNL A   1      28.670  26.247  24.292  1.00  0.00    -0.299 N 
ATOM     17  H   UNL A   1      27.886  25.998  24.833  1.00  0.00     0.188 HD
BRANCH  16  18
ATOM     18  C   UNL A   1      28.637  27.409  23.522  1.00  0.00     0.055 A 
ATOM     19  C   UNL A   1      27.420  28.097  23.402  1.00  0.00     0.034 A 
ATOM     20  C   UNL A   1      29.772  27.976  22.925  1.00  0.00     0.034 A 
ATOM     21  C   UNL A   1      27.346  29.336  22.757  1.00  0.00     0.088 A 
ATOM     22  C   UNL A   1      29.717  29.208  22.273  1.00  0.00     0.088 A 
ATOM     23  C   UNL A   1      28.506  29.898  22.213  1.00  0.00     0.269 A 
BRANCH  23  24
ATOM     24  N   UNL A   1      28.462  31.232  21.608  1.00  0.00     0.062 N 
ATOM     25  O   UNL A   1      29.099  32.139  22.164  1.00  0.00    -0.258 OA
ATOM     26  O   UNL A   1      27.807  31.371  20.565  1.00  0.00    -0.258 OA
ENDBRANCH  23  24
ENDBRANCH  16  18
ENDBRANCH  14  16
ENDBRANCH  11  12
ENDBRANCH   6  11
ENDBRANCH   5   6
ENDBRANCH   3   5
ENDBRANCH   2   3
ENDBRANCH   1   2
BRANCH   1  27
ATOM     27  C   UNL A   1      33.232  29.623  26.248  1.00  0.00     0.202 C 
BRANCH  27  28
ATOM     28  O   UNL A   1      32.136  30.218  26.945  1.00  0.00    -0.374 OA
BRANCH  28  29
ATOM     29  C   UNL A   1      31.481  31.310  26.308  1.00  0.00     0.202 C 
BRANCH  29  30
ATOM     30  C   UNL A   1      31.641  32.704  26.932  1.00  0.00     0.261 C 
BRANCH  30  31
ATOM     31  O   UNL A   1      32.970  33.204  26.855  1.00  0.00    -0.460 OA
BRANCH  31  32
ATOM     32  C   UNL A   1      33.391  33.768  28.006  1.00  0.00     0.338 C 
ATOM     33  O   UNL A   1      32.821  34.587  28.706  1.00  0.00    -0.246 OA
BRANCH  32  34
ATOM     34  C   UNL A   1      34.618  33.079  28.401  1.00  0.00     0.060 A 
ATOM     35  C   UNL A   1      34.490  31.762  28.846  1.00  0.00     0.016 A 
ATOM     36  C   UNL A   1      35.863  33.712  28.317  1.00  0.00     0.016 A 
ATOM     37  C   UNL A   1      35.616  31.079  29.272  1.00  0.00     0.010 A 
ATOM     38  C   UNL A   1      36.992  33.025  28.747  1.00  0.00     0.010 A 
ATOM     39  C   UNL A   1      36.859  31.725  29.260  1.00  0.00    -0.014 A 
BRANCH  39  40
ATOM     40  C   UNL A   1      37.994  31.078  29.940  1.00  0.00     0.031 A 
ATOM     41  C   UNL A   1      38.234  31.398  31.384  1.00  0.00     0.074 A 
ATOM     42  C   UNL A   1      38.743  30.185  29.274  1.00  0.00     0.049 A 
ATOM     43  N   UNL A   1      39.160  30.947  32.187  1.00  0.00    -0.248 NA
ATOM     44  C   UNL A   1      37.309  32.360  32.010  1.00  0.00     0.031 C 
ATOM     45  C   UNL A   1      38.550  29.797  27.876  1.00  0.00     0.029 A 
ATOM     46  N   UNL A   1      39.814  29.441  29.687  1.00  0.00    -0.354 N 
ATOM     47  C   UNL A   1      38.933  31.571  33.406  1.00  0.00     0.074 A 
ATOM     48  C   UNL A   1      37.807  32.458  33.234  1.00  0.00     0.031 C 
ATOM     49  C   UNL A   1      39.480  28.886  27.546  1.00  0.00     0.029 A 
ATOM     50  C   UNL A   1      40.347  28.655  28.697  1.00  0.00     0.049 A 
ATOM     51  H   UNL A   1      40.168  29.466  30.606  1.00  0.00     0.167 HD
ATOM     52  C   UNL A   1      39.607  31.403  34.566  1.00  0.00     0.037 A 
ATOM     53  C   UNL A   1      41.431  27.860  28.724  1.00  0.00     0.037 A 
ATOM     54  C   UNL A   1      40.724  30.507  34.710  1.00  0.00     0.049 A 
ATOM     55  C   UNL A   1      42.195  27.736  30.015  1.00  0.00     0.074 A 
ATOM     56  C   UNL A   1      41.471  30.235  35.840  1.00  0.00     0.029 A 
ATOM     57  N   UNL A   1      41.257  29.746  33.679  1.00  0.00    -0.354 N 
ATOM     58  N   UNL A   1      41.955  28.300  31.176  1.00  0.00    -0.248 NA
ATOM     59  C   UNL A   1      43.375  26.863  30.004  1.00  0.00     0.031 C 
ATOM     60  C   UNL A   1      42.495  29.355  35.480  1.00  0.00     0.029 A 
ATOM     61  C   UNL A   1      42.347  29.027  34.140  1.00  0.00     0.049 A 
ATOM     62  H   UNL A   1      40.913  29.720  32.758  1.00  0.00     0.167 HD
ATOM     63  C   UNL A   1      42.936  27.832  32.038  1.00  0.00     0.074 A 
ATOM     64  C   UNL A   1      43.760  26.921  31.271  1.00  0.00     0.031 C 
ATOM     65  C   UNL A   1      43.143  28.126  33.346  1.00  0.00     0.037 A 
BRANCH  52  66
ATOM     66  C   UNL A   1      39.178  32.218  35.750  1.00  0.00     0.057 A 
ATOM     67  C   UNL A   1      39.622  33.531  35.952  1.00  0.00     0.134 A 
ATOM     68  C   UNL A   1      38.273  31.693  36.682  1.00  0.00     0.134 A 
ATOM     69  F   UNL A   1      40.503  34.090  35.109  1.00  0.00    -0.206 F 
ATOM     70  C   UNL A   1      39.192  34.288  37.045  1.00  0.00     0.040 A 
ATOM     71  C   UNL A   1      37.816  32.448  37.763  1.00  0.00     0.040 A 
ATOM     72  F   UNL A   1      37.811  30.441  36.551  1.00  0.00    -0.206 F 
ATOM     73  C   UNL A   1      38.278  33.749  37.950  1.00  0.00     0.006 A 
ENDBRANCH  52  66
BRANCH  53  74
ATOM     74  C   UNL A   1      41.866  27.146  27.496  1.00  0.00     0.057 A 
ATOM     75  C   UNL A   1      41.476  25.826  27.242  1.00  0.00     0.134 A 
ATOM     76  C   UNL A   1      42.701  27.761  26.555  1.00  0.00     0.134 A 
ATOM     77  F   UNL A   1      40.689  25.174  28.109  1.00  0.00    -0.206 F 
ATOM     78  C   UNL A   1      41.923  25.136  26.112  1.00  0.00     0.040 A 
ATOM     79  C   UNL A   1      43.130  27.095  25.406  1.00  0.00     0.040 A 
ATOM     80  F   UNL A   1      43.105  29.029  26.733  1.00  0.00    -0.206 F 
ATOM     81  C   UNL A   1      42.749  25.773  25.188  1.00  0.00     0.006 A 
ENDBRANCH  53  74
BRANCH  65  82
ATOM     82  C   UNL A   1      44.285  27.430  34.027  1.00  0.00     0.057 A 
ATOM     83  C   UNL A   1      45.564  27.999  34.097  1.00  0.00     0.134 A 
ATOM     84  C   UNL A   1      44.091  26.192  34.652  1.00  0.00     0.134 A 
ATOM     85  F   UNL A   1      45.817  29.177  33.508  1.00  0.00    -0.206 F 
ATOM     86  C   UNL A   1      46.615  27.346  34.740  1.00  0.00     0.040 A 
ATOM     87  C   UNL A   1      45.125  25.546  35.327  1.00  0.00     0.040 A 
ATOM     88  F   UNL A   1      42.887  25.599  34.634  1.00  0.00    -0.206 F 
ATOM     89  C   UNL A   1      46.395  26.119  35.365  1.00  0.00     0.006 A 
ENDBRANCH  65  82
ENDBRANCH  39  40
ENDBRANCH  32  34
ENDBRANCH  31  32
ENDBRANCH  30  31
ENDBRANCH  29  30
ENDBRANCH  28  29
ENDBRANCH  27  28
ENDBRANCH   1  27
TORSDOF 20
ENDMDL
MODEL 2
REMARK VINA RESULT:     -10.8      5.174     10.446
REMARK SMILES O=C(CC1(CC(=O)OCCOCCOC(=O)c2ccc(-c3c4nc(c(-c5c(F)cccc5F)c5ccc([nH]5)c(-c5c(F)cccc5F)c5nc(c(-c6c(F)cccc6F)c6ccc3[nH]6)C=C5)C=C4)cc2)CCCC1)NNc1ccc([N+](=O)[O-])cc1
REMARK SMILES IDX 9 1 8 2 6 3 7 4 5 5 4 6 71 7 74 8 72 9 73 10 3 11 2 12 1 13
REMARK SMILES IDX 75 14 76 16 77 18 78 19 85 20 79 21 84 22 80 23 81 24 82 25
REMARK SMILES IDX 83 26 10 27 11 28 12 29 13 30 14 31 15 32 16 33 17 34 18 35
REMARK SMILES IDX 70 36 19 37 69 38 20 39 21 40 22 41 63 42 23 43 68 44 62 45
REMARK SMILES IDX 64 46 24 47 67 48 61 49 60 50 25 52 51 53 34 54 50 55 35 56
REMARK SMILES IDX 38 57 49 58 65 59 36 60 37 61 48 63 66 64 39 65 26 66 27 67
REMARK SMILES IDX 32 68 28 69 29 70 31 71 33 72 30 73 52 74 53 75 58 76 54 77
REMARK SMILES IDX 55 78 57 79 59 80 56 81 40 82 41 83 46 84 42 85 43 86 45 87
REMARK SMILES IDX 47 88 44 89
REMARK H PARENT 75 15 76 17 64 51 38 62
REMARK Flexibility Score: inf
ROOT
ATOM      1  C   UNL A   1      37.659  23.129  25.925  1.00  0.00     0.261 C 
ENDROOT
BRANCH   1   2
ATOM      2  O   UNL A   1      36.410  23.029  25.202  1.00  0.00    -0.463 OA
BRANCH   2   3
ATOM      3  C   UNL A   1      35.344  23.628  25.785  1.00  0.00     0.306 C 
ATOM      4  O   UNL A   1      34.769  23.200  26.779  1.00  0.00    -0.252 OA
BRANCH   3   5
ATOM      5  C   UNL A   1      34.780  24.803  25.004  1.00  0.00     0.130 C 
BRANCH   5   6
ATOM      6  C   UNL A   1      33.267  25.173  24.954  1.00  0.00    -0.010 C 
ATOM      7  C   UNL A   1      33.090  26.208  23.794  1.00  0.00     0.008 C 
ATOM      8  C   UNL A   1      32.846  26.095  26.127  1.00  0.00     0.008 C 
ATOM      9  C   UNL A   1      33.628  27.533  24.313  1.00  0.00     0.001 C 
ATOM     10  C   UNL A   1      33.501  27.450  25.833  1.00  0.00     0.001 C 
BRANCH   6  11
ATOM     11  C   UNL A   1      32.225  24.049  24.645  1.00  0.00     0.109 C 
BRANCH  11  12
ATOM     12  C   UNL A   1      32.490  22.881  23.717  1.00  0.00     0.238 C 
ATOM     13  O   UNL A   1      32.934  23.049  22.579  1.00  0.00    -0.273 OA
ATOM     14  N   UNL A   1      32.299  21.631  24.240  1.00  0.00    -0.270 N 
ATOM     15  H   UNL A   1      32.099  21.500  25.194  1.00  0.00     0.191 HD
BRANCH  14  16
ATOM     16  N   UNL A   1      32.399  20.560  23.371  1.00  0.00    -0.299 N 
ATOM     17  H   UNL A   1      32.241  20.697  22.409  1.00  0.00     0.188 HD
BRANCH  16  18
ATOM     18  C   UNL A   1      32.719  19.288  23.844  1.00  0.00     0.055 A 
ATOM     19  C   UNL A   1      32.589  19.032  25.217  1.00  0.00     0.034 A 
ATOM     20  C   UNL A   1      33.087  18.221  23.011  1.00  0.00     0.034 A 
ATOM     21  C   UNL A   1      32.764  17.745  25.738  1.00  0.00     0.088 A 
ATOM     22  C   UNL A   1      33.272  16.932  23.512  1.00  0.00     0.088 A 
ATOM     23  C   UNL A   1      33.084  16.693  24.874  1.00  0.00     0.269 A 
BRANCH  23  24
ATOM     24  N   UNL A   1      33.189  15.325  25.389  1.00  0.00     0.062 N 
ATOM     25  O   UNL A   1      34.305  14.787  25.376  1.00  0.00    -0.258 OA
ATOM     26  O   UNL A   1      32.158  14.794  25.826  1.00  0.00    -0.258 OA
ENDBRANCH  23  24
ENDBRANCH  16  18
ENDBRANCH  14  16
ENDBRANCH  11  12
ENDBRANCH   6  11
ENDBRANCH   5   6
ENDBRANCH   3   5
ENDBRANCH   2   3
ENDBRANCH   1   2
BRANCH   1  27
ATOM     27  C   UNL A   1      38.515  21.871  25.752  1.00  0.00     0.202 C 
BRANCH  27  28
ATOM     28  O   UNL A   1      37.878  20.719  25.197  1.00  0.00    -0.374 OA
BRANCH  28  29
ATOM     29  C   UNL A   1      38.674  19.549  25.049  1.00  0.00     0.202 C 
BRANCH  29  30
ATOM     30  C   UNL A   1      39.841  19.347  26.026  1.00  0.00     0.261 C 
BRANCH  30  31
ATOM     31  O   UNL A   1      41.095  19.184  25.376  1.00  0.00    -0.460 OA
BRANCH  31  32
ATOM     32  C   UNL A   1      42.146  19.342  26.207  1.00  0.00     0.338 C 
ATOM     33  O   UNL A   1      43.008  18.533  26.507  1.00  0.00    -0.246 OA
BRANCH  32  34
ATOM     34  C   UNL A   1      42.199  20.756  26.574  1.00  0.00     0.060 A 
ATOM     35  C   UNL A   1      42.190  21.682  25.529  1.00  0.00     0.016 A 
ATOM     36  C   UNL A   1      42.239  21.155  27.913  1.00  0.00     0.016 A 
ATOM     37  C   UNL A   1      42.281  23.031  25.820  1.00  0.00     0.010 A 
ATOM     38  C   UNL A   1      42.332  22.511  28.204  1.00  0.00     0.010 A 
ATOM     39  C   UNL A   1      42.393  23.442  27.155  1.00  0.00    -0.014 A 
BRANCH  39  40
ATOM     40  C   UNL A   1      42.734  24.848  27.431  1.00  0.00     0.031 A 
ATOM     41  C   UNL A   1      44.099  25.336  27.052  1.00  0.00     0.074 A 
ATOM     42  C   UNL A   1      41.808  25.663  27.959  1.00  0.00     0.049 A 
ATOM     43  N   UNL A   1      44.618  26.527  27.189  1.00  0.00    -0.248 NA
ATOM     44  C   UNL A   1      45.006  24.350  26.436  1.00  0.00     0.031 C 
ATOM     45  C   UNL A   1      40.447  25.268  28.325  1.00  0.00     0.029 A 
ATOM     46  N   UNL A   1      41.871  26.992  28.275  1.00  0.00    -0.354 N 
ATOM     47  C   UNL A   1      45.908  26.432  26.684  1.00  0.00     0.074 A 
ATOM     48  C   UNL A   1      46.110  25.064  26.269  1.00  0.00     0.031 C 
ATOM     49  C   UNL A   1      39.803  26.337  28.822  1.00  0.00     0.029 A 
ATOM     50  C   UNL A   1      40.717  27.475  28.838  1.00  0.00     0.049 A 
ATOM     51  H   UNL A   1      42.667  27.549  28.114  1.00  0.00     0.167 HD
ATOM     52  C   UNL A   1      46.833  27.412  26.572  1.00  0.00     0.037 A 
ATOM     53  C   UNL A   1      40.449  28.698  29.329  1.00  0.00     0.037 A 
ATOM     54  C   UNL A   1      46.602  28.769  26.991  1.00  0.00     0.049 A 
ATOM     55  C   UNL A   1      41.518  29.753  29.242  1.00  0.00     0.074 A 
ATOM     56  C   UNL A   1      47.454  29.854  26.906  1.00  0.00     0.029 A 
ATOM     57  N   UNL A   1      45.431  29.220  27.583  1.00  0.00    -0.354 N 
ATOM     58  N   UNL A   1      42.724  29.669  28.730  1.00  0.00    -0.248 NA
ATOM     59  C   UNL A   1      41.191  31.074  29.793  1.00  0.00     0.031 C 
ATOM     60  C   UNL A   1      46.822  30.948  27.504  1.00  0.00     0.029 A 
ATOM     61  C   UNL A   1      45.550  30.562  27.901  1.00  0.00     0.049 A 
ATOM     62  H   UNL A   1      44.634  28.668  27.753  1.00  0.00     0.167 HD
ATOM     63  C   UNL A   1      43.289  30.929  28.874  1.00  0.00     0.074 A 
ATOM     64  C   UNL A   1      42.285  31.763  29.501  1.00  0.00     0.031 C 
ATOM     65  C   UNL A   1      44.526  31.362  28.524  1.00  0.00     0.037 A 
BRANCH  52  66
ATOM     66  C   UNL A   1      48.174  27.048  26.008  1.00  0.00     0.057 A 
ATOM     67  C   UNL A   1      48.465  27.162  24.642  1.00  0.00     0.134 A 
ATOM     68  C   UNL A   1      49.205  26.615  26.852  1.00  0.00     0.134 A 
ATOM     69  F   UNL A   1      47.520  27.553  23.774  1.00  0.00    -0.206 F 
ATOM     70  C   UNL A   1      49.728  26.845  24.135  1.00  0.00     0.040 A 
ATOM     71  C   UNL A   1      50.478  26.321  26.362  1.00  0.00     0.040 A 
ATOM     72  F   UNL A   1      48.994  26.480  28.170  1.00  0.00    -0.206 F 
ATOM     73  C   UNL A   1      50.742  26.432  24.998  1.00  0.00     0.006 A 
ENDBRANCH  52  66
BRANCH  53  74
ATOM     74  C   UNL A   1      39.134  28.979  29.960  1.00  0.00     0.057 A 
ATOM     75  C   UNL A   1      38.043  29.430  29.208  1.00  0.00     0.134 A 
ATOM     76  C   UNL A   1      38.943  28.823  31.340  1.00  0.00     0.134 A 
ATOM     77  F   UNL A   1      38.163  29.615  27.886  1.00  0.00    -0.206 F 
ATOM     78  C   UNL A   1      36.820  29.741  29.807  1.00  0.00     0.040 A 
ATOM     79  C   UNL A   1      37.717  29.100  31.947  1.00  0.00     0.040 A 
ATOM     80  F   UNL A   1      39.944  28.386  32.118  1.00  0.00    -0.206 F 
ATOM     81  C   UNL A   1      36.654  29.571  31.181  1.00  0.00     0.006 A 
ENDBRANCH  53  74
BRANCH  65  82
ATOM     82  C   UNL A   1      44.840  32.806  28.785  1.00  0.00     0.057 A 
ATOM     83  C   UNL A   1      44.511  33.813  27.868  1.00  0.00     0.134 A 
ATOM     84  C   UNL A   1      45.443  33.195  29.988  1.00  0.00     0.134 A 
ATOM     85  F   UNL A   1      43.942  33.504  26.694  1.00  0.00    -0.206 F 
ATOM     86  C   UNL A   1      44.800  35.153  28.127  1.00  0.00     0.040 A 
ATOM     87  C   UNL A   1      45.705  34.534  30.272  1.00  0.00     0.040 A 
ATOM     88  F   UNL A   1      45.770  32.281  30.914  1.00  0.00    -0.206 F 
ATOM     89  C   UNL A   1      45.391  35.517  29.336  1.00  0.00     0.006 A 
ENDBRANCH  65  82
ENDBRANCH  39  40
ENDBRANCH  32  34
ENDBRANCH  31  32
ENDBRANCH  30  31
ENDBRANCH  29  30
ENDBRANCH  28  29
ENDBRANCH  27  28
ENDBRANCH   1  27
TORSDOF 20
ENDMDL
MODEL 3
REMARK VINA RESULT:     -10.7      1.185      6.288
REMARK SMILES O=C(CC1(CC(=O)OCCOCCOC(=O)c2ccc(-c3c4nc(c(-c5c(F)cccc5F)c5ccc([nH]5)c(-c5c(F)cccc5F)c5nc(c(-c6c(F)cccc6F)c6ccc3[nH]6)C=C5)C=C4)cc2)CCCC1)NNc1ccc([N+](=O)[O-])cc1
REMARK SMILES IDX 9 1 8 2 6 3 7 4 5 5 4 6 71 7 74 8 72 9 73 10 3 11 2 12 1 13
REMARK SMILES IDX 75 14 76 16 77 18 78 19 85 20 79 21 84 22 80 23 81 24 82 25
REMARK SMILES IDX 83 26 10 27 11 28 12 29 13 30 14 31 15 32 16 33 17 34 18 35
REMARK SMILES IDX 70 36 19 37 69 38 20 39 21 40 22 41 63 42 23 43 68 44 62 45
REMARK SMILES IDX 64 46 24 47 67 48 61 49 60 50 25 52 51 53 34 54 50 55 35 56
REMARK SMILES IDX 38 57 49 58 65 59 36 60 37 61 48 63 66 64 39 65 26 66 27 67
REMARK SMILES IDX 32 68 28 69 29 70 31 71 33 72 30 73 52 74 53 75 58 76 54 77
REMARK SMILES IDX 55 78 57 79 59 80 56 81 40 82 41 83 46 84 42 85 43 86 45 87
REMARK SMILES IDX 47 88 44 89
REMARK H PARENT 75 15 76 17 64 51 38 62
REMARK Flexibility Score: inf
ROOT
ATOM      1  C   UNL A   1      33.297  29.096  26.027  1.00  0.00     0.261 C 
ENDROOT
BRANCH   1   2
ATOM      2  O   UNL A   1      33.245  27.923  26.873  1.00  0.00    -0.463 OA
BRANCH   2   3
ATOM      3  C   UNL A   1      32.307  27.003  26.546  1.00  0.00     0.306 C 
ATOM      4  O   UNL A   1      31.119  27.096  26.831  1.00  0.00    -0.252 OA
BRANCH   3   5
ATOM      5  C   UNL A   1      32.865  25.726  25.940  1.00  0.00     0.130 C 
BRANCH   5   6
ATOM      6  C   UNL A   1      33.121  25.522  24.417  1.00  0.00    -0.010 C 
ATOM      7  C   UNL A   1      32.246  24.304  23.967  1.00  0.00     0.008 C 
ATOM      8  C   UNL A   1      34.512  24.901  24.130  1.00  0.00     0.008 C 
ATOM      9  C   UNL A   1      32.950  23.056  24.482  1.00  0.00     0.001 C 
ATOM     10  C   UNL A   1      34.418  23.451  24.620  1.00  0.00     0.001 C 
BRANCH   6  11
ATOM     11  C   UNL A   1      32.739  26.670  23.427  1.00  0.00     0.109 C 
BRANCH  11  12
ATOM     12  C   UNL A   1      31.362  26.841  22.819  1.00  0.00     0.238 C 
ATOM     13  O   UNL A   1      31.108  26.453  21.677  1.00  0.00    -0.273 OA
ATOM     14  N   UNL A   1      30.394  27.361  23.636  1.00  0.00    -0.270 N 
ATOM     15  H   UNL A   1      30.563  27.520  24.592  1.00  0.00     0.191 HD
BRANCH  14  16
ATOM     16  N   UNL A   1      29.172  27.655  23.061  1.00  0.00    -0.299 N 
ATOM     17  H   UNL A   1      28.522  26.933  22.903  1.00  0.00     0.188 HD
BRANCH  16  18
ATOM     18  C   UNL A   1      28.850  28.964  22.704  1.00  0.00     0.055 A 
ATOM     19  C   UNL A   1      27.875  29.641  23.452  1.00  0.00     0.034 A 
ATOM     20  C   UNL A   1      29.508  29.674  21.689  1.00  0.00     0.034 A 
ATOM     21  C   UNL A   1      27.601  30.996  23.233  1.00  0.00     0.088 A 
ATOM     22  C   UNL A   1      29.244  31.023  21.452  1.00  0.00     0.088 A 
ATOM     23  C   UNL A   1      28.307  31.688  22.244  1.00  0.00     0.269 A 
BRANCH  23  24
ATOM     24  N   UNL A   1      28.093  33.126  22.058  1.00  0.00     0.062 N 
ATOM     25  O   UNL A   1      28.427  33.883  22.980  1.00  0.00    -0.258 OA
ATOM     26  O   UNL A   1      27.608  33.502  20.981  1.00  0.00    -0.258 OA
ENDBRANCH  23  24
ENDBRANCH  16  18
ENDBRANCH  14  16
ENDBRANCH  11  12
ENDBRANCH   6  11
ENDBRANCH   5   6
ENDBRANCH   3   5
ENDBRANCH   2   3
ENDBRANCH   1   2
BRANCH   1  27
ATOM     27  C   UNL A   1      33.355  30.385  26.850  1.00  0.00     0.202 C 
BRANCH  27  28
ATOM     28  O   UNL A   1      32.117  30.906  27.338  1.00  0.00    -0.374 OA
BRANCH  28  29
ATOM     29  C   UNL A   1      31.555  32.005  26.629  1.00  0.00     0.202 C 
BRANCH  29  30
ATOM     30  C   UNL A   1      32.109  33.407  26.922  1.00  0.00     0.261 C 
BRANCH  30  31
ATOM     31  O   UNL A   1      32.312  33.651  28.308  1.00  0.00    -0.460 OA
BRANCH  31  32
ATOM     32  C   UNL A   1      33.291  34.547  28.550  1.00  0.00     0.338 C 
ATOM     33  O   UNL A   1      33.223  35.764  28.563  1.00  0.00    -0.246 OA
BRANCH  32  34
ATOM     34  C   UNL A   1      34.466  33.796  28.990  1.00  0.00     0.060 A 
ATOM     35  C   UNL A   1      34.234  32.630  29.723  1.00  0.00     0.016 A 
ATOM     36  C   UNL A   1      35.759  34.223  28.673  1.00  0.00     0.016 A 
ATOM     37  C   UNL A   1      35.311  31.906  30.200  1.00  0.00     0.010 A 
ATOM     38  C   UNL A   1      36.840  33.494  29.154  1.00  0.00     0.010 A 
ATOM     39  C   UNL A   1      36.613  32.360  29.950  1.00  0.00    -0.014 A 
BRANCH  39  40
ATOM     40  C   UNL A   1      37.730  31.721  30.665  1.00  0.00     0.031 A 
ATOM     41  C   UNL A   1      38.529  30.676  29.948  1.00  0.00     0.074 A 
ATOM     42  C   UNL A   1      38.038  32.125  31.908  1.00  0.00     0.049 A 
ATOM     43  N   UNL A   1      39.555  29.987  30.369  1.00  0.00    -0.248 NA
ATOM     44  C   UNL A   1      38.114  30.358  28.569  1.00  0.00     0.031 C 
ATOM     45  C   UNL A   1      37.327  33.160  32.660  1.00  0.00     0.029 A 
ATOM     46  N   UNL A   1      39.031  31.714  32.754  1.00  0.00    -0.354 N 
ATOM     47  C   UNL A   1      39.905  29.155  29.314  1.00  0.00     0.074 A 
ATOM     48  C   UNL A   1      38.964  29.395  28.245  1.00  0.00     0.031 C 
ATOM     49  C   UNL A   1      37.908  33.300  33.862  1.00  0.00     0.029 A 
ATOM     50  C   UNL A   1      39.005  32.343  33.973  1.00  0.00     0.049 A 
ATOM     51  H   UNL A   1      39.700  31.033  32.512  1.00  0.00     0.167 HD
ATOM     52  C   UNL A   1      40.931  28.277  29.250  1.00  0.00     0.037 A 
ATOM     53  C   UNL A   1      39.774  32.143  35.058  1.00  0.00     0.037 A 
ATOM     54  C   UNL A   1      41.856  28.061  30.331  1.00  0.00     0.049 A 
ATOM     55  C   UNL A   1      40.873  31.118  34.976  1.00  0.00     0.074 A 
ATOM     56  C   UNL A   1      42.948  27.216  30.375  1.00  0.00     0.029 A 
ATOM     57  N   UNL A   1      41.785  28.695  31.564  1.00  0.00    -0.354 N 
ATOM     58  N   UNL A   1      41.223  30.360  33.963  1.00  0.00    -0.248 NA
ATOM     59  C   UNL A   1      41.688  30.924  36.181  1.00  0.00     0.031 C 
ATOM     60  C   UNL A   1      43.502  27.291  31.656  1.00  0.00     0.029 A 
ATOM     61  C   UNL A   1      42.796  28.233  32.389  1.00  0.00     0.049 A 
ATOM     62  H   UNL A   1      41.116  29.371  31.814  1.00  0.00     0.167 HD
ATOM     63  C   UNL A   1      42.312  29.618  34.400  1.00  0.00     0.074 A 
ATOM     64  C   UNL A   1      42.576  30.035  35.762  1.00  0.00     0.031 C 
ATOM     65  C   UNL A   1      43.031  28.675  33.740  1.00  0.00     0.037 A 
BRANCH  52  66
ATOM     66  C   UNL A   1      41.086  27.471  27.995  1.00  0.00     0.057 A 
ATOM     67  C   UNL A   1      40.458  26.230  27.822  1.00  0.00     0.134 A 
ATOM     68  C   UNL A   1      41.845  27.964  26.925  1.00  0.00     0.134 A 
ATOM     69  F   UNL A   1      39.732  25.691  28.812  1.00  0.00    -0.206 F 
ATOM     70  C   UNL A   1      40.590  25.503  26.636  1.00  0.00     0.040 A 
ATOM     71  C   UNL A   1      41.962  27.260  25.726  1.00  0.00     0.040 A 
ATOM     72  F   UNL A   1      42.476  29.142  27.024  1.00  0.00    -0.206 F 
ATOM     73  C   UNL A   1      41.336  26.023  25.580  1.00  0.00     0.006 A 
ENDBRANCH  52  66
BRANCH  53  74
ATOM     74  C   UNL A   1      39.518  32.905  36.307  1.00  0.00     0.057 A 
ATOM     75  C   UNL A   1      40.184  34.105  36.581  1.00  0.00     0.134 A 
ATOM     76  C   UNL A   1      38.613  32.438  37.269  1.00  0.00     0.134 A 
ATOM     77  F   UNL A   1      41.074  34.599  35.708  1.00  0.00    -0.206 F 
ATOM     78  C   UNL A   1      39.981  34.798  37.776  1.00  0.00     0.040 A 
ATOM     79  C   UNL A   1      38.377  33.137  38.454  1.00  0.00     0.040 A 
ATOM     80  F   UNL A   1      37.934  31.299  37.066  1.00  0.00    -0.206 F 
ATOM     81  C   UNL A   1      39.071  34.315  38.715  1.00  0.00     0.006 A 
ENDBRANCH  53  74
BRANCH  65  82
ATOM     82  C   UNL A   1      44.184  28.061  34.478  1.00  0.00     0.057 A 
ATOM     83  C   UNL A   1      45.484  28.576  34.382  1.00  0.00     0.134 A 
ATOM     84  C   UNL A   1      43.983  26.964  35.326  1.00  0.00     0.134 A 
ATOM     85  F   UNL A   1      45.744  29.618  33.578  1.00  0.00    -0.206 F 
ATOM     86  C   UNL A   1      46.547  28.002  35.079  1.00  0.00     0.040 A 
ATOM     87  C   UNL A   1      45.030  26.404  36.055  1.00  0.00     0.040 A 
ATOM     88  F   UNL A   1      42.760  26.432  35.474  1.00  0.00    -0.206 F 
ATOM     89  C   UNL A   1      46.319  26.918  35.926  1.00  0.00     0.006 A 
ENDBRANCH  65  82
ENDBRANCH  39  40
ENDBRANCH  32  34
ENDBRANCH  31  32
ENDBRANCH  30  31
ENDBRANCH  29  30
ENDBRANCH  28  29
ENDBRANCH  27  28
ENDBRANCH   1  27
TORSDOF 20
ENDMDL
