MODEL 1
REMARK VINA RESULT:     -11.0      0.000      0.000
REMARK SMILES O=C(OCCOCCOC(=O)[C@H]1CSCN1C(=O)c1occc1-c1ccccc1)c1ccc(-c2c3nc(c(-c4c(F)cccc4F)c4ccc([nH]4)c(-c4c(F)cccc4F)c4nc(c(-c5c(F)cccc5F)c5ccc2[nH]5)C=C4)C=C3)cc1
REMARK SMILES IDX 7 1 6 2 5 3 4 4 3 5 2 6 1 7 30 8 31 9 83 10 32 11 82 12
REMARK SMILES IDX 33 13 34 14 35 15 76 16 36 17 81 18 75 19 77 20 37 21 80 22
REMARK SMILES IDX 74 23 73 24 38 26 64 27 47 28 63 29 48 30 51 31 62 32 78 33
REMARK SMILES IDX 49 34 50 35 61 37 79 38 52 39 39 40 40 41 45 42 41 43 42 44
REMARK SMILES IDX 44 45 46 46 43 47 65 48 66 49 71 50 67 51 68 52 70 53 72 54
REMARK SMILES IDX 69 55 53 56 54 57 59 58 55 59 56 60 58 61 60 62 57 63 8 64
REMARK SMILES IDX 9 65 10 66 11 67 12 68 13 69 16 70 14 71 15 72 17 73 18 74
REMARK SMILES IDX 19 75 20 76 23 77 21 78 22 79 24 80 25 81 29 82 26 83 28 84
REMARK SMILES IDX 27 85
REMARK H PARENT 77 25 51 36
REMARK Flexibility Score: inf
ROOT
ATOM      1  C   UNL A   1      32.241  29.674  26.024  1.00  0.00     0.202 C 
ENDROOT
BRANCH   1   2
ATOM      2  O   UNL A   1      31.475  30.812  25.642  1.00  0.00    -0.374 OA
BRANCH   2   3
ATOM      3  C   UNL A   1      31.271  31.776  26.666  1.00  0.00     0.202 C 
BRANCH   3   4
ATOM      4  C   UNL A   1      32.026  33.093  26.496  1.00  0.00     0.261 C 
BRANCH   4   5
ATOM      5  O   UNL A   1      32.058  33.804  27.752  1.00  0.00    -0.460 OA
BRANCH   5   6
ATOM      6  C   UNL A   1      33.106  34.497  28.270  1.00  0.00     0.338 C 
ATOM      7  O   UNL A   1      33.070  35.712  28.374  1.00  0.00    -0.246 OA
BRANCH   6   8
ATOM      8  C   UNL A   1      34.282  33.762  28.787  1.00  0.00     0.060 A 
ATOM      9  C   UNL A   1      34.152  32.507  29.359  1.00  0.00     0.016 A 
ATOM     10  C   UNL A   1      35.559  34.313  28.677  1.00  0.00     0.016 A 
ATOM     11  C   UNL A   1      35.176  31.895  30.023  1.00  0.00     0.010 A 
ATOM     12  C   UNL A   1      36.655  33.605  29.179  1.00  0.00     0.010 A 
ATOM     13  C   UNL A   1      36.452  32.399  29.871  1.00  0.00    -0.014 A 
BRANCH  13  14
ATOM     14  C   UNL A   1      37.521  31.620  30.504  1.00  0.00     0.031 A 
ATOM     15  C   UNL A   1      37.709  31.757  31.974  1.00  0.00     0.074 A 
ATOM     16  C   UNL A   1      38.169  30.694  29.769  1.00  0.00     0.049 A 
ATOM     17  N   UNL A   1      38.655  31.275  32.724  1.00  0.00    -0.248 NA
ATOM     18  C   UNL A   1      36.695  32.543  32.699  1.00  0.00     0.031 C 
ATOM     19  C   UNL A   1      37.905  30.391  28.353  1.00  0.00     0.029 A 
ATOM     20  N   UNL A   1      39.146  29.804  30.113  1.00  0.00    -0.354 N 
ATOM     21  C   UNL A   1      38.395  31.758  33.997  1.00  0.00     0.074 A 
ATOM     22  C   UNL A   1      37.194  32.557  33.925  1.00  0.00     0.031 C 
ATOM     23  C   UNL A   1      38.666  29.359  27.969  1.00  0.00     0.029 A 
ATOM     24  C   UNL A   1      39.561  29.020  29.062  1.00  0.00     0.049 A 
ATOM     25  H   UNL A   1      39.516  29.731  31.022  1.00  0.00     0.167 HD
ATOM     26  C   UNL A   1      39.131  31.557  35.112  1.00  0.00     0.037 A 
ATOM     27  C   UNL A   1      40.605  28.178  28.983  1.00  0.00     0.037 A 
ATOM     28  C   UNL A   1      40.309  30.735  35.117  1.00  0.00     0.049 A 
ATOM     29  C   UNL A   1      41.459  28.048  30.208  1.00  0.00     0.074 A 
ATOM     30  C   UNL A   1      41.193  30.492  36.149  1.00  0.00     0.029 A 
ATOM     31  N   UNL A   1      40.760  30.012  34.017  1.00  0.00    -0.354 N 
ATOM     32  N   UNL A   1      41.291  28.597  31.390  1.00  0.00    -0.248 NA
ATOM     33  C   UNL A   1      42.657  27.214  30.092  1.00  0.00     0.031 C 
ATOM     34  C   UNL A   1      42.205  29.658  35.657  1.00  0.00     0.029 A 
ATOM     35  C   UNL A   1      41.919  29.333  34.338  1.00  0.00     0.049 A 
ATOM     36  H   UNL A   1      40.316  29.987  33.138  1.00  0.00     0.167 HD
ATOM     37  C   UNL A   1      42.353  28.164  32.166  1.00  0.00     0.074 A 
ATOM     38  C   UNL A   1      43.146  27.287  31.322  1.00  0.00     0.031 C 
ATOM     39  C   UNL A   1      42.657  28.463  33.454  1.00  0.00     0.037 A 
BRANCH  26  40
ATOM     40  C   UNL A   1      38.727  32.316  36.338  1.00  0.00     0.057 A 
ATOM     41  C   UNL A   1      39.111  33.643  36.568  1.00  0.00     0.134 A 
ATOM     42  C   UNL A   1      37.986  31.677  37.342  1.00  0.00     0.134 A 
ATOM     43  F   UNL A   1      39.856  34.301  35.667  1.00  0.00    -0.206 F 
ATOM     44  C   UNL A   1      38.798  34.298  37.762  1.00  0.00     0.040 A 
ATOM     45  C   UNL A   1      37.644  32.330  38.527  1.00  0.00     0.040 A 
ATOM     46  F   UNL A   1      37.600  30.400  37.196  1.00  0.00    -0.206 F 
ATOM     47  C   UNL A   1      38.058  33.641  38.744  1.00  0.00     0.006 A 
ENDBRANCH  26  40
BRANCH  27  48
ATOM     48  C   UNL A   1      40.936  27.497  27.705  1.00  0.00     0.057 A 
ATOM     49  C   UNL A   1      41.764  28.096  26.751  1.00  0.00     0.134 A 
ATOM     50  C   UNL A   1      40.428  26.224  27.400  1.00  0.00     0.134 A 
ATOM     51  F   UNL A   1      42.273  29.317  26.971  1.00  0.00    -0.206 F 
ATOM     52  C   UNL A   1      42.060  27.469  25.538  1.00  0.00     0.040 A 
ATOM     53  C   UNL A   1      40.742  25.572  26.207  1.00  0.00     0.040 A 
ATOM     54  F   UNL A   1      39.632  25.584  28.269  1.00  0.00    -0.206 F 
ATOM     55  C   UNL A   1      41.552  26.200  25.265  1.00  0.00     0.006 A 
ENDBRANCH  27  48
BRANCH  39  56
ATOM     56  C   UNL A   1      43.868  27.791  34.021  1.00  0.00     0.057 A 
ATOM     57  C   UNL A   1      45.122  28.413  34.036  1.00  0.00     0.134 A 
ATOM     58  C   UNL A   1      43.760  26.521  34.600  1.00  0.00     0.134 A 
ATOM     59  F   UNL A   1      45.288  29.623  33.480  1.00  0.00    -0.206 F 
ATOM     60  C   UNL A   1      46.235  27.782  34.588  1.00  0.00     0.040 A 
ATOM     61  C   UNL A   1      44.857  25.896  35.184  1.00  0.00     0.040 A 
ATOM     62  F   UNL A   1      42.581  25.881  34.621  1.00  0.00    -0.206 F 
ATOM     63  C   UNL A   1      46.101  26.524  35.173  1.00  0.00     0.006 A 
ENDBRANCH  39  56
ENDBRANCH  13  14
ENDBRANCH   6   8
ENDBRANCH   5   6
ENDBRANCH   4   5
ENDBRANCH   3   4
ENDBRANCH   2   3
ENDBRANCH   1   2
BRANCH   1  64
ATOM     64  C   UNL A   1      33.203  29.321  24.894  1.00  0.00     0.261 C 
BRANCH  64  65
ATOM     65  O   UNL A   1      32.982  27.965  24.455  1.00  0.00    -0.462 OA
BRANCH  65  66
ATOM     66  C   UNL A   1      33.190  26.981  25.386  1.00  0.00     0.329 C 
ATOM     67  O   UNL A   1      33.999  27.036  26.305  1.00  0.00    -0.250 OA
BRANCH  66  68
ATOM     68  C   UNL A   1      32.285  25.774  25.096  1.00  0.00     0.206 C 
ATOM     69  C   UNL A   1      30.893  26.184  25.592  1.00  0.00     0.108 C 
ATOM     70  N   UNL A   1      32.206  25.318  23.678  1.00  0.00    -0.312 N 
ATOM     71  S   UNL A   1      29.870  26.377  24.118  1.00  0.00    -0.138 SA
ATOM     72  C   UNL A   1      30.865  25.225  23.179  1.00  0.00     0.191 C 
BRANCH  70  73
ATOM     73  C   UNL A   1      33.192  24.480  23.149  1.00  0.00     0.291 C 
ATOM     74  O   UNL A   1      34.004  24.971  22.359  1.00  0.00    -0.265 OA
BRANCH  73  75
ATOM     75  C   UNL A   1      33.290  23.066  23.528  1.00  0.00     0.199 A 
ATOM     76  O   UNL A   1      32.132  22.346  23.298  1.00  0.00    -0.459 OA
ATOM     77  C   UNL A   1      34.202  22.206  24.146  1.00  0.00     0.033 A 
ATOM     78  C   UNL A   1      32.314  21.075  23.719  1.00  0.00     0.196 A 
ATOM     79  C   UNL A   1      33.571  20.927  24.236  1.00  0.00     0.051 A 
BRANCH  77  80
ATOM     80  C   UNL A   1      35.516  22.508  24.682  1.00  0.00    -0.014 A 
ATOM     81  C   UNL A   1      36.525  21.537  24.635  1.00  0.00     0.009 A 
ATOM     82  C   UNL A   1      35.751  23.696  25.379  1.00  0.00     0.009 A 
ATOM     83  C   UNL A   1      37.782  21.795  25.182  1.00  0.00     0.001 A 
ATOM     84  C   UNL A   1      37.005  23.949  25.942  1.00  0.00     0.001 A 
ATOM     85  C   UNL A   1      38.025  23.005  25.827  1.00  0.00     0.000 A 
ENDBRANCH  77  80
ENDBRANCH  73  75
ENDBRANCH  70  73
ENDBRANCH  66  68
ENDBRANCH  65  66
ENDBRANCH  64  65
ENDBRANCH   1  64
TORSDOF 17
ENDMDL
MODEL 2
REMARK VINA RESULT:     -10.9      1.166      2.580
REMARK SMILES O=C(OCCOCCOC(=O)[C@H]1CSCN1C(=O)c1occc1-c1ccccc1)c1ccc(-c2c3nc(c(-c4c(F)cccc4F)c4ccc([nH]4)c(-c4c(F)cccc4F)c4nc(c(-c5c(F)cccc5F)c5ccc2[nH]5)C=C4)C=C3)cc1
REMARK SMILES IDX 7 1 6 2 5 3 4 4 3 5 2 6 1 7 30 8 31 9 83 10 32 11 82 12
REMARK SMILES IDX 33 13 34 14 35 15 76 16 36 17 81 18 75 19 77 20 37 21 80 22
REMARK SMILES IDX 74 23 73 24 38 26 64 27 47 28 63 29 48 30 51 31 62 32 78 33
REMARK SMILES IDX 49 34 50 35 61 37 79 38 52 39 39 40 40 41 45 42 41 43 42 44
REMARK SMILES IDX 44 45 46 46 43 47 65 48 66 49 71 50 67 51 68 52 70 53 72 54
REMARK SMILES IDX 69 55 53 56 54 57 59 58 55 59 56 60 58 61 60 62 57 63 8 64
REMARK SMILES IDX 9 65 10 66 11 67 12 68 13 69 16 70 14 71 15 72 17 73 18 74
REMARK SMILES IDX 19 75 20 76 23 77 21 78 22 79 24 80 25 81 29 82 26 83 28 84
REMARK SMILES IDX 27 85
REMARK H PARENT 77 25 51 36
REMARK Flexibility Score: inf
ROOT
ATOM      1  C   UNL A   1      33.189  29.227  27.014  1.00  0.00     0.202 C 
ENDROOT
BRANCH   1   2
ATOM      2  O   UNL A   1      33.122  30.559  26.513  1.00  0.00    -0.374 OA
BRANCH   2   3
ATOM      3  C   UNL A   1      31.968  31.293  26.900  1.00  0.00     0.202 C 
BRANCH   3   4
ATOM      4  C   UNL A   1      32.019  32.796  26.633  1.00  0.00     0.261 C 
BRANCH   4   5
ATOM      5  O   UNL A   1      32.126  33.512  27.882  1.00  0.00    -0.460 OA
BRANCH   5   6
ATOM      6  C   UNL A   1      33.187  34.241  28.316  1.00  0.00     0.338 C 
ATOM      7  O   UNL A   1      33.142  35.459  28.355  1.00  0.00    -0.246 OA
BRANCH   6   8
ATOM      8  C   UNL A   1      34.393  33.545  28.820  1.00  0.00     0.060 A 
ATOM      9  C   UNL A   1      34.315  32.274  29.364  1.00  0.00     0.016 A 
ATOM     10  C   UNL A   1      35.645  34.151  28.724  1.00  0.00     0.016 A 
ATOM     11  C   UNL A   1      35.363  31.692  30.017  1.00  0.00     0.010 A 
ATOM     12  C   UNL A   1      36.770  33.480  29.214  1.00  0.00     0.010 A 
ATOM     13  C   UNL A   1      36.617  32.253  29.880  1.00  0.00    -0.014 A 
BRANCH  13  14
ATOM     14  C   UNL A   1      37.716  31.506  30.499  1.00  0.00     0.031 A 
ATOM     15  C   UNL A   1      37.929  31.661  31.963  1.00  0.00     0.074 A 
ATOM     16  C   UNL A   1      38.373  30.589  29.759  1.00  0.00     0.049 A 
ATOM     17  N   UNL A   1      38.902  31.209  32.699  1.00  0.00    -0.248 NA
ATOM     18  C   UNL A   1      36.911  32.429  32.701  1.00  0.00     0.031 C 
ATOM     19  C   UNL A   1      38.089  30.267  28.351  1.00  0.00     0.029 A 
ATOM     20  N   UNL A   1      39.378  29.727  30.092  1.00  0.00    -0.354 N 
ATOM     21  C   UNL A   1      38.654  31.698  33.972  1.00  0.00     0.074 A 
ATOM     22  C   UNL A   1      37.432  32.466  33.917  1.00  0.00     0.031 C 
ATOM     23  C   UNL A   1      38.868  29.250  27.962  1.00  0.00     0.029 A 
ATOM     24  C   UNL A   1      39.792  28.944  29.040  1.00  0.00     0.049 A 
ATOM     25  H   UNL A   1      39.767  29.671  30.994  1.00  0.00     0.167 HD
ATOM     26  C   UNL A   1      39.416  31.526  35.074  1.00  0.00     0.037 A 
ATOM     27  C   UNL A   1      40.855  28.127  28.948  1.00  0.00     0.037 A 
ATOM     28  C   UNL A   1      40.615  30.733  35.064  1.00  0.00     0.049 A 
ATOM     29  C   UNL A   1      41.735  28.029  30.157  1.00  0.00     0.074 A 
ATOM     30  C   UNL A   1      41.524  30.521  36.080  1.00  0.00     0.029 A 
ATOM     31  N   UNL A   1      41.062  30.011  33.961  1.00  0.00    -0.354 N 
ATOM     32  N   UNL A   1      41.577  28.585  31.337  1.00  0.00    -0.248 NA
ATOM     33  C   UNL A   1      42.951  27.224  30.025  1.00  0.00     0.031 C 
ATOM     34  C   UNL A   1      42.547  29.708  35.576  1.00  0.00     0.029 A 
ATOM     35  C   UNL A   1      42.243  29.364  34.266  1.00  0.00     0.049 A 
ATOM     36  H   UNL A   1      40.602  29.967  33.091  1.00  0.00     0.167 HD
ATOM     37  C   UNL A   1      42.664  28.185  32.096  1.00  0.00     0.074 A 
ATOM     38  C   UNL A   1      43.462  27.321  31.244  1.00  0.00     0.031 C 
ATOM     39  C   UNL A   1      42.986  28.504  33.375  1.00  0.00     0.037 A 
BRANCH  26  40
ATOM     40  C   UNL A   1      39.018  32.286  36.301  1.00  0.00     0.057 A 
ATOM     41  C   UNL A   1      38.121  31.775  37.249  1.00  0.00     0.134 A 
ATOM     42  C   UNL A   1      39.497  33.587  36.503  1.00  0.00     0.134 A 
ATOM     43  F   UNL A   1      37.593  30.552  37.096  1.00  0.00    -0.206 F 
ATOM     44  C   UNL A   1      37.696  32.541  38.338  1.00  0.00     0.040 A 
ATOM     45  C   UNL A   1      39.100  34.351  37.601  1.00  0.00     0.040 A 
ATOM     46  F   UNL A   1      40.344  34.145  35.625  1.00  0.00    -0.206 F 
ATOM     47  C   UNL A   1      38.189  33.832  38.518  1.00  0.00     0.006 A 
ENDBRANCH  26  40
BRANCH  27  48
ATOM     48  C   UNL A   1      41.177  27.442  27.669  1.00  0.00     0.057 A 
ATOM     49  C   UNL A   1      40.718  26.150  27.396  1.00  0.00     0.134 A 
ATOM     50  C   UNL A   1      41.960  28.063  26.683  1.00  0.00     0.134 A 
ATOM     51  F   UNL A   1      39.976  25.492  28.300  1.00  0.00    -0.206 F 
ATOM     52  C   UNL A   1      41.038  25.493  26.205  1.00  0.00     0.040 A 
ATOM     53  C   UNL A   1      42.260  27.432  25.475  1.00  0.00     0.040 A 
ATOM     54  F   UNL A   1      42.431  29.304  26.871  1.00  0.00    -0.206 F 
ATOM     55  C   UNL A   1      41.807  26.138  25.237  1.00  0.00     0.006 A 
ENDBRANCH  27  48
BRANCH  39  56
ATOM     56  C   UNL A   1      44.224  27.868  33.924  1.00  0.00     0.057 A 
ATOM     57  C   UNL A   1      44.205  26.600  34.517  1.00  0.00     0.134 A 
ATOM     58  C   UNL A   1      45.458  28.521  33.812  1.00  0.00     0.134 A 
ATOM     59  F   UNL A   1      43.049  25.936  34.667  1.00  0.00    -0.206 F 
ATOM     60  C   UNL A   1      45.371  26.012  35.002  1.00  0.00     0.040 A 
ATOM     61  C   UNL A   1      46.634  27.928  34.262  1.00  0.00     0.040 A 
ATOM     62  F   UNL A   1      45.537  29.734  33.245  1.00  0.00    -0.206 F 
ATOM     63  C   UNL A   1      46.591  26.673  34.866  1.00  0.00     0.006 A 
ENDBRANCH  39  56
ENDBRANCH  13  14
ENDBRANCH   6   8
ENDBRANCH   5   6
ENDBRANCH   4   5
ENDBRANCH   3   4
ENDBRANCH   2   3
ENDBRANCH   1   2
BRANCH   1  64
ATOM     64  C   UNL A   1      33.266  28.258  25.840  1.00  0.00     0.261 C 
BRANCH  64  65
ATOM     65  O   UNL A   1      33.381  26.901  26.319  1.00  0.00    -0.462 OA
BRANCH  65  66
ATOM     66  C   UNL A   1      32.254  26.127  26.232  1.00  0.00     0.329 C 
ATOM     67  O   UNL A   1      31.222  26.305  26.869  1.00  0.00    -0.250 OA
BRANCH  66  68
ATOM     68  C   UNL A   1      32.476  24.973  25.243  1.00  0.00     0.206 C 
ATOM     69  C   UNL A   1      32.000  25.505  23.887  1.00  0.00     0.108 C 
ATOM     70  N   UNL A   1      33.867  24.447  25.124  1.00  0.00    -0.312 N 
ATOM     71  S   UNL A   1      33.481  25.690  22.870  1.00  0.00    -0.138 SA
ATOM     72  C   UNL A   1      34.359  24.422  23.777  1.00  0.00     0.191 C 
BRANCH  70  73
ATOM     73  C   UNL A   1      34.352  23.515  26.046  1.00  0.00     0.291 C 
ATOM     74  O   UNL A   1      33.850  23.503  27.174  1.00  0.00    -0.265 OA
BRANCH  73  75
ATOM     75  C   UNL A   1      35.407  22.558  25.696  1.00  0.00     0.199 A 
ATOM     76  O   UNL A   1      36.688  23.056  25.856  1.00  0.00    -0.459 OA
ATOM     77  C   UNL A   1      35.523  21.275  25.153  1.00  0.00     0.033 A 
ATOM     78  C   UNL A   1      37.577  22.116  25.466  1.00  0.00     0.196 A 
ATOM     79  C   UNL A   1      36.919  20.996  25.038  1.00  0.00     0.051 A 
BRANCH  77  80
ATOM     80  C   UNL A   1      34.471  20.381  24.705  1.00  0.00    -0.014 A 
ATOM     81  C   UNL A   1      34.687  18.997  24.709  1.00  0.00     0.009 A 
ATOM     82  C   UNL A   1      33.302  20.882  24.126  1.00  0.00     0.009 A 
ATOM     83  C   UNL A   1      33.704  18.125  24.243  1.00  0.00     0.001 A 
ATOM     84  C   UNL A   1      32.323  20.010  23.643  1.00  0.00     0.001 A 
ATOM     85  C   UNL A   1      32.517  18.630  23.719  1.00  0.00     0.000 A 
ENDBRANCH  77  80
ENDBRANCH  73  75
ENDBRANCH  70  73
ENDBRANCH  66  68
ENDBRANCH  65  66
ENDBRANCH  64  65
ENDBRANCH   1  64
TORSDOF 17
ENDMDL
MODEL 3
REMARK VINA RESULT:     -10.8      3.017      7.872
REMARK SMILES O=C(OCCOCCOC(=O)[C@H]1CSCN1C(=O)c1occc1-c1ccccc1)c1ccc(-c2c3nc(c(-c4c(F)cccc4F)c4ccc([nH]4)c(-c4c(F)cccc4F)c4nc(c(-c5c(F)cccc5F)c5ccc2[nH]5)C=C4)C=C3)cc1
REMARK SMILES IDX 7 1 6 2 5 3 4 4 3 5 2 6 1 7 30 8 31 9 83 10 32 11 82 12
REMARK SMILES IDX 33 13 34 14 35 15 76 16 36 17 81 18 75 19 77 20 37 21 80 22
REMARK SMILES IDX 74 23 73 24 38 26 64 27 47 28 63 29 48 30 51 31 62 32 78 33
REMARK SMILES IDX 49 34 50 35 61 37 79 38 52 39 39 40 40 41 45 42 41 43 42 44
REMARK SMILES IDX 44 45 46 46 43 47 65 48 66 49 71 50 67 51 68 52 70 53 72 54
REMARK SMILES IDX 69 55 53 56 54 57 59 58 55 59 56 60 58 61 60 62 57 63 8 64
REMARK SMILES IDX 9 65 10 66 11 67 12 68 13 69 16 70 14 71 15 72 17 73 18 74
REMARK SMILES IDX 19 75 20 76 23 77 21 78 22 79 24 80 25 81 29 82 26 83 28 84
REMARK SMILES IDX 27 85
REMARK H PARENT 77 25 51 36
REMARK Flexibility Score: inf
ROOT
ATOM      1  C   UNL A   1      38.925  21.472  25.780  1.00  0.00     0.202 C 
ENDROOT
BRANCH   1   2
ATOM      2  O   UNL A   1      39.726  22.320  26.597  1.00  0.00    -0.374 OA
BRANCH   2   3
ATOM      3  C   UNL A   1      41.116  22.025  26.594  1.00  0.00     0.202 C 
BRANCH   3   4
ATOM      4  C   UNL A   1      42.025  23.119  26.038  1.00  0.00     0.261 C 
BRANCH   4   5
ATOM      5  O   UNL A   1      41.265  24.328  25.829  1.00  0.00    -0.460 OA
BRANCH   5   6
ATOM      6  C   UNL A   1      41.724  25.605  25.912  1.00  0.00     0.338 C 
ATOM      7  O   UNL A   1      42.389  26.095  25.015  1.00  0.00    -0.246 OA
BRANCH   6   8
ATOM      8  C   UNL A   1      41.348  26.442  27.073  1.00  0.00     0.060 A 
ATOM      9  C   UNL A   1      41.800  27.745  27.197  1.00  0.00     0.016 A 
ATOM     10  C   UNL A   1      40.496  25.938  28.056  1.00  0.00     0.016 A 
ATOM     11  C   UNL A   1      41.641  28.470  28.343  1.00  0.00     0.010 A 
ATOM     12  C   UNL A   1      40.161  26.744  29.149  1.00  0.00     0.010 A 
ATOM     13  C   UNL A   1      40.755  28.007  29.296  1.00  0.00    -0.014 A 
BRANCH  13  14
ATOM     14  C   UNL A   1      40.535  28.897  30.440  1.00  0.00     0.031 A 
ATOM     15  C   UNL A   1      39.395  29.850  30.376  1.00  0.00     0.074 A 
ATOM     16  C   UNL A   1      41.259  28.700  31.561  1.00  0.00     0.049 A 
ATOM     17  N   UNL A   1      39.083  30.808  31.198  1.00  0.00    -0.248 NA
ATOM     18  C   UNL A   1      38.479  29.706  29.231  1.00  0.00     0.031 C 
ATOM     19  C   UNL A   1      42.281  27.657  31.744  1.00  0.00     0.029 A 
ATOM     20  N   UNL A   1      41.219  29.329  32.772  1.00  0.00    -0.354 N 
ATOM     21  C   UNL A   1      37.981  31.430  30.634  1.00  0.00     0.074 A 
ATOM     22  C   UNL A   1      37.663  30.734  29.410  1.00  0.00     0.031 C 
ATOM     23  C   UNL A   1      42.732  27.693  33.005  1.00  0.00     0.029 A 
ATOM     24  C   UNL A   1      42.136  28.838  33.671  1.00  0.00     0.049 A 
ATOM     25  H   UNL A   1      40.596  30.062  32.981  1.00  0.00     0.167 HD
ATOM     26  C   UNL A   1      37.323  32.510  31.109  1.00  0.00     0.037 A 
ATOM     27  C   UNL A   1      42.501  29.318  34.871  1.00  0.00     0.037 A 
ATOM     28  C   UNL A   1      37.682  33.147  32.347  1.00  0.00     0.049 A 
ATOM     29  C   UNL A   1      41.819  30.572  35.329  1.00  0.00     0.074 A 
ATOM     30  C   UNL A   1      37.154  34.285  32.922  1.00  0.00     0.029 A 
ATOM     31  N   UNL A   1      38.672  32.678  33.205  1.00  0.00    -0.354 N 
ATOM     32  N   UNL A   1      40.852  31.243  34.746  1.00  0.00    -0.248 NA
ATOM     33  C   UNL A   1      42.289  31.157  36.587  1.00  0.00     0.031 C 
ATOM     34  C   UNL A   1      37.859  34.531  34.107  1.00  0.00     0.029 A 
ATOM     35  C   UNL A   1      38.784  33.512  34.300  1.00  0.00     0.049 A 
ATOM     36  H   UNL A   1      39.213  31.869  33.054  1.00  0.00     0.167 HD
ATOM     37  C   UNL A   1      40.584  32.322  35.571  1.00  0.00     0.074 A 
ATOM     38  C   UNL A   1      41.479  32.199  36.708  1.00  0.00     0.031 C 
ATOM     39  C   UNL A   1      39.689  33.329  35.409  1.00  0.00     0.037 A 
BRANCH  26  40
ATOM     40  C   UNL A   1      36.255  33.093  30.236  1.00  0.00     0.057 A 
ATOM     41  C   UNL A   1      36.541  33.882  29.115  1.00  0.00     0.134 A 
ATOM     42  C   UNL A   1      34.905  32.908  30.567  1.00  0.00     0.134 A 
ATOM     43  F   UNL A   1      37.812  34.133  28.766  1.00  0.00    -0.206 F 
ATOM     44  C   UNL A   1      35.525  34.489  28.371  1.00  0.00     0.040 A 
ATOM     45  C   UNL A   1      33.882  33.487  29.815  1.00  0.00     0.040 A 
ATOM     46  F   UNL A   1      34.560  32.179  31.639  1.00  0.00    -0.206 F 
ATOM     47  C   UNL A   1      34.191  34.287  28.719  1.00  0.00     0.006 A 
ENDBRANCH  26  40
BRANCH  27  48
ATOM     48  C   UNL A   1      43.597  28.679  35.644  1.00  0.00     0.057 A 
ATOM     49  C   UNL A   1      44.928  29.077  35.489  1.00  0.00     0.134 A 
ATOM     50  C   UNL A   1      43.342  27.646  36.561  1.00  0.00     0.134 A 
ATOM     51  F   UNL A   1      45.246  30.048  34.621  1.00  0.00    -0.206 F 
ATOM     52  C   UNL A   1      45.965  28.463  36.197  1.00  0.00     0.040 A 
ATOM     53  C   UNL A   1      44.363  27.047  37.299  1.00  0.00     0.040 A 
ATOM     54  F   UNL A   1      42.089  27.216  36.768  1.00  0.00    -0.206 F 
ATOM     55  C   UNL A   1      45.683  27.448  37.110  1.00  0.00     0.006 A 
ENDBRANCH  27  48
BRANCH  39  56
ATOM     56  C   UNL A   1      39.616  34.333  36.516  1.00  0.00     0.057 A 
ATOM     57  C   UNL A   1      38.899  34.088  37.693  1.00  0.00     0.134 A 
ATOM     58  C   UNL A   1      40.315  35.543  36.414  1.00  0.00     0.134 A 
ATOM     59  F   UNL A   1      38.196  32.954  37.837  1.00  0.00    -0.206 F 
ATOM     60  C   UNL A   1      38.860  35.025  38.723  1.00  0.00     0.040 A 
ATOM     61  C   UNL A   1      40.311  36.470  37.451  1.00  0.00     0.040 A 
ATOM     62  F   UNL A   1      41.026  35.828  35.313  1.00  0.00    -0.206 F 
ATOM     63  C   UNL A   1      39.576  36.215  38.608  1.00  0.00     0.006 A 
ENDBRANCH  39  56
ENDBRANCH  13  14
ENDBRANCH   6   8
ENDBRANCH   5   6
ENDBRANCH   4   5
ENDBRANCH   3   4
ENDBRANCH   2   3
ENDBRANCH   1   2
BRANCH   1  64
ATOM     64  C   UNL A   1      37.638  22.204  25.416  1.00  0.00     0.261 C 
BRANCH  64  65
ATOM     65  O   UNL A   1      36.512  21.603  26.088  1.00  0.00    -0.462 OA
BRANCH  65  66
ATOM     66  C   UNL A   1      35.290  22.183  25.869  1.00  0.00     0.329 C 
ATOM     67  O   UNL A   1      34.771  23.030  26.586  1.00  0.00    -0.250 OA
BRANCH  66  68
ATOM     68  C   UNL A   1      34.640  21.593  24.609  1.00  0.00     0.206 C 
ATOM     69  C   UNL A   1      33.898  20.339  25.085  1.00  0.00     0.108 C 
ATOM     70  N   UNL A   1      33.709  22.480  23.854  1.00  0.00    -0.312 N 
ATOM     71  S   UNL A   1      32.138  20.707  24.930  1.00  0.00    -0.138 SA
ATOM     72  C   UNL A   1      32.419  21.897  23.625  1.00  0.00     0.191 C 
BRANCH  70  73
ATOM     73  C   UNL A   1      34.206  23.417  22.943  1.00  0.00     0.291 C 
ATOM     74  O   UNL A   1      35.381  23.303  22.580  1.00  0.00    -0.265 OA
BRANCH  73  75
ATOM     75  C   UNL A   1      33.367  24.495  22.407  1.00  0.00     0.199 A 
ATOM     76  O   UNL A   1      33.302  24.517  21.026  1.00  0.00    -0.459 OA
ATOM     77  C   UNL A   1      32.650  25.599  22.877  1.00  0.00     0.033 A 
ATOM     78  C   UNL A   1      32.546  25.567  20.638  1.00  0.00     0.196 A 
ATOM     79  C   UNL A   1      32.106  26.259  21.732  1.00  0.00     0.051 A 
BRANCH  77  80
ATOM     80  C   UNL A   1      32.507  26.077  24.239  1.00  0.00    -0.014 A 
ATOM     81  C   UNL A   1      31.291  25.905  24.912  1.00  0.00     0.009 A 
ATOM     82  C   UNL A   1      33.512  26.840  24.841  1.00  0.00     0.009 A 
ATOM     83  C   UNL A   1      31.122  26.395  26.207  1.00  0.00     0.001 A 
ATOM     84  C   UNL A   1      33.338  27.345  26.132  1.00  0.00     0.001 A 
ATOM     85  C   UNL A   1      32.149  27.106  26.821  1.00  0.00     0.000 A 
ENDBRANCH  77  80
ENDBRANCH  73  75
ENDBRANCH  70  73
ENDBRANCH  66  68
ENDBRANCH  65  66
ENDBRANCH  64  65
ENDBRANCH   1  64
TORSDOF 17
ENDMDL
