MODEL 1
REMARK VINA RESULT:     -11.7      0.000      0.000
REMARK SMILES Cc1nc(C)c(C(=O)N2CCC([C@H](C)C(=O)OCCOCCOC(=O)c3ccc(-c4c5nc(c(-c6c(F)cccc6F)c6ccc([nH]6)c(-c6c(F)cccc6F)c6nc(c(-c7c(F)cccc7F)c7ccc4[nH]7)C=C6)C=C5)cc3)CC2)s1
REMARK SMILES IDX 20 1 19 2 18 3 17 4 15 5 16 6 13 7 14 8 12 9 7 10 8 11 9 12
REMARK SMILES IDX 10 13 81 14 11 15 80 16 6 17 1 18 2 19 3 20 82 21 4 22 5 23
REMARK SMILES IDX 21 24 22 25 23 26 24 27 25 28 26 29 27 30 79 31 28 32 78 33
REMARK SMILES IDX 29 34 30 35 31 36 72 37 32 38 77 39 71 40 73 41 33 42 76 43
REMARK SMILES IDX 70 44 69 45 34 47 60 48 43 49 59 50 44 51 47 52 58 53 74 54
REMARK SMILES IDX 45 55 46 56 57 58 75 59 48 60 35 61 36 62 41 63 37 64 38 65
REMARK SMILES IDX 40 66 42 67 39 68 61 69 62 70 67 71 63 72 64 73 66 74 68 75
REMARK SMILES IDX 65 76 49 77 50 78 55 79 51 80 52 81 54 82 56 83 53 84
REMARK H PARENT 73 46 47 57
REMARK Flexibility Score: inf
ROOT
ATOM      1  O   UNL A   1      43.291  20.086  25.142  1.00  0.00    -0.374 OA
ENDROOT
BRANCH   1   2
ATOM      2  C   UNL A   1      42.410  19.540  26.121  1.00  0.00     0.202 C 
BRANCH   2   3
ATOM      3  C   UNL A   1      41.395  20.505  26.739  1.00  0.00     0.261 C 
BRANCH   3   4
ATOM      4  O   UNL A   1      40.067  20.296  26.226  1.00  0.00    -0.463 OA
BRANCH   4   5
ATOM      5  C   UNL A   1      39.316  21.414  26.031  1.00  0.00     0.309 C 
ATOM      6  O   UNL A   1      39.458  22.474  26.626  1.00  0.00    -0.252 OA
BRANCH   5   7
ATOM      7  C   UNL A   1      38.204  21.180  25.017  1.00  0.00     0.099 C 
ATOM      8  C   UNL A   1      37.873  19.689  24.882  1.00  0.00     0.020 C 
BRANCH   7   9
ATOM      9  C   UNL A   1      37.005  22.157  25.198  1.00  0.00     0.006 C 
ATOM     10  C   UNL A   1      33.115  23.689  24.338  1.00  0.00     0.265 C 
ATOM     11  O   UNL A   1      32.976  23.960  23.144  1.00  0.00    -0.268 OA
ATOM     12  N   UNL A   1      34.380  23.373  24.843  1.00  0.00    -0.338 N 
ATOM     13  C   UNL A   1      35.544  23.983  24.222  1.00  0.00     0.120 C 
ATOM     14  C   UNL A   1      34.628  22.551  26.023  1.00  0.00     0.120 C 
ATOM     15  C   UNL A   1      36.651  22.973  23.942  1.00  0.00     0.026 C 
ATOM     16  C   UNL A   1      35.716  21.512  25.752  1.00  0.00     0.026 C 
BRANCH  10  17
ATOM     17  C   UNL A   1      31.989  23.741  25.254  1.00  0.00     0.115 A 
ATOM     18  C   UNL A   1      29.064  22.537  27.508  1.00  0.00     0.079 C 
ATOM     19  C   UNL A   1      30.157  23.208  26.757  1.00  0.00     0.091 A 
ATOM     20  N   UNL A   1      30.540  24.450  26.950  1.00  0.00    -0.246 NA
ATOM     21  S   UNL A   1      31.044  22.341  25.580  1.00  0.00    -0.113 S 
ATOM     22  C   UNL A   1      31.619  24.754  26.126  1.00  0.00     0.061 A 
ATOM     23  C   UNL A   1      32.255  26.090  26.285  1.00  0.00     0.068 C 
ENDBRANCH  10  17
ENDBRANCH   7   9
ENDBRANCH   5   7
ENDBRANCH   4   5
ENDBRANCH   3   4
ENDBRANCH   2   3
ENDBRANCH   1   2
BRANCH   1  24
ATOM     24  C   UNL A   1      44.109  21.187  25.528  1.00  0.00     0.202 C 
BRANCH  24  25
ATOM     25  C   UNL A   1      44.392  22.241  24.450  1.00  0.00     0.261 C 
BRANCH  25  26
ATOM     26  O   UNL A   1      43.568  23.414  24.597  1.00  0.00    -0.460 OA
BRANCH  26  27
ATOM     27  C   UNL A   1      44.231  24.516  25.015  1.00  0.00     0.338 C 
ATOM     28  O   UNL A   1      45.343  24.893  24.661  1.00  0.00    -0.246 OA
BRANCH  27  29
ATOM     29  C   UNL A   1      43.377  25.347  25.878  1.00  0.00     0.060 A 
ATOM     30  C   UNL A   1      43.691  26.709  25.976  1.00  0.00     0.016 A 
ATOM     31  C   UNL A   1      42.374  24.791  26.676  1.00  0.00     0.016 A 
ATOM     32  C   UNL A   1      43.050  27.507  26.920  1.00  0.00     0.010 A 
ATOM     33  C   UNL A   1      41.736  25.593  27.630  1.00  0.00     0.010 A 
ATOM     34  C   UNL A   1      42.104  26.943  27.784  1.00  0.00    -0.014 A 
BRANCH  34  35
ATOM     35  C   UNL A   1      41.633  27.729  28.951  1.00  0.00     0.031 A 
ATOM     36  C   UNL A   1      42.363  27.605  30.260  1.00  0.00     0.074 A 
ATOM     37  C   UNL A   1      40.596  28.577  28.837  1.00  0.00     0.049 A 
ATOM     38  N   UNL A   1      42.127  28.198  31.402  1.00  0.00    -0.248 NA
ATOM     39  C   UNL A   1      43.516  26.690  30.282  1.00  0.00     0.031 C 
ATOM     40  C   UNL A   1      39.825  28.808  27.618  1.00  0.00     0.029 A 
ATOM     41  N   UNL A   1      40.012  29.396  29.770  1.00  0.00    -0.354 N 
ATOM     42  C   UNL A   1      43.098  27.728  32.279  1.00  0.00     0.074 A 
ATOM     43  C   UNL A   1      43.906  26.778  31.545  1.00  0.00     0.031 C 
ATOM     44  C   UNL A   1      38.854  29.699  27.882  1.00  0.00     0.029 A 
ATOM     45  C   UNL A   1      38.925  30.082  29.291  1.00  0.00     0.049 A 
ATOM     46  H   UNL A   1      40.342  29.484  30.693  1.00  0.00     0.167 HD
ATOM     47  C   UNL A   1      43.306  28.065  33.574  1.00  0.00     0.037 A 
ATOM     48  C   UNL A   1      38.071  30.910  29.924  1.00  0.00     0.037 A 
ATOM     49  C   UNL A   1      42.503  29.008  34.307  1.00  0.00     0.049 A 
ATOM     50  C   UNL A   1      38.285  31.228  31.378  1.00  0.00     0.074 A 
ATOM     51  C   UNL A   1      42.647  29.432  35.616  1.00  0.00     0.029 A 
ATOM     52  N   UNL A   1      41.395  29.665  33.793  1.00  0.00    -0.354 N 
ATOM     53  N   UNL A   1      39.226  30.805  32.188  1.00  0.00    -0.248 NA
ATOM     54  C   UNL A   1      37.322  32.145  32.007  1.00  0.00     0.031 C 
ATOM     55  C   UNL A   1      41.601  30.314  35.908  1.00  0.00     0.029 A 
ATOM     56  C   UNL A   1      40.831  30.473  34.766  1.00  0.00     0.049 A 
ATOM     57  H   UNL A   1      41.059  29.572  32.872  1.00  0.00     0.167 HD
ATOM     58  C   UNL A   1      38.980  31.415  33.412  1.00  0.00     0.074 A 
ATOM     59  C   UNL A   1      37.809  32.249  33.236  1.00  0.00     0.031 C 
ATOM     60  C   UNL A   1      39.662  31.295  34.578  1.00  0.00     0.037 A 
BRANCH  47  61
ATOM     61  C   UNL A   1      44.438  27.385  34.285  1.00  0.00     0.057 A 
ATOM     62  C   UNL A   1      44.281  26.134  34.897  1.00  0.00     0.134 A 
ATOM     63  C   UNL A   1      45.702  27.985  34.352  1.00  0.00     0.134 A 
ATOM     64  F   UNL A   1      43.091  25.514  34.881  1.00  0.00    -0.206 F 
ATOM     65  C   UNL A   1      45.334  25.516  35.573  1.00  0.00     0.040 A 
ATOM     66  C   UNL A   1      46.769  27.365  35.004  1.00  0.00     0.040 A 
ATOM     67  F   UNL A   1      45.919  29.180  33.784  1.00  0.00    -0.206 F 
ATOM     68  C   UNL A   1      46.585  26.131  35.624  1.00  0.00     0.006 A 
ENDBRANCH  47  61
BRANCH  48  69
ATOM     69  C   UNL A   1      36.920  31.481  29.182  1.00  0.00     0.057 A 
ATOM     70  C   UNL A   1      36.931  32.802  28.724  1.00  0.00     0.134 A 
ATOM     71  C   UNL A   1      35.783  30.711  28.910  1.00  0.00     0.134 A 
ATOM     72  F   UNL A   1      37.983  33.596  28.975  1.00  0.00    -0.206 F 
ATOM     73  C   UNL A   1      35.848  33.343  28.028  1.00  0.00     0.040 A 
ATOM     74  C   UNL A   1      34.702  31.230  28.196  1.00  0.00     0.040 A 
ATOM     75  F   UNL A   1      35.714  29.437  29.323  1.00  0.00    -0.206 F 
ATOM     76  C   UNL A   1      34.732  32.551  27.756  1.00  0.00     0.006 A 
ENDBRANCH  48  69
BRANCH  60  77
ATOM     77  C   UNL A   1      39.173  32.098  35.747  1.00  0.00     0.057 A 
ATOM     78  C   UNL A   1      39.568  33.426  35.945  1.00  0.00     0.134 A 
ATOM     79  C   UNL A   1      38.263  31.549  36.659  1.00  0.00     0.134 A 
ATOM     80  F   UNL A   1      40.445  34.007  35.113  1.00  0.00    -0.206 F 
ATOM     81  C   UNL A   1      39.090  34.176  37.023  1.00  0.00     0.040 A 
ATOM     82  C   UNL A   1      37.760  32.295  37.727  1.00  0.00     0.040 A 
ATOM     83  F   UNL A   1      37.838  30.284  36.521  1.00  0.00    -0.206 F 
ATOM     84  C   UNL A   1      38.178  33.612  37.912  1.00  0.00     0.006 A 
ENDBRANCH  60  77
ENDBRANCH  34  35
ENDBRANCH  27  29
ENDBRANCH  26  27
ENDBRANCH  25  26
ENDBRANCH  24  25
ENDBRANCH   1  24
TORSDOF 16
ENDMDL
MODEL 2
REMARK VINA RESULT:     -11.5      1.250      1.912
REMARK SMILES Cc1nc(C)c(C(=O)N2CCC([C@H](C)C(=O)OCCOCCOC(=O)c3ccc(-c4c5nc(c(-c6c(F)cccc6F)c6ccc([nH]6)c(-c6c(F)cccc6F)c6nc(c(-c7c(F)cccc7F)c7ccc4[nH]7)C=C6)C=C5)cc3)CC2)s1
REMARK SMILES IDX 20 1 19 2 18 3 17 4 15 5 16 6 13 7 14 8 12 9 7 10 8 11 9 12
REMARK SMILES IDX 10 13 81 14 11 15 80 16 6 17 1 18 2 19 3 20 82 21 4 22 5 23
REMARK SMILES IDX 21 24 22 25 23 26 24 27 25 28 26 29 27 30 79 31 28 32 78 33
REMARK SMILES IDX 29 34 30 35 31 36 72 37 32 38 77 39 71 40 73 41 33 42 76 43
REMARK SMILES IDX 70 44 69 45 34 47 60 48 43 49 59 50 44 51 47 52 58 53 74 54
REMARK SMILES IDX 45 55 46 56 57 58 75 59 48 60 35 61 36 62 41 63 37 64 38 65
REMARK SMILES IDX 40 66 42 67 39 68 61 69 62 70 67 71 63 72 64 73 66 74 68 75
REMARK SMILES IDX 65 76 49 77 50 78 55 79 51 80 52 81 54 82 56 83 53 84
REMARK H PARENT 73 46 47 57
REMARK Flexibility Score: inf
ROOT
ATOM      1  O   UNL A   1      42.116  20.259  25.414  1.00  0.00    -0.374 OA
ENDROOT
BRANCH   1   2
ATOM      2  C   UNL A   1      40.949  19.894  26.147  1.00  0.00     0.202 C 
BRANCH   2   3
ATOM      3  C   UNL A   1      40.017  21.036  26.558  1.00  0.00     0.261 C 
BRANCH   3   4
ATOM      4  O   UNL A   1      39.432  21.694  25.421  1.00  0.00    -0.463 OA
BRANCH   4   5
ATOM      5  C   UNL A   1      38.073  21.672  25.348  1.00  0.00     0.309 C 
ATOM      6  O   UNL A   1      37.414  20.916  24.645  1.00  0.00    -0.252 OA
BRANCH   5   7
ATOM      7  C   UNL A   1      37.442  22.763  26.202  1.00  0.00     0.099 C 
ATOM      8  C   UNL A   1      38.413  23.927  26.432  1.00  0.00     0.020 C 
BRANCH   7   9
ATOM      9  C   UNL A   1      35.996  23.126  25.748  1.00  0.00     0.006 C 
ATOM     10  C   UNL A   1      32.077  24.732  26.279  1.00  0.00     0.265 C 
ATOM     11  O   UNL A   1      31.500  24.238  27.249  1.00  0.00    -0.268 OA
ATOM     12  N   UNL A   1      33.282  24.185  25.827  1.00  0.00    -0.338 N 
ATOM     13  C   UNL A   1      33.502  22.759  25.997  1.00  0.00     0.120 C 
ATOM     14  C   UNL A   1      34.310  24.918  25.094  1.00  0.00     0.120 C 
ATOM     15  C   UNL A   1      34.882  22.445  26.563  1.00  0.00     0.026 C 
ATOM     16  C   UNL A   1      35.700  24.640  25.666  1.00  0.00     0.026 C 
BRANCH  10  17
ATOM     17  C   UNL A   1      31.501  25.852  25.555  1.00  0.00     0.115 A 
ATOM     18  C   UNL A   1      29.346  27.811  22.986  1.00  0.00     0.079 C 
ATOM     19  C   UNL A   1      30.203  27.274  24.075  1.00  0.00     0.091 A 
ATOM     20  N   UNL A   1      30.706  27.995  25.052  1.00  0.00    -0.246 NA
ATOM     21  S   UNL A   1      30.556  25.602  24.140  1.00  0.00    -0.113 S 
ATOM     22  C   UNL A   1      31.416  27.184  25.931  1.00  0.00     0.061 A 
ATOM     23  C   UNL A   1      31.969  27.815  27.160  1.00  0.00     0.068 C 
ENDBRANCH  10  17
ENDBRANCH   7   9
ENDBRANCH   5   7
ENDBRANCH   4   5
ENDBRANCH   3   4
ENDBRANCH   2   3
ENDBRANCH   1   2
BRANCH   1  24
ATOM     24  C   UNL A   1      43.067  21.101  26.061  1.00  0.00     0.202 C 
BRANCH  24  25
ATOM     25  C   UNL A   1      43.958  21.954  25.150  1.00  0.00     0.261 C 
BRANCH  25  26
ATOM     26  O   UNL A   1      43.313  23.175  24.737  1.00  0.00    -0.460 OA
BRANCH  26  27
ATOM     27  C   UNL A   1      43.993  24.302  25.049  1.00  0.00     0.338 C 
ATOM     28  O   UNL A   1      45.089  24.651  24.624  1.00  0.00    -0.246 OA
BRANCH  27  29
ATOM     29  C   UNL A   1      43.174  25.193  25.888  1.00  0.00     0.060 A 
ATOM     30  C   UNL A   1      43.608  26.517  26.035  1.00  0.00     0.016 A 
ATOM     31  C   UNL A   1      42.083  24.718  26.619  1.00  0.00     0.016 A 
ATOM     32  C   UNL A   1      42.995  27.353  26.964  1.00  0.00     0.010 A 
ATOM     33  C   UNL A   1      41.473  25.558  27.559  1.00  0.00     0.010 A 
ATOM     34  C   UNL A   1      41.956  26.863  27.765  1.00  0.00    -0.014 A 
BRANCH  34  35
ATOM     35  C   UNL A   1      41.498  27.667  28.925  1.00  0.00     0.031 A 
ATOM     36  C   UNL A   1      42.229  27.545  30.233  1.00  0.00     0.074 A 
ATOM     37  C   UNL A   1      40.474  28.529  28.804  1.00  0.00     0.049 A 
ATOM     38  N   UNL A   1      42.004  28.152  31.371  1.00  0.00    -0.248 NA
ATOM     39  C   UNL A   1      43.368  26.614  30.262  1.00  0.00     0.031 C 
ATOM     40  C   UNL A   1      39.704  28.760  27.585  1.00  0.00     0.029 A 
ATOM     41  N   UNL A   1      39.904  29.366  29.730  1.00  0.00    -0.354 N 
ATOM     42  C   UNL A   1      42.969  27.676  32.250  1.00  0.00     0.074 A 
ATOM     43  C   UNL A   1      43.762  26.707  31.524  1.00  0.00     0.031 C 
ATOM     44  C   UNL A   1      38.747  29.668  27.841  1.00  0.00     0.029 A 
ATOM     45  C   UNL A   1      38.826  30.063  29.247  1.00  0.00     0.049 A 
ATOM     46  H   UNL A   1      40.237  29.457  30.652  1.00  0.00     0.167 HD
ATOM     47  C   UNL A   1      43.184  28.023  33.542  1.00  0.00     0.037 A 
ATOM     48  C   UNL A   1      37.985  30.909  29.873  1.00  0.00     0.037 A 
ATOM     49  C   UNL A   1      42.396  28.983  34.267  1.00  0.00     0.049 A 
ATOM     50  C   UNL A   1      38.207  31.238  31.324  1.00  0.00     0.074 A 
ATOM     51  C   UNL A   1      42.550  29.418  35.572  1.00  0.00     0.029 A 
ATOM     52  N   UNL A   1      41.297  29.652  33.749  1.00  0.00    -0.354 N 
ATOM     53  N   UNL A   1      39.142  30.809  32.137  1.00  0.00    -0.248 NA
ATOM     54  C   UNL A   1      37.258  32.175  31.945  1.00  0.00     0.031 C 
ATOM     55  C   UNL A   1      41.517  30.318  35.857  1.00  0.00     0.029 A 
ATOM     56  C   UNL A   1      40.747  30.478  34.715  1.00  0.00     0.049 A 
ATOM     57  H   UNL A   1      40.958  29.556  32.829  1.00  0.00     0.167 HD
ATOM     58  C   UNL A   1      38.908  31.434  33.355  1.00  0.00     0.074 A 
ATOM     59  C   UNL A   1      37.749  32.284  33.173  1.00  0.00     0.031 C 
ATOM     60  C   UNL A   1      39.591  31.315  34.521  1.00  0.00     0.037 A 
BRANCH  47  61
ATOM     61  C   UNL A   1      44.307  27.332  34.257  1.00  0.00     0.057 A 
ATOM     62  C   UNL A   1      44.133  26.090  34.883  1.00  0.00     0.134 A 
ATOM     63  C   UNL A   1      45.581  27.913  34.315  1.00  0.00     0.134 A 
ATOM     64  F   UNL A   1      42.934  25.490  34.877  1.00  0.00    -0.206 F 
ATOM     65  C   UNL A   1      45.178  25.463  35.563  1.00  0.00     0.040 A 
ATOM     66  C   UNL A   1      46.640  27.284  34.971  1.00  0.00     0.040 A 
ATOM     67  F   UNL A   1      45.815  29.098  33.733  1.00  0.00    -0.206 F 
ATOM     68  C   UNL A   1      46.439  26.059  35.604  1.00  0.00     0.006 A 
ENDBRANCH  47  61
BRANCH  48  69
ATOM     69  C   UNL A   1      36.842  31.491  29.128  1.00  0.00     0.057 A 
ATOM     70  C   UNL A   1      35.696  30.741  28.847  1.00  0.00     0.134 A 
ATOM     71  C   UNL A   1      36.872  32.819  28.685  1.00  0.00     0.134 A 
ATOM     72  F   UNL A   1      35.620  29.456  29.226  1.00  0.00    -0.206 F 
ATOM     73  C   UNL A   1      34.621  31.286  28.144  1.00  0.00     0.040 A 
ATOM     74  C   UNL A   1      35.795  33.385  28.000  1.00  0.00     0.040 A 
ATOM     75  F   UNL A   1      37.943  33.589  28.925  1.00  0.00    -0.206 F 
ATOM     76  C   UNL A   1      34.667  32.616  27.725  1.00  0.00     0.006 A 
ENDBRANCH  48  69
BRANCH  60  77
ATOM     77  C   UNL A   1      39.116  32.136  35.683  1.00  0.00     0.057 A 
ATOM     78  C   UNL A   1      39.518  33.465  35.860  1.00  0.00     0.134 A 
ATOM     79  C   UNL A   1      38.211  31.604  36.611  1.00  0.00     0.134 A 
ATOM     80  F   UNL A   1      40.391  34.030  35.012  1.00  0.00    -0.206 F 
ATOM     81  C   UNL A   1      39.053  34.231  36.931  1.00  0.00     0.040 A 
ATOM     82  C   UNL A   1      37.721  32.366  37.672  1.00  0.00     0.040 A 
ATOM     83  F   UNL A   1      37.779  30.339  36.494  1.00  0.00    -0.206 F 
ATOM     84  C   UNL A   1      38.146  33.683  37.836  1.00  0.00     0.006 A 
ENDBRANCH  60  77
ENDBRANCH  34  35
ENDBRANCH  27  29
ENDBRANCH  26  27
ENDBRANCH  25  26
ENDBRANCH  24  25
ENDBRANCH   1  24
TORSDOF 16
ENDMDL
MODEL 3
REMARK VINA RESULT:     -11.1      1.328      6.439
REMARK SMILES Cc1nc(C)c(C(=O)N2CCC([C@H](C)C(=O)OCCOCCOC(=O)c3ccc(-c4c5nc(c(-c6c(F)cccc6F)c6ccc([nH]6)c(-c6c(F)cccc6F)c6nc(c(-c7c(F)cccc7F)c7ccc4[nH]7)C=C6)C=C5)cc3)CC2)s1
REMARK SMILES IDX 20 1 19 2 18 3 17 4 15 5 16 6 13 7 14 8 12 9 7 10 8 11 9 12
REMARK SMILES IDX 10 13 81 14 11 15 80 16 6 17 1 18 2 19 3 20 82 21 4 22 5 23
REMARK SMILES IDX 21 24 22 25 23 26 24 27 25 28 26 29 27 30 79 31 28 32 78 33
REMARK SMILES IDX 29 34 30 35 31 36 72 37 32 38 77 39 71 40 73 41 33 42 76 43
REMARK SMILES IDX 70 44 69 45 34 47 60 48 43 49 59 50 44 51 47 52 58 53 74 54
REMARK SMILES IDX 45 55 46 56 57 58 75 59 48 60 35 61 36 62 41 63 37 64 38 65
REMARK SMILES IDX 40 66 42 67 39 68 61 69 62 70 67 71 63 72 64 73 66 74 68 75
REMARK SMILES IDX 65 76 49 77 50 78 55 79 51 80 52 81 54 82 56 83 53 84
REMARK H PARENT 73 46 47 57
REMARK Flexibility Score: inf
ROOT
ATOM      1  O   UNL A   1      42.256  20.568  25.757  1.00  0.00    -0.374 OA
ENDROOT
BRANCH   1   2
ATOM      2  C   UNL A   1      41.191  20.177  26.621  1.00  0.00     0.202 C 
BRANCH   2   3
ATOM      3  C   UNL A   1      40.066  21.195  26.821  1.00  0.00     0.261 C 
BRANCH   3   4
ATOM      4  O   UNL A   1      39.527  21.660  25.571  1.00  0.00    -0.463 OA
BRANCH   4   5
ATOM      5  C   UNL A   1      38.172  21.628  25.453  1.00  0.00     0.309 C 
ATOM      6  O   UNL A   1      37.535  20.791  24.826  1.00  0.00    -0.252 OA
BRANCH   5   7
ATOM      7  C   UNL A   1      37.515  22.816  26.143  1.00  0.00     0.099 C 
ATOM      8  C   UNL A   1      38.417  24.055  26.105  1.00  0.00     0.020 C 
BRANCH   7   9
ATOM      9  C   UNL A   1      36.027  23.011  25.725  1.00  0.00     0.006 C 
ATOM     10  C   UNL A   1      32.050  24.487  26.200  1.00  0.00     0.265 C 
ATOM     11  O   UNL A   1      31.559  24.160  27.281  1.00  0.00    -0.268 OA
ATOM     12  N   UNL A   1      33.260  23.926  25.780  1.00  0.00    -0.338 N 
ATOM     13  C   UNL A   1      33.578  22.572  26.202  1.00  0.00     0.120 C 
ATOM     14  C   UNL A   1      34.198  24.555  24.856  1.00  0.00     0.120 C 
ATOM     15  C   UNL A   1      35.003  22.444  26.725  1.00  0.00     0.026 C 
ATOM     16  C   UNL A   1      35.632  24.463  25.378  1.00  0.00     0.026 C 
BRANCH  10  17
ATOM     17  C   UNL A   1      31.366  25.416  25.317  1.00  0.00     0.115 A 
ATOM     18  C   UNL A   1      30.288  28.771  23.683  1.00  0.00     0.079 C 
ATOM     19  C   UNL A   1      30.594  27.384  24.121  1.00  0.00     0.091 A 
ATOM     20  N   UNL A   1      30.271  26.302  23.448  1.00  0.00    -0.246 NA
ATOM     21  S   UNL A   1      31.465  27.115  25.567  1.00  0.00    -0.113 S 
ATOM     22  C   UNL A   1      30.747  25.170  24.101  1.00  0.00     0.061 A 
ATOM     23  C   UNL A   1      30.565  23.856  23.427  1.00  0.00     0.068 C 
ENDBRANCH  10  17
ENDBRANCH   7   9
ENDBRANCH   5   7
ENDBRANCH   4   5
ENDBRANCH   3   4
ENDBRANCH   2   3
ENDBRANCH   1   2
BRANCH   1  24
ATOM     24  C   UNL A   1      43.025  21.710  26.129  1.00  0.00     0.202 C 
BRANCH  24  25
ATOM     25  C   UNL A   1      43.768  22.432  25.000  1.00  0.00     0.261 C 
BRANCH  25  26
ATOM     26  O   UNL A   1      43.218  23.734  24.722  1.00  0.00    -0.460 OA
BRANCH  26  27
ATOM     27  C   UNL A   1      43.962  24.767  25.179  1.00  0.00     0.338 C 
ATOM     28  O   UNL A   1      45.094  25.080  24.827  1.00  0.00    -0.246 OA
BRANCH  27  29
ATOM     29  C   UNL A   1      43.178  25.617  26.090  1.00  0.00     0.060 A 
ATOM     30  C   UNL A   1      43.630  26.927  26.298  1.00  0.00     0.016 A 
ATOM     31  C   UNL A   1      42.105  25.111  26.826  1.00  0.00     0.016 A 
ATOM     32  C   UNL A   1      43.054  27.715  27.290  1.00  0.00     0.010 A 
ATOM     33  C   UNL A   1      41.531  25.903  27.830  1.00  0.00     0.010 A 
ATOM     34  C   UNL A   1      42.034  27.191  28.093  1.00  0.00    -0.014 A 
BRANCH  34  35
ATOM     35  C   UNL A   1      41.619  27.933  29.310  1.00  0.00     0.031 A 
ATOM     36  C   UNL A   1      40.407  28.820  29.247  1.00  0.00     0.074 A 
ATOM     37  C   UNL A   1      42.285  27.784  30.467  1.00  0.00     0.049 A 
ATOM     38  N   UNL A   1      39.866  29.555  30.185  1.00  0.00    -0.248 NA
ATOM     39  C   UNL A   1      39.710  28.886  27.952  1.00  0.00     0.031 C 
ATOM     40  C   UNL A   1      43.456  26.934  30.664  1.00  0.00     0.029 A 
ATOM     41  N   UNL A   1      42.070  28.356  31.696  1.00  0.00    -0.354 N 
ATOM     42  C   UNL A   1      38.769  30.172  29.596  1.00  0.00     0.074 A 
ATOM     43  C   UNL A   1      38.740  29.750  28.212  1.00  0.00     0.031 C 
ATOM     44  C   UNL A   1      43.869  27.052  31.938  1.00  0.00     0.029 A 
ATOM     45  C   UNL A   1      43.004  28.002  32.636  1.00  0.00     0.049 A 
ATOM     46  H   UNL A   1      41.317  28.962  31.884  1.00  0.00     0.167 HD
ATOM     47  C   UNL A   1      37.861  31.005  30.158  1.00  0.00     0.037 A 
ATOM     48  C   UNL A   1      43.156  28.414  33.909  1.00  0.00     0.037 A 
ATOM     49  C   UNL A   1      37.889  31.428  31.533  1.00  0.00     0.049 A 
ATOM     50  C   UNL A   1      42.169  29.385  34.499  1.00  0.00     0.074 A 
ATOM     51  C   UNL A   1      37.001  32.252  32.201  1.00  0.00     0.029 A 
ATOM     52  N   UNL A   1      38.866  31.066  32.448  1.00  0.00    -0.354 N 
ATOM     53  N   UNL A   1      41.117  29.934  33.944  1.00  0.00    -0.248 NA
ATOM     54  C   UNL A   1      42.388  29.787  35.897  1.00  0.00     0.031 C 
ATOM     55  C   UNL A   1      37.464  32.423  33.511  1.00  0.00     0.029 A 
ATOM     56  C   UNL A   1      38.617  31.669  33.670  1.00  0.00     0.049 A 
ATOM     57  H   UNL A   1      39.624  30.466  32.259  1.00  0.00     0.167 HD
ATOM     58  C   UNL A   1      40.539  30.732  34.924  1.00  0.00     0.074 A 
ATOM     59  C   UNL A   1      41.350  30.583  36.115  1.00  0.00     0.031 C 
ATOM     60  C   UNL A   1      39.435  31.516  34.846  1.00  0.00     0.037 A 
BRANCH  47  61
ATOM     61  C   UNL A   1      36.774  31.532  29.269  1.00  0.00     0.057 A 
ATOM     62  C   UNL A   1      35.682  30.740  28.887  1.00  0.00     0.134 A 
ATOM     63  C   UNL A   1      36.814  32.850  28.796  1.00  0.00     0.134 A 
ATOM     64  F   UNL A   1      35.593  29.465  29.294  1.00  0.00    -0.206 F 
ATOM     65  C   UNL A   1      34.684  31.232  28.045  1.00  0.00     0.040 A 
ATOM     66  C   UNL A   1      35.810  33.360  27.973  1.00  0.00     0.040 A 
ATOM     67  F   UNL A   1      37.829  33.661  29.128  1.00  0.00    -0.206 F 
ATOM     68  C   UNL A   1      34.744  32.548  27.588  1.00  0.00     0.006 A 
ENDBRANCH  47  61
BRANCH  48  69
ATOM     69  C   UNL A   1      44.305  27.920  34.707  1.00  0.00     0.057 A 
ATOM     70  C   UNL A   1      44.213  26.754  35.473  1.00  0.00     0.134 A 
ATOM     71  C   UNL A   1      45.527  28.604  34.712  1.00  0.00     0.134 A 
ATOM     72  F   UNL A   1      43.061  26.069  35.526  1.00  0.00    -0.206 F 
ATOM     73  C   UNL A   1      45.293  26.289  36.226  1.00  0.00     0.040 A 
ATOM     74  C   UNL A   1      46.622  28.139  35.442  1.00  0.00     0.040 A 
ATOM     75  F   UNL A   1      45.676  29.727  33.996  1.00  0.00    -0.206 F 
ATOM     76  C   UNL A   1      46.505  26.979  36.205  1.00  0.00     0.006 A 
ENDBRANCH  48  69
BRANCH  60  77
ATOM     77  C   UNL A   1      39.029  32.257  36.084  1.00  0.00     0.057 A 
ATOM     78  C   UNL A   1      38.210  31.673  37.058  1.00  0.00     0.134 A 
ATOM     79  C   UNL A   1      39.499  33.555  36.326  1.00  0.00     0.134 A 
ATOM     80  F   UNL A   1      37.719  30.438  36.882  1.00  0.00    -0.206 F 
ATOM     81  C   UNL A   1      37.856  32.361  38.221  1.00  0.00     0.040 A 
ATOM     82  C   UNL A   1      39.171  34.244  37.495  1.00  0.00     0.040 A 
ATOM     83  F   UNL A   1      40.294  34.168  35.438  1.00  0.00    -0.206 F 
ATOM     84  C   UNL A   1      38.342  33.647  38.444  1.00  0.00     0.006 A 
ENDBRANCH  60  77
ENDBRANCH  34  35
ENDBRANCH  27  29
ENDBRANCH  26  27
ENDBRANCH  25  26
ENDBRANCH  24  25
ENDBRANCH   1  24
TORSDOF 16
ENDMDL
