MODEL 1
REMARK VINA RESULT:     -11.3      0.000      0.000
REMARK SMILES C[C@@H](c1cccc(O)c1)[N@H+]1[C@@H]2CC[C@H]1C[C@H](CC(=O)OCCOCCOC(=O)c1ccc(-c3c4nc(c(-c5c(F)cccc5F)c5ccc([nH]5)c(-c5c(F)cccc5F)c5nc(c(-c6c(F)cccc6F)c6ccc3[nH]6)C=C5)C=C4)cc1)C2
REMARK SMILES IDX 22 1 21 2 20 3 18 4 19 5 17 6 16 7 10 8 11 9 14 10 12 12
REMARK SMILES IDX 83 13 13 14 15 15 2 16 1 17 3 18 4 19 9 20 5 21 7 22 6 23
REMARK SMILES IDX 8 24 23 26 24 27 25 28 26 29 27 30 28 31 29 32 30 33 82 34
REMARK SMILES IDX 31 35 81 36 32 37 33 38 34 39 75 40 35 41 80 42 74 43 76 44
REMARK SMILES IDX 36 45 79 46 73 47 72 48 37 50 63 51 46 52 62 53 47 54 50 55
REMARK SMILES IDX 61 56 77 57 48 58 49 59 60 61 78 62 51 63 38 64 39 65 44 66
REMARK SMILES IDX 40 67 41 68 43 69 45 70 42 71 64 72 65 73 70 74 66 75 67 76
REMARK SMILES IDX 69 77 71 78 68 79 52 80 53 81 58 82 54 83 55 84 57 85 59 86
REMARK SMILES IDX 56 87
REMARK H PARENT 10 11 8 25 76 49 50 60
REMARK Flexibility Score: inf
ROOT
ATOM      1  C   UNL A   1      34.136  33.178  29.067  1.00  0.00     0.202 C 
ENDROOT
BRANCH   1   2
ATOM      2  C   UNL A   1      35.018  32.395  28.092  1.00  0.00     0.261 C 
BRANCH   2   3
ATOM      3  O   UNL A   1      34.244  31.390  27.409  1.00  0.00    -0.463 OA
BRANCH   3   4
ATOM      4  C   UNL A   1      34.674  30.110  27.532  1.00  0.00     0.306 C 
ATOM      5  O   UNL A   1      35.211  29.640  28.528  1.00  0.00    -0.252 OA
BRANCH   4   6
ATOM      6  C   UNL A   1      34.480  29.314  26.262  1.00  0.00     0.126 C 
BRANCH   6   7
ATOM      7  C   UNL A   1      33.583  28.053  26.313  1.00  0.00     0.012 C 
ATOM      8  N   UNL A   1      31.303  27.337  24.521  1.00  0.00    -0.324 N 
ATOM      9  C   UNL A   1      32.526  26.513  24.494  1.00  0.00     0.185 C 
ATOM     10  C   UNL A   1      31.072  27.468  25.971  1.00  0.00     0.185 C 
ATOM     11  H   UNL A   1      30.517  26.910  24.032  1.00  0.00     0.349 HD
ATOM     12  C   UNL A   1      32.174  25.381  25.464  1.00  0.00     0.071 C 
ATOM     13  C   UNL A   1      33.762  27.290  24.977  1.00  0.00     0.069 C 
ATOM     14  C   UNL A   1      31.222  26.022  26.460  1.00  0.00     0.071 C 
ATOM     15  C   UNL A   1      32.110  28.391  26.639  1.00  0.00     0.069 C 
BRANCH   8  16
ATOM     16  C   UNL A   1      31.329  28.597  23.725  1.00  0.00     0.212 C 
ATOM     17  C   UNL A   1      31.906  28.347  22.308  1.00  0.00     0.081 C 
BRANCH  16  18
ATOM     18  C   UNL A   1      29.964  29.316  23.649  1.00  0.00     0.013 A 
ATOM     19  C   UNL A   1      29.865  30.707  23.846  1.00  0.00     0.010 A 
ATOM     20  C   UNL A   1      28.775  28.649  23.296  1.00  0.00     0.056 A 
ATOM     21  C   UNL A   1      28.644  31.387  23.754  1.00  0.00     0.004 A 
ATOM     22  C   UNL A   1      27.571  29.339  23.148  1.00  0.00     0.116 A 
ATOM     23  C   UNL A   1      27.491  30.701  23.396  1.00  0.00     0.046 A 
BRANCH  22  24
ATOM     24  O   UNL A   1      26.483  28.629  22.735  1.00  0.00    -0.508 OA
ATOM     25  H   UNL A   1      25.718  29.077  22.430  1.00  0.00     0.293 HD
ENDBRANCH  22  24
ENDBRANCH  16  18
ENDBRANCH   8  16
ENDBRANCH   6   7
ENDBRANCH   4   6
ENDBRANCH   3   4
ENDBRANCH   2   3
ENDBRANCH   1   2
BRANCH   1  26
ATOM     26  O   UNL A   1      34.823  34.112  29.903  1.00  0.00    -0.374 OA
BRANCH  26  27
ATOM     27  C   UNL A   1      34.221  34.414  31.159  1.00  0.00     0.202 C 
BRANCH  27  28
ATOM     28  C   UNL A   1      35.071  34.094  32.394  1.00  0.00     0.261 C 
BRANCH  28  29
ATOM     29  O   UNL A   1      35.181  32.676  32.617  1.00  0.00    -0.460 OA
BRANCH  29  30
ATOM     30  C   UNL A   1      36.311  32.296  33.253  1.00  0.00     0.338 C 
ATOM     31  O   UNL A   1      36.579  32.447  34.439  1.00  0.00    -0.246 OA
BRANCH  30  32
ATOM     32  C   UNL A   1      37.170  31.499  32.356  1.00  0.00     0.060 A 
ATOM     33  C   UNL A   1      38.185  30.744  32.956  1.00  0.00     0.016 A 
ATOM     34  C   UNL A   1      37.052  31.546  30.963  1.00  0.00     0.016 A 
ATOM     35  C   UNL A   1      39.132  30.093  32.170  1.00  0.00     0.010 A 
ATOM     36  C   UNL A   1      38.009  30.894  30.173  1.00  0.00     0.010 A 
ATOM     37  C   UNL A   1      39.078  30.205  30.774  1.00  0.00    -0.014 A 
BRANCH  37  38
ATOM     38  C   UNL A   1      40.244  29.749  29.976  1.00  0.00     0.031 A 
ATOM     39  C   UNL A   1      41.386  30.704  29.743  1.00  0.00     0.074 A 
ATOM     40  C   UNL A   1      40.327  28.483  29.531  1.00  0.00     0.049 A 
ATOM     41  N   UNL A   1      42.516  30.509  29.113  1.00  0.00    -0.248 NA
ATOM     42  C   UNL A   1      41.232  32.059  30.298  1.00  0.00     0.031 C 
ATOM     43  C   UNL A   1      39.312  27.450  29.729  1.00  0.00     0.029 A 
ATOM     44  N   UNL A   1      41.320  27.851  28.826  1.00  0.00    -0.354 N 
ATOM     45  C   UNL A   1      43.206  31.712  29.194  1.00  0.00     0.074 A 
ATOM     46  C   UNL A   1      42.355  32.641  29.904  1.00  0.00     0.031 C 
ATOM     47  C   UNL A   1      39.736  26.310  29.156  1.00  0.00     0.029 A 
ATOM     48  C   UNL A   1      41.038  26.540  28.534  1.00  0.00     0.049 A 
ATOM     49  H   UNL A   1      42.155  28.297  28.554  1.00  0.00     0.167 HD
ATOM     50  C   UNL A   1      44.443  32.013  28.733  1.00  0.00     0.037 A 
ATOM     51  C   UNL A   1      41.749  25.632  27.837  1.00  0.00     0.037 A 
ATOM     52  C   UNL A   1      45.297  31.091  28.032  1.00  0.00     0.049 A 
ATOM     53  C   UNL A   1      43.096  26.010  27.279  1.00  0.00     0.074 A 
ATOM     54  C   UNL A   1      46.573  31.301  27.540  1.00  0.00     0.029 A 
ATOM     55  N   UNL A   1      44.958  29.783  27.722  1.00  0.00    -0.354 N 
ATOM     56  N   UNL A   1      43.747  27.142  27.384  1.00  0.00    -0.248 NA
ATOM     57  C   UNL A   1      43.809  24.978  26.510  1.00  0.00     0.031 C 
ATOM     58  C   UNL A   1      46.989  30.133  26.891  1.00  0.00     0.029 A 
ATOM     59  C   UNL A   1      45.991  29.181  27.023  1.00  0.00     0.049 A 
ATOM     60  H   UNL A   1      44.109  29.347  27.962  1.00  0.00     0.167 HD
ATOM     61  C   UNL A   1      44.955  26.951  26.723  1.00  0.00     0.074 A 
ATOM     62  C   UNL A   1      44.951  25.590  26.228  1.00  0.00     0.031 C 
ATOM     63  C   UNL A   1      45.978  27.822  26.545  1.00  0.00     0.037 A 
BRANCH  50  64
ATOM     64  C   UNL A   1      44.940  33.411  28.955  1.00  0.00     0.057 A 
ATOM     65  C   UNL A   1      45.698  33.757  30.081  1.00  0.00     0.134 A 
ATOM     66  C   UNL A   1      44.683  34.416  28.014  1.00  0.00     0.134 A 
ATOM     67  F   UNL A   1      45.966  32.844  31.027  1.00  0.00    -0.206 F 
ATOM     68  C   UNL A   1      46.165  35.058  30.274  1.00  0.00     0.040 A 
ATOM     69  C   UNL A   1      45.165  35.716  28.184  1.00  0.00     0.040 A 
ATOM     70  F   UNL A   1      43.967  34.151  26.912  1.00  0.00    -0.206 F 
ATOM     71  C   UNL A   1      45.904  36.039  29.320  1.00  0.00     0.006 A 
ENDBRANCH  50  64
BRANCH  51  72
ATOM     72  C   UNL A   1      41.201  24.270  27.620  1.00  0.00     0.057 A 
ATOM     73  C   UNL A   1      41.698  23.165  28.321  1.00  0.00     0.134 A 
ATOM     74  C   UNL A   1      40.182  24.038  26.687  1.00  0.00     0.134 A 
ATOM     75  F   UNL A   1      42.690  23.321  29.210  1.00  0.00    -0.206 F 
ATOM     76  C   UNL A   1      41.213  21.876  28.092  1.00  0.00     0.040 A 
ATOM     77  C   UNL A   1      39.672  22.758  26.465  1.00  0.00     0.040 A 
ATOM     78  F   UNL A   1      39.664  25.054  25.983  1.00  0.00    -0.206 F 
ATOM     79  C   UNL A   1      40.194  21.671  27.164  1.00  0.00     0.006 A 
ENDBRANCH  51  72
BRANCH  63  80
ATOM     80  C   UNL A   1      47.193  27.324  25.818  1.00  0.00     0.057 A 
ATOM     81  C   UNL A   1      48.218  26.634  26.476  1.00  0.00     0.134 A 
ATOM     82  C   UNL A   1      47.316  27.499  24.434  1.00  0.00     0.134 A 
ATOM     83  F   UNL A   1      48.166  26.443  27.803  1.00  0.00    -0.206 F 
ATOM     84  C   UNL A   1      49.332  26.153  25.786  1.00  0.00     0.040 A 
ATOM     85  C   UNL A   1      48.412  27.002  23.728  1.00  0.00     0.040 A 
ATOM     86  F   UNL A   1      46.364  28.144  23.741  1.00  0.00    -0.206 F 
ATOM     87  C   UNL A   1      49.427  26.331  24.407  1.00  0.00     0.006 A 
ENDBRANCH  63  80
ENDBRANCH  37  38
ENDBRANCH  30  32
ENDBRANCH  29  30
ENDBRANCH  28  29
ENDBRANCH  27  28
ENDBRANCH  26  27
ENDBRANCH   1  26
TORSDOF 18
ENDMDL
MODEL 2
REMARK VINA RESULT:     -11.1      4.440      9.627
REMARK SMILES C[C@@H](c1cccc(O)c1)[N@H+]1[C@@H]2CC[C@H]1C[C@H](CC(=O)OCCOCCOC(=O)c1ccc(-c3c4nc(c(-c5c(F)cccc5F)c5ccc([nH]5)c(-c5c(F)cccc5F)c5nc(c(-c6c(F)cccc6F)c6ccc3[nH]6)C=C5)C=C4)cc1)C2
REMARK SMILES IDX 22 1 21 2 20 3 18 4 19 5 17 6 16 7 10 8 11 9 14 10 12 12
REMARK SMILES IDX 83 13 13 14 15 15 2 16 1 17 3 18 4 19 9 20 5 21 7 22 6 23
REMARK SMILES IDX 8 24 23 26 24 27 25 28 26 29 27 30 28 31 29 32 30 33 82 34
REMARK SMILES IDX 31 35 81 36 32 37 33 38 34 39 75 40 35 41 80 42 74 43 76 44
REMARK SMILES IDX 36 45 79 46 73 47 72 48 37 50 63 51 46 52 62 53 47 54 50 55
REMARK SMILES IDX 61 56 77 57 48 58 49 59 60 61 78 62 51 63 38 64 39 65 44 66
REMARK SMILES IDX 40 67 41 68 43 69 45 70 42 71 64 72 65 73 70 74 66 75 67 76
REMARK SMILES IDX 69 77 71 78 68 79 52 80 53 81 58 82 54 83 55 84 57 85 59 86
REMARK SMILES IDX 56 87
REMARK H PARENT 10 11 8 25 76 49 50 60
REMARK Flexibility Score: inf
ROOT
ATOM      1  C   UNL A   1      40.662  21.849  27.456  1.00  0.00     0.202 C 
ENDROOT
BRANCH   1   2
ATOM      2  C   UNL A   1      39.897  21.888  26.132  1.00  0.00     0.261 C 
BRANCH   2   3
ATOM      3  O   UNL A   1      38.496  22.129  26.367  1.00  0.00    -0.463 OA
BRANCH   3   4
ATOM      4  C   UNL A   1      38.051  23.386  26.120  1.00  0.00     0.306 C 
ATOM      5  O   UNL A   1      38.339  24.377  26.779  1.00  0.00    -0.252 OA
BRANCH   4   6
ATOM      6  C   UNL A   1      37.085  23.436  24.957  1.00  0.00     0.126 C 
BRANCH   6   7
ATOM      7  C   UNL A   1      35.648  22.902  25.170  1.00  0.00     0.012 C 
ATOM      8  N   UNL A   1      33.063  24.272  24.568  1.00  0.00    -0.324 N 
ATOM      9  C   UNL A   1      33.437  23.070  23.798  1.00  0.00     0.185 C 
ATOM     10  C   UNL A   1      33.349  23.835  25.947  1.00  0.00     0.185 C 
ATOM     11  H   UNL A   1      32.092  24.551  24.434  1.00  0.00     0.349 HD
ATOM     12  C   UNL A   1      32.718  21.957  24.567  1.00  0.00     0.071 C 
ATOM     13  C   UNL A   1      34.957  22.838  23.785  1.00  0.00     0.069 C 
ATOM     14  C   UNL A   1      32.677  22.457  26.002  1.00  0.00     0.071 C 
ATOM     15  C   UNL A   1      34.862  23.725  26.215  1.00  0.00     0.069 C 
BRANCH   8  16
ATOM     16  C   UNL A   1      33.669  25.561  24.129  1.00  0.00     0.212 C 
ATOM     17  C   UNL A   1      33.672  25.675  22.583  1.00  0.00     0.081 C 
BRANCH  16  18
ATOM     18  C   UNL A   1      33.023  26.806  24.776  1.00  0.00     0.013 A 
ATOM     19  C   UNL A   1      32.046  27.555  24.090  1.00  0.00     0.010 A 
ATOM     20  C   UNL A   1      33.302  27.204  26.097  1.00  0.00     0.056 A 
ATOM     21  C   UNL A   1      31.424  28.670  24.666  1.00  0.00     0.004 A 
ATOM     22  C   UNL A   1      32.639  28.281  26.687  1.00  0.00     0.116 A 
ATOM     23  C   UNL A   1      31.716  29.032  25.974  1.00  0.00     0.046 A 
BRANCH  22  24
ATOM     24  O   UNL A   1      32.917  28.555  27.994  1.00  0.00    -0.508 OA
ATOM     25  H   UNL A   1      33.206  29.411  28.243  1.00  0.00     0.293 HD
ENDBRANCH  22  24
ENDBRANCH  16  18
ENDBRANCH   8  16
ENDBRANCH   6   7
ENDBRANCH   4   6
ENDBRANCH   3   4
ENDBRANCH   2   3
ENDBRANCH   1   2
BRANCH   1  26
ATOM     26  O   UNL A   1      42.062  21.582  27.350  1.00  0.00    -0.374 OA
BRANCH  26  27
ATOM     27  C   UNL A   1      42.543  21.178  26.070  1.00  0.00     0.202 C 
BRANCH  27  28
ATOM     28  C   UNL A   1      43.715  21.995  25.515  1.00  0.00     0.261 C 
BRANCH  28  29
ATOM     29  O   UNL A   1      43.265  23.178  24.829  1.00  0.00    -0.460 OA
BRANCH  29  30
ATOM     30  C   UNL A   1      43.993  24.287  25.091  1.00  0.00     0.338 C 
ATOM     31  O   UNL A   1      45.087  24.581  24.624  1.00  0.00    -0.246 OA
BRANCH  30  32
ATOM     32  C   UNL A   1      43.222  25.230  25.924  1.00  0.00     0.060 A 
ATOM     33  C   UNL A   1      43.889  26.381  26.360  1.00  0.00     0.016 A 
ATOM     34  C   UNL A   1      41.915  24.968  26.344  1.00  0.00     0.016 A 
ATOM     35  C   UNL A   1      43.283  27.238  27.274  1.00  0.00     0.010 A 
ATOM     36  C   UNL A   1      41.307  25.829  27.268  1.00  0.00     0.010 A 
ATOM     37  C   UNL A   1      42.008  26.940  27.772  1.00  0.00    -0.014 A 
BRANCH  37  38
ATOM     38  C   UNL A   1      41.504  27.699  28.944  1.00  0.00     0.031 A 
ATOM     39  C   UNL A   1      42.231  27.579  30.258  1.00  0.00     0.074 A 
ATOM     40  C   UNL A   1      40.464  28.544  28.828  1.00  0.00     0.049 A 
ATOM     41  N   UNL A   1      41.993  28.178  31.397  1.00  0.00    -0.248 NA
ATOM     42  C   UNL A   1      43.383  26.663  30.289  1.00  0.00     0.031 C 
ATOM     43  C   UNL A   1      39.704  28.786  27.603  1.00  0.00     0.029 A 
ATOM     44  N   UNL A   1      39.876  29.364  29.758  1.00  0.00    -0.354 N 
ATOM     45  C   UNL A   1      42.961  27.712  32.277  1.00  0.00     0.074 A 
ATOM     46  C   UNL A   1      43.768  26.756  31.553  1.00  0.00     0.031 C 
ATOM     47  C   UNL A   1      38.747  29.694  27.858  1.00  0.00     0.029 A 
ATOM     48  C   UNL A   1      38.813  30.080  29.266  1.00  0.00     0.049 A 
ATOM     49  H   UNL A   1      40.186  29.431  30.690  1.00  0.00     0.167 HD
ATOM     50  C   UNL A   1      43.170  28.059  33.570  1.00  0.00     0.037 A 
ATOM     51  C   UNL A   1      37.984  30.943  29.886  1.00  0.00     0.037 A 
ATOM     52  C   UNL A   1      42.374  29.015  34.294  1.00  0.00     0.049 A 
ATOM     53  C   UNL A   1      38.197  31.266  31.341  1.00  0.00     0.074 A 
ATOM     54  C   UNL A   1      42.518  29.442  35.602  1.00  0.00     0.029 A 
ATOM     55  N   UNL A   1      41.282  29.689  33.771  1.00  0.00    -0.354 N 
ATOM     56  N   UNL A   1      39.130  30.838  32.156  1.00  0.00    -0.248 NA
ATOM     57  C   UNL A   1      37.244  32.198  31.961  1.00  0.00     0.031 C 
ATOM     58  C   UNL A   1      41.485  30.342  35.885  1.00  0.00     0.029 A 
ATOM     59  C   UNL A   1      40.728  30.512  34.737  1.00  0.00     0.049 A 
ATOM     60  H   UNL A   1      40.949  29.596  32.849  1.00  0.00     0.167 HD
ATOM     61  C   UNL A   1      38.896  31.469  33.371  1.00  0.00     0.074 A 
ATOM     62  C   UNL A   1      37.737  32.317  33.186  1.00  0.00     0.031 C 
ATOM     63  C   UNL A   1      39.580  31.359  34.536  1.00  0.00     0.037 A 
BRANCH  50  64
ATOM     64  C   UNL A   1      44.296  27.381  34.292  1.00  0.00     0.057 A 
ATOM     65  C   UNL A   1      45.577  27.943  34.358  1.00  0.00     0.134 A 
ATOM     66  C   UNL A   1      44.087  26.166  34.958  1.00  0.00     0.134 A 
ATOM     67  F   UNL A   1      45.846  29.097  33.729  1.00  0.00    -0.206 F 
ATOM     68  C   UNL A   1      46.617  27.310  35.041  1.00  0.00     0.040 A 
ATOM     69  C   UNL A   1      45.112  25.536  35.665  1.00  0.00     0.040 A 
ATOM     70  F   UNL A   1      42.883  25.577  34.938  1.00  0.00    -0.206 F 
ATOM     71  C   UNL A   1      46.383  26.106  35.703  1.00  0.00     0.006 A 
ENDBRANCH  50  64
BRANCH  51  72
ATOM     72  C   UNL A   1      36.866  31.566  29.133  1.00  0.00     0.057 A 
ATOM     73  C   UNL A   1      36.939  32.890  28.685  1.00  0.00     0.134 A 
ATOM     74  C   UNL A   1      35.687  30.857  28.867  1.00  0.00     0.134 A 
ATOM     75  F   UNL A   1      38.033  33.626  28.931  1.00  0.00    -0.206 F 
ATOM     76  C   UNL A   1      35.875  33.493  28.012  1.00  0.00     0.040 A 
ATOM     77  C   UNL A   1      34.625  31.441  28.176  1.00  0.00     0.040 A 
ATOM     78  F   UNL A   1      35.555  29.586  29.271  1.00  0.00    -0.206 F 
ATOM     79  C   UNL A   1      34.714  32.766  27.752  1.00  0.00     0.006 A 
ENDBRANCH  51  72
BRANCH  63  80
ATOM     80  C   UNL A   1      39.121  32.201  35.690  1.00  0.00     0.057 A 
ATOM     81  C   UNL A   1      38.264  31.702  36.677  1.00  0.00     0.134 A 
ATOM     82  C   UNL A   1      39.582  33.516  35.838  1.00  0.00     0.134 A 
ATOM     83  F   UNL A   1      37.779  30.454  36.588  1.00  0.00    -0.206 F 
ATOM     84  C   UNL A   1      37.863  32.486  37.760  1.00  0.00     0.040 A 
ATOM     85  C   UNL A   1      39.209  34.303  36.929  1.00  0.00     0.040 A 
ATOM     86  F   UNL A   1      40.414  34.054  34.933  1.00  0.00    -0.206 F 
ATOM     87  C   UNL A   1      38.342  33.789  37.891  1.00  0.00     0.006 A 
ENDBRANCH  63  80
ENDBRANCH  37  38
ENDBRANCH  30  32
ENDBRANCH  29  30
ENDBRANCH  28  29
ENDBRANCH  27  28
ENDBRANCH  26  27
ENDBRANCH   1  26
TORSDOF 18
ENDMDL
MODEL 3
REMARK VINA RESULT:     -11.1      3.267      7.791
REMARK SMILES C[C@@H](c1cccc(O)c1)[N@H+]1[C@@H]2CC[C@H]1C[C@H](CC(=O)OCCOCCOC(=O)c1ccc(-c3c4nc(c(-c5c(F)cccc5F)c5ccc([nH]5)c(-c5c(F)cccc5F)c5nc(c(-c6c(F)cccc6F)c6ccc3[nH]6)C=C5)C=C4)cc1)C2
REMARK SMILES IDX 22 1 21 2 20 3 18 4 19 5 17 6 16 7 10 8 11 9 14 10 12 12
REMARK SMILES IDX 83 13 13 14 15 15 2 16 1 17 3 18 4 19 9 20 5 21 7 22 6 23
REMARK SMILES IDX 8 24 23 26 24 27 25 28 26 29 27 30 28 31 29 32 30 33 82 34
REMARK SMILES IDX 31 35 81 36 32 37 33 38 34 39 75 40 35 41 80 42 74 43 76 44
REMARK SMILES IDX 36 45 79 46 73 47 72 48 37 50 63 51 46 52 62 53 47 54 50 55
REMARK SMILES IDX 61 56 77 57 48 58 49 59 60 61 78 62 51 63 38 64 39 65 44 66
REMARK SMILES IDX 40 67 41 68 43 69 45 70 42 71 64 72 65 73 70 74 66 75 67 76
REMARK SMILES IDX 69 77 71 78 68 79 52 80 53 81 58 82 54 83 55 84 57 85 59 86
REMARK SMILES IDX 56 87
REMARK H PARENT 10 11 8 25 76 49 50 60
REMARK Flexibility Score: inf
ROOT
ATOM      1  C   UNL A   1      33.646  21.165  24.632  1.00  0.00     0.202 C 
ENDROOT
BRANCH   1   2
ATOM      2  C   UNL A   1      33.951  22.446  23.853  1.00  0.00     0.261 C 
BRANCH   2   3
ATOM      3  O   UNL A   1      32.729  23.092  23.447  1.00  0.00    -0.463 OA
BRANCH   3   4
ATOM      4  C   UNL A   1      32.850  24.336  22.922  1.00  0.00     0.306 C 
ATOM      5  O   UNL A   1      32.045  24.861  22.163  1.00  0.00    -0.252 OA
BRANCH   4   6
ATOM      6  C   UNL A   1      34.143  25.008  23.326  1.00  0.00     0.126 C 
BRANCH   6   7
ATOM      7  C   UNL A   1      34.079  26.183  24.331  1.00  0.00     0.012 C 
ATOM      8  N   UNL A   1      31.699  27.799  25.132  1.00  0.00    -0.324 N 
ATOM      9  C   UNL A   1      32.347  26.930  26.132  1.00  0.00     0.185 C 
ATOM     10  C   UNL A   1      32.864  28.473  24.532  1.00  0.00     0.185 C 
ATOM     11  H   UNL A   1      31.029  28.452  25.539  1.00  0.00     0.349 HD
ATOM     12  C   UNL A   1      33.298  27.902  26.837  1.00  0.00     0.071 C 
ATOM     13  C   UNL A   1      33.124  25.774  25.480  1.00  0.00     0.069 C 
ATOM     14  C   UNL A   1      33.659  28.919  25.767  1.00  0.00     0.071 C 
ATOM     15  C   UNL A   1      33.694  27.518  23.653  1.00  0.00     0.069 C 
BRANCH   8  16
ATOM     16  C   UNL A   1      30.743  27.142  24.197  1.00  0.00     0.212 C 
ATOM     17  C   UNL A   1      29.953  26.015  24.909  1.00  0.00     0.081 C 
BRANCH  16  18
ATOM     18  C   UNL A   1      29.785  28.128  23.489  1.00  0.00     0.013 A 
ATOM     19  C   UNL A   1      30.282  29.155  22.663  1.00  0.00     0.010 A 
ATOM     20  C   UNL A   1      28.384  28.001  23.555  1.00  0.00     0.056 A 
ATOM     21  C   UNL A   1      29.435  30.042  21.988  1.00  0.00     0.004 A 
ATOM     22  C   UNL A   1      27.543  28.851  22.836  1.00  0.00     0.116 A 
ATOM     23  C   UNL A   1      28.057  29.886  22.068  1.00  0.00     0.046 A 
BRANCH  22  24
ATOM     24  O   UNL A   1      26.202  28.616  22.900  1.00  0.00    -0.508 OA
ATOM     25  H   UNL A   1      25.715  28.454  22.115  1.00  0.00     0.293 HD
ENDBRANCH  22  24
ENDBRANCH  16  18
ENDBRANCH   8  16
ENDBRANCH   6   7
ENDBRANCH   4   6
ENDBRANCH   3   4
ENDBRANCH   2   3
ENDBRANCH   1   2
BRANCH   1  26
ATOM     26  O   UNL A   1      34.764  20.306  24.864  1.00  0.00    -0.374 OA
BRANCH  26  27
ATOM     27  C   UNL A   1      35.910  20.893  25.474  1.00  0.00     0.202 C 
BRANCH  27  28
ATOM     28  C   UNL A   1      37.264  20.419  24.933  1.00  0.00     0.261 C 
BRANCH  28  29
ATOM     29  O   UNL A   1      38.280  21.429  25.073  1.00  0.00    -0.460 OA
BRANCH  29  30
ATOM     30  C   UNL A   1      39.257  21.122  25.955  1.00  0.00     0.338 C 
ATOM     31  O   UNL A   1      39.823  20.043  26.085  1.00  0.00    -0.246 OA
BRANCH  30  32
ATOM     32  C   UNL A   1      39.702  22.327  26.681  1.00  0.00     0.060 A 
ATOM     33  C   UNL A   1      39.063  23.531  26.361  1.00  0.00     0.016 A 
ATOM     34  C   UNL A   1      40.767  22.310  27.586  1.00  0.00     0.016 A 
ATOM     35  C   UNL A   1      39.531  24.733  26.884  1.00  0.00     0.010 A 
ATOM     36  C   UNL A   1      41.240  23.521  28.110  1.00  0.00     0.010 A 
ATOM     37  C   UNL A   1      40.653  24.740  27.723  1.00  0.00    -0.014 A 
BRANCH  37  38
ATOM     38  C   UNL A   1      41.301  26.038  28.036  1.00  0.00     0.031 A 
ATOM     39  C   UNL A   1      42.695  26.299  27.527  1.00  0.00     0.074 A 
ATOM     40  C   UNL A   1      40.637  27.004  28.695  1.00  0.00     0.049 A 
ATOM     41  N   UNL A   1      43.436  27.371  27.647  1.00  0.00    -0.248 NA
ATOM     42  C   UNL A   1      43.336  25.204  26.781  1.00  0.00     0.031 C 
ATOM     43  C   UNL A   1      39.269  26.895  29.200  1.00  0.00     0.029 A 
ATOM     44  N   UNL A   1      41.026  28.273  29.043  1.00  0.00    -0.354 N 
ATOM     45  C   UNL A   1      44.627  27.080  26.994  1.00  0.00     0.074 A 
ATOM     46  C   UNL A   1      44.525  25.721  26.510  1.00  0.00     0.031 C 
ATOM     47  C   UNL A   1      38.933  28.053  29.796  1.00  0.00     0.029 A 
ATOM     48  C   UNL A   1      40.067  28.973  29.733  1.00  0.00     0.049 A 
ATOM     49  H   UNL A   1      41.909  28.647  28.819  1.00  0.00     0.167 HD
ATOM     50  C   UNL A   1      45.705  27.877  26.801  1.00  0.00     0.037 A 
ATOM     51  C   UNL A   1      40.105  30.213  30.259  1.00  0.00     0.037 A 
ATOM     52  C   UNL A   1      45.810  29.232  27.273  1.00  0.00     0.049 A 
ATOM     53  C   UNL A   1      41.339  31.057  30.086  1.00  0.00     0.074 A 
ATOM     54  C   UNL A   1      46.857  30.123  27.114  1.00  0.00     0.029 A 
ATOM     55  N   UNL A   1      44.832  29.891  28.003  1.00  0.00    -0.354 N 
ATOM     56  N   UNL A   1      42.449  30.781  29.446  1.00  0.00    -0.248 NA
ATOM     57  C   UNL A   1      41.322  32.392  30.704  1.00  0.00     0.031 C 
ATOM     58  C   UNL A   1      46.530  31.306  27.785  1.00  0.00     0.029 A 
ATOM     59  C   UNL A   1      45.260  31.168  28.321  1.00  0.00     0.049 A 
ATOM     60  H   UNL A   1      43.962  29.506  28.257  1.00  0.00     0.167 HD
ATOM     61  C   UNL A   1      43.247  31.912  29.558  1.00  0.00     0.074 A 
ATOM     62  C   UNL A   1      42.492  32.885  30.320  1.00  0.00     0.031 C 
ATOM     63  C   UNL A   1      44.494  32.130  29.071  1.00  0.00     0.037 A 
BRANCH  50  64
ATOM     64  C   UNL A   1      46.872  27.292  26.060  1.00  0.00     0.057 A 
ATOM     65  C   UNL A   1      47.014  27.433  24.674  1.00  0.00     0.134 A 
ATOM     66  C   UNL A   1      47.881  26.606  26.748  1.00  0.00     0.134 A 
ATOM     67  F   UNL A   1      46.074  28.066  23.955  1.00  0.00    -0.206 F 
ATOM     68  C   UNL A   1      48.108  26.894  23.995  1.00  0.00     0.040 A 
ATOM     69  C   UNL A   1      48.992  26.084  26.083  1.00  0.00     0.040 A 
ATOM     70  F   UNL A   1      47.808  26.440  28.077  1.00  0.00    -0.206 F 
ATOM     71  C   UNL A   1      49.104  26.224  24.701  1.00  0.00     0.006 A 
ENDBRANCH  50  64
BRANCH  51  72
ATOM     72  C   UNL A   1      38.935  30.735  31.009  1.00  0.00     0.057 A 
ATOM     73  C   UNL A   1      38.763  30.465  32.371  1.00  0.00     0.134 A 
ATOM     74  C   UNL A   1      37.947  31.497  30.372  1.00  0.00     0.134 A 
ATOM     75  F   UNL A   1      39.663  29.719  33.030  1.00  0.00    -0.206 F 
ATOM     76  C   UNL A   1      37.645  30.920  33.071  1.00  0.00     0.040 A 
ATOM     77  C   UNL A   1      36.836  31.978  31.065  1.00  0.00     0.040 A 
ATOM     78  F   UNL A   1      38.053  31.790  29.068  1.00  0.00    -0.206 F 
ATOM     79  C   UNL A   1      36.678  31.683  32.418  1.00  0.00     0.006 A 
ENDBRANCH  51  72
BRANCH  63  80
ATOM     80  C   UNL A   1      45.105  33.479  29.311  1.00  0.00     0.057 A 
ATOM     81  C   UNL A   1      45.918  33.737  30.421  1.00  0.00     0.134 A 
ATOM     82  C   UNL A   1      44.914  34.520  28.394  1.00  0.00     0.134 A 
ATOM     83  F   UNL A   1      46.132  32.785  31.343  1.00  0.00    -0.206 F 
ATOM     84  C   UNL A   1      46.502  34.988  30.622  1.00  0.00     0.040 A 
ATOM     85  C   UNL A   1      45.512  35.768  28.570  1.00  0.00     0.040 A 
ATOM     86  F   UNL A   1      44.154  34.337  27.303  1.00  0.00    -0.206 F 
ATOM     87  C   UNL A   1      46.305  36.006  29.690  1.00  0.00     0.006 A 
ENDBRANCH  63  80
ENDBRANCH  37  38
ENDBRANCH  30  32
ENDBRANCH  29  30
ENDBRANCH  28  29
ENDBRANCH  27  28
ENDBRANCH  26  27
ENDBRANCH   1  26
TORSDOF 18
ENDMDL
