MODEL 1
REMARK VINA RESULT:     -11.8      0.000      0.000
REMARK SMILES O=C(CCCN1C(=O)/C(=C/c2ccccc2Cl)SC1=S)Nc1cccc(C(=O)OCCOCCOC(=O)c2ccc(-c3c4nc(c(-c5c(F)cccc5F)c5ccc([nH]5)c(-c5c(F)cccc5F)c5nc(c(-c6c(F)cccc6F)c6ccc3[nH]6)C=C5)C=C4)cc2)c1
REMARK SMILES IDX 30 1 29 2 27 3 28 4 26 5 22 6 23 7 92 8 24 9 25 10 21 11
REMARK SMILES IDX 1 12 2 13 3 15 4 16 5 17 6 18 7 19 19 20 8 21 9 22 18 23
REMARK SMILES IDX 20 24 10 25 11 26 12 27 16 28 13 29 15 30 17 31 14 32 31 33
REMARK SMILES IDX 32 34 33 35 34 36 35 37 36 38 37 39 38 40 39 41 91 42 40 43
REMARK SMILES IDX 90 44 41 45 42 46 43 47 84 48 44 49 89 50 83 51 85 52 45 53
REMARK SMILES IDX 88 54 82 55 81 56 46 58 72 59 55 60 71 61 56 62 59 63 70 64
REMARK SMILES IDX 86 65 57 66 58 67 69 69 87 70 60 71 47 72 48 73 53 74 49 75
REMARK SMILES IDX 50 76 52 77 54 78 51 79 73 80 74 81 79 82 75 83 76 84 78 85
REMARK SMILES IDX 80 86 77 87 61 88 62 89 67 90 63 91 64 92 66 93 68 94 65 95
REMARK H PARENT 21 14 85 57 59 68
REMARK Flexibility Score: inf
ROOT
ATOM      1  C   UNL A   1      42.570  19.188  26.626  1.00  0.00     0.261 C 
ENDROOT
BRANCH   1   2
ATOM      2  O   UNL A   1      41.670  20.303  26.530  1.00  0.00    -0.460 OA
BRANCH   2   3
ATOM      3  C   UNL A   1      40.432  20.023  26.052  1.00  0.00     0.338 C 
ATOM      4  O   UNL A   1      39.987  18.924  25.760  1.00  0.00    -0.246 OA
BRANCH   3   5
ATOM      5  C   UNL A   1      39.597  21.243  26.142  1.00  0.00     0.062 A 
ATOM      6  C   UNL A   1      37.774  22.630  25.363  1.00  0.00     0.042 A 
ATOM      7  C   UNL A   1      38.209  23.659  26.205  1.00  0.00     0.026 A 
ATOM      8  C   UNL A   1      38.490  21.433  25.312  1.00  0.00     0.041 A 
ATOM      9  C   UNL A   1      39.305  23.463  27.050  1.00  0.00     0.003 A 
ATOM     10  C   UNL A   1      39.990  22.251  27.029  1.00  0.00     0.016 A 
BRANCH   6  11
ATOM     11  N   UNL A   1      36.608  22.854  24.604  1.00  0.00    -0.326 N 
ATOM     12  O   UNL A   1      35.168  21.361  25.656  1.00  0.00    -0.275 OA
ATOM     13  C   UNL A   1      35.402  22.208  24.799  1.00  0.00     0.224 C 
ATOM     14  H   UNL A   1      36.657  23.521  23.881  1.00  0.00     0.169 HD
BRANCH  13  15
ATOM     15  C   UNL A   1      34.304  22.630  23.850  1.00  0.00     0.102 C 
BRANCH  15  16
ATOM     16  C   UNL A   1      33.020  21.815  23.992  1.00  0.00     0.032 C 
BRANCH  16  17
ATOM     17  C   UNL A   1      31.727  22.493  23.514  1.00  0.00     0.128 C 
BRANCH  17  18
ATOM     18  N   UNL A   1      31.476  23.822  24.077  1.00  0.00    -0.293 N 
ATOM     19  C   UNL A   1      31.785  24.942  23.318  1.00  0.00     0.266 C 
ATOM     20  C   UNL A   1      30.970  24.066  25.340  1.00  0.00     0.148 C 
ATOM     21  O   UNL A   1      32.143  24.931  22.148  1.00  0.00    -0.268 OA
ATOM     22  C   UNL A   1      31.572  26.177  24.117  1.00  0.00     0.081 C 
ATOM     23  S   UNL A   1      30.677  25.785  25.533  1.00  0.00    -0.054 SA
ATOM     24  S   UNL A   1      30.635  22.977  26.556  1.00  0.00    -0.052 S 
ATOM     25  C   UNL A   1      32.074  27.373  23.773  1.00  0.00     0.031 C 
BRANCH  25  26
ATOM     26  C   UNL A   1      31.914  28.604  24.572  1.00  0.00    -0.006 A 
ATOM     27  C   UNL A   1      30.944  29.527  24.149  1.00  0.00     0.010 A 
ATOM     28  C   UNL A   1      32.647  28.884  25.740  1.00  0.00     0.048 A 
ATOM     29  C   UNL A   1      30.672  30.670  24.905  1.00  0.00     0.001 A 
ATOM     30  C   UNL A   1      32.352  30.015  26.509  1.00  0.00     0.021 A 
ATOM     31  Cl  UNL A   1      33.957  27.883  26.273  1.00  0.00    -0.084 Cl
ATOM     32  C   UNL A   1      31.360  30.902  26.095  1.00  0.00     0.002 A 
ENDBRANCH  25  26
ENDBRANCH  17  18
ENDBRANCH  16  17
ENDBRANCH  15  16
ENDBRANCH  13  15
ENDBRANCH   6  11
ENDBRANCH   3   5
ENDBRANCH   2   3
ENDBRANCH   1   2
BRANCH   1  33
ATOM     33  C   UNL A   1      43.463  19.087  25.384  1.00  0.00     0.202 C 
BRANCH  33  34
ATOM     34  O   UNL A   1      43.736  20.295  24.677  1.00  0.00    -0.374 OA
BRANCH  34  35
ATOM     35  C   UNL A   1      45.001  20.917  24.903  1.00  0.00     0.202 C 
BRANCH  35  36
ATOM     36  C   UNL A   1      45.139  22.393  24.510  1.00  0.00     0.261 C 
BRANCH  36  37
ATOM     37  O   UNL A   1      44.339  23.260  25.331  1.00  0.00    -0.460 OA
BRANCH  37  38
ATOM     38  C   UNL A   1      44.729  24.557  25.312  1.00  0.00     0.338 C 
ATOM     39  O   UNL A   1      45.601  25.058  24.622  1.00  0.00    -0.246 OA
BRANCH  38  40
ATOM     40  C   UNL A   1      43.832  25.370  26.150  1.00  0.00     0.060 A 
ATOM     41  C   UNL A   1      44.197  26.704  26.368  1.00  0.00     0.016 A 
ATOM     42  C   UNL A   1      42.722  24.820  26.795  1.00  0.00     0.016 A 
ATOM     43  C   UNL A   1      43.501  27.472  27.294  1.00  0.00     0.010 A 
ATOM     44  C   UNL A   1      42.022  25.595  27.726  1.00  0.00     0.010 A 
ATOM     45  C   UNL A   1      42.441  26.907  28.017  1.00  0.00    -0.014 A 
BRANCH  45  46
ATOM     46  C   UNL A   1      41.896  27.644  29.184  1.00  0.00     0.031 A 
ATOM     47  C   UNL A   1      42.598  27.538  30.510  1.00  0.00     0.074 A 
ATOM     48  C   UNL A   1      40.833  28.455  29.046  1.00  0.00     0.049 A 
ATOM     49  N   UNL A   1      42.319  28.123  31.648  1.00  0.00    -0.248 NA
ATOM     50  C   UNL A   1      43.769  26.650  30.564  1.00  0.00     0.031 C 
ATOM     51  C   UNL A   1      40.087  28.666  27.807  1.00  0.00     0.029 A 
ATOM     52  N   UNL A   1      40.200  29.255  29.963  1.00  0.00    -0.354 N 
ATOM     53  C   UNL A   1      43.273  27.670  32.551  1.00  0.00     0.074 A 
ATOM     54  C   UNL A   1      44.112  26.729  31.841  1.00  0.00     0.031 C 
ATOM     55  C   UNL A   1      39.097  29.543  28.040  1.00  0.00     0.029 A 
ATOM     56  C   UNL A   1      39.124  29.932  29.448  1.00  0.00     0.049 A 
ATOM     57  H   UNL A   1      40.491  29.335  30.900  1.00  0.00     0.167 HD
ATOM     58  C   UNL A   1      43.444  28.015  33.850  1.00  0.00     0.037 A 
ATOM     59  C   UNL A   1      38.251  30.764  30.050  1.00  0.00     0.037 A 
ATOM     60  C   UNL A   1      42.608  28.953  34.554  1.00  0.00     0.049 A 
ATOM     61  C   UNL A   1      38.431  31.094  31.507  1.00  0.00     0.074 A 
ATOM     62  C   UNL A   1      42.711  29.387  35.865  1.00  0.00     0.029 A 
ATOM     63  N   UNL A   1      41.506  29.595  34.008  1.00  0.00    -0.354 N 
ATOM     64  N   UNL A   1      39.354  30.685  32.345  1.00  0.00    -0.248 NA
ATOM     65  C   UNL A   1      37.452  32.016  32.100  1.00  0.00     0.031 C 
ATOM     66  C   UNL A   1      41.638  30.245  36.128  1.00  0.00     0.029 A 
ATOM     67  C   UNL A   1      40.905  30.400  34.963  1.00  0.00     0.049 A 
ATOM     68  H   UNL A   1      41.197  29.494  33.079  1.00  0.00     0.167 HD
ATOM     69  C   UNL A   1      39.086  31.322  33.550  1.00  0.00     0.074 A 
ATOM     70  C   UNL A   1      37.924  32.158  33.329  1.00  0.00     0.031 C 
ATOM     71  C   UNL A   1      39.745  31.226  34.733  1.00  0.00     0.037 A 
BRANCH  58  72
ATOM     72  C   UNL A   1      44.561  27.345  34.600  1.00  0.00     0.057 A 
ATOM     73  C   UNL A   1      45.850  27.891  34.665  1.00  0.00     0.134 A 
ATOM     74  C   UNL A   1      44.339  26.139  35.279  1.00  0.00     0.134 A 
ATOM     75  F   UNL A   1      46.137  29.035  34.026  1.00  0.00    -0.206 F 
ATOM     76  C   UNL A   1      46.885  27.245  35.347  1.00  0.00     0.040 A 
ATOM     77  C   UNL A   1      45.356  25.501  35.991  1.00  0.00     0.040 A 
ATOM     78  F   UNL A   1      43.128  25.562  35.265  1.00  0.00    -0.206 F 
ATOM     79  C   UNL A   1      46.637  26.050  36.017  1.00  0.00     0.006 A 
ENDBRANCH  58  72
BRANCH  59  80
ATOM     80  C   UNL A   1      37.129  31.347  29.272  1.00  0.00     0.057 A 
ATOM     81  C   UNL A   1      35.993  30.594  28.953  1.00  0.00     0.134 A 
ATOM     82  C   UNL A   1      37.172  32.671  28.817  1.00  0.00     0.134 A 
ATOM     83  F   UNL A   1      35.902  29.313  29.341  1.00  0.00    -0.206 F 
ATOM     84  C   UNL A   1      34.949  31.129  28.197  1.00  0.00     0.040 A 
ATOM     85  C   UNL A   1      36.124  33.228  28.085  1.00  0.00     0.040 A 
ATOM     86  F   UNL A   1      38.233  33.446  29.090  1.00  0.00    -0.206 F 
ATOM     87  C   UNL A   1      35.011  32.453  27.766  1.00  0.00     0.006 A 
ENDBRANCH  59  80
BRANCH  71  88
ATOM     88  C   UNL A   1      39.249  32.083  35.865  1.00  0.00     0.057 A 
ATOM     89  C   UNL A   1      39.665  33.411  36.036  1.00  0.00     0.134 A 
ATOM     90  C   UNL A   1      38.335  31.572  36.797  1.00  0.00     0.134 A 
ATOM     91  F   UNL A   1      40.545  33.963  35.187  1.00  0.00    -0.206 F 
ATOM     92  C   UNL A   1      39.224  34.182  37.114  1.00  0.00     0.040 A 
ATOM     93  C   UNL A   1      37.861  32.344  37.858  1.00  0.00     0.040 A 
ATOM     94  F   UNL A   1      37.883  30.314  36.688  1.00  0.00    -0.206 F 
ATOM     95  C   UNL A   1      38.317  33.649  38.027  1.00  0.00     0.006 A 
ENDBRANCH  71  88
ENDBRANCH  45  46
ENDBRANCH  38  40
ENDBRANCH  37  38
ENDBRANCH  36  37
ENDBRANCH  35  36
ENDBRANCH  34  35
ENDBRANCH  33  34
ENDBRANCH   1  33
TORSDOF 20
ENDMDL
MODEL 2
REMARK VINA RESULT:     -11.6      2.004      4.214
REMARK SMILES O=C(CCCN1C(=O)/C(=C/c2ccccc2Cl)SC1=S)Nc1cccc(C(=O)OCCOCCOC(=O)c2ccc(-c3c4nc(c(-c5c(F)cccc5F)c5ccc([nH]5)c(-c5c(F)cccc5F)c5nc(c(-c6c(F)cccc6F)c6ccc3[nH]6)C=C5)C=C4)cc2)c1
REMARK SMILES IDX 30 1 29 2 27 3 28 4 26 5 22 6 23 7 92 8 24 9 25 10 21 11
REMARK SMILES IDX 1 12 2 13 3 15 4 16 5 17 6 18 7 19 19 20 8 21 9 22 18 23
REMARK SMILES IDX 20 24 10 25 11 26 12 27 16 28 13 29 15 30 17 31 14 32 31 33
REMARK SMILES IDX 32 34 33 35 34 36 35 37 36 38 37 39 38 40 39 41 91 42 40 43
REMARK SMILES IDX 90 44 41 45 42 46 43 47 84 48 44 49 89 50 83 51 85 52 45 53
REMARK SMILES IDX 88 54 82 55 81 56 46 58 72 59 55 60 71 61 56 62 59 63 70 64
REMARK SMILES IDX 86 65 57 66 58 67 69 69 87 70 60 71 47 72 48 73 53 74 49 75
REMARK SMILES IDX 50 76 52 77 54 78 51 79 73 80 74 81 79 82 75 83 76 84 78 85
REMARK SMILES IDX 80 86 77 87 61 88 62 89 67 90 63 91 64 92 66 93 68 94 65 95
REMARK H PARENT 21 14 85 57 59 68
REMARK Flexibility Score: inf
ROOT
ATOM      1  C   UNL A   1      41.850  19.501  26.623  1.00  0.00     0.261 C 
ENDROOT
BRANCH   1   2
ATOM      2  O   UNL A   1      41.118  20.521  25.928  1.00  0.00    -0.460 OA
BRANCH   2   3
ATOM      3  C   UNL A   1      39.805  20.260  25.708  1.00  0.00     0.338 C 
ATOM      4  O   UNL A   1      39.278  19.162  25.621  1.00  0.00    -0.246 OA
BRANCH   3   5
ATOM      5  C   UNL A   1      39.042  21.525  25.807  1.00  0.00     0.062 A 
ATOM      6  C   UNL A   1      37.368  23.065  24.982  1.00  0.00     0.042 A 
ATOM      7  C   UNL A   1      37.803  24.019  25.908  1.00  0.00     0.026 A 
ATOM      8  C   UNL A   1      38.012  21.829  24.913  1.00  0.00     0.041 A 
ATOM      9  C   UNL A   1      38.819  23.710  26.815  1.00  0.00     0.003 A 
ATOM     10  C   UNL A   1      39.430  22.459  26.774  1.00  0.00     0.016 A 
BRANCH   6  11
ATOM     11  N   UNL A   1      36.277  23.403  24.156  1.00  0.00    -0.326 N 
ATOM     12  O   UNL A   1      35.005  24.619  25.677  1.00  0.00    -0.275 OA
ATOM     13  C   UNL A   1      35.182  24.145  24.559  1.00  0.00     0.224 C 
ATOM     14  H   UNL A   1      36.297  23.089  23.224  1.00  0.00     0.169 HD
BRANCH  13  15
ATOM     15  C   UNL A   1      34.148  24.371  23.481  1.00  0.00     0.102 C 
BRANCH  15  16
ATOM     16  C   UNL A   1      32.789  24.819  24.015  1.00  0.00     0.032 C 
BRANCH  16  17
ATOM     17  C   UNL A   1      31.726  23.722  24.178  1.00  0.00     0.128 C 
BRANCH  17  18
ATOM     18  N   UNL A   1      32.234  22.424  24.628  1.00  0.00    -0.293 N 
ATOM     19  C   UNL A   1      32.429  21.417  23.692  1.00  0.00     0.266 C 
ATOM     20  C   UNL A   1      32.520  22.096  25.940  1.00  0.00     0.148 C 
ATOM     21  O   UNL A   1      32.331  21.547  22.479  1.00  0.00    -0.268 OA
ATOM     22  C   UNL A   1      32.825  20.157  24.371  1.00  0.00     0.081 C 
ATOM     23  S   UNL A   1      33.257  20.504  25.999  1.00  0.00    -0.054 SA
ATOM     24  S   UNL A   1      32.265  22.997  27.318  1.00  0.00    -0.052 S 
ATOM     25  C   UNL A   1      32.777  18.954  23.778  1.00  0.00     0.031 C 
BRANCH  25  26
ATOM     26  C   UNL A   1      33.123  17.683  24.444  1.00  0.00    -0.006 A 
ATOM     27  C   UNL A   1      32.064  16.838  24.812  1.00  0.00     0.010 A 
ATOM     28  C   UNL A   1      34.442  17.261  24.697  1.00  0.00     0.048 A 
ATOM     29  C   UNL A   1      32.318  15.579  25.363  1.00  0.00     0.001 A 
ATOM     30  C   UNL A   1      34.691  15.990  25.223  1.00  0.00     0.021 A 
ATOM     31  Cl  UNL A   1      35.811  18.283  24.409  1.00  0.00    -0.084 Cl
ATOM     32  C   UNL A   1      33.630  15.147  25.548  1.00  0.00     0.002 A 
ENDBRANCH  25  26
ENDBRANCH  17  18
ENDBRANCH  16  17
ENDBRANCH  15  16
ENDBRANCH  13  15
ENDBRANCH   6  11
ENDBRANCH   3   5
ENDBRANCH   2   3
ENDBRANCH   1   2
BRANCH   1  33
ATOM     33  C   UNL A   1      43.045  19.012  25.796  1.00  0.00     0.202 C 
BRANCH  33  34
ATOM     34  O   UNL A   1      43.497  19.858  24.741  1.00  0.00    -0.374 OA
BRANCH  34  35
ATOM     35  C   UNL A   1      44.640  20.674  24.996  1.00  0.00     0.202 C 
BRANCH  35  36
ATOM     36  C   UNL A   1      44.557  22.150  24.589  1.00  0.00     0.261 C 
BRANCH  36  37
ATOM     37  O   UNL A   1      44.333  23.020  25.711  1.00  0.00    -0.460 OA
BRANCH  37  38
ATOM     38  C   UNL A   1      44.581  24.327  25.457  1.00  0.00     0.338 C 
ATOM     39  O   UNL A   1      45.318  24.789  24.602  1.00  0.00    -0.246 OA
BRANCH  38  40
ATOM     40  C   UNL A   1      43.698  25.179  26.270  1.00  0.00     0.060 A 
ATOM     41  C   UNL A   1      44.089  26.511  26.456  1.00  0.00     0.016 A 
ATOM     42  C   UNL A   1      42.574  24.669  26.924  1.00  0.00     0.016 A 
ATOM     43  C   UNL A   1      43.405  27.317  27.358  1.00  0.00     0.010 A 
ATOM     44  C   UNL A   1      41.886  25.482  27.831  1.00  0.00     0.010 A 
ATOM     45  C   UNL A   1      42.331  26.792  28.090  1.00  0.00    -0.014 A 
BRANCH  45  46
ATOM     46  C   UNL A   1      41.797  27.570  29.235  1.00  0.00     0.031 A 
ATOM     47  C   UNL A   1      42.502  27.500  30.562  1.00  0.00     0.074 A 
ATOM     48  C   UNL A   1      40.739  28.385  29.075  1.00  0.00     0.049 A 
ATOM     49  N   UNL A   1      42.232  28.122  31.682  1.00  0.00    -0.248 NA
ATOM     50  C   UNL A   1      43.666  26.604  30.639  1.00  0.00     0.031 C 
ATOM     51  C   UNL A   1      39.991  28.563  27.833  1.00  0.00     0.029 A 
ATOM     52  N   UNL A   1      40.117  29.218  29.969  1.00  0.00    -0.354 N 
ATOM     53  C   UNL A   1      43.186  27.690  32.595  1.00  0.00     0.074 A 
ATOM     54  C   UNL A   1      44.014  26.720  31.912  1.00  0.00     0.031 C 
ATOM     55  C   UNL A   1      39.009  29.456  28.042  1.00  0.00     0.029 A 
ATOM     56  C   UNL A   1      39.044  29.889  29.437  1.00  0.00     0.049 A 
ATOM     57  H   UNL A   1      40.412  29.326  30.902  1.00  0.00     0.167 HD
ATOM     58  C   UNL A   1      43.364  28.074  33.882  1.00  0.00     0.037 A 
ATOM     59  C   UNL A   1      38.180  30.746  30.016  1.00  0.00     0.037 A 
ATOM     60  C   UNL A   1      42.539  29.041  34.559  1.00  0.00     0.049 A 
ATOM     61  C   UNL A   1      38.369  31.120  31.461  1.00  0.00     0.074 A 
ATOM     62  C   UNL A   1      42.651  29.514  35.856  1.00  0.00     0.029 A 
ATOM     63  N   UNL A   1      41.440  29.674  33.997  1.00  0.00    -0.354 N 
ATOM     64  N   UNL A   1      39.291  30.730  32.308  1.00  0.00    -0.248 NA
ATOM     65  C   UNL A   1      37.399  32.068  32.028  1.00  0.00     0.031 C 
ATOM     66  C   UNL A   1      41.585  30.389  36.095  1.00  0.00     0.029 A 
ATOM     67  C   UNL A   1      40.849  30.514  34.929  1.00  0.00     0.049 A 
ATOM     68  H   UNL A   1      41.127  29.547  33.073  1.00  0.00     0.167 HD
ATOM     69  C   UNL A   1      39.033  31.406  33.494  1.00  0.00     0.074 A 
ATOM     70  C   UNL A   1      37.878  32.245  33.251  1.00  0.00     0.031 C 
ATOM     71  C   UNL A   1      39.696  31.342  34.677  1.00  0.00     0.037 A 
BRANCH  58  72
ATOM     72  C   UNL A   1      44.478  27.418  34.649  1.00  0.00     0.057 A 
ATOM     73  C   UNL A   1      44.288  26.235  35.378  1.00  0.00     0.134 A 
ATOM     74  C   UNL A   1      45.765  27.973  34.649  1.00  0.00     0.134 A 
ATOM     75  F   UNL A   1      43.078  25.658  35.434  1.00  0.00    -0.206 F 
ATOM     76  C   UNL A   1      45.327  25.649  36.105  1.00  0.00     0.040 A 
ATOM     77  C   UNL A   1      46.819  27.378  35.346  1.00  0.00     0.040 A 
ATOM     78  F   UNL A   1      46.021  29.100  33.969  1.00  0.00    -0.206 F 
ATOM     79  C   UNL A   1      46.598  26.218  36.085  1.00  0.00     0.006 A 
ENDBRANCH  58  72
BRANCH  59  80
ATOM     80  C   UNL A   1      37.060  31.313  29.223  1.00  0.00     0.057 A 
ATOM     81  C   UNL A   1      37.109  32.619  28.722  1.00  0.00     0.134 A 
ATOM     82  C   UNL A   1      35.907  30.564  28.957  1.00  0.00     0.134 A 
ATOM     83  F   UNL A   1      38.177  33.394  28.963  1.00  0.00    -0.206 F 
ATOM     84  C   UNL A   1      36.046  33.166  28.002  1.00  0.00     0.040 A 
ATOM     85  C   UNL A   1      34.849  31.087  28.214  1.00  0.00     0.040 A 
ATOM     86  F   UNL A   1      35.799  29.305  29.409  1.00  0.00    -0.206 F 
ATOM     87  C   UNL A   1      34.914  32.396  27.741  1.00  0.00     0.006 A 
ENDBRANCH  59  80
BRANCH  71  88
ATOM     88  C   UNL A   1      39.211  32.238  35.783  1.00  0.00     0.057 A 
ATOM     89  C   UNL A   1      38.301  31.801  36.756  1.00  0.00     0.134 A 
ATOM     90  C   UNL A   1      39.665  33.561  35.878  1.00  0.00     0.134 A 
ATOM     91  F   UNL A   1      37.817  30.549  36.721  1.00  0.00    -0.206 F 
ATOM     92  C   UNL A   1      37.831  32.656  37.754  1.00  0.00     0.040 A 
ATOM     93  C   UNL A   1      39.228  34.415  36.891  1.00  0.00     0.040 A 
ATOM     94  F   UNL A   1      40.546  34.044  34.989  1.00  0.00    -0.206 F 
ATOM     95  C   UNL A   1      38.297  33.967  37.826  1.00  0.00     0.006 A 
ENDBRANCH  71  88
ENDBRANCH  45  46
ENDBRANCH  38  40
ENDBRANCH  37  38
ENDBRANCH  36  37
ENDBRANCH  35  36
ENDBRANCH  34  35
ENDBRANCH  33  34
ENDBRANCH   1  33
TORSDOF 20
ENDMDL
MODEL 3
REMARK VINA RESULT:     -10.4      5.188      9.788
REMARK SMILES O=C(CCCN1C(=O)/C(=C/c2ccccc2Cl)SC1=S)Nc1cccc(C(=O)OCCOCCOC(=O)c2ccc(-c3c4nc(c(-c5c(F)cccc5F)c5ccc([nH]5)c(-c5c(F)cccc5F)c5nc(c(-c6c(F)cccc6F)c6ccc3[nH]6)C=C5)C=C4)cc2)c1
REMARK SMILES IDX 30 1 29 2 27 3 28 4 26 5 22 6 23 7 92 8 24 9 25 10 21 11
REMARK SMILES IDX 1 12 2 13 3 15 4 16 5 17 6 18 7 19 19 20 8 21 9 22 18 23
REMARK SMILES IDX 20 24 10 25 11 26 12 27 16 28 13 29 15 30 17 31 14 32 31 33
REMARK SMILES IDX 32 34 33 35 34 36 35 37 36 38 37 39 38 40 39 41 91 42 40 43
REMARK SMILES IDX 90 44 41 45 42 46 43 47 84 48 44 49 89 50 83 51 85 52 45 53
REMARK SMILES IDX 88 54 82 55 81 56 46 58 72 59 55 60 71 61 56 62 59 63 70 64
REMARK SMILES IDX 86 65 57 66 58 67 69 69 87 70 60 71 47 72 48 73 53 74 49 75
REMARK SMILES IDX 50 76 52 77 54 78 51 79 73 80 74 81 79 82 75 83 76 84 78 85
REMARK SMILES IDX 80 86 77 87 61 88 62 89 67 90 63 91 64 92 66 93 68 94 65 95
REMARK H PARENT 21 14 85 57 59 68
REMARK Flexibility Score: inf
ROOT
ATOM      1  C   UNL A   1      44.300  18.856  24.555  1.00  0.00     0.261 C 
ENDROOT
BRANCH   1   2
ATOM      2  O   UNL A   1      44.559  20.210  24.155  1.00  0.00    -0.460 OA
BRANCH   2   3
ATOM      3  C   UNL A   1      45.598  20.822  24.777  1.00  0.00     0.338 C 
ATOM      4  O   UNL A   1      46.763  20.458  24.793  1.00  0.00    -0.246 OA
BRANCH   3   5
ATOM      5  C   UNL A   1      45.150  22.146  25.264  1.00  0.00     0.062 A 
ATOM      6  C   UNL A   1      45.124  23.895  26.937  1.00  0.00     0.042 A 
ATOM      7  C   UNL A   1      44.096  24.536  26.237  1.00  0.00     0.026 A 
ATOM      8  C   UNL A   1      45.627  22.682  26.463  1.00  0.00     0.041 A 
ATOM      9  C   UNL A   1      43.631  24.011  25.028  1.00  0.00     0.003 A 
ATOM     10  C   UNL A   1      44.167  22.824  24.535  1.00  0.00     0.016 A 
BRANCH   6  11
ATOM     11  N   UNL A   1      45.614  24.521  28.100  1.00  0.00    -0.326 N 
ATOM     12  O   UNL A   1      44.213  23.547  29.682  1.00  0.00    -0.275 OA
ATOM     13  C   UNL A   1      45.127  24.309  29.376  1.00  0.00     0.224 C 
ATOM     14  H   UNL A   1      46.359  25.156  27.997  1.00  0.00     0.169 HD
BRANCH  13  15
ATOM     15  C   UNL A   1      45.826  25.102  30.454  1.00  0.00     0.102 C 
BRANCH  15  16
ATOM     16  C   UNL A   1      45.088  25.109  31.792  1.00  0.00     0.032 C 
BRANCH  16  17
ATOM     17  C   UNL A   1      45.919  25.493  33.026  1.00  0.00     0.128 C 
BRANCH  17  18
ATOM     18  N   UNL A   1      45.881  24.527  34.127  1.00  0.00    -0.293 N 
ATOM     19  C   UNL A   1      47.024  23.794  34.417  1.00  0.00     0.266 C 
ATOM     20  C   UNL A   1      44.772  24.255  34.906  1.00  0.00     0.148 C 
ATOM     21  O   UNL A   1      48.125  23.965  33.911  1.00  0.00    -0.268 OA
ATOM     22  C   UNL A   1      46.736  22.794  35.477  1.00  0.00     0.081 C 
ATOM     23  S   UNL A   1      45.221  23.162  36.204  1.00  0.00    -0.054 SA
ATOM     24  S   UNL A   1      43.218  24.830  34.741  1.00  0.00    -0.052 S 
ATOM     25  C   UNL A   1      47.536  21.749  35.741  1.00  0.00     0.031 C 
BRANCH  25  26
ATOM     26  C   UNL A   1      47.249  20.718  36.757  1.00  0.00    -0.006 A 
ATOM     27  C   UNL A   1      47.981  20.770  37.955  1.00  0.00     0.010 A 
ATOM     28  C   UNL A   1      46.271  19.717  36.608  1.00  0.00     0.048 A 
ATOM     29  C   UNL A   1      47.700  19.884  38.998  1.00  0.00     0.001 A 
ATOM     30  C   UNL A   1      45.975  18.851  37.665  1.00  0.00     0.021 A 
ATOM     31  Cl  UNL A   1      45.411  19.479  35.123  1.00  0.00    -0.084 Cl
ATOM     32  C   UNL A   1      46.684  18.940  38.862  1.00  0.00     0.002 A 
ENDBRANCH  25  26
ENDBRANCH  17  18
ENDBRANCH  16  17
ENDBRANCH  15  16
ENDBRANCH  13  15
ENDBRANCH   6  11
ENDBRANCH   3   5
ENDBRANCH   2   3
ENDBRANCH   1   2
BRANCH   1  33
ATOM     33  C   UNL A   1      43.225  18.794  25.646  1.00  0.00     0.202 C 
BRANCH  33  34
ATOM     34  O   UNL A   1      42.258  19.843  25.668  1.00  0.00    -0.374 OA
BRANCH  34  35
ATOM     35  C   UNL A   1      41.198  19.739  26.619  1.00  0.00     0.202 C 
BRANCH  35  36
ATOM     36  C   UNL A   1      40.859  20.994  27.433  1.00  0.00     0.261 C 
BRANCH  36  37
ATOM     37  O   UNL A   1      40.869  22.189  26.635  1.00  0.00    -0.460 OA
BRANCH  37  38
ATOM     38  C   UNL A   1      39.645  22.736  26.441  1.00  0.00     0.338 C 
ATOM     39  O   UNL A   1      38.640  22.178  26.033  1.00  0.00    -0.246 OA
BRANCH  38  40
ATOM     40  C   UNL A   1      39.619  24.117  26.950  1.00  0.00     0.060 A 
ATOM     41  C   UNL A   1      40.173  25.109  26.132  1.00  0.00     0.016 A 
ATOM     42  C   UNL A   1      39.166  24.424  28.235  1.00  0.00     0.016 A 
ATOM     43  C   UNL A   1      40.350  26.397  26.623  1.00  0.00     0.010 A 
ATOM     44  C   UNL A   1      39.344  25.722  28.728  1.00  0.00     0.010 A 
ATOM     45  C   UNL A   1      39.983  26.699  27.942  1.00  0.00    -0.014 A 
BRANCH  45  46
ATOM     46  C   UNL A   1      40.429  27.985  28.533  1.00  0.00     0.031 A 
ATOM     47  C   UNL A   1      41.899  28.225  28.744  1.00  0.00     0.074 A 
ATOM     48  C   UNL A   1      39.541  28.955  28.811  1.00  0.00     0.049 A 
ATOM     49  N   UNL A   1      42.511  29.285  29.209  1.00  0.00    -0.248 NA
ATOM     50  C   UNL A   1      42.802  27.120  28.387  1.00  0.00     0.031 C 
ATOM     51  C   UNL A   1      38.095  28.855  28.622  1.00  0.00     0.029 A 
ATOM     52  N   UNL A   1      39.732  30.218  29.309  1.00  0.00    -0.354 N 
ATOM     53  C   UNL A   1      43.865  28.972  29.206  1.00  0.00     0.074 A 
ATOM     54  C   UNL A   1      43.982  27.609  28.734  1.00  0.00     0.031 C 
ATOM     55  C   UNL A   1      37.527  30.013  28.997  1.00  0.00     0.029 A 
ATOM     56  C   UNL A   1      38.566  30.922  29.478  1.00  0.00     0.049 A 
ATOM     57  H   UNL A   1      40.619  30.585  29.525  1.00  0.00     0.167 HD
ATOM     58  C   UNL A   1      44.917  29.753  29.552  1.00  0.00     0.037 A 
ATOM     59  C   UNL A   1      38.360  32.158  29.975  1.00  0.00     0.037 A 
ATOM     60  C   UNL A   1      44.798  31.110  30.020  1.00  0.00     0.049 A 
ATOM     61  C   UNL A   1      39.540  32.988  30.400  1.00  0.00     0.074 A 
ATOM     62  C   UNL A   1      45.804  31.992  30.375  1.00  0.00     0.029 A 
ATOM     63  N   UNL A   1      43.597  31.779  30.208  1.00  0.00    -0.354 N 
ATOM     64  N   UNL A   1      40.818  32.696  30.365  1.00  0.00    -0.248 NA
ATOM     65  C   UNL A   1      39.247  34.330  30.922  1.00  0.00     0.031 C 
ATOM     66  C   UNL A   1      45.209  33.173  30.834  1.00  0.00     0.029 A 
ATOM     67  C   UNL A   1      43.836  33.053  30.700  1.00  0.00     0.049 A 
ATOM     68  H   UNL A   1      42.707  31.403  30.020  1.00  0.00     0.167 HD
ATOM     69  C   UNL A   1      41.482  33.825  30.829  1.00  0.00     0.074 A 
ATOM     70  C   UNL A   1      40.465  34.814  31.122  1.00  0.00     0.031 C 
ATOM     71  C   UNL A   1      42.814  34.028  30.993  1.00  0.00     0.037 A 
BRANCH  58  72
ATOM     72  C   UNL A   1      46.287  29.140  29.468  1.00  0.00     0.057 A 
ATOM     73  C   UNL A   1      47.009  29.087  28.267  1.00  0.00     0.134 A 
ATOM     74  C   UNL A   1      46.899  28.605  30.609  1.00  0.00     0.134 A 
ATOM     75  F   UNL A   1      46.479  29.568  27.132  1.00  0.00    -0.206 F 
ATOM     76  C   UNL A   1      48.272  28.494  28.199  1.00  0.00     0.040 A 
ATOM     77  C   UNL A   1      48.174  28.040  30.560  1.00  0.00     0.040 A 
ATOM     78  F   UNL A   1      46.269  28.627  31.793  1.00  0.00    -0.206 F 
ATOM     79  C   UNL A   1      48.860  27.974  29.349  1.00  0.00     0.006 A 
ENDBRANCH  58  72
BRANCH  59  80
ATOM     80  C   UNL A   1      36.977  32.685  30.093  1.00  0.00     0.057 A 
ATOM     81  C   UNL A   1      36.227  32.513  31.262  1.00  0.00     0.134 A 
ATOM     82  C   UNL A   1      36.367  33.367  29.031  1.00  0.00     0.134 A 
ATOM     83  F   UNL A   1      36.747  31.849  32.305  1.00  0.00    -0.206 F 
ATOM     84  C   UNL A   1      34.917  32.981  31.366  1.00  0.00     0.040 A 
ATOM     85  C   UNL A   1      35.069  33.866  29.131  1.00  0.00     0.040 A 
ATOM     86  F   UNL A   1      37.034  33.566  27.884  1.00  0.00    -0.206 F 
ATOM     87  C   UNL A   1      34.337  33.667  30.300  1.00  0.00     0.006 A 
ENDBRANCH  59  80
BRANCH  71  88
ATOM     88  C   UNL A   1      43.247  35.386  31.472  1.00  0.00     0.057 A 
ATOM     89  C   UNL A   1      43.283  35.723  32.832  1.00  0.00     0.134 A 
ATOM     90  C   UNL A   1      43.638  36.373  30.556  1.00  0.00     0.134 A 
ATOM     91  F   UNL A   1      42.914  34.831  33.765  1.00  0.00    -0.206 F 
ATOM     92  C   UNL A   1      43.650  37.001  33.260  1.00  0.00     0.040 A 
ATOM     93  C   UNL A   1      44.039  37.642  30.973  1.00  0.00     0.040 A 
ATOM     94  F   UNL A   1      43.640  36.117  29.239  1.00  0.00    -0.206 F 
ATOM     95  C   UNL A   1      44.033  37.963  32.328  1.00  0.00     0.006 A 
ENDBRANCH  71  88
ENDBRANCH  45  46
ENDBRANCH  38  40
ENDBRANCH  37  38
ENDBRANCH  36  37
ENDBRANCH  35  36
ENDBRANCH  34  35
ENDBRANCH  33  34
ENDBRANCH   1  33
TORSDOF 20
ENDMDL
