MODEL 1
REMARK VINA RESULT:     -11.6      0.000      0.000
REMARK SMILES Cc1cccc(-c2cccc(O)c2)c1C(=O)OCCOCCOC(=O)c1ccc(-c2c3nc(c(-c4c(F)cccc4F)c4ccc([nH]4)c(-c4c(F)cccc4F)c4nc(c(-c5c(F)cccc5F)c5ccc2[nH]5)C=C4)C=C3)cc1
REMARK SMILES IDX 20 1 19 2 18 3 17 4 15 5 16 6 14 7 1 8 2 9 3 10 4 11 6 12
REMARK SMILES IDX 5 13 7 14 8 15 13 16 9 17 11 18 10 19 12 20 21 22 22 23
REMARK SMILES IDX 23 24 24 25 25 26 26 27 27 28 79 29 28 30 78 31 29 32 30 33
REMARK SMILES IDX 31 34 72 35 32 36 77 37 71 38 73 39 33 40 76 41 70 42 69 43
REMARK SMILES IDX 34 45 60 46 43 47 59 48 44 49 47 50 58 51 74 52 45 53 46 54
REMARK SMILES IDX 57 56 75 57 48 58 35 59 36 60 41 61 37 62 38 63 40 64 42 65
REMARK SMILES IDX 39 66 61 67 62 68 67 69 63 70 64 71 66 72 68 73 65 74 49 75
REMARK SMILES IDX 50 76 55 77 51 78 52 79 54 80 56 81 53 82
REMARK H PARENT 12 21 73 44 47 55
REMARK Flexibility Score: inf
ROOT
ATOM      1  O   UNL A   1      31.550  29.115  27.477  1.00  0.00    -0.374 OA
ENDROOT
BRANCH   1   2
ATOM      2  C   UNL A   1      32.224  27.889  27.250  1.00  0.00     0.202 C 
BRANCH   2   3
ATOM      3  C   UNL A   1      31.188  27.023  26.631  1.00  0.00     0.261 C 
BRANCH   3   4
ATOM      4  O   UNL A   1      31.569  25.659  26.828  1.00  0.00    -0.460 OA
BRANCH   4   5
ATOM      5  C   UNL A   1      31.716  24.800  25.797  1.00  0.00     0.339 C 
ATOM      6  O   UNL A   1      30.908  24.609  24.921  1.00  0.00    -0.246 OA
BRANCH   5   7
ATOM      7  C   UNL A   1      33.098  24.225  25.909  1.00  0.00     0.070 A 
ATOM      8  C   UNL A   1      32.536  22.509  27.862  1.00  0.00     0.045 C 
ATOM      9  C   UNL A   1      33.441  23.228  26.878  1.00  0.00    -0.036 A 
ATOM     10  C   UNL A   1      34.779  22.806  26.958  1.00  0.00     0.004 A 
ATOM     11  C   UNL A   1      35.757  23.328  26.126  1.00  0.00     0.001 A 
ATOM     12  C   UNL A   1      34.105  24.769  25.050  1.00  0.00    -0.003 A 
ATOM     13  C   UNL A   1      35.424  24.292  25.180  1.00  0.00     0.009 A 
BRANCH  12  14
ATOM     14  C   UNL A   1      33.882  25.860  24.072  1.00  0.00    -0.014 A 
ATOM     15  C   UNL A   1      34.030  27.205  24.458  1.00  0.00     0.009 A 
ATOM     16  C   UNL A   1      33.535  25.595  22.737  1.00  0.00     0.055 A 
ATOM     17  C   UNL A   1      33.780  28.250  23.562  1.00  0.00     0.004 A 
ATOM     18  C   UNL A   1      33.306  26.643  21.844  1.00  0.00     0.116 A 
ATOM     19  C   UNL A   1      33.409  27.969  22.249  1.00  0.00     0.046 A 
BRANCH  18  20
ATOM     20  O   UNL A   1      32.980  26.328  20.556  1.00  0.00    -0.508 OA
ATOM     21  H   UNL A   1      32.554  25.514  20.365  1.00  0.00     0.293 HD
ENDBRANCH  18  20
ENDBRANCH  12  14
ENDBRANCH   5   7
ENDBRANCH   4   5
ENDBRANCH   3   4
ENDBRANCH   2   3
ENDBRANCH   1   2
BRANCH   1  22
ATOM     22  C   UNL A   1      32.126  30.246  26.868  1.00  0.00     0.202 C 
BRANCH  22  23
ATOM     23  C   UNL A   1      33.654  30.239  26.966  1.00  0.00     0.261 C 
BRANCH  23  24
ATOM     24  O   UNL A   1      34.073  31.169  27.992  1.00  0.00    -0.460 OA
BRANCH  24  25
ATOM     25  C   UNL A   1      35.395  31.504  28.006  1.00  0.00     0.338 C 
ATOM     26  O   UNL A   1      35.854  32.575  27.638  1.00  0.00    -0.246 OA
BRANCH  25  27
ATOM     27  C   UNL A   1      36.231  30.286  28.240  1.00  0.00     0.060 A 
ATOM     28  C   UNL A   1      36.287  29.706  29.525  1.00  0.00     0.016 A 
ATOM     29  C   UNL A   1      37.203  29.966  27.298  1.00  0.00     0.016 A 
ATOM     30  C   UNL A   1      37.408  28.953  29.915  1.00  0.00     0.010 A 
ATOM     31  C   UNL A   1      38.351  29.332  27.724  1.00  0.00     0.010 A 
ATOM     32  C   UNL A   1      38.485  28.851  29.039  1.00  0.00    -0.014 A 
BRANCH  32  33
ATOM     33  C   UNL A   1      39.836  28.373  29.365  1.00  0.00     0.031 A 
ATOM     34  C   UNL A   1      40.226  27.046  28.832  1.00  0.00     0.074 A 
ATOM     35  C   UNL A   1      40.793  29.207  29.854  1.00  0.00     0.049 A 
ATOM     36  N   UNL A   1      41.328  26.460  29.125  1.00  0.00    -0.248 NA
ATOM     37  C   UNL A   1      39.388  26.228  27.953  1.00  0.00     0.031 C 
ATOM     38  C   UNL A   1      42.253  29.095  29.747  1.00  0.00     0.029 A 
ATOM     39  N   UNL A   1      40.656  30.415  30.551  1.00  0.00    -0.354 N 
ATOM     40  C   UNL A   1      41.511  25.430  28.238  1.00  0.00     0.074 A 
ATOM     41  C   UNL A   1      40.220  25.231  27.637  1.00  0.00     0.031 C 
ATOM     42  C   UNL A   1      42.842  29.956  30.599  1.00  0.00     0.029 A 
ATOM     43  C   UNL A   1      41.782  30.588  31.368  1.00  0.00     0.049 A 
ATOM     44  H   UNL A   1      39.897  31.039  30.479  1.00  0.00     0.167 HD
ATOM     45  C   UNL A   1      42.779  24.971  28.055  1.00  0.00     0.037 A 
ATOM     46  C   UNL A   1      41.646  30.663  32.716  1.00  0.00     0.037 A 
ATOM     47  C   UNL A   1      43.678  25.579  29.052  1.00  0.00     0.049 A 
ATOM     48  C   UNL A   1      42.311  29.445  33.281  1.00  0.00     0.074 A 
ATOM     49  C   UNL A   1      44.669  26.542  28.986  1.00  0.00     0.029 A 
ATOM     50  N   UNL A   1      43.363  25.438  30.406  1.00  0.00    -0.354 N 
ATOM     51  N   UNL A   1      42.426  28.336  32.596  1.00  0.00    -0.248 NA
ATOM     52  C   UNL A   1      43.056  29.420  34.534  1.00  0.00     0.031 C 
ATOM     53  C   UNL A   1      44.864  27.052  30.309  1.00  0.00     0.029 A 
ATOM     54  C   UNL A   1      44.018  26.377  31.182  1.00  0.00     0.049 A 
ATOM     55  H   UNL A   1      42.750  24.757  30.764  1.00  0.00     0.167 HD
ATOM     56  C   UNL A   1      43.346  27.540  33.199  1.00  0.00     0.074 A 
ATOM     57  C   UNL A   1      43.663  28.222  34.443  1.00  0.00     0.031 C 
ATOM     58  C   UNL A   1      43.836  26.403  32.632  1.00  0.00     0.037 A 
BRANCH  45  59
ATOM     59  C   UNL A   1      43.257  24.098  26.912  1.00  0.00     0.057 A 
ATOM     60  C   UNL A   1      43.783  24.693  25.748  1.00  0.00     0.134 A 
ATOM     61  C   UNL A   1      43.170  22.692  26.841  1.00  0.00     0.134 A 
ATOM     62  F   UNL A   1      43.910  26.023  25.639  1.00  0.00    -0.206 F 
ATOM     63  C   UNL A   1      44.198  23.955  24.626  1.00  0.00     0.040 A 
ATOM     64  C   UNL A   1      43.627  21.940  25.747  1.00  0.00     0.040 A 
ATOM     65  F   UNL A   1      42.593  21.953  27.794  1.00  0.00    -0.206 F 
ATOM     66  C   UNL A   1      44.137  22.571  24.627  1.00  0.00     0.006 A 
ENDBRANCH  45  59
BRANCH  46  67
ATOM     67  C   UNL A   1      40.380  31.358  33.104  1.00  0.00     0.057 A 
ATOM     68  C   UNL A   1      39.306  30.539  33.518  1.00  0.00     0.134 A 
ATOM     69  C   UNL A   1      40.362  32.680  33.564  1.00  0.00     0.134 A 
ATOM     70  F   UNL A   1      39.259  29.250  33.141  1.00  0.00    -0.206 F 
ATOM     71  C   UNL A   1      38.345  30.968  34.445  1.00  0.00     0.040 A 
ATOM     72  C   UNL A   1      39.410  33.116  34.504  1.00  0.00     0.040 A 
ATOM     73  F   UNL A   1      41.347  33.529  33.239  1.00  0.00    -0.206 F 
ATOM     74  C   UNL A   1      38.426  32.249  34.980  1.00  0.00     0.006 A 
ENDBRANCH  46  67
BRANCH  58  75
ATOM     75  C   UNL A   1      44.221  25.221  33.473  1.00  0.00     0.057 A 
ATOM     76  C   UNL A   1      45.514  24.669  33.468  1.00  0.00     0.134 A 
ATOM     77  C   UNL A   1      43.358  24.729  34.470  1.00  0.00     0.134 A 
ATOM     78  F   UNL A   1      46.485  25.136  32.671  1.00  0.00    -0.206 F 
ATOM     79  C   UNL A   1      45.892  23.640  34.331  1.00  0.00     0.040 A 
ATOM     80  C   UNL A   1      43.750  23.752  35.385  1.00  0.00     0.040 A 
ATOM     81  F   UNL A   1      42.112  25.199  34.629  1.00  0.00    -0.206 F 
ATOM     82  C   UNL A   1      45.013  23.186  35.301  1.00  0.00     0.006 A 
ENDBRANCH  58  75
ENDBRANCH  32  33
ENDBRANCH  25  27
ENDBRANCH  24  25
ENDBRANCH  23  24
ENDBRANCH  22  23
ENDBRANCH   1  22
TORSDOF 16
ENDMDL
MODEL 2
REMARK VINA RESULT:     -11.2      3.157      8.311
REMARK SMILES Cc1cccc(-c2cccc(O)c2)c1C(=O)OCCOCCOC(=O)c1ccc(-c2c3nc(c(-c4c(F)cccc4F)c4ccc([nH]4)c(-c4c(F)cccc4F)c4nc(c(-c5c(F)cccc5F)c5ccc2[nH]5)C=C4)C=C3)cc1
REMARK SMILES IDX 20 1 19 2 18 3 17 4 15 5 16 6 14 7 1 8 2 9 3 10 4 11 6 12
REMARK SMILES IDX 5 13 7 14 8 15 13 16 9 17 11 18 10 19 12 20 21 22 22 23
REMARK SMILES IDX 23 24 24 25 25 26 26 27 27 28 79 29 28 30 78 31 29 32 30 33
REMARK SMILES IDX 31 34 72 35 32 36 77 37 71 38 73 39 33 40 76 41 70 42 69 43
REMARK SMILES IDX 34 45 60 46 43 47 59 48 44 49 47 50 58 51 74 52 45 53 46 54
REMARK SMILES IDX 57 56 75 57 48 58 35 59 36 60 41 61 37 62 38 63 40 64 42 65
REMARK SMILES IDX 39 66 61 67 62 68 67 69 63 70 64 71 66 72 68 73 65 74 49 75
REMARK SMILES IDX 50 76 55 77 51 78 52 79 54 80 56 81 53 82
REMARK H PARENT 12 21 73 44 47 55
REMARK Flexibility Score: inf
ROOT
ATOM      1  O   UNL A   1      36.231  21.748  24.404  1.00  0.00    -0.374 OA
ENDROOT
BRANCH   1   2
ATOM      2  C   UNL A   1      36.247  23.022  23.782  1.00  0.00     0.202 C 
BRANCH   2   3
ATOM      3  C   UNL A   1      34.938  23.094  23.084  1.00  0.00     0.261 C 
BRANCH   3   4
ATOM      4  O   UNL A   1      34.566  24.470  22.972  1.00  0.00    -0.460 OA
BRANCH   4   5
ATOM      5  C   UNL A   1      33.310  24.896  23.227  1.00  0.00     0.339 C 
ATOM      6  O   UNL A   1      32.297  24.317  22.923  1.00  0.00    -0.246 OA
BRANCH   5   7
ATOM      7  C   UNL A   1      33.439  26.155  24.034  1.00  0.00     0.070 A 
ATOM      8  C   UNL A   1      33.816  27.784  21.967  1.00  0.00     0.045 C 
ATOM      9  C   UNL A   1      33.709  27.428  23.438  1.00  0.00    -0.036 A 
ATOM     10  C   UNL A   1      33.888  28.537  24.282  1.00  0.00     0.004 A 
ATOM     11  C   UNL A   1      33.806  28.422  25.662  1.00  0.00     0.001 A 
ATOM     12  C   UNL A   1      33.356  26.031  25.458  1.00  0.00    -0.003 A 
ATOM     13  C   UNL A   1      33.537  27.187  26.242  1.00  0.00     0.009 A 
BRANCH  12  14
ATOM     14  C   UNL A   1      33.164  24.753  26.184  1.00  0.00    -0.014 A 
ATOM     15  C   UNL A   1      34.274  23.979  26.570  1.00  0.00     0.009 A 
ATOM     16  C   UNL A   1      31.885  24.282  26.524  1.00  0.00     0.055 A 
ATOM     17  C   UNL A   1      34.112  22.749  27.217  1.00  0.00     0.004 A 
ATOM     18  C   UNL A   1      31.733  23.062  27.187  1.00  0.00     0.116 A 
ATOM     19  C   UNL A   1      32.835  22.284  27.521  1.00  0.00     0.046 A 
BRANCH  18  20
ATOM     20  O   UNL A   1      30.467  22.657  27.501  1.00  0.00    -0.508 OA
ATOM     21  H   UNL A   1      30.244  22.464  28.391  1.00  0.00     0.293 HD
ENDBRANCH  18  20
ENDBRANCH  12  14
ENDBRANCH   5   7
ENDBRANCH   4   5
ENDBRANCH   3   4
ENDBRANCH   2   3
ENDBRANCH   1   2
BRANCH   1  22
ATOM     22  C   UNL A   1      37.047  21.618  25.543  1.00  0.00     0.202 C 
BRANCH  22  23
ATOM     23  C   UNL A   1      38.189  22.639  25.553  1.00  0.00     0.261 C 
BRANCH  23  24
ATOM     24  O   UNL A   1      39.215  22.201  26.474  1.00  0.00    -0.460 OA
BRANCH  24  25
ATOM     25  C   UNL A   1      40.313  23.003  26.589  1.00  0.00     0.338 C 
ATOM     26  O   UNL A   1      41.464  22.610  26.691  1.00  0.00    -0.246 OA
BRANCH  25  27
ATOM     27  C   UNL A   1      39.893  24.409  26.879  1.00  0.00     0.060 A 
ATOM     28  C   UNL A   1      40.448  25.477  26.144  1.00  0.00     0.016 A 
ATOM     29  C   UNL A   1      39.250  24.666  28.086  1.00  0.00     0.016 A 
ATOM     30  C   UNL A   1      40.514  26.765  26.703  1.00  0.00     0.010 A 
ATOM     31  C   UNL A   1      39.426  25.899  28.677  1.00  0.00     0.010 A 
ATOM     32  C   UNL A   1      40.087  26.949  28.015  1.00  0.00    -0.014 A 
BRANCH  32  33
ATOM     33  C   UNL A   1      40.343  28.122  28.862  1.00  0.00     0.031 A 
ATOM     34  C   UNL A   1      39.345  29.217  28.815  1.00  0.00     0.074 A 
ATOM     35  C   UNL A   1      41.261  28.095  29.866  1.00  0.00     0.049 A 
ATOM     36  N   UNL A   1      39.494  30.339  29.417  1.00  0.00    -0.248 NA
ATOM     37  C   UNL A   1      38.100  29.169  28.044  1.00  0.00     0.031 C 
ATOM     38  C   UNL A   1      41.302  28.893  31.097  1.00  0.00     0.029 A 
ATOM     39  N   UNL A   1      42.387  27.275  30.027  1.00  0.00    -0.354 N 
ATOM     40  C   UNL A   1      38.280  30.978  29.430  1.00  0.00     0.074 A 
ATOM     41  C   UNL A   1      37.495  30.293  28.440  1.00  0.00     0.031 C 
ATOM     42  C   UNL A   1      42.510  28.770  31.682  1.00  0.00     0.029 A 
ATOM     43  C   UNL A   1      43.334  27.967  30.796  1.00  0.00     0.049 A 
ATOM     44  H   UNL A   1      42.495  26.367  29.662  1.00  0.00     0.167 HD
ATOM     45  C   UNL A   1      38.080  31.934  30.378  1.00  0.00     0.037 A 
ATOM     46  C   UNL A   1      44.554  28.261  30.278  1.00  0.00     0.037 A 
ATOM     47  C   UNL A   1      39.347  32.217  31.075  1.00  0.00     0.049 A 
ATOM     48  C   UNL A   1      44.618  29.753  30.158  1.00  0.00     0.074 A 
ATOM     49  C   UNL A   1      39.829  31.930  32.340  1.00  0.00     0.029 A 
ATOM     50  N   UNL A   1      40.456  32.596  30.314  1.00  0.00    -0.354 N 
ATOM     51  N   UNL A   1      43.543  30.485  30.015  1.00  0.00    -0.248 NA
ATOM     52  C   UNL A   1      45.821  30.547  30.380  1.00  0.00     0.031 C 
ATOM     53  C   UNL A   1      41.255  32.036  32.292  1.00  0.00     0.029 A 
ATOM     54  C   UNL A   1      41.636  32.421  31.012  1.00  0.00     0.049 A 
ATOM     55  H   UNL A   1      40.404  32.943  29.395  1.00  0.00     0.167 HD
ATOM     56  C   UNL A   1      43.855  31.781  30.275  1.00  0.00     0.074 A 
ATOM     57  C   UNL A   1      45.301  31.787  30.429  1.00  0.00     0.031 C 
ATOM     58  C   UNL A   1      42.921  32.763  30.403  1.00  0.00     0.037 A 
BRANCH  45  59
ATOM     59  C   UNL A   1      36.743  32.517  30.790  1.00  0.00     0.057 A 
ATOM     60  C   UNL A   1      36.200  33.602  30.074  1.00  0.00     0.134 A 
ATOM     61  C   UNL A   1      35.970  32.129  31.904  1.00  0.00     0.134 A 
ATOM     62  F   UNL A   1      36.823  34.112  29.001  1.00  0.00    -0.206 F 
ATOM     63  C   UNL A   1      34.993  34.230  30.424  1.00  0.00     0.040 A 
ATOM     64  C   UNL A   1      34.738  32.716  32.237  1.00  0.00     0.040 A 
ATOM     65  F   UNL A   1      36.372  31.199  32.776  1.00  0.00    -0.206 F 
ATOM     66  C   UNL A   1      34.247  33.778  31.500  1.00  0.00     0.006 A 
ENDBRANCH  45  59
BRANCH  46  67
ATOM     67  C   UNL A   1      45.040  27.182  29.364  1.00  0.00     0.057 A 
ATOM     68  C   UNL A   1      44.976  27.446  27.977  1.00  0.00     0.134 A 
ATOM     69  C   UNL A   1      45.977  26.224  29.768  1.00  0.00     0.134 A 
ATOM     70  F   UNL A   1      44.121  28.370  27.507  1.00  0.00    -0.206 F 
ATOM     71  C   UNL A   1      45.883  26.892  27.062  1.00  0.00     0.040 A 
ATOM     72  C   UNL A   1      46.899  25.673  28.859  1.00  0.00     0.040 A 
ATOM     73  F   UNL A   1      46.123  25.917  31.064  1.00  0.00    -0.206 F 
ATOM     74  C   UNL A   1      46.883  26.039  27.514  1.00  0.00     0.006 A 
ENDBRANCH  46  67
BRANCH  58  75
ATOM     75  C   UNL A   1      43.211  34.171  29.970  1.00  0.00     0.057 A 
ATOM     76  C   UNL A   1      43.330  35.239  30.876  1.00  0.00     0.134 A 
ATOM     77  C   UNL A   1      43.586  34.459  28.644  1.00  0.00     0.134 A 
ATOM     78  F   UNL A   1      43.144  35.079  32.194  1.00  0.00    -0.206 F 
ATOM     79  C   UNL A   1      43.706  36.521  30.477  1.00  0.00     0.040 A 
ATOM     80  C   UNL A   1      44.034  35.719  28.250  1.00  0.00     0.040 A 
ATOM     81  F   UNL A   1      43.575  33.525  27.682  1.00  0.00    -0.206 F 
ATOM     82  C   UNL A   1      44.071  36.762  29.162  1.00  0.00     0.006 A 
ENDBRANCH  58  75
ENDBRANCH  32  33
ENDBRANCH  25  27
ENDBRANCH  24  25
ENDBRANCH  23  24
ENDBRANCH  22  23
ENDBRANCH   1  22
TORSDOF 16
ENDMDL
MODEL 3
REMARK VINA RESULT:     -11.2      1.529      2.178
REMARK SMILES Cc1cccc(-c2cccc(O)c2)c1C(=O)OCCOCCOC(=O)c1ccc(-c2c3nc(c(-c4c(F)cccc4F)c4ccc([nH]4)c(-c4c(F)cccc4F)c4nc(c(-c5c(F)cccc5F)c5ccc2[nH]5)C=C4)C=C3)cc1
REMARK SMILES IDX 20 1 19 2 18 3 17 4 15 5 16 6 14 7 1 8 2 9 3 10 4 11 6 12
REMARK SMILES IDX 5 13 7 14 8 15 13 16 9 17 11 18 10 19 12 20 21 22 22 23
REMARK SMILES IDX 23 24 24 25 25 26 26 27 27 28 79 29 28 30 78 31 29 32 30 33
REMARK SMILES IDX 31 34 72 35 32 36 77 37 71 38 73 39 33 40 76 41 70 42 69 43
REMARK SMILES IDX 34 45 60 46 43 47 59 48 44 49 47 50 58 51 74 52 45 53 46 54
REMARK SMILES IDX 57 56 75 57 48 58 35 59 36 60 41 61 37 62 38 63 40 64 42 65
REMARK SMILES IDX 39 66 61 67 62 68 67 69 63 70 64 71 66 72 68 73 65 74 49 75
REMARK SMILES IDX 50 76 55 77 51 78 52 79 54 80 56 81 53 82
REMARK H PARENT 12 21 73 44 47 55
REMARK Flexibility Score: inf
ROOT
ATOM      1  O   UNL A   1      32.324  30.428  26.153  1.00  0.00    -0.374 OA
ENDROOT
BRANCH   1   2
ATOM      2  C   UNL A   1      32.777  29.509  25.174  1.00  0.00     0.202 C 
BRANCH   2   3
ATOM      3  C   UNL A   1      33.359  28.398  25.971  1.00  0.00     0.261 C 
BRANCH   3   4
ATOM      4  O   UNL A   1      32.865  27.164  25.445  1.00  0.00    -0.460 OA
BRANCH   4   5
ATOM      5  C   UNL A   1      31.734  26.589  25.907  1.00  0.00     0.339 C 
ATOM      6  O   UNL A   1      31.012  27.046  26.758  1.00  0.00    -0.246 OA
BRANCH   5   7
ATOM      7  C   UNL A   1      31.518  25.349  25.091  1.00  0.00     0.070 A 
ATOM      8  C   UNL A   1      33.042  23.757  26.580  1.00  0.00     0.045 C 
ATOM      9  C   UNL A   1      32.156  24.104  25.398  1.00  0.00    -0.036 A 
ATOM     10  C   UNL A   1      31.952  23.016  24.531  1.00  0.00     0.004 A 
ATOM     11  C   UNL A   1      31.153  23.126  23.403  1.00  0.00     0.001 A 
ATOM     12  C   UNL A   1      30.695  25.466  23.927  1.00  0.00    -0.003 A 
ATOM     13  C   UNL A   1      30.527  24.332  23.108  1.00  0.00     0.009 A 
BRANCH  12  14
ATOM     14  C   UNL A   1      30.055  26.722  23.468  1.00  0.00    -0.014 A 
ATOM     15  C   UNL A   1      28.714  26.998  23.792  1.00  0.00     0.009 A 
ATOM     16  C   UNL A   1      30.759  27.677  22.716  1.00  0.00     0.055 A 
ATOM     17  C   UNL A   1      28.079  28.157  23.331  1.00  0.00     0.004 A 
ATOM     18  C   UNL A   1      30.123  28.840  22.275  1.00  0.00     0.116 A 
ATOM     19  C   UNL A   1      28.784  29.080  22.563  1.00  0.00     0.046 A 
BRANCH  18  20
ATOM     20  O   UNL A   1      30.858  29.738  21.556  1.00  0.00    -0.508 OA
ATOM     21  H   UNL A   1      30.950  29.633  20.629  1.00  0.00     0.293 HD
ENDBRANCH  18  20
ENDBRANCH  12  14
ENDBRANCH   5   7
ENDBRANCH   4   5
ENDBRANCH   3   4
ENDBRANCH   2   3
ENDBRANCH   1   2
BRANCH   1  22
ATOM     22  C   UNL A   1      33.060  30.451  27.352  1.00  0.00     0.202 C 
BRANCH  22  23
ATOM     23  C   UNL A   1      33.718  31.811  27.599  1.00  0.00     0.261 C 
BRANCH  23  24
ATOM     24  O   UNL A   1      35.157  31.658  27.585  1.00  0.00    -0.460 OA
BRANCH  24  25
ATOM     25  C   UNL A   1      35.768  31.546  28.800  1.00  0.00     0.338 C 
ATOM     26  O   UNL A   1      35.822  32.426  29.645  1.00  0.00    -0.246 OA
BRANCH  25  27
ATOM     27  C   UNL A   1      36.621  30.318  28.834  1.00  0.00     0.060 A 
ATOM     28  C   UNL A   1      36.634  29.499  29.982  1.00  0.00     0.016 A 
ATOM     29  C   UNL A   1      37.642  30.201  27.895  1.00  0.00     0.016 A 
ATOM     30  C   UNL A   1      37.753  28.700  30.272  1.00  0.00     0.010 A 
ATOM     31  C   UNL A   1      38.784  29.513  28.245  1.00  0.00     0.010 A 
ATOM     32  C   UNL A   1      38.870  28.786  29.447  1.00  0.00    -0.014 A 
BRANCH  32  33
ATOM     33  C   UNL A   1      40.216  28.273  29.739  1.00  0.00     0.031 A 
ATOM     34  C   UNL A   1      40.577  26.961  29.153  1.00  0.00     0.074 A 
ATOM     35  C   UNL A   1      41.193  29.072  30.249  1.00  0.00     0.049 A 
ATOM     36  N   UNL A   1      41.673  26.346  29.411  1.00  0.00    -0.248 NA
ATOM     37  C   UNL A   1      39.716  26.191  28.252  1.00  0.00     0.031 C 
ATOM     38  C   UNL A   1      42.649  28.939  30.121  1.00  0.00     0.029 A 
ATOM     39  N   UNL A   1      41.084  30.255  30.992  1.00  0.00    -0.354 N 
ATOM     40  C   UNL A   1      41.828  25.347  28.483  1.00  0.00     0.074 A 
ATOM     41  C   UNL A   1      40.527  25.193  27.890  1.00  0.00     0.031 C 
ATOM     42  C   UNL A   1      43.262  29.758  30.999  1.00  0.00     0.029 A 
ATOM     43  C   UNL A   1      42.222  30.378  31.802  1.00  0.00     0.049 A 
ATOM     44  H   UNL A   1      40.335  30.894  30.952  1.00  0.00     0.167 HD
ATOM     45  C   UNL A   1      43.086  24.874  28.269  1.00  0.00     0.037 A 
ATOM     46  C   UNL A   1      42.102  30.404  33.154  1.00  0.00     0.037 A 
ATOM     47  C   UNL A   1      44.005  25.429  29.278  1.00  0.00     0.049 A 
ATOM     48  C   UNL A   1      42.751  29.154  33.665  1.00  0.00     0.074 A 
ATOM     49  C   UNL A   1      45.013  26.377  29.238  1.00  0.00     0.029 A 
ATOM     50  N   UNL A   1      43.702  25.242  30.630  1.00  0.00    -0.354 N 
ATOM     51  N   UNL A   1      42.839  28.070  32.937  1.00  0.00    -0.248 NA
ATOM     52  C   UNL A   1      43.509  29.069  34.908  1.00  0.00     0.031 C 
ATOM     53  C   UNL A   1      45.230  26.832  30.576  1.00  0.00     0.029 A 
ATOM     54  C   UNL A   1      44.382  26.139  31.432  1.00  0.00     0.049 A 
ATOM     55  H   UNL A   1      43.082  24.558  30.968  1.00  0.00     0.167 HD
ATOM     56  C   UNL A   1      43.751  27.236  33.499  1.00  0.00     0.074 A 
ATOM     57  C   UNL A   1      44.094  27.865  34.765  1.00  0.00     0.031 C 
ATOM     58  C   UNL A   1      44.216  26.113  32.885  1.00  0.00     0.037 A 
BRANCH  45  59
ATOM     59  C   UNL A   1      43.536  24.038  27.088  1.00  0.00     0.057 A 
ATOM     60  C   UNL A   1      44.123  24.661  25.969  1.00  0.00     0.134 A 
ATOM     61  C   UNL A   1      43.368  22.645  26.938  1.00  0.00     0.134 A 
ATOM     62  F   UNL A   1      44.331  25.985  25.937  1.00  0.00    -0.206 F 
ATOM     63  C   UNL A   1      44.518  23.962  24.817  1.00  0.00     0.040 A 
ATOM     64  C   UNL A   1      43.803  21.927  25.812  1.00  0.00     0.040 A 
ATOM     65  F   UNL A   1      42.726  21.892  27.837  1.00  0.00    -0.206 F 
ATOM     66  C   UNL A   1      44.375  22.586  24.740  1.00  0.00     0.006 A 
ENDBRANCH  45  59
BRANCH  46  67
ATOM     67  C   UNL A   1      40.852  31.105  33.582  1.00  0.00     0.057 A 
ATOM     68  C   UNL A   1      39.765  30.290  33.970  1.00  0.00     0.134 A 
ATOM     69  C   UNL A   1      40.863  32.406  34.099  1.00  0.00     0.134 A 
ATOM     70  F   UNL A   1      39.691  29.019  33.539  1.00  0.00    -0.206 F 
ATOM     71  C   UNL A   1      38.820  30.696  34.922  1.00  0.00     0.040 A 
ATOM     72  C   UNL A   1      39.926  32.819  35.064  1.00  0.00     0.040 A 
ATOM     73  F   UNL A   1      41.860  33.250  33.802  1.00  0.00    -0.206 F 
ATOM     74  C   UNL A   1      38.930  31.951  35.511  1.00  0.00     0.006 A 
ENDBRANCH  46  67
BRANCH  58  75
ATOM     75  C   UNL A   1      44.589  24.894  33.676  1.00  0.00     0.057 A 
ATOM     76  C   UNL A   1      43.645  24.110  34.362  1.00  0.00     0.134 A 
ATOM     77  C   UNL A   1      45.886  24.350  33.601  1.00  0.00     0.134 A 
ATOM     78  F   UNL A   1      42.344  24.430  34.395  1.00  0.00    -0.206 F 
ATOM     79  C   UNL A   1      43.985  22.919  35.004  1.00  0.00     0.040 A 
ATOM     80  C   UNL A   1      46.218  23.124  34.177  1.00  0.00     0.040 A 
ATOM     81  F   UNL A   1      46.877  24.959  32.934  1.00  0.00    -0.206 F 
ATOM     82  C   UNL A   1      45.272  22.417  34.903  1.00  0.00     0.006 A 
ENDBRANCH  58  75
ENDBRANCH  32  33
ENDBRANCH  25  27
ENDBRANCH  24  25
ENDBRANCH  23  24
ENDBRANCH  22  23
ENDBRANCH   1  22
TORSDOF 16
ENDMDL
