MODEL 1
REMARK VINA RESULT:      -9.5      0.000      0.000
REMARK SMILES CC(=O)CCCCC/C=C/C(=O)OCCOCCOC(=O)c1ccc(-c2c3nc(c(-c4c(F)cccc4F)c4ccc([nH]4)c(-c4c(F)cccc4F)c4nc(c(-c5c(F)cccc5F)c5ccc2[nH]5)C=C4)C=C3)cc1
REMARK SMILES IDX 14 1 13 2 11 3 12 4 10 5 9 6 8 7 7 8 6 9 5 10 4 11 2 12 1 13
REMARK SMILES IDX 3 14 15 15 16 16 17 17 18 18 19 19 20 20 21 21 22 22 23 23
REMARK SMILES IDX 75 24 24 25 74 26 25 27 26 28 27 29 68 30 28 31 73 32 67 33
REMARK SMILES IDX 69 34 29 35 72 36 66 37 65 38 30 40 56 41 39 42 55 43 40 44
REMARK SMILES IDX 43 45 54 46 70 47 41 48 42 49 53 51 71 52 44 53 31 54 32 55
REMARK SMILES IDX 37 56 33 57 34 58 36 59 38 60 35 61 57 62 58 63 63 64 59 65
REMARK SMILES IDX 60 66 62 67 64 68 61 69 45 70 46 71 51 72 47 73 48 74 50 75
REMARK SMILES IDX 52 76 49 77
REMARK H PARENT 69 39 43 50
REMARK Flexibility Score: inf
ROOT
ATOM      1  C   UNL A   1      43.393  18.708  25.696  1.00  0.00     0.261 C 
ENDROOT
BRANCH   1   2
ATOM      2  O   UNL A   1      42.310  19.610  25.413  1.00  0.00    -0.460 OA
BRANCH   2   3
ATOM      3  C   UNL A   1      41.647  20.091  26.492  1.00  0.00     0.330 C 
ATOM      4  O   UNL A   1      41.672  19.642  27.627  1.00  0.00    -0.247 OA
BRANCH   3   5
ATOM      5  C   UNL A   1      40.954  21.360  26.175  1.00  0.00     0.089 C 
ATOM      6  C   UNL A   1      39.873  21.838  26.812  1.00  0.00    -0.019 C 
BRANCH   6   7
ATOM      7  C   UNL A   1      39.186  23.112  26.402  1.00  0.00     0.027 C 
BRANCH   7   8
ATOM      8  C   UNL A   1      37.794  22.886  25.798  1.00  0.00     0.004 C 
BRANCH   8   9
ATOM      9  C   UNL A   1      37.633  21.604  24.969  1.00  0.00     0.001 C 
BRANCH   9  10
ATOM     10  C   UNL A   1      36.321  20.834  25.165  1.00  0.00     0.008 C 
BRANCH  10  11
ATOM     11  C   UNL A   1      35.052  21.556  24.721  1.00  0.00     0.075 C 
BRANCH  11  12
ATOM     12  C   UNL A   1      33.964  21.559  25.777  1.00  0.00     0.129 C 
ATOM     13  C   UNL A   1      34.367  21.787  27.210  1.00  0.00     0.087 C 
ATOM     14  O   UNL A   1      32.781  21.423  25.470  1.00  0.00    -0.300 OA
ENDBRANCH  11  12
ENDBRANCH  10  11
ENDBRANCH   9  10
ENDBRANCH   8   9
ENDBRANCH   7   8
ENDBRANCH   6   7
ENDBRANCH   3   5
ENDBRANCH   2   3
ENDBRANCH   1   2
BRANCH   1  15
ATOM     15  C   UNL A   1      44.549  18.938  24.719  1.00  0.00     0.202 C 
BRANCH  15  16
ATOM     16  O   UNL A   1      44.414  20.098  23.896  1.00  0.00    -0.374 OA
BRANCH  16  17
ATOM     17  C   UNL A   1      44.997  21.302  24.400  1.00  0.00     0.202 C 
BRANCH  17  18
ATOM     18  C   UNL A   1      44.434  22.593  23.798  1.00  0.00     0.261 C 
BRANCH  18  19
ATOM     19  O   UNL A   1      43.821  23.417  24.809  1.00  0.00    -0.460 OA
BRANCH  19  20
ATOM     20  C   UNL A   1      44.481  24.564  25.088  1.00  0.00     0.338 C 
ATOM     21  O   UNL A   1      45.512  24.973  24.573  1.00  0.00    -0.246 OA
BRANCH  20  22
ATOM     22  C   UNL A   1      43.687  25.384  26.023  1.00  0.00     0.060 A 
ATOM     23  C   UNL A   1      44.026  26.738  26.140  1.00  0.00     0.016 A 
ATOM     24  C   UNL A   1      42.673  24.836  26.813  1.00  0.00     0.016 A 
ATOM     25  C   UNL A   1      43.386  27.539  27.084  1.00  0.00     0.010 A 
ATOM     26  C   UNL A   1      42.036  25.640  27.765  1.00  0.00     0.010 A 
ATOM     27  C   UNL A   1      42.412  26.986  27.927  1.00  0.00    -0.014 A 
BRANCH  27  28
ATOM     28  C   UNL A   1      41.893  27.781  29.067  1.00  0.00     0.031 A 
ATOM     29  C   UNL A   1      42.596  27.702  30.394  1.00  0.00     0.074 A 
ATOM     30  C   UNL A   1      40.827  28.586  28.915  1.00  0.00     0.049 A 
ATOM     31  N   UNL A   1      42.296  28.282  31.528  1.00  0.00    -0.248 NA
ATOM     32  C   UNL A   1      43.797  26.854  30.449  1.00  0.00     0.031 C 
ATOM     33  C   UNL A   1      40.081  28.775  27.673  1.00  0.00     0.029 A 
ATOM     34  N   UNL A   1      40.182  29.389  29.822  1.00  0.00    -0.354 N 
ATOM     35  C   UNL A   1      43.269  27.871  32.431  1.00  0.00     0.074 A 
ATOM     36  C   UNL A   1      44.148  26.966  31.721  1.00  0.00     0.031 C 
ATOM     37  C   UNL A   1      39.068  29.631  27.900  1.00  0.00     0.029 A 
ATOM     38  C   UNL A   1      39.080  30.025  29.307  1.00  0.00     0.049 A 
ATOM     39  H   UNL A   1      40.483  29.499  30.754  1.00  0.00     0.167 HD
ATOM     40  C   UNL A   1      43.424  28.225  33.728  1.00  0.00     0.037 A 
ATOM     41  C   UNL A   1      38.172  30.816  29.910  1.00  0.00     0.037 A 
ATOM     42  C   UNL A   1      42.547  29.121  34.435  1.00  0.00     0.049 A 
ATOM     43  C   UNL A   1      38.325  31.141  31.372  1.00  0.00     0.074 A 
ATOM     44  C   UNL A   1      42.625  29.545  35.750  1.00  0.00     0.029 A 
ATOM     45  N   UNL A   1      41.429  29.727  33.884  1.00  0.00    -0.354 N 
ATOM     46  N   UNL A   1      39.261  30.763  32.210  1.00  0.00    -0.248 NA
ATOM     47  C   UNL A   1      37.297  32.004  31.972  1.00  0.00     0.031 C 
ATOM     48  C   UNL A   1      41.528  30.376  36.008  1.00  0.00     0.029 A 
ATOM     49  C   UNL A   1      40.796  30.506  34.838  1.00  0.00     0.049 A 
ATOM     50  H   UNL A   1      41.129  29.620  32.953  1.00  0.00     0.167 HD
ATOM     51  C   UNL A   1      38.950  31.364  33.425  1.00  0.00     0.074 A 
ATOM     52  C   UNL A   1      37.746  32.140  33.212  1.00  0.00     0.031 C 
ATOM     53  C   UNL A   1      39.603  31.280  34.610  1.00  0.00     0.037 A 
BRANCH  40  54
ATOM     54  C   UNL A   1      44.580  27.625  34.472  1.00  0.00     0.057 A 
ATOM     55  C   UNL A   1      44.496  26.364  35.075  1.00  0.00     0.134 A 
ATOM     56  C   UNL A   1      45.802  28.305  34.561  1.00  0.00     0.134 A 
ATOM     57  F   UNL A   1      43.348  25.669  35.039  1.00  0.00    -0.206 F 
ATOM     58  C   UNL A   1      45.578  25.809  35.759  1.00  0.00     0.040 A 
ATOM     59  C   UNL A   1      46.899  27.748  35.220  1.00  0.00     0.040 A 
ATOM     60  F   UNL A   1      45.952  29.514  34.002  1.00  0.00    -0.206 F 
ATOM     61  C   UNL A   1      46.787  26.498  35.827  1.00  0.00     0.006 A 
ENDBRANCH  40  54
BRANCH  41  62
ATOM     62  C   UNL A   1      37.020  31.346  29.138  1.00  0.00     0.057 A 
ATOM     63  C   UNL A   1      36.978  32.680  28.716  1.00  0.00     0.134 A 
ATOM     64  C   UNL A   1      35.921  30.536  28.827  1.00  0.00     0.134 A 
ATOM     65  F   UNL A   1      37.991  33.512  29.004  1.00  0.00    -0.206 F 
ATOM     66  C   UNL A   1      35.877  33.195  28.028  1.00  0.00     0.040 A 
ATOM     67  C   UNL A   1      34.824  31.031  28.120  1.00  0.00     0.040 A 
ATOM     68  F   UNL A   1      35.901  29.249  29.204  1.00  0.00    -0.206 F 
ATOM     69  C   UNL A   1      34.798  32.367  27.725  1.00  0.00     0.006 A 
ENDBRANCH  41  62
BRANCH  53  70
ATOM     70  C   UNL A   1      39.051  32.074  35.757  1.00  0.00     0.057 A 
ATOM     71  C   UNL A   1      39.314  33.442  35.903  1.00  0.00     0.134 A 
ATOM     72  C   UNL A   1      38.212  31.472  36.704  1.00  0.00     0.134 A 
ATOM     73  F   UNL A   1      40.119  34.076  35.037  1.00  0.00    -0.206 F 
ATOM     74  C   UNL A   1      38.780  34.178  36.963  1.00  0.00     0.040 A 
ATOM     75  C   UNL A   1      37.652  32.202  37.753  1.00  0.00     0.040 A 
ATOM     76  F   UNL A   1      37.912  30.168  36.616  1.00  0.00    -0.206 F 
ATOM     77  C   UNL A   1      37.941  33.559  37.888  1.00  0.00     0.006 A 
ENDBRANCH  53  70
ENDBRANCH  27  28
ENDBRANCH  20  22
ENDBRANCH  19  20
ENDBRANCH  18  19
ENDBRANCH  17  18
ENDBRANCH  16  17
ENDBRANCH  15  16
ENDBRANCH   1  15
TORSDOF 20
ENDMDL
MODEL 2
REMARK VINA RESULT:      -9.0      0.656      6.433
REMARK SMILES CC(=O)CCCCC/C=C/C(=O)OCCOCCOC(=O)c1ccc(-c2c3nc(c(-c4c(F)cccc4F)c4ccc([nH]4)c(-c4c(F)cccc4F)c4nc(c(-c5c(F)cccc5F)c5ccc2[nH]5)C=C4)C=C3)cc1
REMARK SMILES IDX 14 1 13 2 11 3 12 4 10 5 9 6 8 7 7 8 6 9 5 10 4 11 2 12 1 13
REMARK SMILES IDX 3 14 15 15 16 16 17 17 18 18 19 19 20 20 21 21 22 22 23 23
REMARK SMILES IDX 75 24 24 25 74 26 25 27 26 28 27 29 68 30 28 31 73 32 67 33
REMARK SMILES IDX 69 34 29 35 72 36 66 37 65 38 30 40 56 41 39 42 55 43 40 44
REMARK SMILES IDX 43 45 54 46 70 47 41 48 42 49 53 51 71 52 44 53 31 54 32 55
REMARK SMILES IDX 37 56 33 57 34 58 36 59 38 60 35 61 57 62 58 63 63 64 59 65
REMARK SMILES IDX 60 66 62 67 64 68 61 69 45 70 46 71 51 72 47 73 48 74 50 75
REMARK SMILES IDX 52 76 49 77
REMARK H PARENT 69 39 43 50
REMARK Flexibility Score: inf
ROOT
ATOM      1  C   UNL A   1      43.613  18.837  25.545  1.00  0.00     0.261 C 
ENDROOT
BRANCH   1   2
ATOM      2  O   UNL A   1      42.478  19.703  25.378  1.00  0.00    -0.460 OA
BRANCH   2   3
ATOM      3  C   UNL A   1      41.914  20.160  26.520  1.00  0.00     0.330 C 
ATOM      4  O   UNL A   1      42.000  19.661  27.631  1.00  0.00    -0.247 OA
BRANCH   3   5
ATOM      5  C   UNL A   1      41.253  21.468  26.308  1.00  0.00     0.089 C 
ATOM      6  C   UNL A   1      40.119  21.874  26.899  1.00  0.00    -0.019 C 
BRANCH   6   7
ATOM      7  C   UNL A   1      39.473  23.198  26.595  1.00  0.00     0.027 C 
BRANCH   7   8
ATOM      8  C   UNL A   1      38.126  23.067  25.871  1.00  0.00     0.004 C 
BRANCH   8   9
ATOM      9  C   UNL A   1      37.721  21.639  25.483  1.00  0.00     0.001 C 
BRANCH   9  10
ATOM     10  C   UNL A   1      36.564  21.515  24.483  1.00  0.00     0.008 C 
BRANCH  10  11
ATOM     11  C   UNL A   1      35.420  20.594  24.900  1.00  0.00     0.075 C 
BRANCH  11  12
ATOM     12  C   UNL A   1      34.221  21.341  25.450  1.00  0.00     0.129 C 
ATOM     13  C   UNL A   1      32.935  20.580  25.632  1.00  0.00     0.087 C 
ATOM     14  O   UNL A   1      34.306  22.524  25.779  1.00  0.00    -0.300 OA
ENDBRANCH  11  12
ENDBRANCH  10  11
ENDBRANCH   9  10
ENDBRANCH   8   9
ENDBRANCH   7   8
ENDBRANCH   6   7
ENDBRANCH   3   5
ENDBRANCH   2   3
ENDBRANCH   1   2
BRANCH   1  15
ATOM     15  C   UNL A   1      44.666  19.122  24.471  1.00  0.00     0.202 C 
BRANCH  15  16
ATOM     16  O   UNL A   1      44.500  20.364  23.786  1.00  0.00    -0.374 OA
BRANCH  16  17
ATOM     17  C   UNL A   1      45.001  21.526  24.452  1.00  0.00     0.202 C 
BRANCH  17  18
ATOM     18  C   UNL A   1      44.099  22.761  24.363  1.00  0.00     0.261 C 
BRANCH  18  19
ATOM     19  O   UNL A   1      44.087  23.490  25.606  1.00  0.00    -0.460 OA
BRANCH  19  20
ATOM     20  C   UNL A   1      44.428  24.795  25.506  1.00  0.00     0.338 C 
ATOM     21  O   UNL A   1      45.149  25.313  24.664  1.00  0.00    -0.246 OA
BRANCH  20  22
ATOM     22  C   UNL A   1      43.665  25.589  26.488  1.00  0.00     0.060 A 
ATOM     23  C   UNL A   1      44.069  26.914  26.697  1.00  0.00     0.016 A 
ATOM     24  C   UNL A   1      42.617  25.042  27.231  1.00  0.00     0.016 A 
ATOM     25  C   UNL A   1      43.459  27.682  27.687  1.00  0.00     0.010 A 
ATOM     26  C   UNL A   1      42.009  25.812  28.229  1.00  0.00     0.010 A 
ATOM     27  C   UNL A   1      42.450  27.123  28.484  1.00  0.00    -0.014 A 
BRANCH  27  28
ATOM     28  C   UNL A   1      41.958  27.866  29.670  1.00  0.00     0.031 A 
ATOM     29  C   UNL A   1      40.731  28.726  29.537  1.00  0.00     0.074 A 
ATOM     30  C   UNL A   1      42.578  27.755  30.858  1.00  0.00     0.049 A 
ATOM     31  N   UNL A   1      40.149  29.485  30.429  1.00  0.00    -0.248 NA
ATOM     32  C   UNL A   1      40.075  28.730  28.220  1.00  0.00     0.031 C 
ATOM     33  C   UNL A   1      43.754  26.928  31.123  1.00  0.00     0.029 A 
ATOM     34  N   UNL A   1      42.305  28.351  32.063  1.00  0.00    -0.354 N 
ATOM     35  C   UNL A   1      39.059  30.057  29.785  1.00  0.00     0.074 A 
ATOM     36  C   UNL A   1      39.081  29.584  28.417  1.00  0.00     0.031 C 
ATOM     37  C   UNL A   1      44.111  27.081  32.410  1.00  0.00     0.029 A 
ATOM     38  C   UNL A   1      43.207  28.035  33.049  1.00  0.00     0.049 A 
ATOM     39  H   UNL A   1      41.535  28.947  32.207  1.00  0.00     0.167 HD
ATOM     40  C   UNL A   1      38.119  30.890  30.289  1.00  0.00     0.037 A 
ATOM     41  C   UNL A   1      43.304  28.485  34.315  1.00  0.00     0.037 A 
ATOM     42  C   UNL A   1      38.099  31.364  31.648  1.00  0.00     0.049 A 
ATOM     43  C   UNL A   1      42.287  29.465  34.834  1.00  0.00     0.074 A 
ATOM     44  C   UNL A   1      37.183  32.206  32.255  1.00  0.00     0.029 A 
ATOM     45  N   UNL A   1      39.043  31.039  32.610  1.00  0.00    -0.354 N 
ATOM     46  N   UNL A   1      41.248  29.983  34.222  1.00  0.00    -0.248 NA
ATOM     47  C   UNL A   1      42.452  29.922  36.222  1.00  0.00     0.031 C 
ATOM     48  C   UNL A   1      37.597  32.425  33.574  1.00  0.00     0.029 A 
ATOM     49  C   UNL A   1      38.744  31.680  33.801  1.00  0.00     0.049 A 
ATOM     50  H   UNL A   1      39.812  30.442  32.468  1.00  0.00     0.167 HD
ATOM     51  C   UNL A   1      40.624  30.802  35.155  1.00  0.00     0.074 A 
ATOM     52  C   UNL A   1      41.392  30.703  36.379  1.00  0.00     0.031 C 
ATOM     53  C   UNL A   1      39.514  31.567  35.012  1.00  0.00     0.037 A 
BRANCH  40  54
ATOM     54  C   UNL A   1      37.039  31.354  29.357  1.00  0.00     0.057 A 
ATOM     55  C   UNL A   1      35.964  30.528  29.004  1.00  0.00     0.134 A 
ATOM     56  C   UNL A   1      37.058  32.652  28.831  1.00  0.00     0.134 A 
ATOM     57  F   UNL A   1      35.895  29.269  29.462  1.00  0.00    -0.206 F 
ATOM     58  C   UNL A   1      34.958  30.968  28.143  1.00  0.00     0.040 A 
ATOM     59  C   UNL A   1      36.044  33.111  27.989  1.00  0.00     0.040 A 
ATOM     60  F   UNL A   1      38.056  33.494  29.133  1.00  0.00    -0.206 F 
ATOM     61  C   UNL A   1      34.992  32.267  27.638  1.00  0.00     0.006 A 
ENDBRANCH  40  54
BRANCH  41  62
ATOM     62  C   UNL A   1      44.420  28.028  35.181  1.00  0.00     0.057 A 
ATOM     63  C   UNL A   1      45.649  28.696  35.198  1.00  0.00     0.134 A 
ATOM     64  C   UNL A   1      44.289  26.897  35.995  1.00  0.00     0.134 A 
ATOM     65  F   UNL A   1      45.843  29.773  34.422  1.00  0.00    -0.206 F 
ATOM     66  C   UNL A   1      46.716  28.244  35.978  1.00  0.00     0.040 A 
ATOM     67  C   UNL A   1      45.338  26.447  36.798  1.00  0.00     0.040 A 
ATOM     68  F   UNL A   1      43.135  26.213  36.024  1.00  0.00    -0.206 F 
ATOM     69  C   UNL A   1      46.559  27.119  36.785  1.00  0.00     0.006 A 
ENDBRANCH  41  62
BRANCH  53  70
ATOM     70  C   UNL A   1      39.043  32.328  36.217  1.00  0.00     0.057 A 
ATOM     71  C   UNL A   1      38.190  31.753  37.167  1.00  0.00     0.134 A 
ATOM     72  C   UNL A   1      39.482  33.638  36.449  1.00  0.00     0.134 A 
ATOM     73  F   UNL A   1      37.724  30.507  36.998  1.00  0.00    -0.206 F 
ATOM     74  C   UNL A   1      37.773  32.463  38.296  1.00  0.00     0.040 A 
ATOM     75  C   UNL A   1      39.093  34.348  37.586  1.00  0.00     0.040 A 
ATOM     76  F   UNL A   1      40.309  34.243  35.583  1.00  0.00    -0.206 F 
ATOM     77  C   UNL A   1      38.230  33.762  38.510  1.00  0.00     0.006 A 
ENDBRANCH  53  70
ENDBRANCH  27  28
ENDBRANCH  20  22
ENDBRANCH  19  20
ENDBRANCH  18  19
ENDBRANCH  17  18
ENDBRANCH  16  17
ENDBRANCH  15  16
ENDBRANCH   1  15
TORSDOF 20
ENDMDL
MODEL 3
REMARK VINA RESULT:      -8.6      2.508      7.828
REMARK SMILES CC(=O)CCCCC/C=C/C(=O)OCCOCCOC(=O)c1ccc(-c2c3nc(c(-c4c(F)cccc4F)c4ccc([nH]4)c(-c4c(F)cccc4F)c4nc(c(-c5c(F)cccc5F)c5ccc2[nH]5)C=C4)C=C3)cc1
REMARK SMILES IDX 14 1 13 2 11 3 12 4 10 5 9 6 8 7 7 8 6 9 5 10 4 11 2 12 1 13
REMARK SMILES IDX 3 14 15 15 16 16 17 17 18 18 19 19 20 20 21 21 22 22 23 23
REMARK SMILES IDX 75 24 24 25 74 26 25 27 26 28 27 29 68 30 28 31 73 32 67 33
REMARK SMILES IDX 69 34 29 35 72 36 66 37 65 38 30 40 56 41 39 42 55 43 40 44
REMARK SMILES IDX 43 45 54 46 70 47 41 48 42 49 53 51 71 52 44 53 31 54 32 55
REMARK SMILES IDX 37 56 33 57 34 58 36 59 38 60 35 61 57 62 58 63 63 64 59 65
REMARK SMILES IDX 60 66 62 67 64 68 61 69 45 70 46 71 51 72 47 73 48 74 50 75
REMARK SMILES IDX 52 76 49 77
REMARK H PARENT 69 39 43 50
REMARK Flexibility Score: inf
ROOT
ATOM      1  C   UNL A   1      44.199  19.101  24.506  1.00  0.00     0.261 C 
ENDROOT
BRANCH   1   2
ATOM      2  O   UNL A   1      44.628  20.444  24.225  1.00  0.00    -0.460 OA
BRANCH   2   3
ATOM      3  C   UNL A   1      45.840  20.789  24.719  1.00  0.00     0.330 C 
ATOM      4  O   UNL A   1      46.791  20.048  24.913  1.00  0.00    -0.247 OA
BRANCH   3   5
ATOM      5  C   UNL A   1      45.952  22.256  24.889  1.00  0.00     0.089 C 
ATOM      6  C   UNL A   1      46.027  22.901  26.064  1.00  0.00    -0.019 C 
BRANCH   6   7
ATOM      7  C   UNL A   1      46.086  24.401  26.165  1.00  0.00     0.027 C 
BRANCH   7   8
ATOM      8  C   UNL A   1      45.297  24.963  27.355  1.00  0.00     0.004 C 
BRANCH   8   9
ATOM      9  C   UNL A   1      44.640  23.916  28.266  1.00  0.00     0.001 C 
BRANCH   9  10
ATOM     10  C   UNL A   1      44.692  24.206  29.771  1.00  0.00     0.008 C 
BRANCH  10  11
ATOM     11  C   UNL A   1      44.942  25.660  30.162  1.00  0.00     0.075 C 
BRANCH  11  12
ATOM     12  C   UNL A   1      46.281  25.877  30.838  1.00  0.00     0.129 C 
ATOM     13  C   UNL A   1      46.286  26.306  32.281  1.00  0.00     0.087 C 
ATOM     14  O   UNL A   1      47.335  25.667  30.239  1.00  0.00    -0.300 OA
ENDBRANCH  11  12
ENDBRANCH  10  11
ENDBRANCH   9  10
ENDBRANCH   8   9
ENDBRANCH   7   8
ENDBRANCH   6   7
ENDBRANCH   3   5
ENDBRANCH   2   3
ENDBRANCH   1   2
BRANCH   1  15
ATOM     15  C   UNL A   1      43.246  19.084  25.704  1.00  0.00     0.202 C 
BRANCH  15  16
ATOM     16  O   UNL A   1      42.148  19.994  25.607  1.00  0.00    -0.374 OA
BRANCH  16  17
ATOM     17  C   UNL A   1      42.146  21.083  26.533  1.00  0.00     0.202 C 
BRANCH  17  18
ATOM     18  C   UNL A   1      41.274  22.275  26.126  1.00  0.00     0.261 C 
BRANCH  18  19
ATOM     19  O   UNL A   1      41.383  23.351  27.077  1.00  0.00    -0.460 OA
BRANCH  19  20
ATOM     20  C   UNL A   1      41.680  24.558  26.544  1.00  0.00     0.338 C 
ATOM     21  O   UNL A   1      42.101  24.790  25.419  1.00  0.00    -0.246 OA
BRANCH  20  22
ATOM     22  C   UNL A   1      41.268  25.631  27.469  1.00  0.00     0.060 A 
ATOM     23  C   UNL A   1      42.068  26.780  27.519  1.00  0.00     0.016 A 
ATOM     24  C   UNL A   1      40.161  25.500  28.311  1.00  0.00     0.016 A 
ATOM     25  C   UNL A   1      41.794  27.781  28.449  1.00  0.00     0.010 A 
ATOM     26  C   UNL A   1      39.891  26.503  29.249  1.00  0.00     0.010 A 
ATOM     27  C   UNL A   1      40.725  27.631  29.344  1.00  0.00    -0.014 A 
BRANCH  27  28
ATOM     28  C   UNL A   1      40.570  28.590  30.465  1.00  0.00     0.031 A 
ATOM     29  C   UNL A   1      39.535  29.677  30.361  1.00  0.00     0.074 A 
ATOM     30  C   UNL A   1      41.321  28.478  31.575  1.00  0.00     0.049 A 
ATOM     31  N   UNL A   1      39.254  30.638  31.202  1.00  0.00    -0.248 NA
ATOM     32  C   UNL A   1      38.709  29.679  29.144  1.00  0.00     0.031 C 
ATOM     33  C   UNL A   1      42.331  27.449  31.811  1.00  0.00     0.029 A 
ATOM     34  N   UNL A   1      41.350  29.248  32.711  1.00  0.00    -0.354 N 
ATOM     35  C   UNL A   1      38.220  31.360  30.619  1.00  0.00     0.074 A 
ATOM     36  C   UNL A   1      37.947  30.745  29.336  1.00  0.00     0.031 C 
ATOM     37  C   UNL A   1      42.895  27.662  33.014  1.00  0.00     0.029 A 
ATOM     38  C   UNL A   1      42.304  28.855  33.616  1.00  0.00     0.049 A 
ATOM     39  H   UNL A   1      40.745  30.011  32.861  1.00  0.00     0.167 HD
ATOM     40  C   UNL A   1      37.549  32.427  31.111  1.00  0.00     0.037 A 
ATOM     41  C   UNL A   1      42.672  29.409  34.787  1.00  0.00     0.037 A 
ATOM     42  C   UNL A   1      37.823  33.041  32.384  1.00  0.00     0.049 A 
ATOM     43  C   UNL A   1      41.959  30.639  35.282  1.00  0.00     0.074 A 
ATOM     44  C   UNL A   1      37.193  34.125  32.972  1.00  0.00     0.029 A 
ATOM     45  N   UNL A   1      38.811  32.627  33.262  1.00  0.00    -0.354 N 
ATOM     46  N   UNL A   1      40.968  31.300  34.732  1.00  0.00    -0.248 NA
ATOM     47  C   UNL A   1      42.412  31.199  36.564  1.00  0.00     0.031 C 
ATOM     48  C   UNL A   1      37.830  34.392  34.189  1.00  0.00     0.029 A 
ATOM     49  C   UNL A   1      38.823  33.445  34.380  1.00  0.00     0.049 A 
ATOM     50  H   UNL A   1      39.415  31.865  33.115  1.00  0.00     0.167 HD
ATOM     51  C   UNL A   1      40.664  32.333  35.610  1.00  0.00     0.074 A 
ATOM     52  C   UNL A   1      41.566  32.205  36.736  1.00  0.00     0.031 C 
ATOM     53  C   UNL A   1      39.722  33.301  35.495  1.00  0.00     0.037 A 
BRANCH  40  54
ATOM     54  C   UNL A   1      36.461  33.010  30.258  1.00  0.00     0.057 A 
ATOM     55  C   UNL A   1      36.745  33.824  29.154  1.00  0.00     0.134 A 
ATOM     56  C   UNL A   1      35.115  32.730  30.526  1.00  0.00     0.134 A 
ATOM     57  F   UNL A   1      38.014  34.143  28.853  1.00  0.00    -0.206 F 
ATOM     58  C   UNL A   1      35.729  34.357  28.360  1.00  0.00     0.040 A 
ATOM     59  C   UNL A   1      34.092  33.237  29.724  1.00  0.00     0.040 A 
ATOM     60  F   UNL A   1      34.775  31.954  31.565  1.00  0.00    -0.206 F 
ATOM     61  C   UNL A   1      34.397  34.058  28.639  1.00  0.00     0.006 A 
ENDBRANCH  40  54
BRANCH  41  62
ATOM     62  C   UNL A   1      43.786  28.819  35.571  1.00  0.00     0.057 A 
ATOM     63  C   UNL A   1      45.115  29.193  35.342  1.00  0.00     0.134 A 
ATOM     64  C   UNL A   1      43.549  27.847  36.550  1.00  0.00     0.134 A 
ATOM     65  F   UNL A   1      45.408  30.102  34.401  1.00  0.00    -0.206 F 
ATOM     66  C   UNL A   1      46.170  28.608  36.046  1.00  0.00     0.040 A 
ATOM     67  C   UNL A   1      44.591  27.271  37.278  1.00  0.00     0.040 A 
ATOM     68  F   UNL A   1      42.297  27.446  36.816  1.00  0.00    -0.206 F 
ATOM     69  C   UNL A   1      45.908  27.647  37.020  1.00  0.00     0.006 A 
ENDBRANCH  41  62
BRANCH  53  70
ATOM     70  C   UNL A   1      39.593  34.274  36.630  1.00  0.00     0.057 A 
ATOM     71  C   UNL A   1      40.174  35.547  36.582  1.00  0.00     0.134 A 
ATOM     72  C   UNL A   1      38.843  33.948  37.768  1.00  0.00     0.134 A 
ATOM     73  F   UNL A   1      40.914  35.917  35.526  1.00  0.00    -0.206 F 
ATOM     74  C   UNL A   1      40.033  36.454  37.635  1.00  0.00     0.040 A 
ATOM     75  C   UNL A   1      38.673  34.855  38.815  1.00  0.00     0.040 A 
ATOM     76  F   UNL A   1      38.252  32.749  37.873  1.00  0.00    -0.206 F 
ATOM     77  C   UNL A   1      39.274  36.110  38.752  1.00  0.00     0.006 A 
ENDBRANCH  53  70
ENDBRANCH  27  28
ENDBRANCH  20  22
ENDBRANCH  19  20
ENDBRANCH  18  19
ENDBRANCH  17  18
ENDBRANCH  16  17
ENDBRANCH  15  16
ENDBRANCH   1  15
TORSDOF 20
ENDMDL
