MODEL 1
REMARK VINA RESULT:     -11.2      0.000      0.000
REMARK SMILES COc1ccc(Cn2c(SCCC(=O)OCCOCCOC(=O)c3ccc(-c4c5nc(c(-c6c(F)cccc6F)c6ccc([nH]6)c(-c6c(F)cccc6F)c6nc(c(-c7c(F)cccc7F)c7ccc4[nH]7)C=C6)C=C5)cc3)nc3ccc(Cl)cc3c2=O)cc1
REMARK SMILES IDX 16 1 15 2 13 3 14 4 12 5 11 6 10 7 9 8 8 9 86 10 78 11 85 12
REMARK SMILES IDX 87 13 79 14 84 15 80 16 82 17 81 18 83 19 7 20 6 21 3 22
REMARK SMILES IDX 4 23 89 24 5 25 88 26 2 27 1 28 17 29 18 30 19 31 20 32
REMARK SMILES IDX 21 33 22 34 23 35 24 36 25 37 77 38 26 39 76 40 27 41 28 42
REMARK SMILES IDX 29 43 70 44 30 45 75 46 69 47 71 48 31 49 74 50 68 51 67 52
REMARK SMILES IDX 32 54 58 55 41 56 57 57 42 58 45 59 56 60 72 61 43 62 44 63
REMARK SMILES IDX 55 65 73 66 46 67 33 68 34 69 39 70 35 71 36 72 38 73 40 74
REMARK SMILES IDX 37 75 59 76 60 77 65 78 61 79 62 80 64 81 66 82 63 83 47 84
REMARK SMILES IDX 48 85 53 86 49 87 50 88 52 89 54 90 51 91
REMARK H PARENT 71 53 45 64
REMARK Flexibility Score: inf
ROOT
ATOM      1  C   UNL A   1      41.335  21.721  27.226  1.00  0.00     0.261 C 
ENDROOT
BRANCH   1   2
ATOM      2  O   UNL A   1      39.981  21.577  26.742  1.00  0.00    -0.463 OA
BRANCH   2   3
ATOM      3  C   UNL A   1      39.275  22.718  26.558  1.00  0.00     0.306 C 
ATOM      4  O   UNL A   1      39.588  23.808  27.022  1.00  0.00    -0.252 OA
BRANCH   3   5
ATOM      5  C   UNL A   1      37.980  22.541  25.787  1.00  0.00     0.134 C 
BRANCH   5   6
ATOM      6  C   UNL A   1      36.818  23.507  25.949  1.00  0.00     0.090 C 
BRANCH   6   7
ATOM      7  S   UNL A   1      35.358  23.028  25.074  1.00  0.00    -0.087 SA
BRANCH   7   8
ATOM      8  C   UNL A   1      33.930  23.905  25.575  1.00  0.00     0.171 A 
ATOM      9  N   UNL A   1      32.600  23.514  25.417  1.00  0.00    -0.283 N 
ATOM     10  C   UNL A   1      31.629  24.524  25.387  1.00  0.00     0.262 A 
ATOM     11  N   UNL A   1      34.292  25.100  25.922  1.00  0.00    -0.224 NA
ATOM     12  C   UNL A   1      32.089  25.914  25.398  1.00  0.00     0.067 A 
ATOM     13  O   UNL A   1      30.413  24.358  25.443  1.00  0.00    -0.269 OA
ATOM     14  C   UNL A   1      33.378  26.138  25.844  1.00  0.00     0.079 A 
ATOM     15  C   UNL A   1      31.271  26.967  24.990  1.00  0.00     0.036 A 
ATOM     16  C   UNL A   1      33.843  27.446  25.971  1.00  0.00     0.031 A 
ATOM     17  C   UNL A   1      31.775  28.263  25.035  1.00  0.00     0.042 A 
ATOM     18  C   UNL A   1      33.045  28.513  25.554  1.00  0.00     0.023 A 
ATOM     19  Cl  UNL A   1      30.846  29.556  24.389  1.00  0.00    -0.084 Cl
BRANCH   9  20
ATOM     20  C   UNL A   1      32.089  22.213  25.868  1.00  0.00     0.163 C 
BRANCH  20  21
ATOM     21  C   UNL A   1      32.379  20.939  25.089  1.00  0.00    -0.028 A 
ATOM     22  C   UNL A   1      32.743  18.544  23.604  1.00  0.00     0.118 A 
ATOM     23  C   UNL A   1      32.291  19.702  22.980  1.00  0.00     0.047 A 
ATOM     24  C   UNL A   1      32.965  18.566  24.976  1.00  0.00     0.047 A 
ATOM     25  C   UNL A   1      32.096  20.874  23.715  1.00  0.00     0.009 A 
ATOM     26  C   UNL A   1      32.796  19.752  25.707  1.00  0.00     0.009 A 
BRANCH  22  27
ATOM     27  O   UNL A   1      32.911  17.468  22.779  1.00  0.00    -0.497 OA
ATOM     28  C   UNL A   1      34.139  16.760  22.898  1.00  0.00     0.278 C 
ENDBRANCH  22  27
ENDBRANCH  20  21
ENDBRANCH   9  20
ENDBRANCH   7   8
ENDBRANCH   6   7
ENDBRANCH   5   6
ENDBRANCH   3   5
ENDBRANCH   2   3
ENDBRANCH   1   2
BRANCH   1  29
ATOM     29  C   UNL A   1      42.335  20.963  26.355  1.00  0.00     0.202 C 
BRANCH  29  30
ATOM     30  O   UNL A   1      42.813  21.750  25.262  1.00  0.00    -0.374 OA
BRANCH  30  31
ATOM     31  C   UNL A   1      44.147  21.470  24.838  1.00  0.00     0.202 C 
BRANCH  31  32
ATOM     32  C   UNL A   1      44.953  22.733  24.499  1.00  0.00     0.261 C 
BRANCH  32  33
ATOM     33  O   UNL A   1      45.152  23.539  25.676  1.00  0.00    -0.460 OA
BRANCH  33  34
ATOM     34  C   UNL A   1      45.258  24.869  25.466  1.00  0.00     0.338 C 
ATOM     35  O   UNL A   1      45.912  25.437  24.601  1.00  0.00    -0.246 OA
BRANCH  34  36
ATOM     36  C   UNL A   1      44.322  25.574  26.358  1.00  0.00     0.060 A 
ATOM     37  C   UNL A   1      44.534  26.935  26.591  1.00  0.00     0.016 A 
ATOM     38  C   UNL A   1      43.296  24.899  27.020  1.00  0.00     0.016 A 
ATOM     39  C   UNL A   1      43.749  27.613  27.528  1.00  0.00     0.010 A 
ATOM     40  C   UNL A   1      42.491  25.591  27.935  1.00  0.00     0.010 A 
ATOM     41  C   UNL A   1      42.738  26.942  28.236  1.00  0.00    -0.014 A 
BRANCH  41  42
ATOM     42  C   UNL A   1      42.063  27.621  29.383  1.00  0.00     0.031 A 
ATOM     43  C   UNL A   1      42.669  27.533  30.764  1.00  0.00     0.074 A 
ATOM     44  C   UNL A   1      40.957  28.369  29.204  1.00  0.00     0.049 A 
ATOM     45  N   UNL A   1      42.301  28.129  31.874  1.00  0.00    -0.248 NA
ATOM     46  C   UNL A   1      43.838  26.654  30.921  1.00  0.00     0.031 C 
ATOM     47  C   UNL A   1      40.249  28.550  27.937  1.00  0.00     0.029 A 
ATOM     48  N   UNL A   1      40.241  29.133  30.096  1.00  0.00    -0.354 N 
ATOM     49  C   UNL A   1      43.195  27.700  32.849  1.00  0.00     0.074 A 
ATOM     50  C   UNL A   1      44.073  26.739  32.220  1.00  0.00     0.031 C 
ATOM     51  C   UNL A   1      39.213  29.386  28.129  1.00  0.00     0.029 A 
ATOM     52  C   UNL A   1      39.174  29.793  29.533  1.00  0.00     0.049 A 
ATOM     53  H   UNL A   1      40.472  29.202  31.050  1.00  0.00     0.167 HD
ATOM     54  C   UNL A   1      43.311  28.094  34.140  1.00  0.00     0.037 A 
ATOM     55  C   UNL A   1      38.276  30.638  30.079  1.00  0.00     0.037 A 
ATOM     56  C   UNL A   1      42.462  29.062  34.780  1.00  0.00     0.049 A 
ATOM     57  C   UNL A   1      38.394  31.027  31.532  1.00  0.00     0.074 A 
ATOM     58  C   UNL A   1      42.537  29.555  36.071  1.00  0.00     0.029 A 
ATOM     59  N   UNL A   1      41.380  29.681  34.177  1.00  0.00    -0.354 N 
ATOM     60  N   UNL A   1      39.298  30.677  32.414  1.00  0.00    -0.248 NA
ATOM     61  C   UNL A   1      37.371  31.946  32.059  1.00  0.00     0.031 C 
ATOM     62  C   UNL A   1      41.472  30.440  36.265  1.00  0.00     0.029 A 
ATOM     63  C   UNL A   1      40.764  30.535  35.078  1.00  0.00     0.049 A 
ATOM     64  H   UNL A   1      41.091  29.537  33.247  1.00  0.00     0.167 HD
ATOM     65  C   UNL A   1      38.977  31.362  33.582  1.00  0.00     0.074 A 
ATOM     66  C   UNL A   1      37.801  32.153  33.295  1.00  0.00     0.031 C 
ATOM     67  C   UNL A   1      39.605  31.337  34.783  1.00  0.00     0.037 A 
BRANCH  54  68
ATOM     68  C   UNL A   1      44.418  27.478  34.946  1.00  0.00     0.057 A 
ATOM     69  C   UNL A   1      44.218  26.310  35.697  1.00  0.00     0.134 A 
ATOM     70  C   UNL A   1      45.697  28.046  34.965  1.00  0.00     0.134 A 
ATOM     71  F   UNL A   1      43.012  25.722  35.730  1.00  0.00    -0.206 F 
ATOM     72  C   UNL A   1      45.240  25.752  36.465  1.00  0.00     0.040 A 
ATOM     73  C   UNL A   1      46.735  27.480  35.707  1.00  0.00     0.040 A 
ATOM     74  F   UNL A   1      45.960  29.158  34.261  1.00  0.00    -0.206 F 
ATOM     75  C   UNL A   1      46.505  26.336  36.468  1.00  0.00     0.006 A 
ENDBRANCH  54  68
BRANCH  55  76
ATOM     76  C   UNL A   1      37.183  31.208  29.248  1.00  0.00     0.057 A 
ATOM     77  C   UNL A   1      37.241  32.524  28.774  1.00  0.00     0.134 A 
ATOM     78  C   UNL A   1      36.032  30.467  28.954  1.00  0.00     0.134 A 
ATOM     79  F   UNL A   1      38.307  33.292  29.044  1.00  0.00    -0.206 F 
ATOM     80  C   UNL A   1      36.183  33.094  28.064  1.00  0.00     0.040 A 
ATOM     81  C   UNL A   1      34.976  31.017  28.224  1.00  0.00     0.040 A 
ATOM     82  F   UNL A   1      35.916  29.198  29.373  1.00  0.00    -0.206 F 
ATOM     83  C   UNL A   1      35.046  32.338  27.786  1.00  0.00     0.006 A 
ENDBRANCH  55  76
BRANCH  67  84
ATOM     84  C   UNL A   1      39.069  32.221  35.873  1.00  0.00     0.057 A 
ATOM     85  C   UNL A   1      38.186  31.744  36.849  1.00  0.00     0.134 A 
ATOM     86  C   UNL A   1      39.488  33.554  35.978  1.00  0.00     0.134 A 
ATOM     87  F   UNL A   1      37.736  30.482  36.801  1.00  0.00    -0.206 F 
ATOM     88  C   UNL A   1      37.726  32.566  37.880  1.00  0.00     0.040 A 
ATOM     89  C   UNL A   1      39.055  34.377  37.019  1.00  0.00     0.040 A 
ATOM     90  F   UNL A   1      40.341  34.074  35.082  1.00  0.00    -0.206 F 
ATOM     91  C   UNL A   1      38.167  33.884  37.973  1.00  0.00     0.006 A 
ENDBRANCH  67  84
ENDBRANCH  41  42
ENDBRANCH  34  36
ENDBRANCH  33  34
ENDBRANCH  32  33
ENDBRANCH  31  32
ENDBRANCH  30  31
ENDBRANCH  29  30
ENDBRANCH   1  29
TORSDOF 20
ENDMDL
MODEL 2
REMARK VINA RESULT:     -11.0      0.762      6.036
REMARK SMILES COc1ccc(Cn2c(SCCC(=O)OCCOCCOC(=O)c3ccc(-c4c5nc(c(-c6c(F)cccc6F)c6ccc([nH]6)c(-c6c(F)cccc6F)c6nc(c(-c7c(F)cccc7F)c7ccc4[nH]7)C=C6)C=C5)cc3)nc3ccc(Cl)cc3c2=O)cc1
REMARK SMILES IDX 16 1 15 2 13 3 14 4 12 5 11 6 10 7 9 8 8 9 86 10 78 11 85 12
REMARK SMILES IDX 87 13 79 14 84 15 80 16 82 17 81 18 83 19 7 20 6 21 3 22
REMARK SMILES IDX 4 23 89 24 5 25 88 26 2 27 1 28 17 29 18 30 19 31 20 32
REMARK SMILES IDX 21 33 22 34 23 35 24 36 25 37 77 38 26 39 76 40 27 41 28 42
REMARK SMILES IDX 29 43 70 44 30 45 75 46 69 47 71 48 31 49 74 50 68 51 67 52
REMARK SMILES IDX 32 54 58 55 41 56 57 57 42 58 45 59 56 60 72 61 43 62 44 63
REMARK SMILES IDX 55 65 73 66 46 67 33 68 34 69 39 70 35 71 36 72 38 73 40 74
REMARK SMILES IDX 37 75 59 76 60 77 65 78 61 79 62 80 64 81 66 82 63 83 47 84
REMARK SMILES IDX 48 85 53 86 49 87 50 88 52 89 54 90 51 91
REMARK H PARENT 71 53 45 64
REMARK Flexibility Score: inf
ROOT
ATOM      1  C   UNL A   1      40.630  21.616  27.378  1.00  0.00     0.261 C 
ENDROOT
BRANCH   1   2
ATOM      2  O   UNL A   1      40.148  22.195  26.145  1.00  0.00    -0.463 OA
BRANCH   2   3
ATOM      3  C   UNL A   1      38.827  22.053  25.880  1.00  0.00     0.306 C 
ATOM      4  O   UNL A   1      38.325  21.051  25.383  1.00  0.00    -0.252 OA
BRANCH   3   5
ATOM      5  C   UNL A   1      37.990  23.285  26.166  1.00  0.00     0.134 C 
BRANCH   5   6
ATOM      6  C   UNL A   1      36.792  23.652  25.306  1.00  0.00     0.090 C 
BRANCH   6   7
ATOM      7  S   UNL A   1      35.334  22.720  25.669  1.00  0.00    -0.087 SA
BRANCH   7   8
ATOM      8  C   UNL A   1      33.867  23.669  25.592  1.00  0.00     0.171 A 
ATOM      9  N   UNL A   1      32.643  23.288  25.042  1.00  0.00    -0.283 N 
ATOM     10  C   UNL A   1      31.786  24.307  24.602  1.00  0.00     0.262 A 
ATOM     11  N   UNL A   1      34.156  24.886  25.928  1.00  0.00    -0.224 NA
ATOM     12  C   UNL A   1      32.287  25.682  24.638  1.00  0.00     0.067 A 
ATOM     13  O   UNL A   1      30.612  24.169  24.271  1.00  0.00    -0.269 OA
ATOM     14  C   UNL A   1      33.371  25.927  25.460  1.00  0.00     0.079 A 
ATOM     15  C   UNL A   1      31.700  26.702  23.890  1.00  0.00     0.036 A 
ATOM     16  C   UNL A   1      33.835  27.233  25.613  1.00  0.00     0.031 A 
ATOM     17  C   UNL A   1      32.227  27.987  23.980  1.00  0.00     0.042 A 
ATOM     18  C   UNL A   1      33.271  28.266  24.862  1.00  0.00     0.023 A 
ATOM     19  Cl  UNL A   1      31.626  29.223  22.950  1.00  0.00    -0.084 Cl
BRANCH   9  20
ATOM     20  C   UNL A   1      31.947  22.050  25.416  1.00  0.00     0.163 C 
BRANCH  20  21
ATOM     21  C   UNL A   1      32.304  20.719  24.770  1.00  0.00    -0.028 A 
ATOM     22  C   UNL A   1      32.796  18.215  23.520  1.00  0.00     0.118 A 
ATOM     23  C   UNL A   1      32.386  19.311  22.770  1.00  0.00     0.047 A 
ATOM     24  C   UNL A   1      32.910  18.352  24.900  1.00  0.00     0.047 A 
ATOM     25  C   UNL A   1      32.129  20.538  23.388  1.00  0.00     0.009 A 
ATOM     26  C   UNL A   1      32.679  19.592  25.515  1.00  0.00     0.009 A 
BRANCH  22  27
ATOM     27  O   UNL A   1      33.033  17.076  22.803  1.00  0.00    -0.497 OA
ATOM     28  C   UNL A   1      34.309  16.471  22.973  1.00  0.00     0.278 C 
ENDBRANCH  22  27
ENDBRANCH  20  21
ENDBRANCH   9  20
ENDBRANCH   7   8
ENDBRANCH   6   7
ENDBRANCH   5   6
ENDBRANCH   3   5
ENDBRANCH   2   3
ENDBRANCH   1   2
BRANCH   1  29
ATOM     29  C   UNL A   1      41.498  20.383  27.128  1.00  0.00     0.202 C 
BRANCH  29  30
ATOM     30  O   UNL A   1      42.006  20.337  25.792  1.00  0.00    -0.374 OA
BRANCH  30  31
ATOM     31  C   UNL A   1      43.410  20.560  25.659  1.00  0.00     0.202 C 
BRANCH  31  32
ATOM     32  C   UNL A   1      43.751  21.929  25.053  1.00  0.00     0.261 C 
BRANCH  32  33
ATOM     33  O   UNL A   1      43.716  22.955  26.064  1.00  0.00    -0.460 OA
BRANCH  33  34
ATOM     34  C   UNL A   1      43.932  24.215  25.629  1.00  0.00     0.338 C 
ATOM     35  O   UNL A   1      44.466  24.561  24.583  1.00  0.00    -0.246 OA
BRANCH  34  36
ATOM     36  C   UNL A   1      43.279  25.161  26.549  1.00  0.00     0.060 A 
ATOM     37  C   UNL A   1      43.758  26.473  26.594  1.00  0.00     0.016 A 
ATOM     38  C   UNL A   1      42.261  24.755  27.412  1.00  0.00     0.016 A 
ATOM     39  C   UNL A   1      43.252  27.368  27.541  1.00  0.00     0.010 A 
ATOM     40  C   UNL A   1      41.735  25.666  28.339  1.00  0.00     0.010 A 
ATOM     41  C   UNL A   1      42.258  26.967  28.448  1.00  0.00    -0.014 A 
BRANCH  41  42
ATOM     42  C   UNL A   1      41.891  27.861  29.587  1.00  0.00     0.031 A 
ATOM     43  C   UNL A   1      40.676  28.752  29.475  1.00  0.00     0.074 A 
ATOM     44  C   UNL A   1      42.582  27.845  30.743  1.00  0.00     0.049 A 
ATOM     45  N   UNL A   1      40.125  29.526  30.381  1.00  0.00    -0.248 NA
ATOM     46  C   UNL A   1      39.993  28.782  28.173  1.00  0.00     0.031 C 
ATOM     47  C   UNL A   1      43.779  27.047  31.007  1.00  0.00     0.029 A 
ATOM     48  N   UNL A   1      42.363  28.516  31.924  1.00  0.00    -0.354 N 
ATOM     49  C   UNL A   1      39.037  30.124  29.756  1.00  0.00     0.074 A 
ATOM     50  C   UNL A   1      39.046  29.683  28.379  1.00  0.00     0.031 C 
ATOM     51  C   UNL A   1      44.176  27.259  32.274  1.00  0.00     0.029 A 
ATOM     52  C   UNL A   1      43.273  28.216  32.911  1.00  0.00     0.049 A 
ATOM     53  H   UNL A   1      41.623  29.151  32.052  1.00  0.00     0.167 HD
ATOM     54  C   UNL A   1      38.084  30.932  30.281  1.00  0.00     0.037 A 
ATOM     55  C   UNL A   1      43.363  28.650  34.185  1.00  0.00     0.037 A 
ATOM     56  C   UNL A   1      38.042  31.367  31.651  1.00  0.00     0.049 A 
ATOM     57  C   UNL A   1      42.318  29.589  34.736  1.00  0.00     0.074 A 
ATOM     58  C   UNL A   1      37.089  32.149  32.279  1.00  0.00     0.029 A 
ATOM     59  N   UNL A   1      38.999  31.059  32.603  1.00  0.00    -0.354 N 
ATOM     60  N   UNL A   1      41.248  30.074  34.154  1.00  0.00    -0.248 NA
ATOM     61  C   UNL A   1      42.488  30.026  36.132  1.00  0.00     0.031 C 
ATOM     62  C   UNL A   1      37.492  32.353  33.602  1.00  0.00     0.029 A 
ATOM     63  C   UNL A   1      38.671  31.656  33.810  1.00  0.00     0.049 A 
ATOM     64  H   UNL A   1      39.794  30.501  32.447  1.00  0.00     0.167 HD
ATOM     65  C   UNL A   1      40.600  30.837  35.121  1.00  0.00     0.074 A 
ATOM     66  C   UNL A   1      41.391  30.744  36.328  1.00  0.00     0.031 C 
ATOM     67  C   UNL A   1      39.450  31.546  35.016  1.00  0.00     0.037 A 
BRANCH  54  68
ATOM     68  C   UNL A   1      36.991  31.390  29.358  1.00  0.00     0.057 A 
ATOM     69  C   UNL A   1      36.977  32.686  28.822  1.00  0.00     0.134 A 
ATOM     70  C   UNL A   1      35.952  30.528  28.990  1.00  0.00     0.134 A 
ATOM     71  F   UNL A   1      37.939  33.565  29.144  1.00  0.00    -0.206 F 
ATOM     72  C   UNL A   1      35.948  33.119  27.985  1.00  0.00     0.040 A 
ATOM     73  C   UNL A   1      34.933  30.941  28.130  1.00  0.00     0.040 A 
ATOM     74  F   UNL A   1      35.910  29.271  29.458  1.00  0.00    -0.206 F 
ATOM     75  C   UNL A   1      34.924  32.243  27.633  1.00  0.00     0.006 A 
ENDBRANCH  54  68
BRANCH  55  76
ATOM     76  C   UNL A   1      44.474  28.188  35.057  1.00  0.00     0.057 A 
ATOM     77  C   UNL A   1      44.309  27.106  35.932  1.00  0.00     0.134 A 
ATOM     78  C   UNL A   1      45.708  28.848  35.074  1.00  0.00     0.134 A 
ATOM     79  F   UNL A   1      43.142  26.448  35.979  1.00  0.00    -0.206 F 
ATOM     80  C   UNL A   1      45.320  26.718  36.813  1.00  0.00     0.040 A 
ATOM     81  C   UNL A   1      46.735  28.454  35.934  1.00  0.00     0.040 A 
ATOM     82  F   UNL A   1      45.932  29.887  34.256  1.00  0.00    -0.206 F 
ATOM     83  C   UNL A   1      46.538  27.392  36.814  1.00  0.00     0.006 A 
ENDBRANCH  55  76
BRANCH  67  84
ATOM     84  C   UNL A   1      38.944  32.247  36.244  1.00  0.00     0.057 A 
ATOM     85  C   UNL A   1      39.238  33.591  36.507  1.00  0.00     0.134 A 
ATOM     86  C   UNL A   1      38.104  31.582  37.147  1.00  0.00     0.134 A 
ATOM     87  F   UNL A   1      40.046  34.282  35.690  1.00  0.00    -0.206 F 
ATOM     88  C   UNL A   1      38.729  34.243  37.632  1.00  0.00     0.040 A 
ATOM     89  C   UNL A   1      37.567  32.231  38.261  1.00  0.00     0.040 A 
ATOM     90  F   UNL A   1      37.773  30.297  36.951  1.00  0.00    -0.206 F 
ATOM     91  C   UNL A   1      37.884  33.565  38.509  1.00  0.00     0.006 A 
ENDBRANCH  67  84
ENDBRANCH  41  42
ENDBRANCH  34  36
ENDBRANCH  33  34
ENDBRANCH  32  33
ENDBRANCH  31  32
ENDBRANCH  30  31
ENDBRANCH  29  30
ENDBRANCH   1  29
TORSDOF 20
ENDMDL
MODEL 3
REMARK VINA RESULT:     -10.9      2.745      7.949
REMARK SMILES COc1ccc(Cn2c(SCCC(=O)OCCOCCOC(=O)c3ccc(-c4c5nc(c(-c6c(F)cccc6F)c6ccc([nH]6)c(-c6c(F)cccc6F)c6nc(c(-c7c(F)cccc7F)c7ccc4[nH]7)C=C6)C=C5)cc3)nc3ccc(Cl)cc3c2=O)cc1
REMARK SMILES IDX 16 1 15 2 13 3 14 4 12 5 11 6 10 7 9 8 8 9 86 10 78 11 85 12
REMARK SMILES IDX 87 13 79 14 84 15 80 16 82 17 81 18 83 19 7 20 6 21 3 22
REMARK SMILES IDX 4 23 89 24 5 25 88 26 2 27 1 28 17 29 18 30 19 31 20 32
REMARK SMILES IDX 21 33 22 34 23 35 24 36 25 37 77 38 26 39 76 40 27 41 28 42
REMARK SMILES IDX 29 43 70 44 30 45 75 46 69 47 71 48 31 49 74 50 68 51 67 52
REMARK SMILES IDX 32 54 58 55 41 56 57 57 42 58 45 59 56 60 72 61 43 62 44 63
REMARK SMILES IDX 55 65 73 66 46 67 33 68 34 69 39 70 35 71 36 72 38 73 40 74
REMARK SMILES IDX 37 75 59 76 60 77 65 78 61 79 62 80 64 81 66 82 63 83 47 84
REMARK SMILES IDX 48 85 53 86 49 87 50 88 52 89 54 90 51 91
REMARK H PARENT 71 53 45 64
REMARK Flexibility Score: inf
ROOT
ATOM      1  C   UNL A   1      33.505  28.385  26.703  1.00  0.00     0.261 C 
ENDROOT
BRANCH   1   2
ATOM      2  O   UNL A   1      32.287  27.908  26.088  1.00  0.00    -0.463 OA
BRANCH   2   3
ATOM      3  C   UNL A   1      31.820  26.709  26.511  1.00  0.00     0.306 C 
ATOM      4  O   UNL A   1      30.701  26.528  26.979  1.00  0.00    -0.252 OA
BRANCH   3   5
ATOM      5  C   UNL A   1      32.830  25.579  26.447  1.00  0.00     0.134 C 
BRANCH   5   6
ATOM      6  C   UNL A   1      32.458  24.155  26.826  1.00  0.00     0.090 C 
BRANCH   6   7
ATOM      7  S   UNL A   1      31.345  23.377  25.694  1.00  0.00    -0.087 SA
BRANCH   7   8
ATOM      8  C   UNL A   1      31.173  24.242  24.184  1.00  0.00     0.171 A 
ATOM      9  N   UNL A   1      32.154  24.450  23.214  1.00  0.00    -0.283 N 
ATOM     10  C   UNL A   1      32.006  25.561  22.372  1.00  0.00     0.262 A 
ATOM     11  N   UNL A   1      30.038  24.867  24.204  1.00  0.00    -0.224 NA
ATOM     12  C   UNL A   1      30.907  26.487  22.652  1.00  0.00     0.067 A 
ATOM     13  O   UNL A   1      32.659  25.790  21.358  1.00  0.00    -0.269 OA
ATOM     14  C   UNL A   1      29.874  26.007  23.436  1.00  0.00     0.079 A 
ATOM     15  C   UNL A   1      30.890  27.788  22.150  1.00  0.00     0.036 A 
ATOM     16  C   UNL A   1      28.753  26.806  23.658  1.00  0.00     0.031 A 
ATOM     17  C   UNL A   1      29.808  28.609  22.452  1.00  0.00     0.042 A 
ATOM     18  C   UNL A   1      28.723  28.115  23.177  1.00  0.00     0.023 A 
ATOM     19  Cl  UNL A   1      29.841  30.260  21.981  1.00  0.00    -0.084 Cl
BRANCH   9  20
ATOM     20  C   UNL A   1      32.937  23.358  22.621  1.00  0.00     0.163 C 
BRANCH  20  21
ATOM     21  C   UNL A   1      34.207  22.847  23.287  1.00  0.00    -0.028 A 
ATOM     22  C   UNL A   1      36.621  21.815  24.372  1.00  0.00     0.118 A 
ATOM     23  C   UNL A   1      36.651  22.778  23.370  1.00  0.00     0.047 A 
ATOM     24  C   UNL A   1      35.389  21.329  24.798  1.00  0.00     0.047 A 
ATOM     25  C   UNL A   1      35.464  23.273  22.825  1.00  0.00     0.009 A 
ATOM     26  C   UNL A   1      34.197  21.848  24.269  1.00  0.00     0.009 A 
BRANCH  22  27
ATOM     27  O   UNL A   1      37.845  21.421  24.837  1.00  0.00    -0.497 OA
ATOM     28  C   UNL A   1      38.375  22.156  25.933  1.00  0.00     0.278 C 
ENDBRANCH  22  27
ENDBRANCH  20  21
ENDBRANCH   9  20
ENDBRANCH   7   8
ENDBRANCH   6   7
ENDBRANCH   5   6
ENDBRANCH   3   5
ENDBRANCH   2   3
ENDBRANCH   1   2
BRANCH   1  29
ATOM     29  C   UNL A   1      33.586  29.911  26.697  1.00  0.00     0.202 C 
BRANCH  29  30
ATOM     30  O   UNL A   1      32.428  30.515  26.117  1.00  0.00    -0.374 OA
BRANCH  30  31
ATOM     31  C   UNL A   1      31.774  31.494  26.925  1.00  0.00     0.202 C 
BRANCH  31  32
ATOM     32  C   UNL A   1      32.416  32.886  26.829  1.00  0.00     0.261 C 
BRANCH  32  33
ATOM     33  O   UNL A   1      32.105  33.671  27.997  1.00  0.00    -0.460 OA
BRANCH  33  34
ATOM     34  C   UNL A   1      33.097  34.466  28.450  1.00  0.00     0.338 C 
ATOM     35  O   UNL A   1      33.032  35.658  28.722  1.00  0.00    -0.246 OA
BRANCH  34  36
ATOM     36  C   UNL A   1      34.285  33.642  28.731  1.00  0.00     0.060 A 
ATOM     37  C   UNL A   1      34.162  32.602  29.656  1.00  0.00     0.016 A 
ATOM     38  C   UNL A   1      35.523  33.928  28.156  1.00  0.00     0.016 A 
ATOM     39  C   UNL A   1      35.292  31.878  30.046  1.00  0.00     0.010 A 
ATOM     40  C   UNL A   1      36.648  33.177  28.527  1.00  0.00     0.010 A 
ATOM     41  C   UNL A   1      36.555  32.177  29.511  1.00  0.00    -0.014 A 
BRANCH  41  42
ATOM     42  C   UNL A   1      37.775  31.547  30.099  1.00  0.00     0.031 A 
ATOM     43  C   UNL A   1      38.174  31.874  31.519  1.00  0.00     0.074 A 
ATOM     44  C   UNL A   1      38.496  30.639  29.413  1.00  0.00     0.049 A 
ATOM     45  N   UNL A   1      39.134  31.363  32.252  1.00  0.00    -0.248 NA
ATOM     46  C   UNL A   1      37.394  32.917  32.203  1.00  0.00     0.031 C 
ATOM     47  C   UNL A   1      38.247  30.220  28.034  1.00  0.00     0.029 A 
ATOM     48  N   UNL A   1      39.586  29.890  29.794  1.00  0.00    -0.354 N 
ATOM     49  C   UNL A   1      39.066  32.019  33.476  1.00  0.00     0.074 A 
ATOM     50  C   UNL A   1      38.023  33.013  33.363  1.00  0.00     0.031 C 
ATOM     51  C   UNL A   1      39.143  29.277  27.693  1.00  0.00     0.029 A 
ATOM     52  C   UNL A   1      40.039  29.031  28.822  1.00  0.00     0.049 A 
ATOM     53  H   UNL A   1      40.003  29.963  30.683  1.00  0.00     0.167 HD
ATOM     54  C   UNL A   1      39.772  31.793  34.611  1.00  0.00     0.037 A 
ATOM     55  C   UNL A   1      41.050  28.138  28.838  1.00  0.00     0.037 A 
ATOM     56  C   UNL A   1      40.799  30.798  34.752  1.00  0.00     0.049 A 
ATOM     57  C   UNL A   1      41.856  27.937  30.098  1.00  0.00     0.074 A 
ATOM     58  C   UNL A   1      41.533  30.470  35.879  1.00  0.00     0.029 A 
ATOM     59  N   UNL A   1      41.240  29.971  33.732  1.00  0.00    -0.354 N 
ATOM     60  N   UNL A   1      41.719  28.506  31.271  1.00  0.00    -0.248 NA
ATOM     61  C   UNL A   1      42.949  26.952  30.037  1.00  0.00     0.031 C 
ATOM     62  C   UNL A   1      42.451  29.475  35.530  1.00  0.00     0.029 A 
ATOM     63  C   UNL A   1      42.254  29.149  34.198  1.00  0.00     0.049 A 
ATOM     64  H   UNL A   1      40.887  29.968  32.814  1.00  0.00     0.167 HD
ATOM     65  C   UNL A   1      42.677  27.921  32.094  1.00  0.00     0.074 A 
ATOM     66  C   UNL A   1      43.382  26.948  31.290  1.00  0.00     0.031 C 
ATOM     67  C   UNL A   1      42.942  28.168  33.400  1.00  0.00     0.037 A 
BRANCH  54  68
ATOM     68  C   UNL A   1      39.439  32.643  35.804  1.00  0.00     0.057 A 
ATOM     69  C   UNL A   1      38.501  32.230  36.762  1.00  0.00     0.134 A 
ATOM     70  C   UNL A   1      40.066  33.878  36.005  1.00  0.00     0.134 A 
ATOM     71  F   UNL A   1      37.857  31.061  36.621  1.00  0.00    -0.206 F 
ATOM     72  C   UNL A   1      38.174  33.031  37.856  1.00  0.00     0.040 A 
ATOM     73  C   UNL A   1      39.767  34.675  37.111  1.00  0.00     0.040 A 
ATOM     74  F   UNL A   1      40.980  34.329  35.133  1.00  0.00    -0.206 F 
ATOM     75  C   UNL A   1      38.811  34.257  38.034  1.00  0.00     0.006 A 
ENDBRANCH  54  68
BRANCH  55  76
ATOM     76  C   UNL A   1      41.359  27.334  27.628  1.00  0.00     0.057 A 
ATOM     77  C   UNL A   1      40.866  26.032  27.475  1.00  0.00     0.134 A 
ATOM     78  C   UNL A   1      42.196  27.827  26.620  1.00  0.00     0.134 A 
ATOM     79  F   UNL A   1      40.078  25.494  28.418  1.00  0.00    -0.206 F 
ATOM     80  C   UNL A   1      41.218  25.239  26.381  1.00  0.00     0.040 A 
ATOM     81  C   UNL A   1      42.537  27.054  25.509  1.00  0.00     0.040 A 
ATOM     82  F   UNL A   1      42.697  29.069  26.703  1.00  0.00    -0.206 F 
ATOM     83  C   UNL A   1      42.055  25.751  25.393  1.00  0.00     0.006 A 
ENDBRANCH  55  76
BRANCH  67  84
ATOM     84  C   UNL A   1      44.011  27.348  34.065  1.00  0.00     0.057 A 
ATOM     85  C   UNL A   1      43.736  26.108  34.656  1.00  0.00     0.134 A 
ATOM     86  C   UNL A   1      45.343  27.780  34.064  1.00  0.00     0.134 A 
ATOM     87  F   UNL A   1      42.479  25.641  34.701  1.00  0.00    -0.206 F 
ATOM     88  C   UNL A   1      44.745  25.337  35.236  1.00  0.00     0.040 A 
ATOM     89  C   UNL A   1      46.364  27.006  34.618  1.00  0.00     0.040 A 
ATOM     90  F   UNL A   1      45.680  28.954  33.507  1.00  0.00    -0.206 F 
ATOM     91  C   UNL A   1      46.065  25.781  35.211  1.00  0.00     0.006 A 
ENDBRANCH  67  84
ENDBRANCH  41  42
ENDBRANCH  34  36
ENDBRANCH  33  34
ENDBRANCH  32  33
ENDBRANCH  31  32
ENDBRANCH  30  31
ENDBRANCH  29  30
ENDBRANCH   1  29
TORSDOF 20
ENDMDL
