MODEL 1
REMARK VINA RESULT:     -12.0      0.000      0.000
REMARK SMILES O=C(Cn1nc(-c2ccc(Br)cc2)ccc1=O)N[C@H](C(=O)OCCOCCOC(=O)c1ccc(-c2c3nc(c(-c4c(F)cccc4F)c4ccc([nH]4)c(-c4c(F)cccc4F)c4nc(c(-c5c(F)cccc5F)c5ccc2[nH]5)C=C4)C=C3)cc1)c1ccccc1
REMARK SMILES IDX 24 1 23 2 22 3 20 4 21 5 19 6 18 7 1 8 2 9 3 11 4 12 5 13
REMARK SMILES IDX 16 14 6 15 15 16 17 17 14 18 7 19 8 20 13 21 9 22 12 23
REMARK SMILES IDX 10 24 11 25 85 26 86 27 90 28 87 29 89 30 88 31 25 32 26 33
REMARK SMILES IDX 27 34 28 35 29 36 30 37 31 38 32 39 84 40 33 41 83 42 34 43
REMARK SMILES IDX 35 44 36 45 77 46 37 47 82 48 76 49 78 50 38 51 81 52 75 53
REMARK SMILES IDX 74 54 39 56 65 57 48 58 64 59 49 60 52 61 63 62 79 63 50 64
REMARK SMILES IDX 51 65 62 67 80 68 53 69 40 70 41 71 46 72 42 73 43 74 45 75
REMARK SMILES IDX 47 76 44 77 66 78 67 79 72 80 68 81 69 82 71 83 73 84 70 85
REMARK SMILES IDX 54 86 55 87 60 88 56 89 57 90 59 91 61 92 58 93
REMARK H PARENT 18 10 78 55 52 66
REMARK Flexibility Score: inf
ROOT
ATOM      1  C   UNL A   1      32.166  30.205  26.950  1.00  0.00     0.202 C 
ENDROOT
BRANCH   1   2
ATOM      2  C   UNL A   1      32.329  28.839  26.302  1.00  0.00     0.261 C 
BRANCH   2   3
ATOM      3  O   UNL A   1      31.701  28.819  25.016  1.00  0.00    -0.461 OA
BRANCH   3   4
ATOM      4  C   UNL A   1      32.541  28.798  23.936  1.00  0.00     0.333 C 
ATOM      5  O   UNL A   1      33.650  29.323  23.911  1.00  0.00    -0.249 OA
BRANCH   4   6
ATOM      6  C   UNL A   1      31.811  28.260  22.689  1.00  0.00     0.223 C 
BRANCH   6   7
ATOM      7  N   UNL A   1      31.939  26.796  22.619  1.00  0.00    -0.337 N 
ATOM      8  O   UNL A   1      33.713  26.714  21.232  1.00  0.00    -0.273 OA
ATOM      9  C   UNL A   1      32.906  26.109  21.945  1.00  0.00     0.242 C 
ATOM     10  H   UNL A   1      31.266  26.265  23.102  1.00  0.00     0.164 HD
BRANCH   9  11
ATOM     11  C   UNL A   1      32.846  24.543  21.915  1.00  0.00     0.248 C 
BRANCH  11  12
ATOM     12  N   UNL A   1      33.132  23.575  23.004  1.00  0.00    -0.220 N 
ATOM     13  N   UNL A   1      34.490  23.537  23.421  1.00  0.00    -0.169 NA
ATOM     14  C   UNL A   1      32.219  22.622  23.418  1.00  0.00     0.267 A 
ATOM     15  C   UNL A   1      34.862  22.583  24.229  1.00  0.00     0.091 A 
ATOM     16  C   UNL A   1      32.693  21.567  24.311  1.00  0.00     0.075 A 
ATOM     17  O   UNL A   1      31.029  22.575  23.129  1.00  0.00    -0.268 OA
ATOM     18  C   UNL A   1      33.951  21.534  24.728  1.00  0.00     0.036 A 
BRANCH  15  19
ATOM     19  C   UNL A   1      36.259  22.488  24.777  1.00  0.00     0.002 A 
ATOM     20  C   UNL A   1      36.846  23.563  25.455  1.00  0.00     0.011 A 
ATOM     21  C   UNL A   1      36.962  21.274  24.705  1.00  0.00     0.011 A 
ATOM     22  C   UNL A   1      38.062  23.398  26.131  1.00  0.00     0.016 A 
ATOM     23  C   UNL A   1      38.185  21.114  25.357  1.00  0.00     0.016 A 
ATOM     24  C   UNL A   1      38.725  22.174  26.074  1.00  0.00     0.018 A 
ATOM     25  Br  UNL A   1      40.397  21.957  26.916  1.00  0.00    -0.051 Br
ENDBRANCH  15  19
ENDBRANCH  11  12
ENDBRANCH   9  11
ENDBRANCH   6   7
BRANCH   6  26
ATOM     26  C   UNL A   1      30.321  28.645  22.757  1.00  0.00    -0.014 A 
ATOM     27  C   UNL A   1      29.339  27.765  23.260  1.00  0.00     0.006 A 
ATOM     28  C   UNL A   1      29.885  29.882  22.254  1.00  0.00     0.006 A 
ATOM     29  C   UNL A   1      27.980  28.070  23.195  1.00  0.00     0.000 A 
ATOM     30  C   UNL A   1      28.522  30.189  22.191  1.00  0.00     0.000 A 
ATOM     31  C   UNL A   1      27.571  29.277  22.647  1.00  0.00     0.000 A 
ENDBRANCH   6  26
ENDBRANCH   4   6
ENDBRANCH   3   4
ENDBRANCH   2   3
ENDBRANCH   1   2
BRANCH   1  32
ATOM     32  O   UNL A   1      31.568  31.208  26.136  1.00  0.00    -0.374 OA
BRANCH  32  33
ATOM     33  C   UNL A   1      31.403  32.501  26.728  1.00  0.00     0.202 C 
BRANCH  33  34
ATOM     34  C   UNL A   1      32.690  33.156  27.241  1.00  0.00     0.261 C 
BRANCH  34  35
ATOM     35  O   UNL A   1      32.400  34.238  28.151  1.00  0.00    -0.460 OA
BRANCH  35  36
ATOM     36  C   UNL A   1      33.456  34.983  28.561  1.00  0.00     0.338 C 
ATOM     37  O   UNL A   1      33.500  36.194  28.702  1.00  0.00    -0.246 OA
BRANCH  36  38
ATOM     38  C   UNL A   1      34.516  34.068  29.045  1.00  0.00     0.060 A 
ATOM     39  C   UNL A   1      35.848  34.305  28.741  1.00  0.00     0.016 A 
ATOM     40  C   UNL A   1      34.166  32.935  29.799  1.00  0.00     0.016 A 
ATOM     41  C   UNL A   1      36.817  33.425  29.222  1.00  0.00     0.010 A 
ATOM     42  C   UNL A   1      35.153  32.057  30.278  1.00  0.00     0.010 A 
ATOM     43  C   UNL A   1      36.502  32.308  30.013  1.00  0.00    -0.014 A 
BRANCH  43  44
ATOM     44  C   UNL A   1      37.611  31.536  30.649  1.00  0.00     0.031 A 
ATOM     45  C   UNL A   1      38.415  30.509  29.903  1.00  0.00     0.074 A 
ATOM     46  C   UNL A   1      37.939  31.815  31.929  1.00  0.00     0.049 A 
ATOM     47  N   UNL A   1      39.511  29.894  30.280  1.00  0.00    -0.248 NA
ATOM     48  C   UNL A   1      37.954  30.141  28.559  1.00  0.00     0.031 C 
ATOM     49  C   UNL A   1      37.250  32.794  32.770  1.00  0.00     0.029 A 
ATOM     50  N   UNL A   1      38.933  31.322  32.741  1.00  0.00    -0.354 N 
ATOM     51  C   UNL A   1      39.886  29.084  29.217  1.00  0.00     0.074 A 
ATOM     52  C   UNL A   1      38.884  29.268  28.185  1.00  0.00     0.031 C 
ATOM     53  C   UNL A   1      37.860  32.855  33.962  1.00  0.00     0.029 A 
ATOM     54  C   UNL A   1      38.948  31.882  33.999  1.00  0.00     0.049 A 
ATOM     55  H   UNL A   1      39.574  30.633  32.451  1.00  0.00     0.167 HD
ATOM     56  C   UNL A   1      40.967  28.273  29.106  1.00  0.00     0.037 A 
ATOM     57  C   UNL A   1      39.732  31.633  35.069  1.00  0.00     0.037 A 
ATOM     58  C   UNL A   1      41.913  28.004  30.161  1.00  0.00     0.049 A 
ATOM     59  C   UNL A   1      40.819  30.595  34.956  1.00  0.00     0.074 A 
ATOM     60  C   UNL A   1      43.023  27.172  30.133  1.00  0.00     0.029 A 
ATOM     61  N   UNL A   1      41.833  28.507  31.450  1.00  0.00    -0.354 N 
ATOM     62  N   UNL A   1      41.242  29.947  33.897  1.00  0.00    -0.248 NA
ATOM     63  C   UNL A   1      41.529  30.244  36.195  1.00  0.00     0.031 C 
ATOM     64  C   UNL A   1      43.559  27.104  31.424  1.00  0.00     0.029 A 
ATOM     65  C   UNL A   1      42.825  27.945  32.243  1.00  0.00     0.049 A 
ATOM     66  H   UNL A   1      41.169  29.165  31.758  1.00  0.00     0.167 HD
ATOM     67  C   UNL A   1      42.270  29.123  34.343  1.00  0.00     0.074 A 
ATOM     68  C   UNL A   1      42.443  29.393  35.754  1.00  0.00     0.031 C 
ATOM     69  C   UNL A   1      42.990  28.205  33.651  1.00  0.00     0.037 A 
BRANCH  56  70
ATOM     70  C   UNL A   1      41.170  27.572  27.794  1.00  0.00     0.057 A 
ATOM     71  C   UNL A   1      40.680  26.276  27.590  1.00  0.00     0.134 A 
ATOM     72  C   UNL A   1      41.904  28.159  26.755  1.00  0.00     0.134 A 
ATOM     73  F   UNL A   1      39.983  25.654  28.552  1.00  0.00    -0.206 F 
ATOM     74  C   UNL A   1      40.913  25.587  26.400  1.00  0.00     0.040 A 
ATOM     75  C   UNL A   1      42.127  27.487  25.551  1.00  0.00     0.040 A 
ATOM     76  F   UNL A   1      42.397  29.401  26.888  1.00  0.00    -0.206 F 
ATOM     77  C   UNL A   1      41.636  26.194  25.374  1.00  0.00     0.006 A 
ENDBRANCH  56  70
BRANCH  57  78
ATOM     78  C   UNL A   1      39.515  32.360  36.356  1.00  0.00     0.057 A 
ATOM     79  C   UNL A   1      40.243  33.510  36.689  1.00  0.00     0.134 A 
ATOM     80  C   UNL A   1      38.543  31.945  37.274  1.00  0.00     0.134 A 
ATOM     81  F   UNL A   1      41.168  33.995  35.848  1.00  0.00    -0.206 F 
ATOM     82  C   UNL A   1      40.045  34.183  37.897  1.00  0.00     0.040 A 
ATOM     83  C   UNL A   1      38.314  32.622  38.473  1.00  0.00     0.040 A 
ATOM     84  F   UNL A   1      37.742  30.911  36.988  1.00  0.00    -0.206 F 
ATOM     85  C   UNL A   1      39.076  33.740  38.793  1.00  0.00     0.006 A 
ENDBRANCH  57  78
BRANCH  69  86
ATOM     86  C   UNL A   1      44.016  27.415  34.418  1.00  0.00     0.057 A 
ATOM     87  C   UNL A   1      43.686  26.206  35.043  1.00  0.00     0.134 A 
ATOM     88  C   UNL A   1      45.338  27.864  34.551  1.00  0.00     0.134 A 
ATOM     89  F   UNL A   1      42.439  25.717  34.969  1.00  0.00    -0.206 F 
ATOM     90  C   UNL A   1      44.629  25.475  35.769  1.00  0.00     0.040 A 
ATOM     91  C   UNL A   1      46.298  27.127  35.247  1.00  0.00     0.040 A 
ATOM     92  F   UNL A   1      45.729  29.008  33.967  1.00  0.00    -0.206 F 
ATOM     93  C   UNL A   1      45.943  25.930  35.864  1.00  0.00     0.006 A 
ENDBRANCH  69  86
ENDBRANCH  43  44
ENDBRANCH  36  38
ENDBRANCH  35  36
ENDBRANCH  34  35
ENDBRANCH  33  34
ENDBRANCH  32  33
ENDBRANCH   1  32
TORSDOF 19
ENDMDL
MODEL 2
REMARK VINA RESULT:     -11.9      0.632      5.914
REMARK SMILES O=C(Cn1nc(-c2ccc(Br)cc2)ccc1=O)N[C@H](C(=O)OCCOCCOC(=O)c1ccc(-c2c3nc(c(-c4c(F)cccc4F)c4ccc([nH]4)c(-c4c(F)cccc4F)c4nc(c(-c5c(F)cccc5F)c5ccc2[nH]5)C=C4)C=C3)cc1)c1ccccc1
REMARK SMILES IDX 24 1 23 2 22 3 20 4 21 5 19 6 18 7 1 8 2 9 3 11 4 12 5 13
REMARK SMILES IDX 16 14 6 15 15 16 17 17 14 18 7 19 8 20 13 21 9 22 12 23
REMARK SMILES IDX 10 24 11 25 85 26 86 27 90 28 87 29 89 30 88 31 25 32 26 33
REMARK SMILES IDX 27 34 28 35 29 36 30 37 31 38 32 39 84 40 33 41 83 42 34 43
REMARK SMILES IDX 35 44 36 45 77 46 37 47 82 48 76 49 78 50 38 51 81 52 75 53
REMARK SMILES IDX 74 54 39 56 65 57 48 58 64 59 49 60 52 61 63 62 79 63 50 64
REMARK SMILES IDX 51 65 62 67 80 68 53 69 40 70 41 71 46 72 42 73 43 74 45 75
REMARK SMILES IDX 47 76 44 77 66 78 67 79 72 80 68 81 69 82 71 83 73 84 70 85
REMARK SMILES IDX 54 86 55 87 60 88 56 89 57 90 59 91 61 92 58 93
REMARK H PARENT 18 10 78 55 52 66
REMARK Flexibility Score: inf
ROOT
ATOM      1  C   UNL A   1      33.060  29.062  27.162  1.00  0.00     0.202 C 
ENDROOT
BRANCH   1   2
ATOM      2  C   UNL A   1      33.463  28.095  26.059  1.00  0.00     0.261 C 
BRANCH   2   3
ATOM      3  O   UNL A   1      32.460  28.056  25.038  1.00  0.00    -0.461 OA
BRANCH   3   4
ATOM      4  C   UNL A   1      32.844  28.498  23.801  1.00  0.00     0.333 C 
ATOM      5  O   UNL A   1      33.590  29.452  23.607  1.00  0.00    -0.249 OA
BRANCH   4   6
ATOM      6  C   UNL A   1      32.015  27.810  22.697  1.00  0.00     0.223 C 
BRANCH   6   7
ATOM      7  N   UNL A   1      32.249  26.358  22.719  1.00  0.00    -0.337 N 
ATOM      8  O   UNL A   1      33.360  26.202  20.764  1.00  0.00    -0.273 OA
ATOM      9  C   UNL A   1      32.948  25.646  21.788  1.00  0.00     0.242 C 
ATOM     10  H   UNL A   1      31.867  25.855  23.473  1.00  0.00     0.164 HD
BRANCH   9  11
ATOM     11  C   UNL A   1      33.036  24.088  21.929  1.00  0.00     0.248 C 
BRANCH  11  12
ATOM     12  N   UNL A   1      33.199  23.267  23.156  1.00  0.00    -0.220 N 
ATOM     13  N   UNL A   1      34.544  23.102  23.583  1.00  0.00    -0.169 NA
ATOM     14  C   UNL A   1      32.168  22.527  23.706  1.00  0.00     0.267 A 
ATOM     15  C   UNL A   1      34.791  22.240  24.530  1.00  0.00     0.091 A 
ATOM     16  C   UNL A   1      32.502  21.565  24.753  1.00  0.00     0.075 A 
ATOM     17  O   UNL A   1      30.978  22.605  23.419  1.00  0.00    -0.268 OA
ATOM     18  C   UNL A   1      33.749  21.419  25.179  1.00  0.00     0.036 A 
BRANCH  15  19
ATOM     19  C   UNL A   1      36.169  22.034  25.095  1.00  0.00     0.002 A 
ATOM     20  C   UNL A   1      36.852  20.825  24.918  1.00  0.00     0.011 A 
ATOM     21  C   UNL A   1      36.837  23.097  25.726  1.00  0.00     0.011 A 
ATOM     22  C   UNL A   1      38.203  20.713  25.272  1.00  0.00     0.016 A 
ATOM     23  C   UNL A   1      38.175  22.980  26.103  1.00  0.00     0.016 A 
ATOM     24  C   UNL A   1      38.854  21.792  25.866  1.00  0.00     0.018 A 
ATOM     25  Br  UNL A   1      40.650  21.635  26.417  1.00  0.00    -0.051 Br
ENDBRANCH  15  19
ENDBRANCH  11  12
ENDBRANCH   9  11
ENDBRANCH   6   7
BRANCH   6  26
ATOM     26  C   UNL A   1      30.519  28.095  22.922  1.00  0.00    -0.014 A 
ATOM     27  C   UNL A   1      29.644  27.133  23.471  1.00  0.00     0.006 A 
ATOM     28  C   UNL A   1      29.962  29.321  22.523  1.00  0.00     0.006 A 
ATOM     29  C   UNL A   1      28.269  27.352  23.548  1.00  0.00     0.000 A 
ATOM     30  C   UNL A   1      28.583  29.542  22.602  1.00  0.00     0.000 A 
ATOM     31  C   UNL A   1      27.737  28.552  23.099  1.00  0.00     0.000 A 
ENDBRANCH   6  26
ENDBRANCH   4   6
ENDBRANCH   3   4
ENDBRANCH   2   3
ENDBRANCH   1   2
BRANCH   1  32
ATOM     32  O   UNL A   1      33.064  30.441  26.806  1.00  0.00    -0.374 OA
BRANCH  32  33
ATOM     33  C   UNL A   1      31.789  31.048  26.578  1.00  0.00     0.202 C 
BRANCH  33  34
ATOM     34  C   UNL A   1      31.699  32.537  26.934  1.00  0.00     0.261 C 
BRANCH  34  35
ATOM     35  O   UNL A   1      33.006  33.145  26.978  1.00  0.00    -0.460 OA
BRANCH  35  36
ATOM     36  C   UNL A   1      33.252  33.974  28.023  1.00  0.00     0.338 C 
ATOM     37  O   UNL A   1      32.542  34.877  28.436  1.00  0.00    -0.246 OA
BRANCH  36  38
ATOM     38  C   UNL A   1      34.436  33.468  28.755  1.00  0.00     0.060 A 
ATOM     39  C   UNL A   1      34.302  32.482  29.721  1.00  0.00     0.016 A 
ATOM     40  C   UNL A   1      35.704  34.010  28.486  1.00  0.00     0.016 A 
ATOM     41  C   UNL A   1      35.442  32.026  30.382  1.00  0.00     0.010 A 
ATOM     42  C   UNL A   1      36.844  33.542  29.160  1.00  0.00     0.010 A 
ATOM     43  C   UNL A   1      36.728  32.519  30.106  1.00  0.00    -0.014 A 
BRANCH  43  44
ATOM     44  C   UNL A   1      37.909  31.839  30.715  1.00  0.00     0.031 A 
ATOM     45  C   UNL A   1      38.389  32.139  32.107  1.00  0.00     0.074 A 
ATOM     46  C   UNL A   1      38.534  30.875  30.005  1.00  0.00     0.049 A 
ATOM     47  N   UNL A   1      39.289  31.502  32.819  1.00  0.00    -0.248 NA
ATOM     48  C   UNL A   1      37.769  33.274  32.802  1.00  0.00     0.031 C 
ATOM     49  C   UNL A   1      38.170  30.475  28.646  1.00  0.00     0.029 A 
ATOM     50  N   UNL A   1      39.588  30.051  30.322  1.00  0.00    -0.354 N 
ATOM     51  C   UNL A   1      39.330  32.141  34.051  1.00  0.00     0.074 A 
ATOM     52  C   UNL A   1      38.380  33.233  33.982  1.00  0.00     0.031 C 
ATOM     53  C   UNL A   1      38.961  29.463  28.260  1.00  0.00     0.029 A 
ATOM     54  C   UNL A   1      39.928  29.175  29.316  1.00  0.00     0.049 A 
ATOM     55  H   UNL A   1      40.057  30.084  31.188  1.00  0.00     0.167 HD
ATOM     56  C   UNL A   1      40.081  31.840  35.139  1.00  0.00     0.037 A 
ATOM     57  C   UNL A   1      40.914  28.256  29.237  1.00  0.00     0.037 A 
ATOM     58  C   UNL A   1      41.102  30.822  35.187  1.00  0.00     0.049 A 
ATOM     59  C   UNL A   1      41.839  28.071  30.412  1.00  0.00     0.074 A 
ATOM     60  C   UNL A   1      41.924  30.473  36.248  1.00  0.00     0.029 A 
ATOM     61  N   UNL A   1      41.488  30.030  34.116  1.00  0.00    -0.354 N 
ATOM     62  N   UNL A   1      41.767  28.588  31.615  1.00  0.00    -0.248 NA
ATOM     63  C   UNL A   1      42.993  27.183  30.211  1.00  0.00     0.031 C 
ATOM     64  C   UNL A   1      42.861  29.537  35.794  1.00  0.00     0.029 A 
ATOM     65  C   UNL A   1      42.582  29.252  34.469  1.00  0.00     0.049 A 
ATOM     66  H   UNL A   1      41.050  30.022  33.235  1.00  0.00     0.167 HD
ATOM     67  C   UNL A   1      42.858  28.079  32.312  1.00  0.00     0.074 A 
ATOM     68  C   UNL A   1      43.543  27.173  31.416  1.00  0.00     0.031 C 
ATOM     69  C   UNL A   1      43.271  28.358  33.573  1.00  0.00     0.037 A 
BRANCH  56  70
ATOM     70  C   UNL A   1      39.857  32.657  36.378  1.00  0.00     0.057 A 
ATOM     71  C   UNL A   1      38.807  32.358  37.255  1.00  0.00     0.134 A 
ATOM     72  C   UNL A   1      40.644  33.780  36.668  1.00  0.00     0.134 A 
ATOM     73  F   UNL A   1      38.009  31.305  37.025  1.00  0.00    -0.206 F 
ATOM     74  C   UNL A   1      38.547  33.144  38.377  1.00  0.00     0.040 A 
ATOM     75  C   UNL A   1      40.406  34.564  37.799  1.00  0.00     0.040 A 
ATOM     76  F   UNL A   1      41.667  34.118  35.867  1.00  0.00    -0.206 F 
ATOM     77  C   UNL A   1      39.350  34.250  38.654  1.00  0.00     0.006 A 
ENDBRANCH  56  70
BRANCH  57  78
ATOM     78  C   UNL A   1      41.100  27.447  27.996  1.00  0.00     0.057 A 
ATOM     79  C   UNL A   1      40.523  26.178  27.844  1.00  0.00     0.134 A 
ATOM     80  C   UNL A   1      41.832  27.937  26.907  1.00  0.00     0.134 A 
ATOM     81  F   UNL A   1      39.777  25.651  28.825  1.00  0.00    -0.206 F 
ATOM     82  C   UNL A   1      40.707  25.419  26.687  1.00  0.00     0.040 A 
ATOM     83  C   UNL A   1      42.002  27.202  25.733  1.00  0.00     0.040 A 
ATOM     84  F   UNL A   1      42.337  29.176  26.936  1.00  0.00    -0.206 F 
ATOM     85  C   UNL A   1      41.448  25.932  25.625  1.00  0.00     0.006 A 
ENDBRANCH  57  78
BRANCH  69  86
ATOM     86  C   UNL A   1      44.532  27.687  34.048  1.00  0.00     0.057 A 
ATOM     87  C   UNL A   1      44.502  26.430  34.664  1.00  0.00     0.134 A 
ATOM     88  C   UNL A   1      45.786  28.300  33.907  1.00  0.00     0.134 A 
ATOM     89  F   UNL A   1      43.339  25.786  34.843  1.00  0.00    -0.206 F 
ATOM     90  C   UNL A   1      45.667  25.809  35.120  1.00  0.00     0.040 A 
ATOM     91  C   UNL A   1      46.962  27.676  34.330  1.00  0.00     0.040 A 
ATOM     92  F   UNL A   1      45.893  29.500  33.315  1.00  0.00    -0.206 F 
ATOM     93  C   UNL A   1      46.903  26.428  34.945  1.00  0.00     0.006 A 
ENDBRANCH  69  86
ENDBRANCH  43  44
ENDBRANCH  36  38
ENDBRANCH  35  36
ENDBRANCH  34  35
ENDBRANCH  33  34
ENDBRANCH  32  33
ENDBRANCH   1  32
TORSDOF 19
ENDMDL
MODEL 3
REMARK VINA RESULT:     -11.9      1.768      6.341
REMARK SMILES O=C(Cn1nc(-c2ccc(Br)cc2)ccc1=O)N[C@H](C(=O)OCCOCCOC(=O)c1ccc(-c2c3nc(c(-c4c(F)cccc4F)c4ccc([nH]4)c(-c4c(F)cccc4F)c4nc(c(-c5c(F)cccc5F)c5ccc2[nH]5)C=C4)C=C3)cc1)c1ccccc1
REMARK SMILES IDX 24 1 23 2 22 3 20 4 21 5 19 6 18 7 1 8 2 9 3 11 4 12 5 13
REMARK SMILES IDX 16 14 6 15 15 16 17 17 14 18 7 19 8 20 13 21 9 22 12 23
REMARK SMILES IDX 10 24 11 25 85 26 86 27 90 28 87 29 89 30 88 31 25 32 26 33
REMARK SMILES IDX 27 34 28 35 29 36 30 37 31 38 32 39 84 40 33 41 83 42 34 43
REMARK SMILES IDX 35 44 36 45 77 46 37 47 82 48 76 49 78 50 38 51 81 52 75 53
REMARK SMILES IDX 74 54 39 56 65 57 48 58 64 59 49 60 52 61 63 62 79 63 50 64
REMARK SMILES IDX 51 65 62 67 80 68 53 69 40 70 41 71 46 72 42 73 43 74 45 75
REMARK SMILES IDX 47 76 44 77 66 78 67 79 72 80 68 81 69 82 71 83 73 84 70 85
REMARK SMILES IDX 54 86 55 87 60 88 56 89 57 90 59 91 61 92 58 93
REMARK H PARENT 18 10 78 55 52 66
REMARK Flexibility Score: inf
ROOT
ATOM      1  C   UNL A   1      32.853  30.122  26.924  1.00  0.00     0.202 C 
ENDROOT
BRANCH   1   2
ATOM      2  C   UNL A   1      33.526  29.049  26.083  1.00  0.00     0.261 C 
BRANCH   2   3
ATOM      3  O   UNL A   1      32.601  28.502  25.137  1.00  0.00    -0.461 OA
BRANCH   3   4
ATOM      4  C   UNL A   1      33.021  28.470  23.835  1.00  0.00     0.333 C 
ATOM      5  O   UNL A   1      33.807  29.272  23.340  1.00  0.00    -0.249 OA
BRANCH   4   6
ATOM      6  C   UNL A   1      32.184  27.464  23.019  1.00  0.00     0.223 C 
BRANCH   6   7
ATOM      7  N   UNL A   1      32.258  26.128  23.632  1.00  0.00    -0.337 N 
ATOM      8  O   UNL A   1      33.894  25.287  22.330  1.00  0.00    -0.273 OA
ATOM      9  C   UNL A   1      33.136  25.140  23.295  1.00  0.00     0.242 C 
ATOM     10  H   UNL A   1      31.616  25.931  24.352  1.00  0.00     0.164 HD
BRANCH   9  11
ATOM     11  C   UNL A   1      33.024  23.747  24.004  1.00  0.00     0.248 C 
BRANCH  11  12
ATOM     12  N   UNL A   1      34.070  22.712  24.203  1.00  0.00    -0.220 N 
ATOM     13  N   UNL A   1      33.578  21.382  24.281  1.00  0.00    -0.169 NA
ATOM     14  C   UNL A   1      35.380  23.021  24.524  1.00  0.00     0.267 A 
ATOM     15  C   UNL A   1      34.401  20.438  24.649  1.00  0.00     0.091 A 
ATOM     16  C   UNL A   1      36.254  21.929  24.943  1.00  0.00     0.075 A 
ATOM     17  O   UNL A   1      35.903  24.129  24.474  1.00  0.00    -0.268 OA
ATOM     18  C   UNL A   1      35.816  20.679  24.997  1.00  0.00     0.036 A 
BRANCH  15  19
ATOM     19  C   UNL A   1      33.997  18.991  24.706  1.00  0.00     0.002 A 
ATOM     20  C   UNL A   1      34.922  17.970  24.456  1.00  0.00     0.011 A 
ATOM     21  C   UNL A   1      32.700  18.638  25.114  1.00  0.00     0.011 A 
ATOM     22  C   UNL A   1      34.588  16.633  24.705  1.00  0.00     0.016 A 
ATOM     23  C   UNL A   1      32.358  17.304  25.339  1.00  0.00     0.016 A 
ATOM     24  C   UNL A   1      33.306  16.309  25.142  1.00  0.00     0.018 A 
ATOM     25  Br  UNL A   1      32.818  14.508  25.411  1.00  0.00    -0.051 Br
ENDBRANCH  15  19
ENDBRANCH  11  12
ENDBRANCH   9  11
ENDBRANCH   6   7
BRANCH   6  26
ATOM     26  C   UNL A   1      30.718  27.929  22.972  1.00  0.00    -0.014 A 
ATOM     27  C   UNL A   1      30.356  29.236  22.579  1.00  0.00     0.006 A 
ATOM     28  C   UNL A   1      29.687  27.069  23.385  1.00  0.00     0.006 A 
ATOM     29  C   UNL A   1      29.039  29.689  22.667  1.00  0.00     0.000 A 
ATOM     30  C   UNL A   1      28.366  27.523  23.471  1.00  0.00     0.000 A 
ATOM     31  C   UNL A   1      28.047  28.836  23.127  1.00  0.00     0.000 A 
ENDBRANCH   6  26
ENDBRANCH   4   6
ENDBRANCH   3   4
ENDBRANCH   2   3
ENDBRANCH   1   2
BRANCH   1  32
ATOM     32  O   UNL A   1      31.979  30.999  26.222  1.00  0.00    -0.374 OA
BRANCH  32  33
ATOM     33  C   UNL A   1      31.488  32.131  26.946  1.00  0.00     0.202 C 
BRANCH  33  34
ATOM     34  C   UNL A   1      32.446  33.327  27.022  1.00  0.00     0.261 C 
BRANCH  34  35
ATOM     35  O   UNL A   1      32.158  34.157  28.166  1.00  0.00    -0.460 OA
BRANCH  35  36
ATOM     36  C   UNL A   1      33.154  34.975  28.586  1.00  0.00     0.338 C 
ATOM     37  O   UNL A   1      33.107  36.185  28.736  1.00  0.00    -0.246 OA
BRANCH  36  38
ATOM     38  C   UNL A   1      34.278  34.137  29.067  1.00  0.00     0.060 A 
ATOM     39  C   UNL A   1      35.572  34.373  28.631  1.00  0.00     0.016 A 
ATOM     40  C   UNL A   1      34.025  33.078  29.955  1.00  0.00     0.016 A 
ATOM     41  C   UNL A   1      36.604  33.569  29.115  1.00  0.00     0.010 A 
ATOM     42  C   UNL A   1      35.073  32.275  30.434  1.00  0.00     0.010 A 
ATOM     43  C   UNL A   1      36.389  32.529  30.034  1.00  0.00    -0.014 A 
BRANCH  43  44
ATOM     44  C   UNL A   1      37.568  31.850  30.647  1.00  0.00     0.031 A 
ATOM     45  C   UNL A   1      38.051  32.160  32.036  1.00  0.00     0.074 A 
ATOM     46  C   UNL A   1      38.192  30.880  29.944  1.00  0.00     0.049 A 
ATOM     47  N   UNL A   1      38.950  31.528  32.752  1.00  0.00    -0.248 NA
ATOM     48  C   UNL A   1      37.434  33.302  32.723  1.00  0.00     0.031 C 
ATOM     49  C   UNL A   1      37.826  30.470  28.589  1.00  0.00     0.029 A 
ATOM     50  N   UNL A   1      39.244  30.056  30.266  1.00  0.00    -0.354 N 
ATOM     51  C   UNL A   1      38.994  32.175  33.979  1.00  0.00     0.074 A 
ATOM     52  C   UNL A   1      38.045  33.269  33.903  1.00  0.00     0.031 C 
ATOM     53  C   UNL A   1      38.614  29.453  28.209  1.00  0.00     0.029 A 
ATOM     54  C   UNL A   1      39.581  29.172  29.267  1.00  0.00     0.049 A 
ATOM     55  H   UNL A   1      39.713  30.095  31.132  1.00  0.00     0.167 HD
ATOM     56  C   UNL A   1      39.745  31.881  35.069  1.00  0.00     0.037 A 
ATOM     57  C   UNL A   1      40.565  28.250  29.194  1.00  0.00     0.037 A 
ATOM     58  C   UNL A   1      40.764  30.862  35.124  1.00  0.00     0.049 A 
ATOM     59  C   UNL A   1      41.491  28.073  30.370  1.00  0.00     0.074 A 
ATOM     60  C   UNL A   1      41.586  30.520  36.187  1.00  0.00     0.029 A 
ATOM     61  N   UNL A   1      41.147  30.061  34.059  1.00  0.00    -0.354 N 
ATOM     62  N   UNL A   1      41.421  28.599  31.569  1.00  0.00    -0.248 NA
ATOM     63  C   UNL A   1      42.643  27.181  30.175  1.00  0.00     0.031 C 
ATOM     64  C   UNL A   1      42.521  29.579  35.740  1.00  0.00     0.029 A 
ATOM     65  C   UNL A   1      42.240  29.284  34.417  1.00  0.00     0.049 A 
ATOM     66  H   UNL A   1      40.709  30.047  33.178  1.00  0.00     0.167 HD
ATOM     67  C   UNL A   1      42.512  28.093  32.269  1.00  0.00     0.074 A 
ATOM     68  C   UNL A   1      43.194  27.179  31.379  1.00  0.00     0.031 C 
ATOM     69  C   UNL A   1      42.927  28.381  33.528  1.00  0.00     0.037 A 
BRANCH  56  70
ATOM     70  C   UNL A   1      39.523  32.709  36.302  1.00  0.00     0.057 A 
ATOM     71  C   UNL A   1      40.360  33.792  36.599  1.00  0.00     0.134 A 
ATOM     72  C   UNL A   1      38.517  32.394  37.225  1.00  0.00     0.134 A 
ATOM     73  F   UNL A   1      41.351  34.135  35.762  1.00  0.00    -0.206 F 
ATOM     74  C   UNL A   1      40.206  34.533  37.771  1.00  0.00     0.040 A 
ATOM     75  C   UNL A   1      38.340  33.141  38.392  1.00  0.00     0.040 A 
ATOM     76  F   UNL A   1      37.681  31.369  36.996  1.00  0.00    -0.206 F 
ATOM     77  C   UNL A   1      39.191  34.211  38.670  1.00  0.00     0.006 A 
ENDBRANCH  56  70
BRANCH  57  78
ATOM     78  C   UNL A   1      40.749  27.431  27.959  1.00  0.00     0.057 A 
ATOM     79  C   UNL A   1      40.129  26.185  27.797  1.00  0.00     0.134 A 
ATOM     80  C   UNL A   1      41.523  27.890  26.886  1.00  0.00     0.134 A 
ATOM     81  F   UNL A   1      39.341  25.688  28.762  1.00  0.00    -0.206 F 
ATOM     82  C   UNL A   1      40.309  25.415  26.646  1.00  0.00     0.040 A 
ATOM     83  C   UNL A   1      41.691  27.146  25.718  1.00  0.00     0.040 A 
ATOM     84  F   UNL A   1      42.073  29.110  26.924  1.00  0.00    -0.206 F 
ATOM     85  C   UNL A   1      41.092  25.897  25.600  1.00  0.00     0.006 A 
ENDBRANCH  57  78
BRANCH  69  86
ATOM     86  C   UNL A   1      44.187  27.712  34.006  1.00  0.00     0.057 A 
ATOM     87  C   UNL A   1      44.153  26.467  34.647  1.00  0.00     0.134 A 
ATOM     88  C   UNL A   1      45.444  28.314  33.845  1.00  0.00     0.134 A 
ATOM     89  F   UNL A   1      42.987  25.834  34.846  1.00  0.00    -0.206 F 
ATOM     90  C   UNL A   1      45.317  25.847  35.107  1.00  0.00     0.040 A 
ATOM     91  C   UNL A   1      46.618  27.690  34.272  1.00  0.00     0.040 A 
ATOM     92  F   UNL A   1      45.554  29.501  33.228  1.00  0.00    -0.206 F 
ATOM     93  C   UNL A   1      46.556  26.455  34.911  1.00  0.00     0.006 A 
ENDBRANCH  69  86
ENDBRANCH  43  44
ENDBRANCH  36  38
ENDBRANCH  35  36
ENDBRANCH  34  35
ENDBRANCH  33  34
ENDBRANCH  32  33
ENDBRANCH   1  32
TORSDOF 19
ENDMDL
