MODEL 1
REMARK VINA RESULT:     -11.1      0.000      0.000
REMARK SMILES C[C@@H](C(=O)OCCOCCOC(=O)c1ccc(-c2c3nc(c(-c4c(F)cccc4F)c4ccc([nH]4)c(-c4c(F)cccc4F)c4nc(c(-c5c(F)cccc5F)c5ccc2[nH]5)C=C4)C=C3)cc1)c1ccc(C[C@@H]2CCC[C@@H]2O)cc1F
REMARK SMILES IDX 7 1 6 2 5 3 3 4 4 5 2 6 1 7 68 8 69 9 80 10 70 11 79 12
REMARK SMILES IDX 81 13 71 14 72 15 73 16 74 17 77 18 75 19 76 20 78 21 8 23
REMARK SMILES IDX 9 24 10 25 11 26 12 27 13 28 14 29 15 30 67 31 16 32 66 33
REMARK SMILES IDX 17 34 18 35 19 36 60 37 20 38 65 39 59 40 61 41 21 42 64 43
REMARK SMILES IDX 58 44 57 45 22 47 48 48 31 49 47 50 32 51 35 52 46 53 62 54
REMARK SMILES IDX 33 55 34 56 45 58 63 59 36 60 23 61 24 62 29 63 25 64 26 65
REMARK SMILES IDX 28 66 30 67 27 68 49 69 50 70 55 71 51 72 52 73 54 74 56 75
REMARK SMILES IDX 53 76 37 77 38 78 43 79 39 80 40 81 42 82 44 83 41 84
REMARK H PARENT 78 22 61 46 35 57
REMARK Flexibility Score: inf
ROOT
ATOM      1  C   UNL A   1      40.665  20.397  26.164  1.00  0.00     0.202 C 
ENDROOT
BRANCH   1   2
ATOM      2  C   UNL A   1      39.731  21.547  26.550  1.00  0.00     0.261 C 
BRANCH   2   3
ATOM      3  O   UNL A   1      38.717  21.720  25.553  1.00  0.00    -0.463 OA
BRANCH   3   4
ATOM      4  C   UNL A   1      37.779  22.662  25.831  1.00  0.00     0.313 C 
ATOM      5  O   UNL A   1      38.030  23.845  26.036  1.00  0.00    -0.252 OA
BRANCH   4   6
ATOM      6  C   UNL A   1      36.354  22.101  25.759  1.00  0.00     0.129 C 
ATOM      7  C   UNL A   1      36.319  20.833  24.897  1.00  0.00     0.025 C 
BRANCH   6   8
ATOM      8  C   UNL A   1      35.295  23.166  25.455  1.00  0.00     0.002 A 
ATOM      9  C   UNL A   1      35.305  23.840  24.220  1.00  0.00     0.008 A 
ATOM     10  C   UNL A   1      34.358  23.614  26.397  1.00  0.00     0.127 A 
ATOM     11  C   UNL A   1      34.471  24.938  23.973  1.00  0.00     0.004 A 
ATOM     12  C   UNL A   1      33.539  24.724  26.163  1.00  0.00     0.043 A 
ATOM     13  F   UNL A   1      34.241  23.016  27.590  1.00  0.00    -0.207 F 
ATOM     14  C   UNL A   1      33.636  25.444  24.970  1.00  0.00    -0.045 A 
BRANCH  14  15
ATOM     15  C   UNL A   1      32.894  26.747  24.778  1.00  0.00     0.041 C 
BRANCH  15  16
ATOM     16  C   UNL A   1      33.431  28.013  25.501  1.00  0.00     0.022 C 
ATOM     17  C   UNL A   1      33.087  28.122  26.992  1.00  0.00     0.007 C 
ATOM     18  C   UNL A   1      32.980  29.380  24.976  1.00  0.00     0.117 C 
ATOM     19  C   UNL A   1      31.873  29.054  27.096  1.00  0.00     0.003 C 
ATOM     20  C   UNL A   1      31.680  29.673  25.714  1.00  0.00     0.032 C 
BRANCH  18  21
ATOM     21  O   UNL A   1      32.862  29.446  23.572  1.00  0.00    -0.393 OA
ATOM     22  H   UNL A   1      33.201  30.300  23.258  1.00  0.00     0.210 HD
ENDBRANCH  18  21
ENDBRANCH  15  16
ENDBRANCH  14  15
ENDBRANCH   6   8
ENDBRANCH   4   6
ENDBRANCH   3   4
ENDBRANCH   2   3
ENDBRANCH   1   2
BRANCH   1  23
ATOM     23  O   UNL A   1      41.996  20.469  26.677  1.00  0.00    -0.374 OA
BRANCH  23  24
ATOM     24  C   UNL A   1      43.075  20.471  25.739  1.00  0.00     0.202 C 
BRANCH  24  25
ATOM     25  C   UNL A   1      43.912  21.754  25.649  1.00  0.00     0.261 C 
BRANCH  25  26
ATOM     26  O   UNL A   1      43.212  22.830  24.994  1.00  0.00    -0.460 OA
BRANCH  26  27
ATOM     27  C   UNL A   1      43.839  24.029  25.048  1.00  0.00     0.338 C 
ATOM     28  O   UNL A   1      44.803  24.394  24.388  1.00  0.00    -0.246 OA
BRANCH  27  29
ATOM     29  C   UNL A   1      43.097  24.961  25.916  1.00  0.00     0.060 A 
ATOM     30  C   UNL A   1      43.625  26.248  26.082  1.00  0.00     0.016 A 
ATOM     31  C   UNL A   1      41.977  24.553  26.642  1.00  0.00     0.016 A 
ATOM     32  C   UNL A   1      43.061  27.119  27.012  1.00  0.00     0.010 A 
ATOM     33  C   UNL A   1      41.418  25.427  27.584  1.00  0.00     0.010 A 
ATOM     34  C   UNL A   1      41.979  26.699  27.798  1.00  0.00    -0.014 A 
BRANCH  34  35
ATOM     35  C   UNL A   1      41.543  27.538  28.941  1.00  0.00     0.031 A 
ATOM     36  C   UNL A   1      42.293  27.451  30.242  1.00  0.00     0.074 A 
ATOM     37  C   UNL A   1      40.519  28.401  28.813  1.00  0.00     0.049 A 
ATOM     38  N   UNL A   1      42.079  28.082  31.369  1.00  0.00    -0.248 NA
ATOM     39  C   UNL A   1      43.440  26.529  30.276  1.00  0.00     0.031 C 
ATOM     40  C   UNL A   1      39.738  28.608  27.595  1.00  0.00     0.029 A 
ATOM     41  N   UNL A   1      39.962  29.262  29.724  1.00  0.00    -0.354 N 
ATOM     42  C   UNL A   1      43.063  27.638  32.243  1.00  0.00     0.074 A 
ATOM     43  C   UNL A   1      43.854  26.659  31.528  1.00  0.00     0.031 C 
ATOM     44  C   UNL A   1      38.791  29.531  27.839  1.00  0.00     0.029 A 
ATOM     45  C   UNL A   1      38.885  29.958  29.233  1.00  0.00     0.049 A 
ATOM     46  H   UNL A   1      40.300  29.369  30.641  1.00  0.00     0.167 HD
ATOM     47  C   UNL A   1      43.292  28.015  33.523  1.00  0.00     0.037 A 
ATOM     48  C   UNL A   1      38.059  30.827  29.847  1.00  0.00     0.037 A 
ATOM     49  C   UNL A   1      42.505  28.985  34.239  1.00  0.00     0.049 A 
ATOM     50  C   UNL A   1      38.291  31.181  31.291  1.00  0.00     0.074 A 
ATOM     51  C   UNL A   1      42.665  29.439  35.536  1.00  0.00     0.029 A 
ATOM     52  N   UNL A   1      41.403  29.645  33.716  1.00  0.00    -0.354 N 
ATOM     53  N   UNL A   1      39.234  30.768  32.102  1.00  0.00    -0.248 NA
ATOM     54  C   UNL A   1      37.344  32.124  31.906  1.00  0.00     0.031 C 
ATOM     55  C   UNL A   1      41.635  30.344  35.813  1.00  0.00     0.029 A 
ATOM     56  C   UNL A   1      40.860  30.486  34.673  1.00  0.00     0.049 A 
ATOM     57  H   UNL A   1      41.057  29.531  32.802  1.00  0.00     0.167 HD
ATOM     58  C   UNL A   1      39.011  31.417  33.311  1.00  0.00     0.074 A 
ATOM     59  C   UNL A   1      37.849  32.261  33.123  1.00  0.00     0.031 C 
ATOM     60  C   UNL A   1      39.706  31.323  34.471  1.00  0.00     0.037 A 
BRANCH  47  61
ATOM     61  C   UNL A   1      44.436  27.360  34.239  1.00  0.00     0.057 A 
ATOM     62  C   UNL A   1      45.706  27.947  34.293  1.00  0.00     0.134 A 
ATOM     63  C   UNL A   1      44.256  26.141  34.906  1.00  0.00     0.134 A 
ATOM     64  F   UNL A   1      45.946  29.107  33.662  1.00  0.00    -0.206 F 
ATOM     65  C   UNL A   1      46.764  27.336  34.968  1.00  0.00     0.040 A 
ATOM     66  C   UNL A   1      45.300  25.532  35.603  1.00  0.00     0.040 A 
ATOM     67  F   UNL A   1      43.064  25.529  34.897  1.00  0.00    -0.206 F 
ATOM     68  C   UNL A   1      46.560  26.127  35.631  1.00  0.00     0.006 A 
ENDBRANCH  47  61
BRANCH  48  69
ATOM     69  C   UNL A   1      36.918  31.417  29.102  1.00  0.00     0.057 A 
ATOM     70  C   UNL A   1      36.953  32.738  28.645  1.00  0.00     0.134 A 
ATOM     71  C   UNL A   1      35.758  30.675  28.848  1.00  0.00     0.134 A 
ATOM     72  F   UNL A   1      38.028  33.505  28.879  1.00  0.00    -0.206 F 
ATOM     73  C   UNL A   1      35.869  33.307  27.974  1.00  0.00     0.040 A 
ATOM     74  C   UNL A   1      34.676  31.224  28.159  1.00  0.00     0.040 A 
ATOM     75  F   UNL A   1      35.663  29.404  29.263  1.00  0.00    -0.206 F 
ATOM     76  C   UNL A   1      34.728  32.547  27.726  1.00  0.00     0.006 A 
ENDBRANCH  48  69
BRANCH  60  77
ATOM     77  C   UNL A   1      39.248  32.175  35.618  1.00  0.00     0.057 A 
ATOM     78  C   UNL A   1      38.358  31.694  36.586  1.00  0.00     0.134 A 
ATOM     79  C   UNL A   1      39.738  33.478  35.779  1.00  0.00     0.134 A 
ATOM     80  F   UNL A   1      37.845  30.459  36.482  1.00  0.00    -0.206 F 
ATOM     81  C   UNL A   1      37.957  32.485  37.664  1.00  0.00     0.040 A 
ATOM     82  C   UNL A   1      39.361  34.270  36.864  1.00  0.00     0.040 A 
ATOM     83  F   UNL A   1      40.601  33.997  34.891  1.00  0.00    -0.206 F 
ATOM     84  C   UNL A   1      38.464  33.775  37.808  1.00  0.00     0.006 A 
ENDBRANCH  60  77
ENDBRANCH  34  35
ENDBRANCH  27  29
ENDBRANCH  26  27
ENDBRANCH  25  26
ENDBRANCH  24  25
ENDBRANCH  23  24
ENDBRANCH   1  23
TORSDOF 18
ENDMDL
MODEL 2
REMARK VINA RESULT:     -10.7      4.851     10.275
REMARK SMILES C[C@@H](C(=O)OCCOCCOC(=O)c1ccc(-c2c3nc(c(-c4c(F)cccc4F)c4ccc([nH]4)c(-c4c(F)cccc4F)c4nc(c(-c5c(F)cccc5F)c5ccc2[nH]5)C=C4)C=C3)cc1)c1ccc(C[C@@H]2CCC[C@@H]2O)cc1F
REMARK SMILES IDX 7 1 6 2 5 3 3 4 4 5 2 6 1 7 68 8 69 9 80 10 70 11 79 12
REMARK SMILES IDX 81 13 71 14 72 15 73 16 74 17 77 18 75 19 76 20 78 21 8 23
REMARK SMILES IDX 9 24 10 25 11 26 12 27 13 28 14 29 15 30 67 31 16 32 66 33
REMARK SMILES IDX 17 34 18 35 19 36 60 37 20 38 65 39 59 40 61 41 21 42 64 43
REMARK SMILES IDX 58 44 57 45 22 47 48 48 31 49 47 50 32 51 35 52 46 53 62 54
REMARK SMILES IDX 33 55 34 56 45 58 63 59 36 60 23 61 24 62 29 63 25 64 26 65
REMARK SMILES IDX 28 66 30 67 27 68 49 69 50 70 55 71 51 72 52 73 54 74 56 75
REMARK SMILES IDX 53 76 37 77 38 78 43 79 39 80 40 81 42 82 44 83 41 84
REMARK H PARENT 78 22 61 46 35 57
REMARK Flexibility Score: inf
ROOT
ATOM      1  C   UNL A   1      33.156  35.690  31.534  1.00  0.00     0.202 C 
ENDROOT
BRANCH   1   2
ATOM      2  C   UNL A   1      33.222  35.329  30.048  1.00  0.00     0.261 C 
BRANCH   2   3
ATOM      3  O   UNL A   1      33.546  33.941  29.888  1.00  0.00    -0.463 OA
BRANCH   3   4
ATOM      4  C   UNL A   1      33.492  33.472  28.614  1.00  0.00     0.313 C 
ATOM      5  O   UNL A   1      32.808  33.970  27.726  1.00  0.00    -0.252 OA
BRANCH   4   6
ATOM      6  C   UNL A   1      34.463  32.309  28.383  1.00  0.00     0.129 C 
ATOM      7  C   UNL A   1      35.772  32.817  27.764  1.00  0.00     0.025 C 
BRANCH   6   8
ATOM      8  C   UNL A   1      33.811  31.097  27.709  1.00  0.00     0.002 A 
ATOM      9  C   UNL A   1      32.528  31.208  27.143  1.00  0.00     0.008 A 
ATOM     10  C   UNL A   1      34.374  29.813  27.721  1.00  0.00     0.127 A 
ATOM     11  C   UNL A   1      31.827  30.087  26.680  1.00  0.00     0.004 A 
ATOM     12  C   UNL A   1      33.669  28.687  27.280  1.00  0.00     0.043 A 
ATOM     13  F   UNL A   1      35.607  29.605  28.203  1.00  0.00    -0.207 F 
ATOM     14  C   UNL A   1      32.356  28.803  26.817  1.00  0.00    -0.045 A 
BRANCH  14  15
ATOM     15  C   UNL A   1      31.522  27.580  26.513  1.00  0.00     0.041 C 
BRANCH  15  16
ATOM     16  C   UNL A   1      31.666  26.919  25.115  1.00  0.00     0.022 C 
ATOM     17  C   UNL A   1      32.095  27.856  23.979  1.00  0.00     0.007 C 
ATOM     18  C   UNL A   1      30.428  26.244  24.513  1.00  0.00     0.117 C 
ATOM     19  C   UNL A   1      30.817  28.251  23.228  1.00  0.00     0.003 C 
ATOM     20  C   UNL A   1      29.703  27.355  23.765  1.00  0.00     0.032 C 
BRANCH  18  21
ATOM     21  O   UNL A   1      29.622  25.575  25.457  1.00  0.00    -0.393 OA
ATOM     22  H   UNL A   1      28.729  25.459  25.094  1.00  0.00     0.210 HD
ENDBRANCH  18  21
ENDBRANCH  15  16
ENDBRANCH  14  15
ENDBRANCH   6   8
ENDBRANCH   4   6
ENDBRANCH   3   4
ENDBRANCH   2   3
ENDBRANCH   1   2
BRANCH   1  23
ATOM     23  O   UNL A   1      34.405  35.741  32.225  1.00  0.00    -0.374 OA
BRANCH  23  24
ATOM     24  C   UNL A   1      34.555  34.933  33.395  1.00  0.00     0.202 C 
BRANCH  24  25
ATOM     25  C   UNL A   1      34.226  33.441  33.252  1.00  0.00     0.261 C 
BRANCH  25  26
ATOM     26  O   UNL A   1      35.211  32.726  32.481  1.00  0.00    -0.460 OA
BRANCH  26  27
ATOM     27  C   UNL A   1      36.273  32.279  33.193  1.00  0.00     0.338 C 
ATOM     28  O   UNL A   1      36.439  32.350  34.403  1.00  0.00    -0.246 OA
BRANCH  27  29
ATOM     29  C   UNL A   1      37.185  31.508  32.330  1.00  0.00     0.060 A 
ATOM     30  C   UNL A   1      38.163  30.726  32.958  1.00  0.00     0.016 A 
ATOM     31  C   UNL A   1      37.163  31.633  30.939  1.00  0.00     0.016 A 
ATOM     32  C   UNL A   1      39.153  30.103  32.202  1.00  0.00     0.010 A 
ATOM     33  C   UNL A   1      38.165  31.015  30.181  1.00  0.00     0.010 A 
ATOM     34  C   UNL A   1      39.184  30.277  30.811  1.00  0.00    -0.014 A 
BRANCH  34  35
ATOM     35  C   UNL A   1      40.367  29.813  30.047  1.00  0.00     0.031 A 
ATOM     36  C   UNL A   1      41.506  30.767  29.809  1.00  0.00     0.074 A 
ATOM     37  C   UNL A   1      40.450  28.544  29.607  1.00  0.00     0.049 A 
ATOM     38  N   UNL A   1      42.627  30.577  29.161  1.00  0.00    -0.248 NA
ATOM     39  C   UNL A   1      41.361  32.115  30.381  1.00  0.00     0.031 C 
ATOM     40  C   UNL A   1      39.434  27.513  29.808  1.00  0.00     0.029 A 
ATOM     41  N   UNL A   1      41.439  27.912  28.896  1.00  0.00    -0.354 N 
ATOM     42  C   UNL A   1      43.321  31.777  29.248  1.00  0.00     0.074 A 
ATOM     43  C   UNL A   1      42.481  32.699  29.982  1.00  0.00     0.031 C 
ATOM     44  C   UNL A   1      39.848  26.377  29.220  1.00  0.00     0.029 A 
ATOM     45  C   UNL A   1      41.143  26.609  28.584  1.00  0.00     0.049 A 
ATOM     46  H   UNL A   1      42.280  28.351  28.635  1.00  0.00     0.167 HD
ATOM     47  C   UNL A   1      44.549  32.082  28.766  1.00  0.00     0.037 A 
ATOM     48  C   UNL A   1      41.831  25.712  27.852  1.00  0.00     0.037 A 
ATOM     49  C   UNL A   1      45.385  31.169  28.032  1.00  0.00     0.049 A 
ATOM     50  C   UNL A   1      43.164  26.095  27.269  1.00  0.00     0.074 A 
ATOM     51  C   UNL A   1      46.649  31.385  27.512  1.00  0.00     0.029 A 
ATOM     52  N   UNL A   1      45.035  29.867  27.709  1.00  0.00    -0.354 N 
ATOM     53  N   UNL A   1      43.819  27.226  27.372  1.00  0.00    -0.248 NA
ATOM     54  C   UNL A   1      43.857  25.075  26.467  1.00  0.00     0.031 C 
ATOM     55  C   UNL A   1      47.048  30.225  26.838  1.00  0.00     0.029 A 
ATOM     56  C   UNL A   1      46.050  29.274  26.977  1.00  0.00     0.049 A 
ATOM     57  H   UNL A   1      44.191  29.430  27.962  1.00  0.00     0.167 HD
ATOM     58  C   UNL A   1      45.006  27.047  26.674  1.00  0.00     0.074 A 
ATOM     59  C   UNL A   1      44.989  25.693  26.159  1.00  0.00     0.031 C 
ATOM     60  C   UNL A   1      46.021  27.924  26.476  1.00  0.00     0.037 A 
BRANCH  47  61
ATOM     61  C   UNL A   1      45.056  33.474  29.007  1.00  0.00     0.057 A 
ATOM     62  C   UNL A   1      44.765  34.527  28.131  1.00  0.00     0.134 A 
ATOM     63  C   UNL A   1      45.821  33.768  30.143  1.00  0.00     0.134 A 
ATOM     64  F   UNL A   1      44.050  34.307  27.018  1.00  0.00    -0.206 F 
ATOM     65  C   UNL A   1      45.234  35.821  28.366  1.00  0.00     0.040 A 
ATOM     66  C   UNL A   1      46.275  35.062  30.400  1.00  0.00     0.040 A 
ATOM     67  F   UNL A   1      46.131  32.805  31.024  1.00  0.00    -0.206 F 
ATOM     68  C   UNL A   1      45.986  36.092  29.507  1.00  0.00     0.006 A 
ENDBRANCH  47  61
BRANCH  48  69
ATOM     69  C   UNL A   1      41.265  24.360  27.613  1.00  0.00     0.057 A 
ATOM     70  C   UNL A   1      40.229  24.157  26.696  1.00  0.00     0.134 A 
ATOM     71  C   UNL A   1      41.737  23.244  28.314  1.00  0.00     0.134 A 
ATOM     72  F   UNL A   1      39.720  25.192  26.013  1.00  0.00    -0.206 F 
ATOM     73  C   UNL A   1      39.671  22.893  26.494  1.00  0.00     0.040 A 
ATOM     74  C   UNL A   1      41.203  21.971  28.106  1.00  0.00     0.040 A 
ATOM     75  F   UNL A   1      42.728  23.375  29.208  1.00  0.00    -0.206 F 
ATOM     76  C   UNL A   1      40.162  21.795  27.198  1.00  0.00     0.006 A 
ENDBRANCH  48  69
BRANCH  60  77
ATOM     77  C   UNL A   1      47.208  27.439  25.697  1.00  0.00     0.057 A 
ATOM     78  C   UNL A   1      48.268  26.761  26.312  1.00  0.00     0.134 A 
ATOM     79  C   UNL A   1      47.271  27.617  24.309  1.00  0.00     0.134 A 
ATOM     80  F   UNL A   1      48.272  26.570  27.639  1.00  0.00    -0.206 F 
ATOM     81  C   UNL A   1      49.357  26.292  25.575  1.00  0.00     0.040 A 
ATOM     82  C   UNL A   1      48.344  27.133  23.559  1.00  0.00     0.040 A 
ATOM     83  F   UNL A   1      46.284  28.252  23.657  1.00  0.00    -0.206 F 
ATOM     84  C   UNL A   1      49.393  26.472  24.193  1.00  0.00     0.006 A 
ENDBRANCH  60  77
ENDBRANCH  34  35
ENDBRANCH  27  29
ENDBRANCH  26  27
ENDBRANCH  25  26
ENDBRANCH  24  25
ENDBRANCH  23  24
ENDBRANCH   1  23
TORSDOF 18
ENDMDL
MODEL 3
REMARK VINA RESULT:     -10.6      0.708      6.258
REMARK SMILES C[C@@H](C(=O)OCCOCCOC(=O)c1ccc(-c2c3nc(c(-c4c(F)cccc4F)c4ccc([nH]4)c(-c4c(F)cccc4F)c4nc(c(-c5c(F)cccc5F)c5ccc2[nH]5)C=C4)C=C3)cc1)c1ccc(C[C@@H]2CCC[C@@H]2O)cc1F
REMARK SMILES IDX 7 1 6 2 5 3 3 4 4 5 2 6 1 7 68 8 69 9 80 10 70 11 79 12
REMARK SMILES IDX 81 13 71 14 72 15 73 16 74 17 77 18 75 19 76 20 78 21 8 23
REMARK SMILES IDX 9 24 10 25 11 26 12 27 13 28 14 29 15 30 67 31 16 32 66 33
REMARK SMILES IDX 17 34 18 35 19 36 60 37 20 38 65 39 59 40 61 41 21 42 64 43
REMARK SMILES IDX 58 44 57 45 22 47 48 48 31 49 47 50 32 51 35 52 46 53 62 54
REMARK SMILES IDX 33 55 34 56 45 58 63 59 36 60 23 61 24 62 29 63 25 64 26 65
REMARK SMILES IDX 28 66 30 67 27 68 49 69 50 70 55 71 51 72 52 73 54 74 56 75
REMARK SMILES IDX 53 76 37 77 38 78 43 79 39 80 40 81 42 82 44 83 41 84
REMARK H PARENT 78 22 61 46 35 57
REMARK Flexibility Score: inf
ROOT
ATOM      1  C   UNL A   1      41.630  21.368  27.190  1.00  0.00     0.202 C 
ENDROOT
BRANCH   1   2
ATOM      2  C   UNL A   1      40.283  22.071  27.373  1.00  0.00     0.261 C 
BRANCH   2   3
ATOM      3  O   UNL A   1      39.519  22.005  26.162  1.00  0.00    -0.463 OA
BRANCH   3   4
ATOM      4  C   UNL A   1      38.418  22.801  26.122  1.00  0.00     0.313 C 
ATOM      5  O   UNL A   1      38.441  24.016  26.290  1.00  0.00    -0.252 OA
BRANCH   4   6
ATOM      6  C   UNL A   1      37.155  22.024  25.740  1.00  0.00     0.129 C 
ATOM      7  C   UNL A   1      37.488  20.919  24.728  1.00  0.00     0.025 C 
BRANCH   6   8
ATOM      8  C   UNL A   1      35.963  22.926  25.400  1.00  0.00     0.002 A 
ATOM      9  C   UNL A   1      35.845  23.486  24.115  1.00  0.00     0.008 A 
ATOM     10  C   UNL A   1      35.016  23.342  26.347  1.00  0.00     0.127 A 
ATOM     11  C   UNL A   1      34.875  24.453  23.819  1.00  0.00     0.004 A 
ATOM     12  C   UNL A   1      34.060  24.323  26.062  1.00  0.00     0.043 A 
ATOM     13  F   UNL A   1      35.017  22.841  27.589  1.00  0.00    -0.207 F 
ATOM     14  C   UNL A   1      34.024  24.943  24.810  1.00  0.00    -0.045 A 
BRANCH  14  15
ATOM     15  C   UNL A   1      33.124  26.128  24.547  1.00  0.00     0.041 C 
BRANCH  15  16
ATOM     16  C   UNL A   1      33.610  27.535  24.992  1.00  0.00     0.022 C 
ATOM     17  C   UNL A   1      33.648  27.776  26.506  1.00  0.00     0.007 C 
ATOM     18  C   UNL A   1      32.819  28.752  24.502  1.00  0.00     0.117 C 
ATOM     19  C   UNL A   1      32.365  28.536  26.863  1.00  0.00     0.003 C 
ATOM     20  C   UNL A   1      31.722  28.950  25.541  1.00  0.00     0.032 C 
BRANCH  18  21
ATOM     21  O   UNL A   1      32.334  28.630  23.183  1.00  0.00    -0.393 OA
ATOM     22  H   UNL A   1      31.916  27.762  23.071  1.00  0.00     0.210 HD
ENDBRANCH  18  21
ENDBRANCH  15  16
ENDBRANCH  14  15
ENDBRANCH   6   8
ENDBRANCH   4   6
ENDBRANCH   3   4
ENDBRANCH   2   3
ENDBRANCH   1   2
BRANCH   1  23
ATOM     23  O   UNL A   1      42.115  21.279  25.850  1.00  0.00    -0.374 OA
BRANCH  23  24
ATOM     24  C   UNL A   1      43.498  21.561  25.620  1.00  0.00     0.202 C 
BRANCH  24  25
ATOM     25  C   UNL A   1      43.826  22.547  24.491  1.00  0.00     0.261 C 
BRANCH  25  26
ATOM     26  O   UNL A   1      43.122  23.798  24.623  1.00  0.00    -0.460 OA
BRANCH  26  27
ATOM     27  C   UNL A   1      43.880  24.830  25.064  1.00  0.00     0.338 C 
ATOM     28  O   UNL A   1      44.982  25.170  24.656  1.00  0.00    -0.246 OA
BRANCH  27  29
ATOM     29  C   UNL A   1      43.125  25.649  26.029  1.00  0.00     0.060 A 
ATOM     30  C   UNL A   1      43.562  26.962  26.244  1.00  0.00     0.016 A 
ATOM     31  C   UNL A   1      42.087  25.113  26.793  1.00  0.00     0.016 A 
ATOM     32  C   UNL A   1      42.994  27.731  27.256  1.00  0.00     0.010 A 
ATOM     33  C   UNL A   1      41.524  25.884  27.818  1.00  0.00     0.010 A 
ATOM     34  C   UNL A   1      41.999  27.183  28.077  1.00  0.00    -0.014 A 
BRANCH  34  35
ATOM     35  C   UNL A   1      41.573  27.918  29.293  1.00  0.00     0.031 A 
ATOM     36  C   UNL A   1      40.355  28.798  29.228  1.00  0.00     0.074 A 
ATOM     37  C   UNL A   1      42.234  27.770  30.455  1.00  0.00     0.049 A 
ATOM     38  N   UNL A   1      39.812  29.536  30.162  1.00  0.00    -0.248 NA
ATOM     39  C   UNL A   1      39.653  28.851  27.935  1.00  0.00     0.031 C 
ATOM     40  C   UNL A   1      43.403  26.917  30.658  1.00  0.00     0.029 A 
ATOM     41  N   UNL A   1      42.012  28.341  31.683  1.00  0.00    -0.354 N 
ATOM     42  C   UNL A   1      38.707  30.139  29.574  1.00  0.00     0.074 A 
ATOM     43  C   UNL A   1      38.675  29.707  28.193  1.00  0.00     0.031 C 
ATOM     44  C   UNL A   1      43.805  27.031  31.936  1.00  0.00     0.029 A 
ATOM     45  C   UNL A   1      42.938  27.981  32.630  1.00  0.00     0.049 A 
ATOM     46  H   UNL A   1      41.263  28.951  31.866  1.00  0.00     0.167 HD
ATOM     47  C   UNL A   1      37.798  30.971  30.134  1.00  0.00     0.037 A 
ATOM     48  C   UNL A   1      43.080  28.388  33.907  1.00  0.00     0.037 A 
ATOM     49  C   UNL A   1      37.829  31.406  31.506  1.00  0.00     0.049 A 
ATOM     50  C   UNL A   1      42.096  29.366  34.488  1.00  0.00     0.074 A 
ATOM     51  C   UNL A   1      36.945  32.241  32.166  1.00  0.00     0.029 A 
ATOM     52  N   UNL A   1      38.801  31.043  32.425  1.00  0.00    -0.354 N 
ATOM     53  N   UNL A   1      41.045  29.915  33.929  1.00  0.00    -0.248 NA
ATOM     54  C   UNL A   1      42.316  29.781  35.883  1.00  0.00     0.031 C 
ATOM     55  C   UNL A   1      37.406  32.417  33.476  1.00  0.00     0.029 A 
ATOM     56  C   UNL A   1      38.552  31.655  33.642  1.00  0.00     0.049 A 
ATOM     57  H   UNL A   1      39.557  30.441  32.240  1.00  0.00     0.167 HD
ATOM     58  C   UNL A   1      40.466  30.717  34.904  1.00  0.00     0.074 A 
ATOM     59  C   UNL A   1      41.276  30.574  36.097  1.00  0.00     0.031 C 
ATOM     60  C   UNL A   1      39.363  31.500  34.821  1.00  0.00     0.037 A 
BRANCH  47  61
ATOM     61  C   UNL A   1      36.696  31.479  29.252  1.00  0.00     0.057 A 
ATOM     62  C   UNL A   1      35.603  30.678  28.900  1.00  0.00     0.134 A 
ATOM     63  C   UNL A   1      36.717  32.795  28.772  1.00  0.00     0.134 A 
ATOM     64  F   UNL A   1      35.532  29.405  29.316  1.00  0.00    -0.206 F 
ATOM     65  C   UNL A   1      34.578  31.161  28.085  1.00  0.00     0.040 A 
ATOM     66  C   UNL A   1      35.686  33.296  27.976  1.00  0.00     0.040 A 
ATOM     67  F   UNL A   1      37.733  33.615  29.076  1.00  0.00    -0.206 F 
ATOM     68  C   UNL A   1      34.615  32.477  27.626  1.00  0.00     0.006 A 
ENDBRANCH  47  61
BRANCH  48  69
ATOM     69  C   UNL A   1      44.211  27.881  34.724  1.00  0.00     0.057 A 
ATOM     70  C   UNL A   1      44.097  26.709  35.478  1.00  0.00     0.134 A 
ATOM     71  C   UNL A   1      45.427  28.573  34.784  1.00  0.00     0.134 A 
ATOM     72  F   UNL A   1      42.948  26.017  35.479  1.00  0.00    -0.206 F 
ATOM     73  C   UNL A   1      45.146  26.249  36.275  1.00  0.00     0.040 A 
ATOM     74  C   UNL A   1      46.492  28.112  35.559  1.00  0.00     0.040 A 
ATOM     75  F   UNL A   1      45.597  29.705  34.086  1.00  0.00    -0.206 F 
ATOM     76  C   UNL A   1      46.350  26.949  36.313  1.00  0.00     0.006 A 
ENDBRANCH  48  69
BRANCH  60  77
ATOM     77  C   UNL A   1      38.949  32.240  36.060  1.00  0.00     0.057 A 
ATOM     78  C   UNL A   1      38.153  31.643  37.044  1.00  0.00     0.134 A 
ATOM     79  C   UNL A   1      39.389  33.550  36.287  1.00  0.00     0.134 A 
ATOM     80  F   UNL A   1      37.690  30.395  36.879  1.00  0.00    -0.206 F 
ATOM     81  C   UNL A   1      37.793  32.331  38.205  1.00  0.00     0.040 A 
ATOM     82  C   UNL A   1      39.054  34.240  37.454  1.00  0.00     0.040 A 
ATOM     83  F   UNL A   1      40.162  34.177  35.387  1.00  0.00    -0.206 F 
ATOM     84  C   UNL A   1      38.249  33.631  38.414  1.00  0.00     0.006 A 
ENDBRANCH  60  77
ENDBRANCH  34  35
ENDBRANCH  27  29
ENDBRANCH  26  27
ENDBRANCH  25  26
ENDBRANCH  24  25
ENDBRANCH  23  24
ENDBRANCH   1  23
TORSDOF 18
ENDMDL
