MODEL 1
REMARK VINA RESULT:     -11.7      0.000      0.000
REMARK SMILES Cc1nc(-c2ccccc2)sc1C(=O)N[C@@H](CC1=c2ccccc2=NC1)C(=O)OCCOCCOC(=O)c1ccc(-c2c3nc(c(-c4c(F)cccc4F)c4ccc([nH]4)c(-c4c(F)cccc4F)c4nc(c(-c5c(F)cccc5F)c5ccc2[nH]5)C=C4)C=C3)cc1
REMARK SMILES IDX 31 1 30 2 29 3 27 4 28 5 16 6 15 7 13 8 14 9 12 11 1 12 2 13
REMARK SMILES IDX 3 14 4 15 11 16 5 17 6 18 10 19 7 20 9 21 8 22 17 23 18 24
REMARK SMILES IDX 19 25 26 26 20 27 24 28 25 29 21 30 23 31 22 32 32 33 33 34
REMARK SMILES IDX 34 35 35 36 36 37 37 38 38 39 39 40 91 41 40 42 90 43 41 44
REMARK SMILES IDX 42 45 43 46 84 47 44 48 89 49 83 50 85 51 45 52 88 53 82 54
REMARK SMILES IDX 81 55 46 57 72 58 55 59 71 60 56 61 59 62 70 63 86 64 57 65
REMARK SMILES IDX 58 66 69 68 87 69 60 70 47 71 48 72 53 73 49 74 50 75 52 76
REMARK SMILES IDX 54 77 51 78 73 79 74 80 79 81 75 82 76 83 78 84 80 85 77 86
REMARK SMILES IDX 61 87 62 88 67 89 63 90 64 91 66 92 68 93 65 94
REMARK H PARENT 15 10 85 56 59 67
REMARK Flexibility Score: inf
ROOT
ATOM      1  C   UNL A   1      36.881  21.945  25.664  1.00  0.00     0.202 C 
ENDROOT
BRANCH   1   2
ATOM      2  C   UNL A   1      37.054  22.892  24.469  1.00  0.00     0.261 C 
BRANCH   2   3
ATOM      3  O   UNL A   1      36.155  24.010  24.524  1.00  0.00    -0.462 OA
BRANCH   3   4
ATOM      4  C   UNL A   1      35.097  23.932  23.676  1.00  0.00     0.329 C 
ATOM      5  O   UNL A   1      35.075  23.274  22.640  1.00  0.00    -0.250 OA
BRANCH   4   6
ATOM      6  C   UNL A   1      33.879  24.731  24.158  1.00  0.00     0.196 C 
BRANCH   6   7
ATOM      7  N   UNL A   1      32.581  24.408  23.577  1.00  0.00    -0.338 N 
ATOM      8  C   UNL A   1      31.490  25.140  23.178  1.00  0.00     0.264 C 
ATOM      9  O   UNL A   1      30.526  24.408  22.912  1.00  0.00    -0.268 OA
ATOM     10  H   UNL A   1      32.459  23.442  23.439  1.00  0.00     0.164 HD
BRANCH   8  11
ATOM     11  C   UNL A   1      31.418  26.599  23.018  1.00  0.00     0.115 A 
ATOM     12  C   UNL A   1      33.707  27.808  22.445  1.00  0.00     0.068 C 
ATOM     13  C   UNL A   1      32.251  27.676  22.703  1.00  0.00     0.062 A 
ATOM     14  N   UNL A   1      31.613  28.900  22.572  1.00  0.00    -0.241 NA
ATOM     15  C   UNL A   1      30.338  28.822  22.840  1.00  0.00     0.124 A 
ATOM     16  S   UNL A   1      29.797  27.271  23.266  1.00  0.00    -0.108 S 
BRANCH  15  17
ATOM     17  C   UNL A   1      29.457  29.982  22.746  1.00  0.00     0.010 A 
ATOM     18  C   UNL A   1      28.768  30.211  21.546  1.00  0.00     0.011 A 
ATOM     19  C   UNL A   1      29.424  30.959  23.749  1.00  0.00     0.011 A 
ATOM     20  C   UNL A   1      28.071  31.402  21.342  1.00  0.00     0.001 A 
ATOM     21  C   UNL A   1      28.732  32.155  23.540  1.00  0.00     0.001 A 
ATOM     22  C   UNL A   1      28.063  32.379  22.336  1.00  0.00     0.000 A 
ENDBRANCH  15  17
ENDBRANCH   8  11
ENDBRANCH   6   7
BRANCH   6  23
ATOM     23  C   UNL A   1      33.808  24.745  25.694  1.00  0.00     0.070 C 
BRANCH  23  24
ATOM     24  C   UNL A   1      32.869  25.785  26.223  1.00  0.00    -0.037 C 
ATOM     25  C   UNL A   1      33.080  27.091  26.363  1.00  0.00     0.001 A 
ATOM     26  C   UNL A   1      31.474  25.428  26.649  1.00  0.00     0.174 C 
ATOM     27  C   UNL A   1      34.177  27.973  26.133  1.00  0.00     0.010 A 
ATOM     28  C   UNL A   1      31.760  27.587  26.789  1.00  0.00     0.065 A 
ATOM     29  N   UNL A   1      30.819  26.715  26.975  1.00  0.00    -0.280 NA
ATOM     30  C   UNL A   1      33.985  29.293  26.289  1.00  0.00     0.001 A 
ATOM     31  C   UNL A   1      31.624  29.052  26.929  1.00  0.00     0.028 A 
ATOM     32  C   UNL A   1      32.691  29.830  26.677  1.00  0.00     0.002 A 
ENDBRANCH  23  24
ENDBRANCH   6  23
ENDBRANCH   4   6
ENDBRANCH   3   4
ENDBRANCH   2   3
ENDBRANCH   1   2
BRANCH   1  33
ATOM     33  O   UNL A   1      36.814  20.552  25.370  1.00  0.00    -0.374 OA
BRANCH  33  34
ATOM     34  C   UNL A   1      37.909  19.967  24.659  1.00  0.00     0.202 C 
BRANCH  34  35
ATOM     35  C   UNL A   1      38.978  19.229  25.482  1.00  0.00     0.261 C 
BRANCH  35  36
ATOM     36  O   UNL A   1      39.818  20.123  26.243  1.00  0.00    -0.460 OA
BRANCH  36  37
ATOM     37  C   UNL A   1      41.139  19.837  26.187  1.00  0.00     0.338 C 
ATOM     38  O   UNL A   1      41.661  18.805  25.777  1.00  0.00    -0.246 OA
BRANCH  37  39
ATOM     39  C   UNL A   1      41.951  21.007  26.554  1.00  0.00     0.060 A 
ATOM     40  C   UNL A   1      42.214  21.232  27.912  1.00  0.00     0.016 A 
ATOM     41  C   UNL A   1      42.281  21.970  25.599  1.00  0.00     0.016 A 
ATOM     42  C   UNL A   1      42.777  22.440  28.322  1.00  0.00     0.010 A 
ATOM     43  C   UNL A   1      42.837  23.186  26.015  1.00  0.00     0.010 A 
ATOM     44  C   UNL A   1      43.053  23.441  27.381  1.00  0.00    -0.014 A 
BRANCH  44  45
ATOM     45  C   UNL A   1      43.436  24.798  27.847  1.00  0.00     0.031 A 
ATOM     46  C   UNL A   1      42.362  25.810  28.142  1.00  0.00     0.074 A 
ATOM     47  C   UNL A   1      44.727  25.116  28.043  1.00  0.00     0.049 A 
ATOM     48  N   UNL A   1      42.478  27.050  28.546  1.00  0.00    -0.248 NA
ATOM     49  C   UNL A   1      40.972  25.365  27.957  1.00  0.00     0.031 C 
ATOM     50  C   UNL A   1      45.859  24.216  27.831  1.00  0.00     0.029 A 
ATOM     51  N   UNL A   1      45.300  26.289  28.465  1.00  0.00    -0.354 N 
ATOM     52  C   UNL A   1      41.181  27.534  28.664  1.00  0.00     0.074 A 
ATOM     53  C   UNL A   1      40.293  26.462  28.264  1.00  0.00     0.031 C 
ATOM     54  C   UNL A   1      46.995  24.872  28.121  1.00  0.00     0.029 A 
ATOM     55  C   UNL A   1      46.672  26.244  28.511  1.00  0.00     0.049 A 
ATOM     56  H   UNL A   1      44.779  27.087  28.710  1.00  0.00     0.167 HD
ATOM     57  C   UNL A   1      40.765  28.756  29.074  1.00  0.00     0.037 A 
ATOM     58  C   UNL A   1      47.564  27.206  28.816  1.00  0.00     0.037 A 
ATOM     59  C   UNL A   1      41.643  29.825  29.472  1.00  0.00     0.049 A 
ATOM     60  C   UNL A   1      47.080  28.577  29.198  1.00  0.00     0.074 A 
ATOM     61  C   UNL A   1      41.311  31.093  29.919  1.00  0.00     0.029 A 
ATOM     62  N   UNL A   1      43.026  29.754  29.462  1.00  0.00    -0.354 N 
ATOM     63  N   UNL A   1      45.852  29.017  29.323  1.00  0.00    -0.248 NA
ATOM     64  C   UNL A   1      48.110  29.589  29.480  1.00  0.00     0.031 C 
ATOM     65  C   UNL A   1      42.497  31.802  30.142  1.00  0.00     0.029 A 
ATOM     66  C   UNL A   1      43.565  30.963  29.870  1.00  0.00     0.049 A 
ATOM     67  H   UNL A   1      43.550  28.961  29.203  1.00  0.00     0.167 HD
ATOM     68  C   UNL A   1      45.960  30.346  29.715  1.00  0.00     0.074 A 
ATOM     69  C   UNL A   1      47.374  30.638  29.819  1.00  0.00     0.031 C 
ATOM     70  C   UNL A   1      44.975  31.242  29.968  1.00  0.00     0.037 A 
BRANCH  57  71
ATOM     71  C   UNL A   1      39.287  29.008  29.093  1.00  0.00     0.057 A 
ATOM     72  C   UNL A   1      38.528  28.864  30.261  1.00  0.00     0.134 A 
ATOM     73  C   UNL A   1      38.620  29.427  27.935  1.00  0.00     0.134 A 
ATOM     74  F   UNL A   1      39.105  28.453  31.401  1.00  0.00    -0.206 F 
ATOM     75  C   UNL A   1      37.153  29.106  30.271  1.00  0.00     0.040 A 
ATOM     76  C   UNL A   1      37.249  29.692  27.938  1.00  0.00     0.040 A 
ATOM     77  F   UNL A   1      39.290  29.589  26.784  1.00  0.00    -0.206 F 
ATOM     78  C   UNL A   1      36.511  29.527  29.108  1.00  0.00     0.006 A 
ENDBRANCH  57  71
BRANCH  58  79
ATOM     79  C   UNL A   1      49.015  26.908  28.757  1.00  0.00     0.057 A 
ATOM     80  C   UNL A   1      49.749  27.106  27.582  1.00  0.00     0.134 A 
ATOM     81  C   UNL A   1      49.700  26.407  29.871  1.00  0.00     0.134 A 
ATOM     82  F   UNL A   1      49.141  27.557  26.476  1.00  0.00    -0.206 F 
ATOM     83  C   UNL A   1      51.110  26.810  27.514  1.00  0.00     0.040 A 
ATOM     84  C   UNL A   1      51.066  26.129  29.823  1.00  0.00     0.040 A 
ATOM     85  F   UNL A   1      49.050  26.191  31.024  1.00  0.00    -0.206 F 
ATOM     86  C   UNL A   1      51.775  26.326  28.640  1.00  0.00     0.006 A 
ENDBRANCH  58  79
BRANCH  70  87
ATOM     87  C   UNL A   1      45.391  32.617  30.400  1.00  0.00     0.057 A 
ATOM     88  C   UNL A   1      45.567  33.656  29.478  1.00  0.00     0.134 A 
ATOM     89  C   UNL A   1      45.582  32.913  31.755  1.00  0.00     0.134 A 
ATOM     90  F   UNL A   1      45.412  33.433  28.164  1.00  0.00    -0.206 F 
ATOM     91  C   UNL A   1      45.937  34.938  29.887  1.00  0.00     0.040 A 
ATOM     92  C   UNL A   1      45.931  34.197  32.179  1.00  0.00     0.040 A 
ATOM     93  F   UNL A   1      45.422  31.964  32.689  1.00  0.00    -0.206 F 
ATOM     94  C   UNL A   1      46.113  35.213  31.242  1.00  0.00     0.006 A 
ENDBRANCH  70  87
ENDBRANCH  44  45
ENDBRANCH  37  39
ENDBRANCH  36  37
ENDBRANCH  35  36
ENDBRANCH  34  35
ENDBRANCH  33  34
ENDBRANCH   1  33
TORSDOF 19
ENDMDL
MODEL 2
REMARK VINA RESULT:     -11.6      2.383      7.065
REMARK SMILES Cc1nc(-c2ccccc2)sc1C(=O)N[C@@H](CC1=c2ccccc2=NC1)C(=O)OCCOCCOC(=O)c1ccc(-c2c3nc(c(-c4c(F)cccc4F)c4ccc([nH]4)c(-c4c(F)cccc4F)c4nc(c(-c5c(F)cccc5F)c5ccc2[nH]5)C=C4)C=C3)cc1
REMARK SMILES IDX 31 1 30 2 29 3 27 4 28 5 16 6 15 7 13 8 14 9 12 11 1 12 2 13
REMARK SMILES IDX 3 14 4 15 11 16 5 17 6 18 10 19 7 20 9 21 8 22 17 23 18 24
REMARK SMILES IDX 19 25 26 26 20 27 24 28 25 29 21 30 23 31 22 32 32 33 33 34
REMARK SMILES IDX 34 35 35 36 36 37 37 38 38 39 39 40 91 41 40 42 90 43 41 44
REMARK SMILES IDX 42 45 43 46 84 47 44 48 89 49 83 50 85 51 45 52 88 53 82 54
REMARK SMILES IDX 81 55 46 57 72 58 55 59 71 60 56 61 59 62 70 63 86 64 57 65
REMARK SMILES IDX 58 66 69 68 87 69 60 70 47 71 48 72 53 73 49 74 50 75 52 76
REMARK SMILES IDX 54 77 51 78 73 79 74 80 79 81 75 82 76 83 78 84 80 85 77 86
REMARK SMILES IDX 61 87 62 88 67 89 63 90 64 91 66 92 68 93 65 94
REMARK H PARENT 15 10 85 56 59 67
REMARK Flexibility Score: inf
ROOT
ATOM      1  C   UNL A   1      35.757  22.264  25.148  1.00  0.00     0.202 C 
ENDROOT
BRANCH   1   2
ATOM      2  C   UNL A   1      36.115  23.696  24.730  1.00  0.00     0.261 C 
BRANCH   2   3
ATOM      3  O   UNL A   1      35.090  24.639  25.079  1.00  0.00    -0.462 OA
BRANCH   3   4
ATOM      4  C   UNL A   1      34.378  25.120  24.027  1.00  0.00     0.329 C 
ATOM      5  O   UNL A   1      34.584  24.834  22.851  1.00  0.00    -0.250 OA
BRANCH   4   6
ATOM      6  C   UNL A   1      33.235  26.052  24.449  1.00  0.00     0.196 C 
BRANCH   6   7
ATOM      7  N   UNL A   1      31.888  25.726  23.992  1.00  0.00    -0.338 N 
ATOM      8  C   UNL A   1      31.165  24.567  23.858  1.00  0.00     0.264 C 
ATOM      9  O   UNL A   1      30.108  24.762  23.242  1.00  0.00    -0.268 OA
ATOM     10  H   UNL A   1      31.382  26.523  23.715  1.00  0.00     0.164 HD
BRANCH   8  11
ATOM     11  C   UNL A   1      31.515  23.244  24.393  1.00  0.00     0.115 A 
ATOM     12  C   UNL A   1      31.026  22.879  26.973  1.00  0.00     0.068 C 
ATOM     13  C   UNL A   1      31.451  22.532  25.594  1.00  0.00     0.062 A 
ATOM     14  N   UNL A   1      31.839  21.203  25.516  1.00  0.00    -0.241 NA
ATOM     15  C   UNL A   1      32.262  20.882  24.323  1.00  0.00     0.124 A 
ATOM     16  S   UNL A   1      32.224  22.148  23.194  1.00  0.00    -0.108 S 
BRANCH  15  17
ATOM     17  C   UNL A   1      32.700  19.529  23.998  1.00  0.00     0.010 A 
ATOM     18  C   UNL A   1      33.750  18.962  24.737  1.00  0.00     0.011 A 
ATOM     19  C   UNL A   1      32.226  18.860  22.863  1.00  0.00     0.011 A 
ATOM     20  C   UNL A   1      34.329  17.757  24.340  1.00  0.00     0.001 A 
ATOM     21  C   UNL A   1      32.813  17.656  22.462  1.00  0.00     0.001 A 
ATOM     22  C   UNL A   1      33.867  17.110  23.196  1.00  0.00     0.000 A 
ENDBRANCH  15  17
ENDBRANCH   8  11
ENDBRANCH   6   7
BRANCH   6  23
ATOM     23  C   UNL A   1      33.259  26.293  25.968  1.00  0.00     0.070 C 
BRANCH  23  24
ATOM     24  C   UNL A   1      32.876  27.692  26.341  1.00  0.00    -0.037 C 
ATOM     25  C   UNL A   1      33.647  28.650  26.849  1.00  0.00     0.001 A 
ATOM     26  C   UNL A   1      31.479  28.198  26.127  1.00  0.00     0.174 C 
ATOM     27  C   UNL A   1      35.011  28.748  27.252  1.00  0.00     0.010 A 
ATOM     28  C   UNL A   1      32.747  29.815  26.862  1.00  0.00     0.065 A 
ATOM     29  N   UNL A   1      31.520  29.635  26.479  1.00  0.00    -0.280 NA
ATOM     30  C   UNL A   1      35.486  29.946  27.630  1.00  0.00     0.001 A 
ATOM     31  C   UNL A   1      33.344  31.101  27.280  1.00  0.00     0.028 A 
ATOM     32  C   UNL A   1      34.642  31.131  27.628  1.00  0.00     0.002 A 
ENDBRANCH  23  24
ENDBRANCH   6  23
ENDBRANCH   4   6
ENDBRANCH   3   4
ENDBRANCH   2   3
ENDBRANCH   1   2
BRANCH   1  33
ATOM     33  O   UNL A   1      36.825  21.454  25.631  1.00  0.00    -0.374 OA
BRANCH  33  34
ATOM     34  C   UNL A   1      37.054  20.197  24.987  1.00  0.00     0.202 C 
BRANCH  34  35
ATOM     35  C   UNL A   1      38.490  19.650  24.984  1.00  0.00     0.261 C 
BRANCH  35  36
ATOM     36  O   UNL A   1      39.109  19.686  26.288  1.00  0.00    -0.460 OA
BRANCH  36  37
ATOM     37  C   UNL A   1      40.405  20.074  26.285  1.00  0.00     0.338 C 
ATOM     38  O   UNL A   1      41.357  19.485  25.783  1.00  0.00    -0.246 OA
BRANCH  37  39
ATOM     39  C   UNL A   1      40.557  21.421  26.853  1.00  0.00     0.060 A 
ATOM     40  C   UNL A   1      39.999  22.502  26.157  1.00  0.00     0.016 A 
ATOM     41  C   UNL A   1      41.397  21.641  27.946  1.00  0.00     0.016 A 
ATOM     42  C   UNL A   1      40.311  23.809  26.530  1.00  0.00     0.010 A 
ATOM     43  C   UNL A   1      41.717  22.954  28.313  1.00  0.00     0.010 A 
ATOM     44  C   UNL A   1      41.206  24.043  27.584  1.00  0.00    -0.014 A 
BRANCH  44  45
ATOM     45  C   UNL A   1      41.706  25.419  27.827  1.00  0.00     0.031 A 
ATOM     46  C   UNL A   1      43.058  25.819  27.299  1.00  0.00     0.074 A 
ATOM     47  C   UNL A   1      40.949  26.318  28.478  1.00  0.00     0.049 A 
ATOM     48  N   UNL A   1      43.687  26.962  27.410  1.00  0.00    -0.248 NA
ATOM     49  C   UNL A   1      43.799  24.794  26.548  1.00  0.00     0.031 C 
ATOM     50  C   UNL A   1      39.608  26.069  29.004  1.00  0.00     0.029 A 
ATOM     51  N   UNL A   1      41.205  27.626  28.806  1.00  0.00    -0.354 N 
ATOM     52  C   UNL A   1      44.895  26.796  26.744  1.00  0.00     0.074 A 
ATOM     53  C   UNL A   1      44.923  25.434  26.254  1.00  0.00     0.031 C 
ATOM     54  C   UNL A   1      39.160  27.189  29.596  1.00  0.00     0.029 A 
ATOM     55  C   UNL A   1      40.190  28.223  29.513  1.00  0.00     0.049 A 
ATOM     56  H   UNL A   1      42.037  28.091  28.560  1.00  0.00     0.167 HD
ATOM     57  C   UNL A   1      45.888  27.697  26.550  1.00  0.00     0.037 A 
ATOM     58  C   UNL A   1      40.112  29.457  30.047  1.00  0.00     0.037 A 
ATOM     59  C   UNL A   1      45.866  29.052  27.035  1.00  0.00     0.049 A 
ATOM     60  C   UNL A   1      41.258  30.416  29.882  1.00  0.00     0.074 A 
ATOM     61  C   UNL A   1      46.820  30.042  26.873  1.00  0.00     0.029 A 
ATOM     62  N   UNL A   1      44.840  29.604  27.785  1.00  0.00    -0.354 N 
ATOM     63  N   UNL A   1      42.387  30.253  29.235  1.00  0.00    -0.248 NA
ATOM     64  C   UNL A   1      41.120  31.732  30.525  1.00  0.00     0.031 C 
ATOM     65  C   UNL A   1      46.388  31.183  27.560  1.00  0.00     0.029 A 
ATOM     66  C   UNL A   1      45.148  30.913  28.116  1.00  0.00     0.049 A 
ATOM     67  H   UNL A   1      44.014  29.135  28.044  1.00  0.00     0.167 HD
ATOM     68  C   UNL A   1      43.083  31.448  29.376  1.00  0.00     0.074 A 
ATOM     69  C   UNL A   1      42.245  32.331  30.160  1.00  0.00     0.031 C 
ATOM     70  C   UNL A   1      44.306  31.782  28.898  1.00  0.00     0.037 A 
BRANCH  57  71
ATOM     71  C   UNL A   1      47.098  27.234  25.795  1.00  0.00     0.057 A 
ATOM     72  C   UNL A   1      47.245  27.469  24.422  1.00  0.00     0.134 A 
ATOM     73  C   UNL A   1      48.139  26.569  26.453  1.00  0.00     0.134 A 
ATOM     74  F   UNL A   1      46.277  28.089  23.730  1.00  0.00    -0.206 F 
ATOM     75  C   UNL A   1      48.377  27.039  23.727  1.00  0.00     0.040 A 
ATOM     76  C   UNL A   1      49.285  26.154  25.773  1.00  0.00     0.040 A 
ATOM     77  F   UNL A   1      48.062  26.318  27.769  1.00  0.00    -0.206 F 
ATOM     78  C   UNL A   1      49.404  26.384  24.405  1.00  0.00     0.006 A 
ENDBRANCH  57  71
BRANCH  58  79
ATOM     79  C   UNL A   1      38.901  29.854  30.806  1.00  0.00     0.057 A 
ATOM     80  C   UNL A   1      37.919  30.668  30.230  1.00  0.00     0.134 A 
ATOM     81  C   UNL A   1      38.703  29.438  32.128  1.00  0.00     0.134 A 
ATOM     82  F   UNL A   1      38.068  31.120  28.976  1.00  0.00    -0.206 F 
ATOM     83  C   UNL A   1      36.787  31.061  30.944  1.00  0.00     0.040 A 
ATOM     84  C   UNL A   1      37.565  29.805  32.846  1.00  0.00     0.040 A 
ATOM     85  F   UNL A   1      39.612  28.661  32.736  1.00  0.00    -0.206 F 
ATOM     86  C   UNL A   1      36.604  30.623  32.255  1.00  0.00     0.006 A 
ENDBRANCH  58  79
BRANCH  70  87
ATOM     87  C   UNL A   1      44.803  33.167  29.191  1.00  0.00     0.057 A 
ATOM     88  C   UNL A   1      44.492  34.251  28.362  1.00  0.00     0.134 A 
ATOM     89  C   UNL A   1      45.570  33.423  30.333  1.00  0.00     0.134 A 
ATOM     90  F   UNL A   1      43.771  34.068  27.245  1.00  0.00    -0.206 F 
ATOM     91  C   UNL A   1      44.943  35.540  28.648  1.00  0.00     0.040 A 
ATOM     92  C   UNL A   1      46.009  34.712  30.643  1.00  0.00     0.040 A 
ATOM     93  F   UNL A   1      45.897  32.429  31.173  1.00  0.00    -0.206 F 
ATOM     94  C   UNL A   1      45.698  35.775  29.796  1.00  0.00     0.006 A 
ENDBRANCH  70  87
ENDBRANCH  44  45
ENDBRANCH  37  39
ENDBRANCH  36  37
ENDBRANCH  35  36
ENDBRANCH  34  35
ENDBRANCH  33  34
ENDBRANCH   1  33
TORSDOF 19
ENDMDL
MODEL 3
REMARK VINA RESULT:     -11.5      2.454      7.015
REMARK SMILES Cc1nc(-c2ccccc2)sc1C(=O)N[C@@H](CC1=c2ccccc2=NC1)C(=O)OCCOCCOC(=O)c1ccc(-c2c3nc(c(-c4c(F)cccc4F)c4ccc([nH]4)c(-c4c(F)cccc4F)c4nc(c(-c5c(F)cccc5F)c5ccc2[nH]5)C=C4)C=C3)cc1
REMARK SMILES IDX 31 1 30 2 29 3 27 4 28 5 16 6 15 7 13 8 14 9 12 11 1 12 2 13
REMARK SMILES IDX 3 14 4 15 11 16 5 17 6 18 10 19 7 20 9 21 8 22 17 23 18 24
REMARK SMILES IDX 19 25 26 26 20 27 24 28 25 29 21 30 23 31 22 32 32 33 33 34
REMARK SMILES IDX 34 35 35 36 36 37 37 38 38 39 39 40 91 41 40 42 90 43 41 44
REMARK SMILES IDX 42 45 43 46 84 47 44 48 89 49 83 50 85 51 45 52 88 53 82 54
REMARK SMILES IDX 81 55 46 57 72 58 55 59 71 60 56 61 59 62 70 63 86 64 57 65
REMARK SMILES IDX 58 66 69 68 87 69 60 70 47 71 48 72 53 73 49 74 50 75 52 76
REMARK SMILES IDX 54 77 51 78 73 79 74 80 79 81 75 82 76 83 78 84 80 85 77 86
REMARK SMILES IDX 61 87 62 88 67 89 63 90 64 91 66 92 68 93 65 94
REMARK H PARENT 15 10 85 56 59 67
REMARK Flexibility Score: inf
ROOT
ATOM      1  C   UNL A   1      35.279  23.330  25.302  1.00  0.00     0.202 C 
ENDROOT
BRANCH   1   2
ATOM      2  C   UNL A   1      34.698  24.172  24.159  1.00  0.00     0.261 C 
BRANCH   2   3
ATOM      3  O   UNL A   1      34.633  23.444  22.922  1.00  0.00    -0.462 OA
BRANCH   3   4
ATOM      4  C   UNL A   1      33.458  23.566  22.251  1.00  0.00     0.329 C 
ATOM      5  O   UNL A   1      33.352  23.930  21.084  1.00  0.00    -0.250 OA
BRANCH   4   6
ATOM      6  C   UNL A   1      32.240  23.160  23.091  1.00  0.00     0.196 C 
BRANCH   6   7
ATOM      7  N   UNL A   1      31.093  24.061  23.104  1.00  0.00    -0.338 N 
ATOM      8  C   UNL A   1      30.885  25.357  23.503  1.00  0.00     0.264 C 
ATOM      9  O   UNL A   1      29.680  25.645  23.497  1.00  0.00    -0.268 OA
ATOM     10  H   UNL A   1      30.279  23.640  22.745  1.00  0.00     0.164 HD
BRANCH   8  11
ATOM     11  C   UNL A   1      31.913  26.346  23.857  1.00  0.00     0.115 A 
ATOM     12  C   UNL A   1      33.489  27.129  21.875  1.00  0.00     0.068 C 
ATOM     13  C   UNL A   1      32.931  27.086  23.249  1.00  0.00     0.062 A 
ATOM     14  N   UNL A   1      33.563  28.008  24.070  1.00  0.00    -0.241 NA
ATOM     15  C   UNL A   1      33.123  27.959  25.297  1.00  0.00     0.124 A 
ATOM     16  S   UNL A   1      31.908  26.807  25.569  1.00  0.00    -0.108 S 
BRANCH  15  17
ATOM     17  C   UNL A   1      33.627  28.854  26.334  1.00  0.00     0.010 A 
ATOM     18  C   UNL A   1      32.933  30.046  26.595  1.00  0.00     0.011 A 
ATOM     19  C   UNL A   1      34.871  28.644  26.940  1.00  0.00     0.011 A 
ATOM     20  C   UNL A   1      33.478  31.018  27.433  1.00  0.00     0.001 A 
ATOM     21  C   UNL A   1      35.420  29.623  27.774  1.00  0.00     0.001 A 
ATOM     22  C   UNL A   1      34.727  30.810  28.014  1.00  0.00     0.000 A 
ENDBRANCH  15  17
ENDBRANCH   8  11
ENDBRANCH   6   7
BRANCH   6  23
ATOM     23  C   UNL A   1      31.809  21.720  22.767  1.00  0.00     0.070 C 
BRANCH  23  24
ATOM     24  C   UNL A   1      32.261  20.732  23.797  1.00  0.00    -0.037 C 
ATOM     25  C   UNL A   1      32.559  19.446  23.631  1.00  0.00     0.001 A 
ATOM     26  C   UNL A   1      32.471  21.140  25.226  1.00  0.00     0.174 C 
ATOM     27  C   UNL A   1      32.545  18.534  22.533  1.00  0.00     0.010 A 
ATOM     28  C   UNL A   1      33.065  19.057  24.958  1.00  0.00     0.065 A 
ATOM     29  N   UNL A   1      33.039  19.950  25.899  1.00  0.00    -0.280 NA
ATOM     30  C   UNL A   1      33.033  17.297  22.720  1.00  0.00     0.001 A 
ATOM     31  C   UNL A   1      33.594  17.683  25.081  1.00  0.00     0.028 A 
ATOM     32  C   UNL A   1      33.573  16.880  24.004  1.00  0.00     0.002 A 
ENDBRANCH  23  24
ENDBRANCH   6  23
ENDBRANCH   4   6
ENDBRANCH   3   4
ENDBRANCH   2   3
ENDBRANCH   1   2
BRANCH   1  33
ATOM     33  O   UNL A   1      36.408  22.520  24.988  1.00  0.00    -0.374 OA
BRANCH  33  34
ATOM     34  C   UNL A   1      36.260  21.101  25.093  1.00  0.00     0.202 C 
BRANCH  34  35
ATOM     35  C   UNL A   1      37.542  20.253  25.119  1.00  0.00     0.261 C 
BRANCH  35  36
ATOM     36  O   UNL A   1      38.745  21.050  25.083  1.00  0.00    -0.460 OA
BRANCH  36  37
ATOM     37  C   UNL A   1      39.569  20.872  26.141  1.00  0.00     0.338 C 
ATOM     38  O   UNL A   1      40.112  19.831  26.495  1.00  0.00    -0.246 OA
BRANCH  37  39
ATOM     39  C   UNL A   1      39.886  22.154  26.788  1.00  0.00     0.060 A 
ATOM     40  C   UNL A   1      39.282  23.316  26.289  1.00  0.00     0.016 A 
ATOM     41  C   UNL A   1      40.906  22.237  27.737  1.00  0.00     0.016 A 
ATOM     42  C   UNL A   1      39.723  24.569  26.714  1.00  0.00     0.010 A 
ATOM     43  C   UNL A   1      41.354  23.496  28.155  1.00  0.00     0.010 A 
ATOM     44  C   UNL A   1      40.791  24.668  27.618  1.00  0.00    -0.014 A 
BRANCH  44  45
ATOM     45  C   UNL A   1      41.399  25.994  27.888  1.00  0.00     0.031 A 
ATOM     46  C   UNL A   1      42.791  26.285  27.395  1.00  0.00     0.074 A 
ATOM     47  C   UNL A   1      40.706  26.947  28.534  1.00  0.00     0.049 A 
ATOM     48  N   UNL A   1      43.512  27.370  27.533  1.00  0.00    -0.248 NA
ATOM     49  C   UNL A   1      43.460  25.209  26.647  1.00  0.00     0.031 C 
ATOM     50  C   UNL A   1      39.338  26.807  29.029  1.00  0.00     0.029 A 
ATOM     51  N   UNL A   1      41.064  28.225  28.885  1.00  0.00    -0.354 N 
ATOM     52  C   UNL A   1      44.716  27.109  26.891  1.00  0.00     0.074 A 
ATOM     53  C   UNL A   1      44.640  25.754  26.385  1.00  0.00     0.031 C 
ATOM     54  C   UNL A   1      38.972  27.954  29.625  1.00  0.00     0.029 A 
ATOM     55  C   UNL A   1      40.088  28.898  29.577  1.00  0.00     0.049 A 
ATOM     56  H   UNL A   1      41.937  28.621  28.662  1.00  0.00     0.167 HD
ATOM     57  C   UNL A   1      45.785  27.925  26.730  1.00  0.00     0.037 A 
ATOM     58  C   UNL A   1      40.101  30.129  30.125  1.00  0.00     0.037 A 
ATOM     59  C   UNL A   1      45.867  29.271  27.231  1.00  0.00     0.049 A 
ATOM     60  C   UNL A   1      41.327  30.989  29.996  1.00  0.00     0.074 A 
ATOM     61  C   UNL A   1      46.904  30.180  27.101  1.00  0.00     0.029 A 
ATOM     62  N   UNL A   1      44.875  29.900  27.966  1.00  0.00    -0.354 N 
ATOM     63  N   UNL A   1      42.453  30.739  29.372  1.00  0.00    -0.248 NA
ATOM     64  C   UNL A   1      41.287  32.305  30.652  1.00  0.00     0.031 C 
ATOM     65  C   UNL A   1      46.554  31.345  27.793  1.00  0.00     0.029 A 
ATOM     66  C   UNL A   1      45.284  31.175  28.320  1.00  0.00     0.049 A 
ATOM     67  H   UNL A   1      44.006  29.500  28.202  1.00  0.00     0.167 HD
ATOM     68  C   UNL A   1      43.244  31.869  29.543  1.00  0.00     0.074 A 
ATOM     69  C   UNL A   1      42.466  32.811  30.319  1.00  0.00     0.031 C 
ATOM     70  C   UNL A   1      44.501  32.104  29.095  1.00  0.00     0.037 A 
BRANCH  57  71
ATOM     71  C   UNL A   1      46.969  27.369  25.995  1.00  0.00     0.057 A 
ATOM     72  C   UNL A   1      47.124  27.537  24.612  1.00  0.00     0.134 A 
ATOM     73  C   UNL A   1      47.978  26.683  26.681  1.00  0.00     0.134 A 
ATOM     74  F   UNL A   1      46.186  28.174  23.895  1.00  0.00    -0.206 F 
ATOM     75  C   UNL A   1      48.231  27.022  23.936  1.00  0.00     0.040 A 
ATOM     76  C   UNL A   1      49.100  26.182  26.019  1.00  0.00     0.040 A 
ATOM     77  F   UNL A   1      47.891  26.493  28.006  1.00  0.00    -0.206 F 
ATOM     78  C   UNL A   1      49.226  26.346  24.641  1.00  0.00     0.006 A 
ENDBRANCH  57  71
BRANCH  58  79
ATOM     79  C   UNL A   1      38.912  30.618  30.863  1.00  0.00     0.057 A 
ATOM     80  C   UNL A   1      38.746  30.354  32.227  1.00  0.00     0.134 A 
ATOM     81  C   UNL A   1      37.907  31.350  30.219  1.00  0.00     0.134 A 
ATOM     82  F   UNL A   1      39.662  29.634  32.891  1.00  0.00    -0.206 F 
ATOM     83  C   UNL A   1      37.621  30.795  32.924  1.00  0.00     0.040 A 
ATOM     84  C   UNL A   1      36.788  31.816  30.908  1.00  0.00     0.040 A 
ATOM     85  F   UNL A   1      38.007  31.629  28.910  1.00  0.00    -0.206 F 
ATOM     86  C   UNL A   1      36.640  31.535  32.264  1.00  0.00     0.006 A 
ENDBRANCH  58  79
BRANCH  70  87
ATOM     87  C   UNL A   1      45.106  33.438  29.415  1.00  0.00     0.057 A 
ATOM     88  C   UNL A   1      45.888  33.635  30.560  1.00  0.00     0.134 A 
ATOM     89  C   UNL A   1      44.936  34.526  28.551  1.00  0.00     0.134 A 
ATOM     90  F   UNL A   1      46.079  32.634  31.434  1.00  0.00    -0.206 F 
ATOM     91  C   UNL A   1      46.465  34.874  30.844  1.00  0.00     0.040 A 
ATOM     92  C   UNL A   1      45.525  35.765  28.813  1.00  0.00     0.040 A 
ATOM     93  F   UNL A   1      44.204  34.402  27.434  1.00  0.00    -0.206 F 
ATOM     94  C   UNL A   1      46.289  35.942  29.966  1.00  0.00     0.006 A 
ENDBRANCH  70  87
ENDBRANCH  44  45
ENDBRANCH  37  39
ENDBRANCH  36  37
ENDBRANCH  35  36
ENDBRANCH  34  35
ENDBRANCH  33  34
ENDBRANCH   1  33
TORSDOF 19
ENDMDL
