MODEL 1
REMARK VINA RESULT:     -10.5      0.000      0.000
REMARK SMILES Cc1cscc1CNC(=O)CC(C)(C)C(=O)OCCOCCOC(=O)c1ccc(-c2c3nc(c(-c4c(F)cccc4F)c4ccc([nH]4)c(-c4c(F)cccc4F)c4nc(c(-c5c(F)cccc5F)c5ccc2[nH]5)C=C4)C=C3)cc1
REMARK SMILES IDX 19 1 18 2 17 3 15 4 16 5 12 6 13 7 14 8 11 9 9 10 8 11 10 13
REMARK SMILES IDX 7 14 6 15 1 16 2 17 3 18 4 19 5 20 20 21 21 22 22 23 23 24
REMARK SMILES IDX 24 25 25 26 26 27 27 28 79 29 28 30 78 31 29 32 30 33 31 34
REMARK SMILES IDX 72 35 32 36 77 37 71 38 73 39 33 40 76 41 70 42 69 43 34 45
REMARK SMILES IDX 60 46 43 47 59 48 44 49 47 50 58 51 74 52 45 53 46 54 57 56
REMARK SMILES IDX 75 57 48 58 35 59 36 60 41 61 37 62 38 63 40 64 42 65 39 66
REMARK SMILES IDX 61 67 62 68 67 69 63 70 64 71 66 72 68 73 65 74 49 75 50 76
REMARK SMILES IDX 55 77 51 78 52 79 54 80 56 81 53 82
REMARK H PARENT 8 12 73 44 47 55
REMARK Flexibility Score: inf
ROOT
ATOM      1  C   UNL A   1      40.303  21.470  26.685  1.00  0.00     0.202 C 
ENDROOT
BRANCH   1   2
ATOM      2  C   UNL A   1      39.132  21.049  25.786  1.00  0.00     0.261 C 
BRANCH   2   3
ATOM      3  O   UNL A   1      38.039  21.983  25.741  1.00  0.00    -0.463 OA
BRANCH   3   4
ATOM      4  C   UNL A   1      36.905  21.478  25.174  1.00  0.00     0.312 C 
ATOM      5  O   UNL A   1      36.732  20.278  25.019  1.00  0.00    -0.252 OA
BRANCH   4   6
ATOM      6  C   UNL A   1      35.917  22.571  24.725  1.00  0.00     0.071 C 
ATOM      7  C   UNL A   1      36.222  22.896  23.253  1.00  0.00     0.024 C 
ATOM      8  C   UNL A   1      36.122  23.884  25.517  1.00  0.00     0.024 C 
BRANCH   6   9
ATOM      9  C   UNL A   1      34.424  22.148  24.898  1.00  0.00     0.118 C 
BRANCH   9  10
ATOM     10  C   UNL A   1      34.007  21.443  26.181  1.00  0.00     0.221 C 
ATOM     11  N   UNL A   1      33.287  20.290  26.144  1.00  0.00    -0.352 N 
ATOM     12  H   UNL A   1      33.266  19.782  26.988  1.00  0.00     0.163 HD
ATOM     13  O   UNL A   1      34.308  21.921  27.277  1.00  0.00    -0.275 OA
BRANCH  11  14
ATOM     14  C   UNL A   1      32.553  19.698  25.056  1.00  0.00     0.152 C 
BRANCH  14  15
ATOM     15  C   UNL A   1      32.917  18.259  24.806  1.00  0.00    -0.015 A 
ATOM     16  C   UNL A   1      32.527  18.392  22.234  1.00  0.00     0.045 C 
ATOM     17  C   UNL A   1      32.953  17.679  23.477  1.00  0.00    -0.035 A 
ATOM     18  C   UNL A   1      33.440  16.386  23.494  1.00  0.00     0.068 A 
ATOM     19  S   UNL A   1      33.788  15.833  25.067  1.00  0.00    -0.152 S 
ATOM     20  C   UNL A   1      33.283  17.313  25.749  1.00  0.00     0.070 A 
ENDBRANCH  14  15
ENDBRANCH  11  14
ENDBRANCH   9  10
ENDBRANCH   6   9
ENDBRANCH   4   6
ENDBRANCH   3   4
ENDBRANCH   2   3
ENDBRANCH   1   2
BRANCH   1  21
ATOM     21  O   UNL A   1      41.374  20.562  26.903  1.00  0.00    -0.374 OA
BRANCH  21  22
ATOM     22  C   UNL A   1      42.474  20.565  25.998  1.00  0.00     0.202 C 
BRANCH  22  23
ATOM     23  C   UNL A   1      43.365  21.811  25.942  1.00  0.00     0.261 C 
BRANCH  23  24
ATOM     24  O   UNL A   1      42.766  22.895  25.205  1.00  0.00    -0.460 OA
BRANCH  24  25
ATOM     25  C   UNL A   1      43.459  24.058  25.264  1.00  0.00     0.338 C 
ATOM     26  O   UNL A   1      44.466  24.355  24.636  1.00  0.00    -0.246 OA
BRANCH  25  27
ATOM     27  C   UNL A   1      42.742  25.053  26.078  1.00  0.00     0.060 A 
ATOM     28  C   UNL A   1      43.330  26.319  26.210  1.00  0.00     0.016 A 
ATOM     29  C   UNL A   1      41.610  24.713  26.819  1.00  0.00     0.016 A 
ATOM     30  C   UNL A   1      42.831  27.225  27.140  1.00  0.00     0.010 A 
ATOM     31  C   UNL A   1      41.117  25.622  27.764  1.00  0.00     0.010 A 
ATOM     32  C   UNL A   1      41.760  26.858  27.964  1.00  0.00    -0.014 A 
BRANCH  32  33
ATOM     33  C   UNL A   1      41.476  27.678  29.166  1.00  0.00     0.031 A 
ATOM     34  C   UNL A   1      40.296  28.614  29.137  1.00  0.00     0.074 A 
ATOM     35  C   UNL A   1      42.195  27.536  30.292  1.00  0.00     0.049 A 
ATOM     36  N   UNL A   1      39.831  29.397  30.077  1.00  0.00    -0.248 NA
ATOM     37  C   UNL A   1      39.534  28.668  27.878  1.00  0.00     0.031 C 
ATOM     38  C   UNL A   1      43.322  26.621  30.465  1.00  0.00     0.029 A 
ATOM     39  N   UNL A   1      42.071  28.156  31.509  1.00  0.00    -0.354 N 
ATOM     40  C   UNL A   1      38.726  30.032  29.525  1.00  0.00     0.074 A 
ATOM     41  C   UNL A   1      38.611  29.573  28.158  1.00  0.00     0.031 C 
ATOM     42  C   UNL A   1      43.783  26.734  31.723  1.00  0.00     0.029 A 
ATOM     43  C   UNL A   1      43.000  27.745  32.431  1.00  0.00     0.049 A 
ATOM     44  H   UNL A   1      41.382  28.831  31.702  1.00  0.00     0.167 HD
ATOM     45  C   UNL A   1      37.872  30.909  30.106  1.00  0.00     0.037 A 
ATOM     46  C   UNL A   1      43.195  28.146  33.703  1.00  0.00     0.037 A 
ATOM     47  C   UNL A   1      37.985  31.371  31.463  1.00  0.00     0.049 A 
ATOM     48  C   UNL A   1      42.286  29.185  34.301  1.00  0.00     0.074 A 
ATOM     49  C   UNL A   1      37.175  32.263  32.143  1.00  0.00     0.029 A 
ATOM     50  N   UNL A   1      38.976  30.974  32.348  1.00  0.00    -0.354 N 
ATOM     51  N   UNL A   1      41.241  29.775  33.772  1.00  0.00    -0.248 NA
ATOM     52  C   UNL A   1      42.584  29.612  35.676  1.00  0.00     0.031 C 
ATOM     53  C   UNL A   1      37.700  32.437  33.429  1.00  0.00     0.029 A 
ATOM     54  C   UNL A   1      38.811  31.619  33.562  1.00  0.00     0.049 A 
ATOM     55  H   UNL A   1      39.692  30.330  32.143  1.00  0.00     0.167 HD
ATOM     56  C   UNL A   1      40.736  30.613  34.759  1.00  0.00     0.074 A 
ATOM     57  C   UNL A   1      41.588  30.453  35.919  1.00  0.00     0.031 C 
ATOM     58  C   UNL A   1      39.661  31.438  34.711  1.00  0.00     0.037 A 
BRANCH  45  59
ATOM     59  C   UNL A   1      36.756  31.441  29.255  1.00  0.00     0.057 A 
ATOM     60  C   UNL A   1      35.638  30.662  28.931  1.00  0.00     0.134 A 
ATOM     61  C   UNL A   1      36.801  32.748  28.754  1.00  0.00     0.134 A 
ATOM     62  F   UNL A   1      35.543  29.395  29.364  1.00  0.00    -0.206 F 
ATOM     63  C   UNL A   1      34.617  31.154  28.115  1.00  0.00     0.040 A 
ATOM     64  C   UNL A   1      35.774  33.260  27.958  1.00  0.00     0.040 A 
ATOM     65  F   UNL A   1      37.842  33.548  29.029  1.00  0.00    -0.206 F 
ATOM     66  C   UNL A   1      34.683  32.460  27.630  1.00  0.00     0.006 A 
ENDBRANCH  45  59
BRANCH  46  67
ATOM     67  C   UNL A   1      44.295  27.555  34.507  1.00  0.00     0.057 A 
ATOM     68  C   UNL A   1      44.065  26.469  35.358  1.00  0.00     0.134 A 
ATOM     69  C   UNL A   1      45.593  28.076  34.458  1.00  0.00     0.134 A 
ATOM     70  F   UNL A   1      42.836  25.944  35.465  1.00  0.00    -0.206 F 
ATOM     71  C   UNL A   1      45.085  25.927  36.141  1.00  0.00     0.040 A 
ATOM     72  C   UNL A   1      46.628  27.530  35.220  1.00  0.00     0.040 A 
ATOM     73  F   UNL A   1      45.876  29.118  33.663  1.00  0.00    -0.206 F 
ATOM     74  C   UNL A   1      46.372  26.456  36.070  1.00  0.00     0.006 A 
ENDBRANCH  46  67
BRANCH  58  75
ATOM     75  C   UNL A   1      39.318  32.194  35.961  1.00  0.00     0.057 A 
ATOM     76  C   UNL A   1      39.894  33.436  36.256  1.00  0.00     0.134 A 
ATOM     77  C   UNL A   1      38.372  31.687  36.861  1.00  0.00     0.134 A 
ATOM     78  F   UNL A   1      40.814  33.970  35.440  1.00  0.00    -0.206 F 
ATOM     79  C   UNL A   1      39.557  34.137  37.415  1.00  0.00     0.040 A 
ATOM     80  C   UNL A   1      38.011  32.389  38.011  1.00  0.00     0.040 A 
ATOM     81  F   UNL A   1      37.779  30.506  36.632  1.00  0.00    -0.206 F 
ATOM     82  C   UNL A   1      38.607  33.616  38.294  1.00  0.00     0.006 A 
ENDBRANCH  58  75
ENDBRANCH  32  33
ENDBRANCH  25  27
ENDBRANCH  24  25
ENDBRANCH  23  24
ENDBRANCH  22  23
ENDBRANCH  21  22
ENDBRANCH   1  21
TORSDOF 18
ENDMDL
MODEL 2
REMARK VINA RESULT:     -10.3      5.157      9.029
REMARK SMILES Cc1cscc1CNC(=O)CC(C)(C)C(=O)OCCOCCOC(=O)c1ccc(-c2c3nc(c(-c4c(F)cccc4F)c4ccc([nH]4)c(-c4c(F)cccc4F)c4nc(c(-c5c(F)cccc5F)c5ccc2[nH]5)C=C4)C=C3)cc1
REMARK SMILES IDX 19 1 18 2 17 3 15 4 16 5 12 6 13 7 14 8 11 9 9 10 8 11 10 13
REMARK SMILES IDX 7 14 6 15 1 16 2 17 3 18 4 19 5 20 20 21 21 22 22 23 23 24
REMARK SMILES IDX 24 25 25 26 26 27 27 28 79 29 28 30 78 31 29 32 30 33 31 34
REMARK SMILES IDX 72 35 32 36 77 37 71 38 73 39 33 40 76 41 70 42 69 43 34 45
REMARK SMILES IDX 60 46 43 47 59 48 44 49 47 50 58 51 74 52 45 53 46 54 57 56
REMARK SMILES IDX 75 57 48 58 35 59 36 60 41 61 37 62 38 63 40 64 42 65 39 66
REMARK SMILES IDX 61 67 62 68 67 69 63 70 64 71 66 72 68 73 65 74 49 75 50 76
REMARK SMILES IDX 55 77 51 78 52 79 54 80 56 81 53 82
REMARK H PARENT 8 12 73 44 47 55
REMARK Flexibility Score: inf
ROOT
ATOM      1  C   UNL A   1      35.631  21.045  25.252  1.00  0.00     0.202 C 
ENDROOT
BRANCH   1   2
ATOM      2  C   UNL A   1      35.592  22.147  24.185  1.00  0.00     0.261 C 
BRANCH   2   3
ATOM      3  O   UNL A   1      34.785  23.288  24.525  1.00  0.00    -0.463 OA
BRANCH   3   4
ATOM      4  C   UNL A   1      34.090  23.806  23.471  1.00  0.00     0.312 C 
ATOM      5  O   UNL A   1      34.300  23.459  22.318  1.00  0.00    -0.252 OA
BRANCH   4   6
ATOM      6  C   UNL A   1      33.071  24.882  23.890  1.00  0.00     0.071 C 
ATOM      7  C   UNL A   1      32.763  24.674  25.382  1.00  0.00     0.024 C 
ATOM      8  C   UNL A   1      31.730  24.721  23.136  1.00  0.00     0.024 C 
BRANCH   6   9
ATOM      9  C   UNL A   1      33.583  26.335  23.632  1.00  0.00     0.118 C 
BRANCH   9  10
ATOM     10  C   UNL A   1      33.235  27.010  22.313  1.00  0.00     0.221 C 
ATOM     11  N   UNL A   1      32.448  28.119  22.280  1.00  0.00    -0.352 N 
ATOM     12  H   UNL A   1      32.468  28.622  21.434  1.00  0.00     0.163 HD
ATOM     13  O   UNL A   1      33.655  26.549  21.249  1.00  0.00    -0.275 OA
BRANCH  11  14
ATOM     14  C   UNL A   1      31.590  28.669  23.299  1.00  0.00     0.152 C 
BRANCH  14  15
ATOM     15  C   UNL A   1      30.210  28.999  22.799  1.00  0.00    -0.015 A 
ATOM     16  C   UNL A   1      29.094  26.910  23.883  1.00  0.00     0.045 C 
ATOM     17  C   UNL A   1      29.046  28.198  23.126  1.00  0.00    -0.035 A 
ATOM     18  C   UNL A   1      27.879  28.775  22.661  1.00  0.00     0.068 A 
ATOM     19  S   UNL A   1      28.155  30.211  21.788  1.00  0.00    -0.152 S 
ATOM     20  C   UNL A   1      29.842  30.077  22.011  1.00  0.00     0.070 A 
ENDBRANCH  14  15
ENDBRANCH  11  14
ENDBRANCH   9  10
ENDBRANCH   6   9
ENDBRANCH   4   6
ENDBRANCH   3   4
ENDBRANCH   2   3
ENDBRANCH   1   2
BRANCH   1  21
ATOM     21  O   UNL A   1      36.513  19.943  25.083  1.00  0.00    -0.374 OA
BRANCH  21  22
ATOM     22  C   UNL A   1      37.886  20.198  24.802  1.00  0.00     0.202 C 
BRANCH  22  23
ATOM     23  C   UNL A   1      38.934  19.235  25.374  1.00  0.00     0.261 C 
BRANCH  23  24
ATOM     24  O   UNL A   1      39.792  19.857  26.351  1.00  0.00    -0.460 OA
BRANCH  24  25
ATOM     25  C   UNL A   1      41.106  19.561  26.207  1.00  0.00     0.338 C 
ATOM     26  O   UNL A   1      41.590  18.533  25.754  1.00  0.00    -0.246 OA
BRANCH  25  27
ATOM     27  C   UNL A   1      41.943  20.735  26.505  1.00  0.00     0.060 A 
ATOM     28  C   UNL A   1      42.020  21.145  27.843  1.00  0.00     0.016 A 
ATOM     29  C   UNL A   1      42.508  21.507  25.490  1.00  0.00     0.016 A 
ATOM     30  C   UNL A   1      42.600  22.368  28.165  1.00  0.00     0.010 A 
ATOM     31  C   UNL A   1      43.080  22.743  25.814  1.00  0.00     0.010 A 
ATOM     32  C   UNL A   1      43.079  23.200  27.145  1.00  0.00    -0.014 A 
BRANCH  32  33
ATOM     33  C   UNL A   1      43.361  24.621  27.463  1.00  0.00     0.031 A 
ATOM     34  C   UNL A   1      44.745  25.156  27.202  1.00  0.00     0.074 A 
ATOM     35  C   UNL A   1      42.391  25.444  27.894  1.00  0.00     0.049 A 
ATOM     36  N   UNL A   1      45.213  26.367  27.363  1.00  0.00    -0.248 NA
ATOM     37  C   UNL A   1      45.731  24.194  26.682  1.00  0.00     0.031 C 
ATOM     38  C   UNL A   1      41.000  25.062  28.128  1.00  0.00     0.029 A 
ATOM     39  N   UNL A   1      42.431  26.780  28.199  1.00  0.00    -0.354 N 
ATOM     40  C   UNL A   1      46.543  26.312  26.964  1.00  0.00     0.074 A 
ATOM     41  C   UNL A   1      46.818  24.943  26.589  1.00  0.00     0.031 C 
ATOM     42  C   UNL A   1      40.315  26.145  28.534  1.00  0.00     0.029 A 
ATOM     43  C   UNL A   1      41.224  27.286  28.611  1.00  0.00     0.049 A 
ATOM     44  H   UNL A   1      43.248  27.325  28.129  1.00  0.00     0.167 HD
ATOM     45  C   UNL A   1      47.452  27.315  26.900  1.00  0.00     0.037 A 
ATOM     46  C   UNL A   1      40.895  28.531  29.008  1.00  0.00     0.037 A 
ATOM     47  C   UNL A   1      47.184  28.677  27.275  1.00  0.00     0.049 A 
ATOM     48  C   UNL A   1      41.945  29.610  29.010  1.00  0.00     0.074 A 
ATOM     49  C   UNL A   1      48.039  29.764  27.254  1.00  0.00     0.029 A 
ATOM     50  N   UNL A   1      45.962  29.136  27.744  1.00  0.00    -0.354 N 
ATOM     51  N   UNL A   1      43.197  29.549  28.626  1.00  0.00    -0.248 NA
ATOM     52  C   UNL A   1      41.531  30.933  29.500  1.00  0.00     0.031 C 
ATOM     53  C   UNL A   1      47.346  30.875  27.748  1.00  0.00     0.029 A 
ATOM     54  C   UNL A   1      46.046  30.488  28.034  1.00  0.00     0.049 A 
ATOM     55  H   UNL A   1      45.155  28.584  27.854  1.00  0.00     0.167 HD
ATOM     56  C   UNL A   1      43.710  30.830  28.793  1.00  0.00     0.074 A 
ATOM     57  C   UNL A   1      42.633  31.647  29.311  1.00  0.00     0.031 C 
ATOM     58  C   UNL A   1      44.960  31.289  28.536  1.00  0.00     0.037 A 
BRANCH  45  59
ATOM     59  C   UNL A   1      48.831  26.957  26.428  1.00  0.00     0.057 A 
ATOM     60  C   UNL A   1      49.826  26.525  27.315  1.00  0.00     0.134 A 
ATOM     61  C   UNL A   1      49.167  27.045  25.072  1.00  0.00     0.134 A 
ATOM     62  F   UNL A   1      49.574  26.437  28.630  1.00  0.00    -0.206 F 
ATOM     63  C   UNL A   1      51.115  26.221  26.873  1.00  0.00     0.040 A 
ATOM     64  C   UNL A   1      50.446  26.720  24.614  1.00  0.00     0.040 A 
ATOM     65  F   UNL A   1      48.260  27.449  24.170  1.00  0.00    -0.206 F 
ATOM     66  C   UNL A   1      51.426  26.315  25.517  1.00  0.00     0.006 A 
ENDBRANCH  45  59
BRANCH  46  67
ATOM     67  C   UNL A   1      39.504  28.833  29.430  1.00  0.00     0.057 A 
ATOM     68  C   UNL A   1      39.093  28.641  30.753  1.00  0.00     0.134 A 
ATOM     69  C   UNL A   1      38.552  29.302  28.517  1.00  0.00     0.134 A 
ATOM     70  F   UNL A   1      39.954  28.170  31.666  1.00  0.00    -0.206 F 
ATOM     71  C   UNL A   1      37.779  28.892  31.152  1.00  0.00     0.040 A 
ATOM     72  C   UNL A   1      37.241  29.577  28.908  1.00  0.00     0.040 A 
ATOM     73  F   UNL A   1      38.886  29.504  27.234  1.00  0.00    -0.206 F 
ATOM     74  C   UNL A   1      36.850  29.366  30.228  1.00  0.00     0.006 A 
ENDBRANCH  46  67
BRANCH  58  75
ATOM     75  C   UNL A   1      45.216  32.749  28.767  1.00  0.00     0.057 A 
ATOM     76  C   UNL A   1      45.746  33.226  29.973  1.00  0.00     0.134 A 
ATOM     77  C   UNL A   1      44.963  33.684  27.755  1.00  0.00     0.134 A 
ATOM     78  F   UNL A   1      46.000  32.384  30.984  1.00  0.00    -0.206 F 
ATOM     79  C   UNL A   1      45.993  34.586  30.171  1.00  0.00     0.040 A 
ATOM     80  C   UNL A   1      45.227  35.042  27.934  1.00  0.00     0.040 A 
ATOM     81  F   UNL A   1      44.462  33.290  26.575  1.00  0.00    -0.206 F 
ATOM     82  C   UNL A   1      45.739  35.498  29.147  1.00  0.00     0.006 A 
ENDBRANCH  58  75
ENDBRANCH  32  33
ENDBRANCH  25  27
ENDBRANCH  24  25
ENDBRANCH  23  24
ENDBRANCH  22  23
ENDBRANCH  21  22
ENDBRANCH   1  21
TORSDOF 18
ENDMDL
MODEL 3
REMARK VINA RESULT:     -10.3      4.670      9.766
REMARK SMILES Cc1cscc1CNC(=O)CC(C)(C)C(=O)OCCOCCOC(=O)c1ccc(-c2c3nc(c(-c4c(F)cccc4F)c4ccc([nH]4)c(-c4c(F)cccc4F)c4nc(c(-c5c(F)cccc5F)c5ccc2[nH]5)C=C4)C=C3)cc1
REMARK SMILES IDX 19 1 18 2 17 3 15 4 16 5 12 6 13 7 14 8 11 9 9 10 8 11 10 13
REMARK SMILES IDX 7 14 6 15 1 16 2 17 3 18 4 19 5 20 20 21 21 22 22 23 23 24
REMARK SMILES IDX 24 25 25 26 26 27 27 28 79 29 28 30 78 31 29 32 30 33 31 34
REMARK SMILES IDX 72 35 32 36 77 37 71 38 73 39 33 40 76 41 70 42 69 43 34 45
REMARK SMILES IDX 60 46 43 47 59 48 44 49 47 50 58 51 74 52 45 53 46 54 57 56
REMARK SMILES IDX 75 57 48 58 35 59 36 60 41 61 37 62 38 63 40 64 42 65 39 66
REMARK SMILES IDX 61 67 62 68 67 69 63 70 64 71 66 72 68 73 65 74 49 75 50 76
REMARK SMILES IDX 55 77 51 78 52 79 54 80 56 81 53 82
REMARK H PARENT 8 12 73 44 47 55
REMARK Flexibility Score: inf
ROOT
ATOM      1  C   UNL A   1      35.131  33.129  28.572  1.00  0.00     0.202 C 
ENDROOT
BRANCH   1   2
ATOM      2  C   UNL A   1      34.394  31.783  28.565  1.00  0.00     0.261 C 
BRANCH   2   3
ATOM      3  O   UNL A   1      34.301  31.151  27.277  1.00  0.00    -0.463 OA
BRANCH   3   4
ATOM      4  C   UNL A   1      33.041  30.737  26.955  1.00  0.00     0.312 C 
ATOM      5  O   UNL A   1      32.061  31.453  27.104  1.00  0.00    -0.252 OA
BRANCH   4   6
ATOM      6  C   UNL A   1      32.996  29.287  26.439  1.00  0.00     0.071 C 
ATOM      7  C   UNL A   1      31.928  28.538  27.252  1.00  0.00     0.024 C 
ATOM      8  C   UNL A   1      34.335  28.553  26.688  1.00  0.00     0.024 C 
BRANCH   6   9
ATOM      9  C   UNL A   1      32.689  29.196  24.911  1.00  0.00     0.118 C 
BRANCH   9  10
ATOM     10  C   UNL A   1      31.237  29.145  24.457  1.00  0.00     0.221 C 
ATOM     11  N   UNL A   1      30.694  27.997  23.971  1.00  0.00    -0.352 N 
ATOM     12  H   UNL A   1      29.711  27.984  23.927  1.00  0.00     0.163 HD
ATOM     13  O   UNL A   1      30.533  30.157  24.515  1.00  0.00    -0.275 OA
BRANCH  11  14
ATOM     14  C   UNL A   1      31.343  26.796  23.510  1.00  0.00     0.152 C 
BRANCH  14  15
ATOM     15  C   UNL A   1      31.547  25.776  24.597  1.00  0.00    -0.015 A 
ATOM     16  C   UNL A   1      34.138  25.716  24.339  1.00  0.00     0.045 C 
ATOM     17  C   UNL A   1      32.862  25.323  25.010  1.00  0.00    -0.035 A 
ATOM     18  C   UNL A   1      32.794  24.487  26.109  1.00  0.00     0.068 A 
ATOM     19  S   UNL A   1      31.195  24.184  26.611  1.00  0.00    -0.152 S 
ATOM     20  C   UNL A   1      30.568  25.158  25.358  1.00  0.00     0.070 A 
ENDBRANCH  14  15
ENDBRANCH  11  14
ENDBRANCH   9  10
ENDBRANCH   6   9
ENDBRANCH   4   6
ENDBRANCH   3   4
ENDBRANCH   2   3
ENDBRANCH   1   2
BRANCH   1  21
ATOM     21  O   UNL A   1      34.588  34.223  27.847  1.00  0.00    -0.374 OA
BRANCH  21  22
ATOM     22  C   UNL A   1      34.305  35.436  28.539  1.00  0.00     0.202 C 
BRANCH  22  23
ATOM     23  C   UNL A   1      32.888  35.644  29.089  1.00  0.00     0.261 C 
BRANCH  23  24
ATOM     24  O   UNL A   1      32.632  34.876  30.282  1.00  0.00    -0.460 OA
BRANCH  24  25
ATOM     25  C   UNL A   1      32.828  35.560  31.435  1.00  0.00     0.338 C 
ATOM     26  O   UNL A   1      32.143  36.467  31.887  1.00  0.00    -0.246 OA
BRANCH  25  27
ATOM     27  C   UNL A   1      33.914  34.953  32.224  1.00  0.00     0.060 A 
ATOM     28  C   UNL A   1      35.133  35.643  32.276  1.00  0.00     0.016 A 
ATOM     29  C   UNL A   1      33.795  33.673  32.767  1.00  0.00     0.016 A 
ATOM     30  C   UNL A   1      36.261  35.025  32.807  1.00  0.00     0.010 A 
ATOM     31  C   UNL A   1      34.934  33.048  33.289  1.00  0.00     0.010 A 
ATOM     32  C   UNL A   1      36.181  33.702  33.260  1.00  0.00    -0.014 A 
BRANCH  32  33
ATOM     33  C   UNL A   1      37.440  32.953  33.486  1.00  0.00     0.031 A 
ATOM     34  C   UNL A   1      38.206  33.198  34.759  1.00  0.00     0.074 A 
ATOM     35  C   UNL A   1      37.854  32.011  32.622  1.00  0.00     0.049 A 
ATOM     36  N   UNL A   1      39.306  32.635  35.191  1.00  0.00    -0.248 NA
ATOM     37  C   UNL A   1      37.651  34.213  35.671  1.00  0.00     0.031 C 
ATOM     38  C   UNL A   1      37.169  31.638  31.386  1.00  0.00     0.029 A 
ATOM     39  N   UNL A   1      38.948  31.186  32.665  1.00  0.00    -0.354 N 
ATOM     40  C   UNL A   1      39.571  33.224  36.422  1.00  0.00     0.074 A 
ATOM     41  C   UNL A   1      38.541  34.213  36.651  1.00  0.00     0.031 C 
ATOM     42  C   UNL A   1      37.857  30.650  30.789  1.00  0.00     0.029 A 
ATOM     43  C   UNL A   1      39.041  30.340  31.589  1.00  0.00     0.049 A 
ATOM     44  H   UNL A   1      39.605  31.200  33.397  1.00  0.00     0.167 HD
ATOM     45  C   UNL A   1      40.574  32.956  37.292  1.00  0.00     0.037 A 
ATOM     46  C   UNL A   1      39.980  29.422  31.285  1.00  0.00     0.037 A 
ATOM     47  C   UNL A   1      41.603  31.976  37.066  1.00  0.00     0.049 A 
ATOM     48  C   UNL A   1      41.133  29.202  32.227  1.00  0.00     0.074 A 
ATOM     49  C   UNL A   1      42.667  31.635  37.882  1.00  0.00     0.029 A 
ATOM     50  N   UNL A   1      41.694  31.180  35.934  1.00  0.00    -0.354 N 
ATOM     51  N   UNL A   1      41.372  29.760  33.390  1.00  0.00    -0.248 NA
ATOM     52  C   UNL A   1      42.146  28.221  31.813  1.00  0.00     0.031 C 
ATOM     53  C   UNL A   1      43.425  30.659  37.226  1.00  0.00     0.029 A 
ATOM     54  C   UNL A   1      42.807  30.361  36.021  1.00  0.00     0.049 A 
ATOM     55  H   UNL A   1      41.061  31.194  35.180  1.00  0.00     0.167 HD
ATOM     56  C   UNL A   1      42.540  29.173  33.861  1.00  0.00     0.074 A 
ATOM     57  C   UNL A   1      42.960  28.214  32.860  1.00  0.00     0.031 C 
ATOM     58  C   UNL A   1      43.203  29.403  35.022  1.00  0.00     0.037 A 
BRANCH  45  59
ATOM     59  C   UNL A   1      40.614  33.761  38.557  1.00  0.00     0.057 A 
ATOM     60  C   UNL A   1      39.808  33.446  39.659  1.00  0.00     0.134 A 
ATOM     61  C   UNL A   1      41.467  34.866  38.674  1.00  0.00     0.134 A 
ATOM     62  F   UNL A   1      38.955  32.412  39.604  1.00  0.00    -0.206 F 
ATOM     63  C   UNL A   1      39.829  34.217  40.823  1.00  0.00     0.040 A 
ATOM     64  C   UNL A   1      41.515  35.629  39.842  1.00  0.00     0.040 A 
ATOM     65  F   UNL A   1      42.267  35.220  37.658  1.00  0.00    -0.206 F 
ATOM     66  C   UNL A   1      40.688  35.311  40.917  1.00  0.00     0.006 A 
ENDBRANCH  45  59
BRANCH  46  67
ATOM     67  C   UNL A   1      39.867  28.630  30.035  1.00  0.00     0.057 A 
ATOM     68  C   UNL A   1      39.200  27.400  30.017  1.00  0.00     0.134 A 
ATOM     69  C   UNL A   1      40.440  29.074  28.838  1.00  0.00     0.134 A 
ATOM     70  F   UNL A   1      38.653  26.912  31.139  1.00  0.00    -0.206 F 
ATOM     71  C   UNL A   1      39.116  26.633  28.854  1.00  0.00     0.040 A 
ATOM     72  C   UNL A   1      40.345  28.326  27.662  1.00  0.00     0.040 A 
ATOM     73  F   UNL A   1      41.094  30.243  28.792  1.00  0.00    -0.206 F 
ATOM     74  C   UNL A   1      39.686  27.099  27.671  1.00  0.00     0.006 A 
ENDBRANCH  46  67
BRANCH  58  75
ATOM     75  C   UNL A   1      44.424  28.574  35.292  1.00  0.00     0.057 A 
ATOM     76  C   UNL A   1      44.351  27.342  35.955  1.00  0.00     0.134 A 
ATOM     77  C   UNL A   1      45.683  28.998  34.849  1.00  0.00     0.134 A 
ATOM     78  F   UNL A   1      43.176  26.885  36.413  1.00  0.00    -0.206 F 
ATOM     79  C   UNL A   1      45.492  26.572  36.188  1.00  0.00     0.040 A 
ATOM     80  C   UNL A   1      46.827  28.227  35.056  1.00  0.00     0.040 A 
ATOM     81  F   UNL A   1      45.819  30.164  34.200  1.00  0.00    -0.206 F 
ATOM     82  C   UNL A   1      46.734  27.012  35.732  1.00  0.00     0.006 A 
ENDBRANCH  58  75
ENDBRANCH  32  33
ENDBRANCH  25  27
ENDBRANCH  24  25
ENDBRANCH  23  24
ENDBRANCH  22  23
ENDBRANCH  21  22
ENDBRANCH   1  21
TORSDOF 18
ENDMDL
