MODEL 1
REMARK VINA RESULT:     -10.9      0.000      0.000
REMARK SMILES Cc1cc(C)cc(CSCc2cc(C(=O)OCCOCCOC(=O)c3ccc(-c4c5nc(c(-c6c(F)cccc6F)c6ccc([nH]6)c(-c6c(F)cccc6F)c6nc(c(-c7c(F)cccc7F)c7ccc4[nH]7)C=C6)C=C5)cc3)c(C)o2)c1
REMARK SMILES IDX 18 1 17 2 16 3 14 4 15 5 13 6 11 7 12 8 81 9 79 10 80 11
REMARK SMILES IDX 10 12 9 13 8 14 7 15 1 16 2 17 3 18 82 19 4 20 5 21 6 22
REMARK SMILES IDX 19 23 20 24 21 25 22 26 23 27 24 28 25 29 26 30 78 31 27 32
REMARK SMILES IDX 77 33 28 34 29 35 30 36 71 37 31 38 76 39 70 40 72 41 32 42
REMARK SMILES IDX 75 43 69 44 68 45 33 47 59 48 42 49 58 50 43 51 46 52 57 53
REMARK SMILES IDX 73 54 44 55 45 56 56 58 74 59 47 60 34 61 35 62 40 63 36 64
REMARK SMILES IDX 37 65 39 66 41 67 38 68 60 69 61 70 66 71 62 72 63 73 65 74
REMARK SMILES IDX 67 75 64 76 48 77 49 78 54 79 50 80 51 81 53 82 55 83 52 84
REMARK H PARENT 72 46 46 57
REMARK Flexibility Score: inf
ROOT
ATOM      1  C   UNL A   1      34.462  22.466  27.167  1.00  0.00     0.202 C 
ENDROOT
BRANCH   1   2
ATOM      2  C   UNL A   1      32.936  22.429  27.092  1.00  0.00     0.261 C 
BRANCH   2   3
ATOM      3  O   UNL A   1      32.469  23.528  26.295  1.00  0.00    -0.460 OA
BRANCH   3   4
ATOM      4  C   UNL A   1      31.151  23.847  26.425  1.00  0.00     0.341 C 
ATOM      5  O   UNL A   1      30.443  23.499  27.363  1.00  0.00    -0.246 OA
BRANCH   4   6
ATOM      6  C   UNL A   1      30.679  24.695  25.345  1.00  0.00     0.101 A 
ATOM      7  C   UNL A   1      29.966  26.447  24.115  1.00  0.00     0.114 A 
ATOM      8  C   UNL A   1      29.998  25.943  25.398  1.00  0.00     0.062 A 
ATOM      9  O   UNL A   1      30.372  25.468  23.250  1.00  0.00    -0.465 OA
ATOM     10  C   UNL A   1      30.755  24.395  23.998  1.00  0.00     0.115 A 
ATOM     11  C   UNL A   1      31.146  23.181  23.253  1.00  0.00     0.088 C 
BRANCH   7  12
ATOM     12  C   UNL A   1      29.624  27.750  23.481  1.00  0.00     0.145 C 
BRANCH  12  13
ATOM     13  S   UNL A   1      31.023  28.729  22.852  1.00  0.00    -0.149 SA
BRANCH  13  14
ATOM     14  C   UNL A   1      32.401  28.079  23.874  1.00  0.00     0.105 C 
BRANCH  14  15
ATOM     15  C   UNL A   1      32.656  28.903  25.111  1.00  0.00    -0.038 A 
ATOM     16  C   UNL A   1      31.309  32.065  26.757  1.00  0.00     0.044 C 
ATOM     17  C   UNL A   1      32.137  30.840  26.496  1.00  0.00    -0.051 A 
ATOM     18  C   UNL A   1      33.306  30.614  27.233  1.00  0.00     0.006 A 
ATOM     19  C   UNL A   1      31.822  29.983  25.433  1.00  0.00     0.008 A 
ATOM     20  C   UNL A   1      34.141  29.529  26.945  1.00  0.00    -0.051 A 
ATOM     21  C   UNL A   1      35.482  29.405  27.607  1.00  0.00     0.044 C 
ATOM     22  C   UNL A   1      33.789  28.657  25.907  1.00  0.00     0.008 A 
ENDBRANCH  14  15
ENDBRANCH  13  14
ENDBRANCH  12  13
ENDBRANCH   7  12
ENDBRANCH   4   6
ENDBRANCH   3   4
ENDBRANCH   2   3
ENDBRANCH   1   2
BRANCH   1  23
ATOM     23  O   UNL A   1      35.118  22.291  25.909  1.00  0.00    -0.374 OA
BRANCH  23  24
ATOM     24  C   UNL A   1      35.147  20.962  25.383  1.00  0.00     0.202 C 
BRANCH  24  25
ATOM     25  C   UNL A   1      36.533  20.441  24.997  1.00  0.00     0.261 C 
BRANCH  25  26
ATOM     26  O   UNL A   1      37.529  21.476  25.079  1.00  0.00    -0.460 OA
BRANCH  26  27
ATOM     27  C   UNL A   1      38.651  21.123  25.749  1.00  0.00     0.338 C 
ATOM     28  O   UNL A   1      39.208  20.037  25.742  1.00  0.00    -0.246 OA
BRANCH  27  29
ATOM     29  C   UNL A   1      39.235  22.303  26.416  1.00  0.00     0.060 A 
ATOM     30  C   UNL A   1      38.689  23.554  26.103  1.00  0.00     0.016 A 
ATOM     31  C   UNL A   1      40.343  22.204  27.261  1.00  0.00     0.016 A 
ATOM     32  C   UNL A   1      39.288  24.716  26.581  1.00  0.00     0.010 A 
ATOM     33  C   UNL A   1      40.947  23.372  27.736  1.00  0.00     0.010 A 
ATOM     34  C   UNL A   1      40.446  24.632  27.365  1.00  0.00    -0.014 A 
BRANCH  34  35
ATOM     35  C   UNL A   1      41.213  25.865  27.669  1.00  0.00     0.031 A 
ATOM     36  C   UNL A   1      40.545  26.970  28.440  1.00  0.00     0.074 A 
ATOM     37  C   UNL A   1      42.495  25.987  27.288  1.00  0.00     0.049 A 
ATOM     38  N   UNL A   1      41.016  28.141  28.789  1.00  0.00    -0.248 NA
ATOM     39  C   UNL A   1      39.161  26.722  28.876  1.00  0.00     0.031 C 
ATOM     40  C   UNL A   1      43.264  24.973  26.570  1.00  0.00     0.029 A 
ATOM     41  N   UNL A   1      43.375  27.027  27.450  1.00  0.00    -0.354 N 
ATOM     42  C   UNL A   1      39.988  28.769  29.480  1.00  0.00     0.074 A 
ATOM     43  C   UNL A   1      38.859  27.864  29.477  1.00  0.00     0.031 C 
ATOM     44  C   UNL A   1      44.500  25.446  26.341  1.00  0.00     0.029 A 
ATOM     45  C   UNL A   1      44.601  26.804  26.873  1.00  0.00     0.049 A 
ATOM     46  H   UNL A   1      43.149  27.854  27.934  1.00  0.00     0.167 HD
ATOM     47  C   UNL A   1      39.988  29.987  30.071  1.00  0.00     0.037 A 
ATOM     48  C   UNL A   1      45.673  27.611  26.770  1.00  0.00     0.037 A 
ATOM     49  C   UNL A   1      41.110  30.887  30.077  1.00  0.00     0.049 A 
ATOM     50  C   UNL A   1      45.625  28.988  27.377  1.00  0.00     0.074 A 
ATOM     51  C   UNL A   1      41.214  32.134  30.670  1.00  0.00     0.029 A 
ATOM     52  N   UNL A   1      42.324  30.637  29.456  1.00  0.00    -0.354 N 
ATOM     53  N   UNL A   1      44.658  29.563  28.050  1.00  0.00    -0.248 NA
ATOM     54  C   UNL A   1      46.821  29.828  27.210  1.00  0.00     0.031 C 
ATOM     55  C   UNL A   1      42.476  32.657  30.370  1.00  0.00     0.029 A 
ATOM     56  C   UNL A   1      43.174  31.716  29.629  1.00  0.00     0.049 A 
ATOM     57  H   UNL A   1      42.548  29.813  28.964  1.00  0.00     0.167 HD
ATOM     58  C   UNL A   1      45.136  30.817  28.409  1.00  0.00     0.074 A 
ATOM     59  C   UNL A   1      46.483  30.918  27.887  1.00  0.00     0.031 C 
ATOM     60  C   UNL A   1      44.515  31.797  29.109  1.00  0.00     0.037 A 
BRANCH  47  61
ATOM     61  C   UNL A   1      38.722  30.426  30.744  1.00  0.00     0.057 A 
ATOM     62  C   UNL A   1      37.736  31.152  30.064  1.00  0.00     0.134 A 
ATOM     63  C   UNL A   1      38.472  30.091  32.081  1.00  0.00     0.134 A 
ATOM     64  F   UNL A   1      37.921  31.515  28.785  1.00  0.00    -0.206 F 
ATOM     65  C   UNL A   1      36.555  31.545  30.694  1.00  0.00     0.040 A 
ATOM     66  C   UNL A   1      37.285  30.460  32.716  1.00  0.00     0.040 A 
ATOM     67  F   UNL A   1      39.374  29.394  32.789  1.00  0.00    -0.206 F 
ATOM     68  C   UNL A   1      36.324  31.194  32.023  1.00  0.00     0.006 A 
ENDBRANCH  47  61
BRANCH  48  69
ATOM     69  C   UNL A   1      46.884  27.146  26.052  1.00  0.00     0.057 A 
ATOM     70  C   UNL A   1      47.052  27.384  24.682  1.00  0.00     0.134 A 
ATOM     71  C   UNL A   1      47.894  26.439  26.714  1.00  0.00     0.134 A 
ATOM     72  F   UNL A   1      46.107  28.037  23.991  1.00  0.00    -0.206 F 
ATOM     73  C   UNL A   1      48.175  26.923  23.994  1.00  0.00     0.040 A 
ATOM     74  C   UNL A   1      49.033  25.991  26.043  1.00  0.00     0.040 A 
ATOM     75  F   UNL A   1      47.791  26.180  28.025  1.00  0.00    -0.206 F 
ATOM     76  C   UNL A   1      49.171  26.227  24.677  1.00  0.00     0.006 A 
ENDBRANCH  48  69
BRANCH  60  77
ATOM     77  C   UNL A   1      45.295  33.050  29.381  1.00  0.00     0.057 A 
ATOM     78  C   UNL A   1      46.126  33.173  30.502  1.00  0.00     0.134 A 
ATOM     79  C   UNL A   1      45.248  34.127  28.487  1.00  0.00     0.134 A 
ATOM     80  F   UNL A   1      46.206  32.181  31.402  1.00  0.00    -0.206 F 
ATOM     81  C   UNL A   1      46.870  34.332  30.732  1.00  0.00     0.040 A 
ATOM     82  C   UNL A   1      46.004  35.281  28.695  1.00  0.00     0.040 A 
ATOM     83  F   UNL A   1      44.477  34.069  27.391  1.00  0.00    -0.206 F 
ATOM     84  C   UNL A   1      46.816  35.387  29.823  1.00  0.00     0.006 A 
ENDBRANCH  60  77
ENDBRANCH  34  35
ENDBRANCH  27  29
ENDBRANCH  26  27
ENDBRANCH  25  26
ENDBRANCH  24  25
ENDBRANCH  23  24
ENDBRANCH   1  23
TORSDOF 18
ENDMDL
MODEL 2
REMARK VINA RESULT:     -10.7      3.862      8.454
REMARK SMILES Cc1cc(C)cc(CSCc2cc(C(=O)OCCOCCOC(=O)c3ccc(-c4c5nc(c(-c6c(F)cccc6F)c6ccc([nH]6)c(-c6c(F)cccc6F)c6nc(c(-c7c(F)cccc7F)c7ccc4[nH]7)C=C6)C=C5)cc3)c(C)o2)c1
REMARK SMILES IDX 18 1 17 2 16 3 14 4 15 5 13 6 11 7 12 8 81 9 79 10 80 11
REMARK SMILES IDX 10 12 9 13 8 14 7 15 1 16 2 17 3 18 82 19 4 20 5 21 6 22
REMARK SMILES IDX 19 23 20 24 21 25 22 26 23 27 24 28 25 29 26 30 78 31 27 32
REMARK SMILES IDX 77 33 28 34 29 35 30 36 71 37 31 38 76 39 70 40 72 41 32 42
REMARK SMILES IDX 75 43 69 44 68 45 33 47 59 48 42 49 58 50 43 51 46 52 57 53
REMARK SMILES IDX 73 54 44 55 45 56 56 58 74 59 47 60 34 61 35 62 40 63 36 64
REMARK SMILES IDX 37 65 39 66 41 67 38 68 60 69 61 70 66 71 62 72 63 73 65 74
REMARK SMILES IDX 67 75 64 76 48 77 49 78 54 79 50 80 51 81 53 82 55 83 52 84
REMARK H PARENT 72 46 46 57
REMARK Flexibility Score: inf
ROOT
ATOM      1  C   UNL A   1      42.655  18.980  25.750  1.00  0.00     0.202 C 
ENDROOT
BRANCH   1   2
ATOM      2  C   UNL A   1      41.250  19.442  26.141  1.00  0.00     0.261 C 
BRANCH   2   3
ATOM      3  O   UNL A   1      41.152  20.865  25.978  1.00  0.00    -0.460 OA
BRANCH   3   4
ATOM      4  C   UNL A   1      40.277  21.505  26.804  1.00  0.00     0.341 C 
ATOM      5  O   UNL A   1      40.500  21.768  27.979  1.00  0.00    -0.246 OA
BRANCH   4   6
ATOM      6  C   UNL A   1      39.055  21.889  26.121  1.00  0.00     0.101 A 
ATOM      7  C   UNL A   1      37.069  21.866  25.049  1.00  0.00     0.114 A 
ATOM      8  C   UNL A   1      38.213  21.127  25.264  1.00  0.00     0.062 A 
ATOM      9  O   UNL A   1      37.271  23.132  25.528  1.00  0.00    -0.465 OA
ATOM     10  C   UNL A   1      38.493  23.151  26.131  1.00  0.00     0.115 A 
ATOM     11  C   UNL A   1      38.953  24.459  26.640  1.00  0.00     0.088 C 
BRANCH   7  12
ATOM     12  C   UNL A   1      35.724  21.618  24.462  1.00  0.00     0.145 C 
BRANCH  12  13
ATOM     13  S   UNL A   1      34.743  23.093  24.045  1.00  0.00    -0.149 SA
BRANCH  13  14
ATOM     14  C   UNL A   1      33.042  22.404  24.056  1.00  0.00     0.105 C 
BRANCH  14  15
ATOM     15  C   UNL A   1      32.087  23.206  24.905  1.00  0.00    -0.038 A 
ATOM     16  C   UNL A   1      29.252  22.578  27.372  1.00  0.00     0.044 C 
ATOM     17  C   UNL A   1      30.243  23.287  26.497  1.00  0.00    -0.051 A 
ATOM     18  C   UNL A   1      30.107  24.660  26.254  1.00  0.00     0.006 A 
ATOM     19  C   UNL A   1      31.232  22.566  25.813  1.00  0.00     0.008 A 
ATOM     20  C   UNL A   1      30.964  25.323  25.369  1.00  0.00    -0.051 A 
ATOM     21  C   UNL A   1      30.692  26.744  24.969  1.00  0.00     0.044 C 
ATOM     22  C   UNL A   1      31.975  24.596  24.728  1.00  0.00     0.008 A 
ENDBRANCH  14  15
ENDBRANCH  13  14
ENDBRANCH  12  13
ENDBRANCH   7  12
ENDBRANCH   4   6
ENDBRANCH   3   4
ENDBRANCH   2   3
ENDBRANCH   1   2
BRANCH   1  23
ATOM     23  O   UNL A   1      43.697  19.887  26.118  1.00  0.00    -0.374 OA
BRANCH  23  24
ATOM     24  C   UNL A   1      44.378  20.545  25.049  1.00  0.00     0.202 C 
BRANCH  24  25
ATOM     25  C   UNL A   1      44.947  21.925  25.386  1.00  0.00     0.261 C 
BRANCH  25  26
ATOM     26  O   UNL A   1      43.952  22.956  25.249  1.00  0.00    -0.460 OA
BRANCH  26  27
ATOM     27  C   UNL A   1      44.441  24.217  25.292  1.00  0.00     0.338 C 
ATOM     28  O   UNL A   1      45.350  24.683  24.625  1.00  0.00    -0.246 OA
BRANCH  27  29
ATOM     29  C   UNL A   1      43.614  25.050  26.187  1.00  0.00     0.060 A 
ATOM     30  C   UNL A   1      43.837  26.432  26.167  1.00  0.00     0.016 A 
ATOM     31  C   UNL A   1      42.704  24.491  27.088  1.00  0.00     0.016 A 
ATOM     32  C   UNL A   1      43.197  27.255  27.091  1.00  0.00     0.010 A 
ATOM     33  C   UNL A   1      42.066  25.317  28.018  1.00  0.00     0.010 A 
ATOM     34  C   UNL A   1      42.342  26.696  28.049  1.00  0.00    -0.014 A 
BRANCH  34  35
ATOM     35  C   UNL A   1      41.856  27.534  29.172  1.00  0.00     0.031 A 
ATOM     36  C   UNL A   1      42.573  27.476  30.492  1.00  0.00     0.074 A 
ATOM     37  C   UNL A   1      40.807  28.358  29.010  1.00  0.00     0.049 A 
ATOM     38  N   UNL A   1      42.304  28.098  31.612  1.00  0.00    -0.248 NA
ATOM     39  C   UNL A   1      43.753  26.598  30.559  1.00  0.00     0.031 C 
ATOM     40  C   UNL A   1      40.052  28.532  27.770  1.00  0.00     0.029 A 
ATOM     41  N   UNL A   1      40.192  29.199  29.901  1.00  0.00    -0.354 N 
ATOM     42  C   UNL A   1      43.275  27.685  32.515  1.00  0.00     0.074 A 
ATOM     43  C   UNL A   1      44.123  26.738  31.824  1.00  0.00     0.031 C 
ATOM     44  C   UNL A   1      39.065  29.417  27.983  1.00  0.00     0.029 A 
ATOM     45  C   UNL A   1      39.102  29.851  29.378  1.00  0.00     0.049 A 
ATOM     46  H   UNL A   1      40.502  29.323  30.828  1.00  0.00     0.167 HD
ATOM     47  C   UNL A   1      43.449  28.067  33.802  1.00  0.00     0.037 A 
ATOM     48  C   UNL A   1      38.226  30.687  29.966  1.00  0.00     0.037 A 
ATOM     49  C   UNL A   1      42.608  29.011  34.490  1.00  0.00     0.049 A 
ATOM     50  C   UNL A   1      38.401  31.045  31.418  1.00  0.00     0.074 A 
ATOM     51  C   UNL A   1      42.719  29.479  35.788  1.00  0.00     0.029 A 
ATOM     52  N   UNL A   1      41.497  29.627  33.935  1.00  0.00    -0.354 N 
ATOM     53  N   UNL A   1      39.337  30.670  32.256  1.00  0.00    -0.248 NA
ATOM     54  C   UNL A   1      37.397  31.946  32.005  1.00  0.00     0.031 C 
ATOM     55  C   UNL A   1      41.648  30.346  36.033  1.00  0.00     0.029 A 
ATOM     56  C   UNL A   1      40.898  30.452  34.872  1.00  0.00     0.049 A 
ATOM     57  H   UNL A   1      41.181  29.497  33.011  1.00  0.00     0.167 HD
ATOM     58  C   UNL A   1      39.051  31.306  33.457  1.00  0.00     0.074 A 
ATOM     59  C   UNL A   1      37.859  32.099  33.238  1.00  0.00     0.031 C 
ATOM     60  C   UNL A   1      39.716  31.241  34.636  1.00  0.00     0.037 A 
BRANCH  47  61
ATOM     61  C   UNL A   1      44.585  27.445  34.558  1.00  0.00     0.057 A 
ATOM     62  C   UNL A   1      45.854  28.034  34.601  1.00  0.00     0.134 A 
ATOM     63  C   UNL A   1      44.396  26.259  35.279  1.00  0.00     0.134 A 
ATOM     64  F   UNL A   1      46.103  29.163  33.920  1.00  0.00    -0.206 F 
ATOM     65  C   UNL A   1      46.902  27.454  35.318  1.00  0.00     0.040 A 
ATOM     66  C   UNL A   1      45.430  25.682  36.018  1.00  0.00     0.040 A 
ATOM     67  F   UNL A   1      43.202  25.646  35.283  1.00  0.00    -0.206 F 
ATOM     68  C   UNL A   1      46.690  26.278  36.034  1.00  0.00     0.006 A 
ENDBRANCH  47  61
BRANCH  48  69
ATOM     69  C   UNL A   1      37.091  31.239  29.186  1.00  0.00     0.057 A 
ATOM     70  C   UNL A   1      37.110  32.555  28.709  1.00  0.00     0.134 A 
ATOM     71  C   UNL A   1      35.955  30.468  28.913  1.00  0.00     0.134 A 
ATOM     72  F   UNL A   1      38.161  33.348  28.959  1.00  0.00    -0.206 F 
ATOM     73  C   UNL A   1      36.033  33.089  28.001  1.00  0.00     0.040 A 
ATOM     74  C   UNL A   1      34.881  30.982  28.187  1.00  0.00     0.040 A 
ATOM     75  F   UNL A   1      35.878  29.200  29.343  1.00  0.00    -0.206 F 
ATOM     76  C   UNL A   1      34.915  32.300  27.735  1.00  0.00     0.006 A 
ENDBRANCH  48  69
BRANCH  60  77
ATOM     77  C   UNL A   1      39.193  32.072  35.770  1.00  0.00     0.057 A 
ATOM     78  C   UNL A   1      39.584  33.405  35.951  1.00  0.00     0.134 A 
ATOM     79  C   UNL A   1      38.253  31.545  36.664  1.00  0.00     0.134 A 
ATOM     80  F   UNL A   1      40.491  33.963  35.135  1.00  0.00    -0.206 F 
ATOM     81  C   UNL A   1      39.071  34.179  36.992  1.00  0.00     0.040 A 
ATOM     82  C   UNL A   1      37.715  32.317  37.696  1.00  0.00     0.040 A 
ATOM     83  F   UNL A   1      37.830  30.278  36.541  1.00  0.00    -0.206 F 
ATOM     84  C   UNL A   1      38.128  33.637  37.864  1.00  0.00     0.006 A 
ENDBRANCH  60  77
ENDBRANCH  34  35
ENDBRANCH  27  29
ENDBRANCH  26  27
ENDBRANCH  25  26
ENDBRANCH  24  25
ENDBRANCH  23  24
ENDBRANCH   1  23
TORSDOF 18
ENDMDL
MODEL 3
REMARK VINA RESULT:     -10.6      1.268      2.526
REMARK SMILES Cc1cc(C)cc(CSCc2cc(C(=O)OCCOCCOC(=O)c3ccc(-c4c5nc(c(-c6c(F)cccc6F)c6ccc([nH]6)c(-c6c(F)cccc6F)c6nc(c(-c7c(F)cccc7F)c7ccc4[nH]7)C=C6)C=C5)cc3)c(C)o2)c1
REMARK SMILES IDX 18 1 17 2 16 3 14 4 15 5 13 6 11 7 12 8 81 9 79 10 80 11
REMARK SMILES IDX 10 12 9 13 8 14 7 15 1 16 2 17 3 18 82 19 4 20 5 21 6 22
REMARK SMILES IDX 19 23 20 24 21 25 22 26 23 27 24 28 25 29 26 30 78 31 27 32
REMARK SMILES IDX 77 33 28 34 29 35 30 36 71 37 31 38 76 39 70 40 72 41 32 42
REMARK SMILES IDX 75 43 69 44 68 45 33 47 59 48 42 49 58 50 43 51 46 52 57 53
REMARK SMILES IDX 73 54 44 55 45 56 56 58 74 59 47 60 34 61 35 62 40 63 36 64
REMARK SMILES IDX 37 65 39 66 41 67 38 68 60 69 61 70 66 71 62 72 63 73 65 74
REMARK SMILES IDX 67 75 64 76 48 77 49 78 54 79 50 80 51 81 53 82 55 83 52 84
REMARK H PARENT 72 46 46 57
REMARK Flexibility Score: inf
ROOT
ATOM      1  C   UNL A   1      34.784  22.742  26.849  1.00  0.00     0.202 C 
ENDROOT
BRANCH   1   2
ATOM      2  C   UNL A   1      33.536  22.140  27.494  1.00  0.00     0.261 C 
BRANCH   2   3
ATOM      3  O   UNL A   1      32.439  22.209  26.570  1.00  0.00    -0.460 OA
BRANCH   3   4
ATOM      4  C   UNL A   1      31.628  23.299  26.682  1.00  0.00     0.341 C 
ATOM      5  O   UNL A   1      30.696  23.391  27.472  1.00  0.00    -0.246 OA
BRANCH   4   6
ATOM      6  C   UNL A   1      32.021  24.373  25.787  1.00  0.00     0.101 A 
ATOM      7  C   UNL A   1      32.825  26.300  24.931  1.00  0.00     0.114 A 
ATOM      8  C   UNL A   1      32.273  25.745  26.066  1.00  0.00     0.062 A 
ATOM      9  O   UNL A   1      32.699  25.407  23.903  1.00  0.00    -0.465 OA
ATOM     10  C   UNL A   1      32.167  24.263  24.417  1.00  0.00     0.115 A 
ATOM     11  C   UNL A   1      31.858  23.190  23.450  1.00  0.00     0.088 C 
BRANCH   7  12
ATOM     12  C   UNL A   1      33.509  27.576  24.583  1.00  0.00     0.145 C 
BRANCH  12  13
ATOM     13  S   UNL A   1      32.431  28.960  24.099  1.00  0.00    -0.149 SA
BRANCH  13  14
ATOM     14  C   UNL A   1      31.501  28.215  22.703  1.00  0.00     0.105 C 
BRANCH  14  15
ATOM     15  C   UNL A   1      30.116  28.791  22.544  1.00  0.00    -0.038 A 
ATOM     16  C   UNL A   1      28.501  32.106  21.582  1.00  0.00     0.044 C 
ATOM     17  C   UNL A   1      28.667  30.678  22.016  1.00  0.00    -0.051 A 
ATOM     18  C   UNL A   1      27.574  29.972  22.534  1.00  0.00     0.006 A 
ATOM     19  C   UNL A   1      29.936  30.083  22.030  1.00  0.00     0.008 A 
ATOM     20  C   UNL A   1      27.727  28.672  23.030  1.00  0.00    -0.051 A 
ATOM     21  C   UNL A   1      26.598  27.998  23.755  1.00  0.00     0.044 C 
ATOM     22  C   UNL A   1      28.993  28.075  22.996  1.00  0.00     0.008 A 
ENDBRANCH  14  15
ENDBRANCH  13  14
ENDBRANCH  12  13
ENDBRANCH   7  12
ENDBRANCH   4   6
ENDBRANCH   3   4
ENDBRANCH   2   3
ENDBRANCH   1   2
BRANCH   1  23
ATOM     23  O   UNL A   1      35.058  22.260  25.532  1.00  0.00    -0.374 OA
BRANCH  23  24
ATOM     24  C   UNL A   1      35.176  20.843  25.382  1.00  0.00     0.202 C 
BRANCH  24  25
ATOM     25  C   UNL A   1      36.568  20.340  24.992  1.00  0.00     0.261 C 
BRANCH  25  26
ATOM     26  O   UNL A   1      37.553  21.385  25.083  1.00  0.00    -0.460 OA
BRANCH  26  27
ATOM     27  C   UNL A   1      38.681  21.037  25.745  1.00  0.00     0.338 C 
ATOM     28  O   UNL A   1      39.241  19.954  25.736  1.00  0.00    -0.246 OA
BRANCH  27  29
ATOM     29  C   UNL A   1      39.265  22.221  26.406  1.00  0.00     0.060 A 
ATOM     30  C   UNL A   1      38.716  23.470  26.090  1.00  0.00     0.016 A 
ATOM     31  C   UNL A   1      40.376  22.127  27.247  1.00  0.00     0.016 A 
ATOM     32  C   UNL A   1      39.315  24.635  26.562  1.00  0.00     0.010 A 
ATOM     33  C   UNL A   1      40.980  23.297  27.717  1.00  0.00     0.010 A 
ATOM     34  C   UNL A   1      40.476  24.555  27.343  1.00  0.00    -0.014 A 
BRANCH  34  35
ATOM     35  C   UNL A   1      41.241  25.790  27.640  1.00  0.00     0.031 A 
ATOM     36  C   UNL A   1      40.582  26.888  28.428  1.00  0.00     0.074 A 
ATOM     37  C   UNL A   1      42.516  25.921  27.238  1.00  0.00     0.049 A 
ATOM     38  N   UNL A   1      41.053  28.059  28.775  1.00  0.00    -0.248 NA
ATOM     39  C   UNL A   1      39.206  26.631  28.886  1.00  0.00     0.031 C 
ATOM     40  C   UNL A   1      43.278  24.913  26.501  1.00  0.00     0.029 A 
ATOM     41  N   UNL A   1      43.394  26.964  27.390  1.00  0.00    -0.354 N 
ATOM     42  C   UNL A   1      40.034  28.678  29.487  1.00  0.00     0.074 A 
ATOM     43  C   UNL A   1      38.910  27.769  29.498  1.00  0.00     0.031 C 
ATOM     44  C   UNL A   1      44.508  25.394  26.253  1.00  0.00     0.029 A 
ATOM     45  C   UNL A   1      44.611  26.749  26.791  1.00  0.00     0.049 A 
ATOM     46  H   UNL A   1      43.173  27.787  27.882  1.00  0.00     0.167 HD
ATOM     47  C   UNL A   1      40.038  29.894  30.084  1.00  0.00     0.037 A 
ATOM     48  C   UNL A   1      45.677  27.563  26.674  1.00  0.00     0.037 A 
ATOM     49  C   UNL A   1      41.157  30.799  30.076  1.00  0.00     0.049 A 
ATOM     50  C   UNL A   1      45.633  28.936  27.288  1.00  0.00     0.074 A 
ATOM     51  C   UNL A   1      41.264  32.044  30.673  1.00  0.00     0.029 A 
ATOM     52  N   UNL A   1      42.361  30.558  29.432  1.00  0.00    -0.354 N 
ATOM     53  N   UNL A   1      44.676  29.503  27.981  1.00  0.00    -0.248 NA
ATOM     54  C   UNL A   1      46.822  29.783  27.106  1.00  0.00     0.031 C 
ATOM     55  C   UNL A   1      42.519  32.574  30.354  1.00  0.00     0.029 A 
ATOM     56  C   UNL A   1      43.208  31.641  29.596  1.00  0.00     0.049 A 
ATOM     57  H   UNL A   1      42.580  29.738  28.933  1.00  0.00     0.167 HD
ATOM     58  C   UNL A   1      45.153  30.757  28.338  1.00  0.00     0.074 A 
ATOM     59  C   UNL A   1      46.490  30.867  27.794  1.00  0.00     0.031 C 
ATOM     60  C   UNL A   1      44.540  31.731  29.054  1.00  0.00     0.037 A 
BRANCH  47  61
ATOM     61  C   UNL A   1      38.782  30.324  30.781  1.00  0.00     0.057 A 
ATOM     62  C   UNL A   1      37.796  31.076  30.131  1.00  0.00     0.134 A 
ATOM     63  C   UNL A   1      38.541  29.952  32.110  1.00  0.00     0.134 A 
ATOM     64  F   UNL A   1      37.974  31.476  28.862  1.00  0.00    -0.206 F 
ATOM     65  C   UNL A   1      36.624  31.461  30.783  1.00  0.00     0.040 A 
ATOM     66  C   UNL A   1      37.363  30.311  32.765  1.00  0.00     0.040 A 
ATOM     67  F   UNL A   1      39.443  29.227  32.789  1.00  0.00    -0.206 F 
ATOM     68  C   UNL A   1      36.402  31.073  32.103  1.00  0.00     0.006 A 
ENDBRANCH  47  61
BRANCH  48  69
ATOM     69  C   UNL A   1      46.878  27.107  25.932  1.00  0.00     0.057 A 
ATOM     70  C   UNL A   1      47.899  26.395  26.573  1.00  0.00     0.134 A 
ATOM     71  C   UNL A   1      47.041  27.388  24.571  1.00  0.00     0.134 A 
ATOM     72  F   UNL A   1      47.809  26.117  27.881  1.00  0.00    -0.206 F 
ATOM     73  C   UNL A   1      49.046  25.990  25.889  1.00  0.00     0.040 A 
ATOM     74  C   UNL A   1      48.172  26.970  23.869  1.00  0.00     0.040 A 
ATOM     75  F   UNL A   1      46.098  28.067  23.902  1.00  0.00    -0.206 F 
ATOM     76  C   UNL A   1      49.182  26.274  24.531  1.00  0.00     0.006 A 
ENDBRANCH  48  69
BRANCH  60  77
ATOM     77  C   UNL A   1      45.318  32.986  29.319  1.00  0.00     0.057 A 
ATOM     78  C   UNL A   1      45.236  34.099  28.473  1.00  0.00     0.134 A 
ATOM     79  C   UNL A   1      46.125  33.096  30.459  1.00  0.00     0.134 A 
ATOM     80  F   UNL A   1      44.491  34.051  27.359  1.00  0.00    -0.206 F 
ATOM     81  C   UNL A   1      45.942  35.272  28.743  1.00  0.00     0.040 A 
ATOM     82  C   UNL A   1      46.817  34.272  30.751  1.00  0.00     0.040 A 
ATOM     83  F   UNL A   1      46.240  32.069  31.314  1.00  0.00    -0.206 F 
ATOM     84  C   UNL A   1      46.730  35.363  29.889  1.00  0.00     0.006 A 
ENDBRANCH  60  77
ENDBRANCH  34  35
ENDBRANCH  27  29
ENDBRANCH  26  27
ENDBRANCH  25  26
ENDBRANCH  24  25
ENDBRANCH  23  24
ENDBRANCH   1  23
TORSDOF 18
ENDMDL
