MODEL 1
REMARK VINA RESULT:     -10.5      0.000      0.000
REMARK SMILES CCOc1cc(OCC)cc(-c2ccc([C@@H](C)C(=O)OCCOCCOC(=O)c3ccc(-c4c5nc(c(-c6c(F)cccc6F)c6ccc([nH]6)c(-c6c(F)cccc6F)c6nc(c(-c7c(F)cccc7F)c7ccc4[nH]7)C=C6)C=C5)cc3)cc2)c1
REMARK SMILES IDX 22 1 21 2 20 3 18 4 19 5 16 6 17 7 15 8 12 9 13 10 84 11
REMARK SMILES IDX 14 12 83 13 11 14 4 15 5 16 85 17 6 18 10 19 3 20 2 21 1 22
REMARK SMILES IDX 7 23 8 24 9 25 23 26 24 27 25 28 26 29 27 30 28 31 29 32
REMARK SMILES IDX 30 33 82 34 31 35 81 36 32 37 33 38 34 39 75 40 35 41 80 42
REMARK SMILES IDX 74 43 76 44 36 45 79 46 73 47 72 48 37 50 63 51 46 52 62 53
REMARK SMILES IDX 47 54 50 55 61 56 77 57 48 58 49 59 60 61 78 62 51 63 38 64
REMARK SMILES IDX 39 65 44 66 40 67 41 68 43 69 45 70 42 71 64 72 65 73 70 74
REMARK SMILES IDX 66 75 67 76 69 77 71 78 68 79 52 80 53 81 58 82 54 83 55 84
REMARK SMILES IDX 57 85 59 86 56 87
REMARK H PARENT 76 49 50 60
REMARK Flexibility Score: inf
ROOT
ATOM      1  C   UNL A   1      44.721  19.750  25.320  1.00  0.00     0.202 C 
ENDROOT
BRANCH   1   2
ATOM      2  C   UNL A   1      43.196  19.825  25.414  1.00  0.00     0.261 C 
BRANCH   2   3
ATOM      3  O   UNL A   1      42.789  20.806  26.384  1.00  0.00    -0.463 OA
BRANCH   3   4
ATOM      4  C   UNL A   1      42.211  21.931  25.890  1.00  0.00     0.313 C 
ATOM      5  O   UNL A   1      42.508  22.448  24.817  1.00  0.00    -0.252 OA
BRANCH   4   6
ATOM      6  C   UNL A   1      41.174  22.547  26.816  1.00  0.00     0.126 C 
ATOM      7  C   UNL A   1      41.394  22.033  28.237  1.00  0.00     0.025 C 
BRANCH   6   8
ATOM      8  C   UNL A   1      39.708  22.454  26.406  1.00  0.00    -0.034 A 
ATOM      9  C   UNL A   1      37.074  22.302  25.344  1.00  0.00    -0.018 A 
ATOM     10  C   UNL A   1      37.525  23.454  26.006  1.00  0.00     0.009 A 
ATOM     11  C   UNL A   1      37.941  21.202  25.283  1.00  0.00     0.009 A 
ATOM     12  C   UNL A   1      38.823  23.533  26.526  1.00  0.00     0.005 A 
ATOM     13  C   UNL A   1      39.236  21.275  25.806  1.00  0.00     0.005 A 
BRANCH   9  14
ATOM     14  C   UNL A   1      35.770  22.276  24.658  1.00  0.00    -0.011 A 
ATOM     15  C   UNL A   1      34.215  23.129  22.998  1.00  0.00     0.123 A 
ATOM     16  C   UNL A   1      33.225  22.262  23.459  1.00  0.00     0.092 A 
ATOM     17  C   UNL A   1      35.472  23.150  23.604  1.00  0.00     0.055 A 
ATOM     18  C   UNL A   1      33.490  21.400  24.522  1.00  0.00     0.123 A 
ATOM     19  C   UNL A   1      34.759  21.405  25.104  1.00  0.00     0.055 A 
BRANCH  15  20
ATOM     20  O   UNL A   1      33.872  24.051  22.047  1.00  0.00    -0.494 OA
BRANCH  20  21
ATOM     21  C   UNL A   1      32.947  25.041  22.512  1.00  0.00     0.226 C 
ATOM     22  C   UNL A   1      33.643  26.107  23.344  1.00  0.00     0.049 C 
ENDBRANCH  20  21
ENDBRANCH  15  20
BRANCH  18  23
ATOM     23  O   UNL A   1      32.450  20.595  24.902  1.00  0.00    -0.494 OA
BRANCH  23  24
ATOM     24  C   UNL A   1      32.747  19.237  25.237  1.00  0.00     0.226 C 
ATOM     25  C   UNL A   1      33.258  18.474  24.027  1.00  0.00     0.049 C 
ENDBRANCH  23  24
ENDBRANCH  18  23
ENDBRANCH   9  14
ENDBRANCH   6   8
ENDBRANCH   4   6
ENDBRANCH   3   4
ENDBRANCH   2   3
ENDBRANCH   1   2
BRANCH   1  26
ATOM     26  O   UNL A   1      45.341  20.726  24.483  1.00  0.00    -0.374 OA
BRANCH  26  27
ATOM     27  C   UNL A   1      45.899  21.874  25.123  1.00  0.00     0.202 C 
BRANCH  27  28
ATOM     28  C   UNL A   1      45.860  23.180  24.323  1.00  0.00     0.261 C 
BRANCH  28  29
ATOM     29  O   UNL A   1      44.902  24.113  24.856  1.00  0.00    -0.460 OA
BRANCH  29  30
ATOM     30  C   UNL A   1      45.402  25.326  25.176  1.00  0.00     0.338 C 
ATOM     31  O   UNL A   1      46.392  25.871  24.702  1.00  0.00    -0.246 OA
BRANCH  30  32
ATOM     32  C   UNL A   1      44.484  26.028  26.090  1.00  0.00     0.060 A 
ATOM     33  C   UNL A   1      44.581  27.423  26.154  1.00  0.00     0.016 A 
ATOM     34  C   UNL A   1      43.603  25.338  26.927  1.00  0.00     0.016 A 
ATOM     35  C   UNL A   1      43.836  28.134  27.094  1.00  0.00     0.010 A 
ATOM     36  C   UNL A   1      42.863  26.051  27.878  1.00  0.00     0.010 A 
ATOM     37  C   UNL A   1      43.004  27.447  27.990  1.00  0.00    -0.014 A 
BRANCH  37  38
ATOM     38  C   UNL A   1      42.407  28.179  29.132  1.00  0.00     0.031 A 
ATOM     39  C   UNL A   1      43.129  28.188  30.452  1.00  0.00     0.074 A 
ATOM     40  C   UNL A   1      41.258  28.863  28.990  1.00  0.00     0.049 A 
ATOM     41  N   UNL A   1      42.783  28.746  31.584  1.00  0.00    -0.248 NA
ATOM     42  C   UNL A   1      44.414  27.472  30.501  1.00  0.00     0.031 C 
ATOM     43  C   UNL A   1      40.485  28.969  27.754  1.00  0.00     0.029 A 
ATOM     44  N   UNL A   1      40.540  29.597  29.901  1.00  0.00    -0.354 N 
ATOM     45  C   UNL A   1      43.804  28.449  32.478  1.00  0.00     0.074 A 
ATOM     46  C   UNL A   1      44.767  27.636  31.767  1.00  0.00     0.031 C 
ATOM     47  C   UNL A   1      39.393  29.718  27.986  1.00  0.00     0.029 A 
ATOM     48  C   UNL A   1      39.378  30.119  29.392  1.00  0.00     0.049 A 
ATOM     49  H   UNL A   1      40.832  29.736  30.831  1.00  0.00     0.167 HD
ATOM     50  C   UNL A   1      43.933  28.825  33.773  1.00  0.00     0.037 A 
ATOM     51  C   UNL A   1      38.403  30.826  29.998  1.00  0.00     0.037 A 
ATOM     52  C   UNL A   1      42.978  29.635  34.482  1.00  0.00     0.049 A 
ATOM     53  C   UNL A   1      38.534  31.170  31.457  1.00  0.00     0.074 A 
ATOM     54  C   UNL A   1      43.030  30.084  35.791  1.00  0.00     0.029 A 
ATOM     55  N   UNL A   1      41.794  30.112  33.942  1.00  0.00    -0.354 N 
ATOM     56  N   UNL A   1      39.512  30.901  32.287  1.00  0.00    -0.248 NA
ATOM     57  C   UNL A   1      37.421  31.917  32.065  1.00  0.00     0.031 C 
ATOM     58  C   UNL A   1      41.856  30.795  36.056  1.00  0.00     0.029 A 
ATOM     59  C   UNL A   1      41.095  30.830  34.898  1.00  0.00     0.049 A 
ATOM     60  H   UNL A   1      41.495  29.964  33.016  1.00  0.00     0.167 HD
ATOM     61  C   UNL A   1      39.148  31.468  33.503  1.00  0.00     0.074 A 
ATOM     62  C   UNL A   1      37.863  32.104  33.301  1.00  0.00     0.031 C 
ATOM     63  C   UNL A   1      39.820  31.463  34.681  1.00  0.00     0.037 A 
BRANCH  50  64
ATOM     64  C   UNL A   1      45.145  28.344  34.514  1.00  0.00     0.057 A 
ATOM     65  C   UNL A   1      45.157  27.123  35.198  1.00  0.00     0.134 A 
ATOM     66  C   UNL A   1      46.325  29.098  34.514  1.00  0.00     0.134 A 
ATOM     67  F   UNL A   1      44.054  26.361  35.248  1.00  0.00    -0.206 F 
ATOM     68  C   UNL A   1      46.294  26.677  35.874  1.00  0.00     0.040 A 
ATOM     69  C   UNL A   1      47.476  28.652  35.167  1.00  0.00     0.040 A 
ATOM     70  F   UNL A   1      46.381  30.276  33.875  1.00  0.00    -0.206 F 
ATOM     71  C   UNL A   1      47.460  27.440  35.853  1.00  0.00     0.006 A 
ENDBRANCH  50  64
BRANCH  51  72
ATOM     72  C   UNL A   1      37.204  31.245  29.230  1.00  0.00     0.057 A 
ATOM     73  C   UNL A   1      36.167  30.347  28.955  1.00  0.00     0.134 A 
ATOM     74  C   UNL A   1      37.078  32.547  28.732  1.00  0.00     0.134 A 
ATOM     75  F   UNL A   1      36.241  29.079  29.383  1.00  0.00    -0.206 F 
ATOM     76  C   UNL A   1      35.056  30.723  28.199  1.00  0.00     0.040 A 
ATOM     77  C   UNL A   1      35.962  32.945  27.995  1.00  0.00     0.040 A 
ATOM     78  F   UNL A   1      38.040  33.455  28.961  1.00  0.00    -0.206 F 
ATOM     79  C   UNL A   1      34.950  32.028  27.721  1.00  0.00     0.006 A 
ENDBRANCH  51  72
BRANCH  63  80
ATOM     80  C   UNL A   1      39.195  32.193  35.833  1.00  0.00     0.057 A 
ATOM     81  C   UNL A   1      39.449  33.548  36.075  1.00  0.00     0.134 A 
ATOM     82  C   UNL A   1      38.292  31.542  36.684  1.00  0.00     0.134 A 
ATOM     83  F   UNL A   1      40.313  34.226  35.305  1.00  0.00    -0.206 F 
ATOM     84  C   UNL A   1      38.842  34.225  37.135  1.00  0.00     0.040 A 
ATOM     85  C   UNL A   1      37.661  32.214  37.731  1.00  0.00     0.040 A 
ATOM     86  F   UNL A   1      37.997  30.246  36.501  1.00  0.00    -0.206 F 
ATOM     87  C   UNL A   1      37.940  33.559  37.962  1.00  0.00     0.006 A 
ENDBRANCH  63  80
ENDBRANCH  37  38
ENDBRANCH  30  32
ENDBRANCH  29  30
ENDBRANCH  28  29
ENDBRANCH  27  28
ENDBRANCH  26  27
ENDBRANCH   1  26
TORSDOF 20
ENDMDL
MODEL 2
REMARK VINA RESULT:     -10.3      4.811     10.478
REMARK SMILES CCOc1cc(OCC)cc(-c2ccc([C@@H](C)C(=O)OCCOCCOC(=O)c3ccc(-c4c5nc(c(-c6c(F)cccc6F)c6ccc([nH]6)c(-c6c(F)cccc6F)c6nc(c(-c7c(F)cccc7F)c7ccc4[nH]7)C=C6)C=C5)cc3)cc2)c1
REMARK SMILES IDX 22 1 21 2 20 3 18 4 19 5 16 6 17 7 15 8 12 9 13 10 84 11
REMARK SMILES IDX 14 12 83 13 11 14 4 15 5 16 85 17 6 18 10 19 3 20 2 21 1 22
REMARK SMILES IDX 7 23 8 24 9 25 23 26 24 27 25 28 26 29 27 30 28 31 29 32
REMARK SMILES IDX 30 33 82 34 31 35 81 36 32 37 33 38 34 39 75 40 35 41 80 42
REMARK SMILES IDX 74 43 76 44 36 45 79 46 73 47 72 48 37 50 63 51 46 52 62 53
REMARK SMILES IDX 47 54 50 55 61 56 77 57 48 58 49 59 60 61 78 62 51 63 38 64
REMARK SMILES IDX 39 65 44 66 40 67 41 68 43 69 45 70 42 71 64 72 65 73 70 74
REMARK SMILES IDX 66 75 67 76 69 77 71 78 68 79 52 80 53 81 58 82 54 83 55 84
REMARK SMILES IDX 57 85 59 86 56 87
REMARK H PARENT 76 49 50 60
REMARK Flexibility Score: inf
ROOT
ATOM      1  C   UNL A   1      33.043  29.668  26.190  1.00  0.00     0.202 C 
ENDROOT
BRANCH   1   2
ATOM      2  C   UNL A   1      31.842  29.652  25.242  1.00  0.00     0.261 C 
BRANCH   2   3
ATOM      3  O   UNL A   1      31.657  28.346  24.669  1.00  0.00    -0.463 OA
BRANCH   3   4
ATOM      4  C   UNL A   1      31.390  28.310  23.338  1.00  0.00     0.313 C 
ATOM      5  O   UNL A   1      31.723  29.182  22.541  1.00  0.00    -0.252 OA
BRANCH   4   6
ATOM      6  C   UNL A   1      30.579  27.099  22.906  1.00  0.00     0.126 C 
ATOM      7  C   UNL A   1      29.206  27.143  23.574  1.00  0.00     0.025 C 
BRANCH   6   8
ATOM      8  C   UNL A   1      31.224  25.724  23.042  1.00  0.00    -0.034 A 
ATOM      9  C   UNL A   1      32.415  23.204  23.610  1.00  0.00    -0.018 A 
ATOM     10  C   UNL A   1      33.171  24.263  23.085  1.00  0.00     0.009 A 
ATOM     11  C   UNL A   1      31.040  23.406  23.781  1.00  0.00     0.009 A 
ATOM     12  C   UNL A   1      32.588  25.506  22.809  1.00  0.00     0.005 A 
ATOM     13  C   UNL A   1      30.452  24.645  23.502  1.00  0.00     0.005 A 
BRANCH   9  14
ATOM     14  C   UNL A   1      33.057  21.953  24.050  1.00  0.00    -0.011 A 
ATOM     15  C   UNL A   1      32.959  19.603  24.658  1.00  0.00     0.123 A 
ATOM     16  C   UNL A   1      34.310  19.621  25.002  1.00  0.00     0.092 A 
ATOM     17  C   UNL A   1      32.332  20.764  24.204  1.00  0.00     0.055 A 
ATOM     18  C   UNL A   1      35.048  20.797  24.881  1.00  0.00     0.123 A 
ATOM     19  C   UNL A   1      34.421  21.947  24.397  1.00  0.00     0.055 A 
BRANCH  15  20
ATOM     20  O   UNL A   1      32.243  18.468  24.922  1.00  0.00    -0.494 OA
BRANCH  20  21
ATOM     21  C   UNL A   1      33.057  17.313  25.156  1.00  0.00     0.226 C 
ATOM     22  C   UNL A   1      33.279  16.519  23.878  1.00  0.00     0.049 C 
ENDBRANCH  20  21
ENDBRANCH  15  20
BRANCH  18  23
ATOM     23  O   UNL A   1      36.362  20.711  25.251  1.00  0.00    -0.494 OA
BRANCH  23  24
ATOM     24  C   UNL A   1      37.236  21.774  24.861  1.00  0.00     0.226 C 
ATOM     25  C   UNL A   1      38.466  21.826  25.752  1.00  0.00     0.049 C 
ENDBRANCH  23  24
ENDBRANCH  18  23
ENDBRANCH   9  14
ENDBRANCH   6   8
ENDBRANCH   4   6
ENDBRANCH   3   4
ENDBRANCH   2   3
ENDBRANCH   1   2
BRANCH   1  26
ATOM     26  O   UNL A   1      32.932  30.535  27.318  1.00  0.00    -0.374 OA
BRANCH  26  27
ATOM     27  C   UNL A   1      33.868  31.611  27.407  1.00  0.00     0.202 C 
BRANCH  27  28
ATOM     28  C   UNL A   1      34.653  31.716  28.719  1.00  0.00     0.261 C 
BRANCH  28  29
ATOM     29  O   UNL A   1      35.351  30.497  29.032  1.00  0.00    -0.460 OA
BRANCH  29  30
ATOM     30  C   UNL A   1      36.322  30.616  29.964  1.00  0.00     0.338 C 
ATOM     31  O   UNL A   1      36.221  31.101  31.085  1.00  0.00    -0.246 OA
BRANCH  30  32
ATOM     32  C   UNL A   1      37.540  29.916  29.521  1.00  0.00     0.060 A 
ATOM     33  C   UNL A   1      38.397  29.424  30.512  1.00  0.00     0.016 A 
ATOM     34  C   UNL A   1      37.882  29.811  28.170  1.00  0.00     0.016 A 
ATOM     35  C   UNL A   1      39.628  28.872  30.162  1.00  0.00     0.010 A 
ATOM     36  C   UNL A   1      39.123  29.265  27.820  1.00  0.00     0.010 A 
ATOM     37  C   UNL A   1      40.016  28.827  28.816  1.00  0.00    -0.014 A 
BRANCH  37  38
ATOM     38  C   UNL A   1      41.412  28.464  28.474  1.00  0.00     0.031 A 
ATOM     39  C   UNL A   1      41.729  27.038  28.114  1.00  0.00     0.074 A 
ATOM     40  C   UNL A   1      42.379  29.398  28.441  1.00  0.00     0.049 A 
ATOM     41  N   UNL A   1      42.879  26.497  27.799  1.00  0.00    -0.248 NA
ATOM     42  C   UNL A   1      40.598  26.097  28.107  1.00  0.00     0.031 C 
ATOM     43  C   UNL A   1      42.193  30.819  28.725  1.00  0.00     0.029 A 
ATOM     44  N   UNL A   1      43.717  29.283  28.156  1.00  0.00    -0.354 N 
ATOM     45  C   UNL A   1      42.610  25.156  27.559  1.00  0.00     0.074 A 
ATOM     46  C   UNL A   1      41.196  24.957  27.794  1.00  0.00     0.031 C 
ATOM     47  C   UNL A   1      43.377  31.445  28.609  1.00  0.00     0.029 A 
ATOM     48  C   UNL A   1      44.406  30.464  28.269  1.00  0.00     0.049 A 
ATOM     49  H   UNL A   1      44.141  28.434  27.893  1.00  0.00     0.167 HD
ATOM     50  C   UNL A   1      43.463  24.178  27.171  1.00  0.00     0.037 A 
ATOM     51  C   UNL A   1      45.723  30.720  28.133  1.00  0.00     0.037 A 
ATOM     52  C   UNL A   1      44.869  24.372  26.935  1.00  0.00     0.049 A 
ATOM     53  C   UNL A   1      46.663  29.601  27.772  1.00  0.00     0.074 A 
ATOM     54  C   UNL A   1      45.810  23.446  26.521  1.00  0.00     0.029 A 
ATOM     55  N   UNL A   1      45.536  25.576  27.099  1.00  0.00    -0.354 N 
ATOM     56  N   UNL A   1      46.395  28.341  27.528  1.00  0.00    -0.248 NA
ATOM     57  C   UNL A   1      48.090  29.941  27.669  1.00  0.00     0.031 C 
ATOM     58  C   UNL A   1      47.057  24.079  26.478  1.00  0.00     0.029 A 
ATOM     59  C   UNL A   1      46.883  25.411  26.819  1.00  0.00     0.049 A 
ATOM     60  H   UNL A   1      45.115  26.423  27.373  1.00  0.00     0.167 HD
ATOM     61  C   UNL A   1      47.612  27.746  27.215  1.00  0.00     0.074 A 
ATOM     62  C   UNL A   1      48.618  28.785  27.291  1.00  0.00     0.031 C 
ATOM     63  C   UNL A   1      47.871  26.455  26.892  1.00  0.00     0.037 A 
BRANCH  50  64
ATOM     64  C   UNL A   1      42.898  22.799  26.997  1.00  0.00     0.057 A 
ATOM     65  C   UNL A   1      42.598  21.980  28.091  1.00  0.00     0.134 A 
ATOM     66  C   UNL A   1      42.620  22.299  25.718  1.00  0.00     0.134 A 
ATOM     67  F   UNL A   1      42.853  22.394  29.341  1.00  0.00    -0.206 F 
ATOM     68  C   UNL A   1      42.059  20.703  27.920  1.00  0.00     0.040 A 
ATOM     69  C   UNL A   1      42.061  21.034  25.535  1.00  0.00     0.040 A 
ATOM     70  F   UNL A   1      42.882  23.035  24.627  1.00  0.00    -0.206 F 
ATOM     71  C   UNL A   1      41.783  20.230  26.638  1.00  0.00     0.006 A 
ENDBRANCH  50  64
BRANCH  51  72
ATOM     72  C   UNL A   1      46.238  32.094  28.355  1.00  0.00     0.057 A 
ATOM     73  C   UNL A   1      46.742  32.489  29.599  1.00  0.00     0.134 A 
ATOM     74  C   UNL A   1      46.216  33.052  27.334  1.00  0.00     0.134 A 
ATOM     75  F   UNL A   1      46.766  31.624  30.623  1.00  0.00    -0.206 F 
ATOM     76  C   UNL A   1      47.191  33.791  29.825  1.00  0.00     0.040 A 
ATOM     77  C   UNL A   1      46.683  34.351  27.539  1.00  0.00     0.040 A 
ATOM     78  F   UNL A   1      45.743  32.735  26.119  1.00  0.00    -0.206 F 
ATOM     79  C   UNL A   1      47.166  34.725  28.791  1.00  0.00     0.006 A 
ENDBRANCH  51  72
BRANCH  63  80
ATOM     80  C   UNL A   1      49.292  26.099  26.565  1.00  0.00     0.057 A 
ATOM     81  C   UNL A   1      49.831  26.306  25.290  1.00  0.00     0.134 A 
ATOM     82  C   UNL A   1      50.143  25.584  27.552  1.00  0.00     0.134 A 
ATOM     83  F   UNL A   1      49.066  26.785  24.298  1.00  0.00    -0.206 F 
ATOM     84  C   UNL A   1      51.162  25.996  25.003  1.00  0.00     0.040 A 
ATOM     85  C   UNL A   1      51.481  25.293  27.283  1.00  0.00     0.040 A 
ATOM     86  F   UNL A   1      49.691  25.371  28.797  1.00  0.00    -0.206 F 
ATOM     87  C   UNL A   1      51.992  25.494  26.003  1.00  0.00     0.006 A 
ENDBRANCH  63  80
ENDBRANCH  37  38
ENDBRANCH  30  32
ENDBRANCH  29  30
ENDBRANCH  28  29
ENDBRANCH  27  28
ENDBRANCH  26  27
ENDBRANCH   1  26
TORSDOF 20
ENDMDL
MODEL 3
REMARK VINA RESULT:     -10.1      1.146      6.279
REMARK SMILES CCOc1cc(OCC)cc(-c2ccc([C@@H](C)C(=O)OCCOCCOC(=O)c3ccc(-c4c5nc(c(-c6c(F)cccc6F)c6ccc([nH]6)c(-c6c(F)cccc6F)c6nc(c(-c7c(F)cccc7F)c7ccc4[nH]7)C=C6)C=C5)cc3)cc2)c1
REMARK SMILES IDX 22 1 21 2 20 3 18 4 19 5 16 6 17 7 15 8 12 9 13 10 84 11
REMARK SMILES IDX 14 12 83 13 11 14 4 15 5 16 85 17 6 18 10 19 3 20 2 21 1 22
REMARK SMILES IDX 7 23 8 24 9 25 23 26 24 27 25 28 26 29 27 30 28 31 29 32
REMARK SMILES IDX 30 33 82 34 31 35 81 36 32 37 33 38 34 39 75 40 35 41 80 42
REMARK SMILES IDX 74 43 76 44 36 45 79 46 73 47 72 48 37 50 63 51 46 52 62 53
REMARK SMILES IDX 47 54 50 55 61 56 77 57 48 58 49 59 60 61 78 62 51 63 38 64
REMARK SMILES IDX 39 65 44 66 40 67 41 68 43 69 45 70 42 71 64 72 65 73 70 74
REMARK SMILES IDX 66 75 67 76 69 77 71 78 68 79 52 80 53 81 58 82 54 83 55 84
REMARK SMILES IDX 57 85 59 86 56 87
REMARK H PARENT 76 49 50 60
REMARK Flexibility Score: inf
ROOT
ATOM      1  C   UNL A   1      44.881  19.759  25.172  1.00  0.00     0.202 C 
ENDROOT
BRANCH   1   2
ATOM      2  C   UNL A   1      43.366  19.707  25.382  1.00  0.00     0.261 C 
BRANCH   2   3
ATOM      3  O   UNL A   1      42.965  20.585  26.448  1.00  0.00    -0.463 OA
BRANCH   3   4
ATOM      4  C   UNL A   1      42.184  21.638  26.093  1.00  0.00     0.313 C 
ATOM      5  O   UNL A   1      42.395  22.361  25.124  1.00  0.00    -0.252 OA
BRANCH   4   6
ATOM      6  C   UNL A   1      41.024  21.891  27.043  1.00  0.00     0.126 C 
ATOM      7  C   UNL A   1      40.856  20.689  27.969  1.00  0.00     0.025 C 
BRANCH   6   8
ATOM      8  C   UNL A   1      39.692  22.325  26.441  1.00  0.00    -0.034 A 
ATOM      9  C   UNL A   1      37.089  23.116  25.609  1.00  0.00    -0.018 A 
ATOM     10  C   UNL A   1      37.598  21.846  25.295  1.00  0.00     0.009 A 
ATOM     11  C   UNL A   1      37.931  24.007  26.288  1.00  0.00     0.009 A 
ATOM     12  C   UNL A   1      38.878  21.453  25.707  1.00  0.00     0.005 A 
ATOM     13  C   UNL A   1      39.212  23.620  26.696  1.00  0.00     0.005 A 
BRANCH   9  14
ATOM     14  C   UNL A   1      35.689  23.470  25.318  1.00  0.00    -0.011 A 
ATOM     15  C   UNL A   1      34.016  24.683  24.041  1.00  0.00     0.123 A 
ATOM     16  C   UNL A   1      33.009  24.203  24.877  1.00  0.00     0.092 A 
ATOM     17  C   UNL A   1      35.348  24.335  24.270  1.00  0.00     0.055 A 
ATOM     18  C   UNL A   1      33.325  23.360  25.941  1.00  0.00     0.123 A 
ATOM     19  C   UNL A   1      34.657  22.992  26.146  1.00  0.00     0.055 A 
BRANCH  15  20
ATOM     20  O   UNL A   1      33.679  25.614  23.097  1.00  0.00    -0.494 OA
BRANCH  20  21
ATOM     21  C   UNL A   1      32.743  26.593  23.560  1.00  0.00     0.226 C 
ATOM     22  C   UNL A   1      33.374  27.974  23.640  1.00  0.00     0.049 C 
ENDBRANCH  20  21
ENDBRANCH  15  20
BRANCH  18  23
ATOM     23  O   UNL A   1      32.266  22.949  26.705  1.00  0.00    -0.494 OA
BRANCH  23  24
ATOM     24  C   UNL A   1      30.953  23.102  26.160  1.00  0.00     0.226 C 
ATOM     25  C   UNL A   1      29.890  22.859  27.219  1.00  0.00     0.049 C 
ENDBRANCH  23  24
ENDBRANCH  18  23
ENDBRANCH   9  14
ENDBRANCH   6   8
ENDBRANCH   4   6
ENDBRANCH   3   4
ENDBRANCH   2   3
ENDBRANCH   1   2
BRANCH   1  26
ATOM     26  O   UNL A   1      45.365  20.869  24.417  1.00  0.00    -0.374 OA
BRANCH  26  27
ATOM     27  C   UNL A   1      45.938  21.954  25.150  1.00  0.00     0.202 C 
BRANCH  27  28
ATOM     28  C   UNL A   1      45.605  23.361  24.642  1.00  0.00     0.261 C 
BRANCH  28  29
ATOM     29  O   UNL A   1      44.906  24.142  25.629  1.00  0.00    -0.460 OA
BRANCH  29  30
ATOM     30  C   UNL A   1      45.053  25.479  25.510  1.00  0.00     0.338 C 
ATOM     31  O   UNL A   1      45.692  26.084  24.657  1.00  0.00    -0.246 OA
BRANCH  30  32
ATOM     32  C   UNL A   1      44.181  26.173  26.474  1.00  0.00     0.060 A 
ATOM     33  C   UNL A   1      44.378  27.548  26.648  1.00  0.00     0.016 A 
ATOM     34  C   UNL A   1      43.247  25.485  27.254  1.00  0.00     0.016 A 
ATOM     35  C   UNL A   1      43.680  28.235  27.639  1.00  0.00     0.010 A 
ATOM     36  C   UNL A   1      42.553  26.175  28.256  1.00  0.00     0.010 A 
ATOM     37  C   UNL A   1      42.794  27.544  28.476  1.00  0.00    -0.014 A 
BRANCH  37  38
ATOM     38  C   UNL A   1      42.242  28.226  29.672  1.00  0.00     0.031 A 
ATOM     39  C   UNL A   1      40.946  28.979  29.550  1.00  0.00     0.074 A 
ATOM     40  C   UNL A   1      42.863  28.143  30.862  1.00  0.00     0.049 A 
ATOM     41  N   UNL A   1      40.293  29.660  30.457  1.00  0.00    -0.248 NA
ATOM     42  C   UNL A   1      40.298  28.960  28.229  1.00  0.00     0.031 C 
ATOM     43  C   UNL A   1      44.099  27.408  31.121  1.00  0.00     0.029 A 
ATOM     44  N   UNL A   1      42.533  28.688  32.077  1.00  0.00    -0.354 N 
ATOM     45  C   UNL A   1      39.162  30.151  29.818  1.00  0.00     0.074 A 
ATOM     46  C   UNL A   1      39.231  29.716  28.439  1.00  0.00     0.031 C 
ATOM     47  C   UNL A   1      44.431  27.556  32.415  1.00  0.00     0.029 A 
ATOM     48  C   UNL A   1      43.445  28.417  33.066  1.00  0.00     0.049 A 
ATOM     49  H   UNL A   1      41.719  29.222  32.226  1.00  0.00     0.167 HD
ATOM     50  C   UNL A   1      38.151  30.891  30.333  1.00  0.00     0.037 A 
ATOM     51  C   UNL A   1      43.488  28.834  34.348  1.00  0.00     0.037 A 
ATOM     52  C   UNL A   1      38.077  31.323  31.704  1.00  0.00     0.049 A 
ATOM     53  C   UNL A   1      42.390  29.716  34.879  1.00  0.00     0.074 A 
ATOM     54  C   UNL A   1      37.084  32.060  32.324  1.00  0.00     0.029 A 
ATOM     55  N   UNL A   1      39.041  31.060  32.665  1.00  0.00    -0.354 N 
ATOM     56  N   UNL A   1      41.316  30.158  34.271  1.00  0.00    -0.248 NA
ATOM     57  C   UNL A   1      42.513  30.160  36.276  1.00  0.00     0.031 C 
ATOM     58  C   UNL A   1      37.468  32.283  33.650  1.00  0.00     0.029 A 
ATOM     59  C   UNL A   1      38.678  31.643  33.868  1.00  0.00     0.049 A 
ATOM     60  H   UNL A   1      39.861  30.537  32.515  1.00  0.00     0.167 HD
ATOM     61  C   UNL A   1      40.623  30.904  35.216  1.00  0.00     0.074 A 
ATOM     62  C   UNL A   1      41.392  30.849  36.441  1.00  0.00     0.031 C 
ATOM     63  C   UNL A   1      39.451  31.574  35.081  1.00  0.00     0.037 A 
BRANCH  50  64
ATOM     64  C   UNL A   1      37.049  31.299  29.401  1.00  0.00     0.057 A 
ATOM     65  C   UNL A   1      37.013  32.567  28.810  1.00  0.00     0.134 A 
ATOM     66  C   UNL A   1      36.030  30.398  29.065  1.00  0.00     0.134 A 
ATOM     67  F   UNL A   1      37.951  33.481  29.101  1.00  0.00    -0.206 F 
ATOM     68  C   UNL A   1      35.991  32.934  27.932  1.00  0.00     0.040 A 
ATOM     69  C   UNL A   1      35.016  30.745  28.171  1.00  0.00     0.040 A 
ATOM     70  F   UNL A   1      36.009  29.166  29.594  1.00  0.00    -0.206 F 
ATOM     71  C   UNL A   1      34.992  32.018  27.606  1.00  0.00     0.006 A 
ENDBRANCH  50  64
BRANCH  51  72
ATOM     72  C   UNL A   1      44.621  28.434  35.220  1.00  0.00     0.057 A 
ATOM     73  C   UNL A   1      45.767  29.228  35.331  1.00  0.00     0.134 A 
ATOM     74  C   UNL A   1      44.593  27.236  35.943  1.00  0.00     0.134 A 
ATOM     75  F   UNL A   1      45.863  30.375  34.642  1.00  0.00    -0.206 F 
ATOM     76  C   UNL A   1      46.853  28.839  36.117  1.00  0.00     0.040 A 
ATOM     77  C   UNL A   1      45.661  26.845  36.752  1.00  0.00     0.040 A 
ATOM     78  F   UNL A   1      43.523  26.430  35.878  1.00  0.00    -0.206 F 
ATOM     79  C   UNL A   1      46.798  27.645  36.835  1.00  0.00     0.006 A 
ENDBRANCH  51  72
BRANCH  63  80
ATOM     80  C   UNL A   1      38.914  32.274  36.295  1.00  0.00     0.057 A 
ATOM     81  C   UNL A   1      38.083  31.624  37.215  1.00  0.00     0.134 A 
ATOM     82  C   UNL A   1      39.270  33.601  36.568  1.00  0.00     0.134 A 
ATOM     83  F   UNL A   1      37.696  30.358  37.006  1.00  0.00    -0.206 F 
ATOM     84  C   UNL A   1      37.610  32.276  38.356  1.00  0.00     0.040 A 
ATOM     85  C   UNL A   1      38.823  34.255  37.717  1.00  0.00     0.040 A 
ATOM     86  F   UNL A   1      40.071  34.277  35.731  1.00  0.00    -0.206 F 
ATOM     87  C   UNL A   1      37.985  33.594  38.612  1.00  0.00     0.006 A 
ENDBRANCH  63  80
ENDBRANCH  37  38
ENDBRANCH  30  32
ENDBRANCH  29  30
ENDBRANCH  28  29
ENDBRANCH  27  28
ENDBRANCH  26  27
ENDBRANCH   1  26
TORSDOF 20
ENDMDL
