MODEL 1
REMARK VINA RESULT:     -11.2      0.000      0.000
REMARK SMILES O=C(OCCOCCOC(=O)c1cc(Br)ccc1N1CC2(CCCCC2)C1)c1ccc(-c2c3nc(c(-c4c(F)cccc4F)c4ccc([nH]4)c(-c4c(F)cccc4F)c4nc(c(-c5c(F)cccc5F)c5ccc2[nH]5)C=C4)C=C3)cc1
REMARK SMILES IDX 5 1 4 2 3 3 2 4 1 5 28 6 29 7 81 8 30 9 80 10 31 11 32 12
REMARK SMILES IDX 33 13 74 14 34 15 79 16 73 17 75 18 35 19 78 20 72 21 71 22
REMARK SMILES IDX 36 24 62 25 45 26 61 27 46 28 49 29 60 30 76 31 47 32 48 33
REMARK SMILES IDX 59 35 77 36 50 37 37 38 38 39 43 40 39 41 40 42 42 43 44 44
REMARK SMILES IDX 41 45 63 46 64 47 69 48 65 49 66 50 68 51 70 52 67 53 51 54
REMARK SMILES IDX 52 55 57 56 53 57 54 58 56 59 58 60 55 61 6 62 7 63 8 64
REMARK SMILES IDX 9 65 10 66 11 67 12 68 13 69 18 70 14 71 17 72 15 73 16 74
REMARK SMILES IDX 19 75 20 76 27 77 21 78 22 79 26 80 23 81 25 82 24 83
REMARK H PARENT 75 23 49 34
REMARK Flexibility Score: inf
ROOT
ATOM      1  C   UNL A   1      33.785  32.998  28.388  1.00  0.00     0.202 C 
ENDROOT
BRANCH   1   2
ATOM      2  C   UNL A   1      34.404  33.594  29.653  1.00  0.00     0.261 C 
BRANCH   2   3
ATOM      3  O   UNL A   1      34.466  32.562  30.663  1.00  0.00    -0.460 OA
BRANCH   3   4
ATOM      4  C   UNL A   1      35.517  32.280  31.468  1.00  0.00     0.338 C 
ATOM      5  O   UNL A   1      35.417  32.387  32.687  1.00  0.00    -0.246 OA
BRANCH   4   6
ATOM      6  C   UNL A   1      36.749  31.671  30.917  1.00  0.00     0.060 A 
ATOM      7  C   UNL A   1      37.307  32.079  29.715  1.00  0.00     0.016 A 
ATOM      8  C   UNL A   1      37.461  30.764  31.713  1.00  0.00     0.016 A 
ATOM      9  C   UNL A   1      38.499  31.535  29.262  1.00  0.00     0.010 A 
ATOM     10  C   UNL A   1      38.701  30.264  31.286  1.00  0.00     0.010 A 
ATOM     11  C   UNL A   1      39.227  30.641  30.041  1.00  0.00    -0.014 A 
BRANCH  11  12
ATOM     12  C   UNL A   1      40.489  30.090  29.485  1.00  0.00     0.031 A 
ATOM     13  C   UNL A   1      41.730  30.933  29.500  1.00  0.00     0.074 A 
ATOM     14  C   UNL A   1      40.561  28.798  29.100  1.00  0.00     0.049 A 
ATOM     15  N   UNL A   1      42.893  30.705  28.950  1.00  0.00    -0.248 NA
ATOM     16  C   UNL A   1      41.653  32.204  30.238  1.00  0.00     0.031 C 
ATOM     17  C   UNL A   1      39.460  27.832  29.166  1.00  0.00     0.029 A 
ATOM     18  N   UNL A   1      41.614  28.056  28.628  1.00  0.00    -0.354 N 
ATOM     19  C   UNL A   1      43.660  31.831  29.213  1.00  0.00     0.074 A 
ATOM     20  C   UNL A   1      42.842  32.733  29.993  1.00  0.00     0.031 C 
ATOM     21  C   UNL A   1      39.916  26.615  28.837  1.00  0.00     0.029 A 
ATOM     22  C   UNL A   1      41.300  26.736  28.400  1.00  0.00     0.049 A 
ATOM     23  H   UNL A   1      42.510  28.433  28.469  1.00  0.00     0.167 HD
ATOM     24  C   UNL A   1      44.927  32.090  28.814  1.00  0.00     0.037 A 
ATOM     25  C   UNL A   1      42.027  25.747  27.844  1.00  0.00     0.037 A 
ATOM     26  C   UNL A   1      45.736  31.156  28.075  1.00  0.00     0.049 A 
ATOM     27  C   UNL A   1      43.403  26.080  27.340  1.00  0.00     0.074 A 
ATOM     28  C   UNL A   1      47.006  31.331  27.554  1.00  0.00     0.029 A 
ATOM     29  N   UNL A   1      45.352  29.858  27.770  1.00  0.00    -0.354 N 
ATOM     30  N   UNL A   1      44.077  27.201  27.457  1.00  0.00    -0.248 NA
ATOM     31  C   UNL A   1      44.104  25.032  26.588  1.00  0.00     0.031 C 
ATOM     32  C   UNL A   1      47.372  30.150  26.898  1.00  0.00     0.029 A 
ATOM     33  C   UNL A   1      46.353  29.223  27.056  1.00  0.00     0.049 A 
ATOM     34  H   UNL A   1      44.493  29.449  28.023  1.00  0.00     0.167 HD
ATOM     35  C   UNL A   1      45.277  26.996  26.792  1.00  0.00     0.074 A 
ATOM     36  C   UNL A   1      45.253  25.630  26.304  1.00  0.00     0.031 C 
ATOM     37  C   UNL A   1      46.301  27.860  26.589  1.00  0.00     0.037 A 
BRANCH  24  38
ATOM     38  C   UNL A   1      45.465  33.463  29.091  1.00  0.00     0.057 A 
ATOM     39  C   UNL A   1      46.097  33.802  30.292  1.00  0.00     0.134 A 
ATOM     40  C   UNL A   1      45.319  34.475  28.130  1.00  0.00     0.134 A 
ATOM     41  F   UNL A   1      46.244  32.890  31.265  1.00  0.00    -0.206 F 
ATOM     42  C   UNL A   1      46.540  35.105  30.542  1.00  0.00     0.040 A 
ATOM     43  C   UNL A   1      45.781  35.772  28.357  1.00  0.00     0.040 A 
ATOM     44  F   UNL A   1      44.719  34.220  26.958  1.00  0.00    -0.206 F 
ATOM     45  C   UNL A   1      46.385  36.093  29.571  1.00  0.00     0.006 A 
ENDBRANCH  24  38
BRANCH  25  46
ATOM     46  C   UNL A   1      41.440  24.393  27.646  1.00  0.00     0.057 A 
ATOM     47  C   UNL A   1      41.858  23.295  28.407  1.00  0.00     0.134 A 
ATOM     48  C   UNL A   1      40.456  24.157  26.675  1.00  0.00     0.134 A 
ATOM     49  F   UNL A   1      42.819  23.440  29.332  1.00  0.00    -0.206 F 
ATOM     50  C   UNL A   1      41.326  22.018  28.207  1.00  0.00     0.040 A 
ATOM     51  C   UNL A   1      39.889  22.895  26.491  1.00  0.00     0.040 A 
ATOM     52  F   UNL A   1      40.014  25.159  25.900  1.00  0.00    -0.206 F 
ATOM     53  C   UNL A   1      40.330  21.819  27.254  1.00  0.00     0.006 A 
ENDBRANCH  25  46
BRANCH  37  54
ATOM     54  C   UNL A   1      47.483  27.341  25.829  1.00  0.00     0.057 A 
ATOM     55  C   UNL A   1      48.543  26.686  26.468  1.00  0.00     0.134 A 
ATOM     56  C   UNL A   1      47.543  27.469  24.435  1.00  0.00     0.134 A 
ATOM     57  F   UNL A   1      48.551  26.548  27.803  1.00  0.00    -0.206 F 
ATOM     58  C   UNL A   1      49.631  26.193  25.750  1.00  0.00     0.040 A 
ATOM     59  C   UNL A   1      48.613  26.955  23.703  1.00  0.00     0.040 A 
ATOM     60  F   UNL A   1      46.555  28.080  23.764  1.00  0.00    -0.206 F 
ATOM     61  C   UNL A   1      49.664  26.320  24.361  1.00  0.00     0.006 A 
ENDBRANCH  37  54
ENDBRANCH  11  12
ENDBRANCH   4   6
ENDBRANCH   3   4
ENDBRANCH   2   3
ENDBRANCH   1   2
BRANCH   1  62
ATOM     62  O   UNL A   1      34.810  32.344  27.651  1.00  0.00    -0.374 OA
BRANCH  62  63
ATOM     63  C   UNL A   1      34.754  30.922  27.603  1.00  0.00     0.202 C 
BRANCH  63  64
ATOM     64  C   UNL A   1      33.319  30.495  27.305  1.00  0.00     0.261 C 
BRANCH  64  65
ATOM     65  O   UNL A   1      33.295  29.883  26.007  1.00  0.00    -0.460 OA
BRANCH  65  66
ATOM     66  C   UNL A   1      32.052  29.670  25.466  1.00  0.00     0.340 C 
ATOM     67  O   UNL A   1      31.140  30.459  25.462  1.00  0.00    -0.246 OA
BRANCH  66  68
ATOM     68  C   UNL A   1      32.071  28.315  24.832  1.00  0.00     0.084 A 
ATOM     69  C   UNL A   1      33.015  27.393  25.318  1.00  0.00     0.033 A 
ATOM     70  C   UNL A   1      31.198  27.954  23.778  1.00  0.00     0.051 A 
ATOM     71  C   UNL A   1      33.129  26.136  24.741  1.00  0.00     0.018 A 
ATOM     72  C   UNL A   1      31.337  26.674  23.214  1.00  0.00     0.028 A 
ATOM     73  Br  UNL A   1      34.419  24.923  25.395  1.00  0.00    -0.051 Br
ATOM     74  C   UNL A   1      32.303  25.776  23.683  1.00  0.00     0.018 A 
BRANCH  70  75
ATOM     75  N   UNL A   1      30.202  28.816  23.286  1.00  0.00    -0.370 N 
ATOM     76  C   UNL A   1      30.281  29.734  22.190  1.00  0.00     0.125 C 
ATOM     77  C   UNL A   1      28.802  28.578  23.047  1.00  0.00     0.125 C 
ATOM     78  C   UNL A   1      28.771  30.009  22.435  1.00  0.00     0.005 C 
ATOM     79  C   UNL A   1      27.941  30.281  21.179  1.00  0.00     0.011 C 
ATOM     80  C   UNL A   1      28.451  31.062  23.512  1.00  0.00     0.011 C 
ATOM     81  C   UNL A   1      28.231  31.695  20.652  1.00  0.00     0.001 C 
ATOM     82  C   UNL A   1      28.803  32.444  22.993  1.00  0.00     0.001 C 
ATOM     83  C   UNL A   1      28.030  32.769  21.721  1.00  0.00     0.000 C 
ENDBRANCH  70  75
ENDBRANCH  66  68
ENDBRANCH  65  66
ENDBRANCH  64  65
ENDBRANCH  63  64
ENDBRANCH  62  63
ENDBRANCH   1  62
TORSDOF 15
ENDMDL
MODEL 2
REMARK VINA RESULT:     -11.2      4.245      6.921
REMARK SMILES O=C(OCCOCCOC(=O)c1cc(Br)ccc1N1CC2(CCCCC2)C1)c1ccc(-c2c3nc(c(-c4c(F)cccc4F)c4ccc([nH]4)c(-c4c(F)cccc4F)c4nc(c(-c5c(F)cccc5F)c5ccc2[nH]5)C=C4)C=C3)cc1
REMARK SMILES IDX 5 1 4 2 3 3 2 4 1 5 28 6 29 7 81 8 30 9 80 10 31 11 32 12
REMARK SMILES IDX 33 13 74 14 34 15 79 16 73 17 75 18 35 19 78 20 72 21 71 22
REMARK SMILES IDX 36 24 62 25 45 26 61 27 46 28 49 29 60 30 76 31 47 32 48 33
REMARK SMILES IDX 59 35 77 36 50 37 37 38 38 39 43 40 39 41 40 42 42 43 44 44
REMARK SMILES IDX 41 45 63 46 64 47 69 48 65 49 66 50 68 51 70 52 67 53 51 54
REMARK SMILES IDX 52 55 57 56 53 57 54 58 56 59 58 60 55 61 6 62 7 63 8 64
REMARK SMILES IDX 9 65 10 66 11 67 12 68 13 69 18 70 14 71 17 72 15 73 16 74
REMARK SMILES IDX 19 75 20 76 27 77 21 78 22 79 26 80 23 81 25 82 24 83
REMARK H PARENT 75 23 49 34
REMARK Flexibility Score: inf
ROOT
ATOM      1  C   UNL A   1      31.287  31.937  26.761  1.00  0.00     0.202 C 
ENDROOT
BRANCH   1   2
ATOM      2  C   UNL A   1      32.437  32.944  26.775  1.00  0.00     0.261 C 
BRANCH   2   3
ATOM      3  O   UNL A   1      32.118  33.994  27.717  1.00  0.00    -0.460 OA
BRANCH   3   4
ATOM      4  C   UNL A   1      32.989  34.672  28.498  1.00  0.00     0.338 C 
ATOM      5  O   UNL A   1      32.767  35.837  28.816  1.00  0.00    -0.246 OA
BRANCH   4   6
ATOM      6  C   UNL A   1      34.135  33.980  29.130  1.00  0.00     0.060 A 
ATOM      7  C   UNL A   1      33.994  32.785  29.820  1.00  0.00     0.016 A 
ATOM      8  C   UNL A   1      35.427  34.466  28.888  1.00  0.00     0.016 A 
ATOM      9  C   UNL A   1      35.098  32.129  30.341  1.00  0.00     0.010 A 
ATOM     10  C   UNL A   1      36.549  33.765  29.356  1.00  0.00     0.010 A 
ATOM     11  C   UNL A   1      36.390  32.588  30.104  1.00  0.00    -0.014 A 
BRANCH  11  12
ATOM     12  C   UNL A   1      37.524  31.840  30.704  1.00  0.00     0.031 A 
ATOM     13  C   UNL A   1      37.842  32.028  32.157  1.00  0.00     0.074 A 
ATOM     14  C   UNL A   1      38.172  30.893  29.992  1.00  0.00     0.049 A 
ATOM     15  N   UNL A   1      38.860  31.584  32.846  1.00  0.00    -0.248 NA
ATOM     16  C   UNL A   1      36.884  32.821  32.945  1.00  0.00     0.031 C 
ATOM     17  C   UNL A   1      37.865  30.515  28.609  1.00  0.00     0.029 A 
ATOM     18  N   UNL A   1      39.185  30.038  30.344  1.00  0.00    -0.354 N 
ATOM     19  C   UNL A   1      38.703  32.101  34.125  1.00  0.00     0.074 A 
ATOM     20  C   UNL A   1      37.480  32.872  34.126  1.00  0.00     0.031 C 
ATOM     21  C   UNL A   1      38.607  29.453  28.264  1.00  0.00     0.029 A 
ATOM     22  C   UNL A   1      39.542  29.164  29.344  1.00  0.00     0.049 A 
ATOM     23  H   UNL A   1      39.616  30.049  31.229  1.00  0.00     0.167 HD
ATOM     24  C   UNL A   1      39.524  31.958  35.190  1.00  0.00     0.037 A 
ATOM     25  C   UNL A   1      40.548  28.270  29.279  1.00  0.00     0.037 A 
ATOM     26  C   UNL A   1      40.715  31.148  35.175  1.00  0.00     0.049 A 
ATOM     27  C   UNL A   1      41.492  28.185  30.446  1.00  0.00     0.074 A 
ATOM     28  C   UNL A   1      41.664  30.981  36.168  1.00  0.00     0.029 A 
ATOM     29  N   UNL A   1      41.105  30.350  34.109  1.00  0.00    -0.354 N 
ATOM     30  N   UNL A   1      41.426  28.793  31.608  1.00  0.00    -0.248 NA
ATOM     31  C   UNL A   1      42.673  27.330  30.280  1.00  0.00     0.031 C 
ATOM     32  C   UNL A   1      42.650  30.114  35.685  1.00  0.00     0.029 A 
ATOM     33  C   UNL A   1      42.288  29.699  34.412  1.00  0.00     0.049 A 
ATOM     34  H   UNL A   1      40.613  30.261  33.261  1.00  0.00     0.167 HD
ATOM     35  C   UNL A   1      42.555  28.397  32.309  1.00  0.00     0.074 A 
ATOM     36  C   UNL A   1      43.271  27.469  31.455  1.00  0.00     0.031 C 
ATOM     37  C   UNL A   1      42.973  28.776  33.541  1.00  0.00     0.037 A 
BRANCH  24  38
ATOM     38  C   UNL A   1      39.207  32.767  36.414  1.00  0.00     0.057 A 
ATOM     39  C   UNL A   1      39.755  34.032  36.649  1.00  0.00     0.134 A 
ATOM     40  C   UNL A   1      38.346  32.245  37.391  1.00  0.00     0.134 A 
ATOM     41  F   UNL A   1      40.609  34.578  35.769  1.00  0.00    -0.206 F 
ATOM     42  C   UNL A   1      39.483  34.739  37.824  1.00  0.00     0.040 A 
ATOM     43  C   UNL A   1      38.045  32.952  38.555  1.00  0.00     0.040 A 
ATOM     44  F   UNL A   1      37.788  31.035  37.231  1.00  0.00    -0.206 F 
ATOM     45  C   UNL A   1      38.623  34.200  38.779  1.00  0.00     0.006 A 
ENDBRANCH  24  38
BRANCH  25  46
ATOM     46  C   UNL A   1      40.772  27.466  28.046  1.00  0.00     0.057 A 
ATOM     47  C   UNL A   1      41.549  27.950  26.987  1.00  0.00     0.134 A 
ATOM     48  C   UNL A   1      40.198  26.196  27.886  1.00  0.00     0.134 A 
ATOM     49  F   UNL A   1      42.102  29.171  27.057  1.00  0.00    -0.206 F 
ATOM     50  C   UNL A   1      41.741  27.208  25.819  1.00  0.00     0.040 A 
ATOM     51  C   UNL A   1      40.413  25.429  26.741  1.00  0.00     0.040 A 
ATOM     52  F   UNL A   1      39.432  25.671  28.855  1.00  0.00    -0.206 F 
ATOM     53  C   UNL A   1      41.181  25.938  25.699  1.00  0.00     0.006 A 
ENDBRANCH  25  46
BRANCH  37  54
ATOM     54  C   UNL A   1      44.247  28.166  34.042  1.00  0.00     0.057 A 
ATOM     55  C   UNL A   1      45.487  28.791  33.860  1.00  0.00     0.134 A 
ATOM     56  C   UNL A   1      44.225  26.955  34.745  1.00  0.00     0.134 A 
ATOM     57  F   UNL A   1      45.574  29.945  33.181  1.00  0.00    -0.206 F 
ATOM     58  C   UNL A   1      46.664  28.222  34.344  1.00  0.00     0.040 A 
ATOM     59  C   UNL A   1      45.393  26.390  35.257  1.00  0.00     0.040 A 
ATOM     60  F   UNL A   1      43.068  26.311  34.957  1.00  0.00    -0.206 F 
ATOM     61  C   UNL A   1      46.618  27.022  35.052  1.00  0.00     0.006 A 
ENDBRANCH  37  54
ENDBRANCH  11  12
ENDBRANCH   4   6
ENDBRANCH   3   4
ENDBRANCH   2   3
ENDBRANCH   1   2
BRANCH   1  62
ATOM     62  O   UNL A   1      31.810  30.653  27.077  1.00  0.00    -0.374 OA
BRANCH  62  63
ATOM     63  C   UNL A   1      33.211  30.472  26.895  1.00  0.00     0.202 C 
BRANCH  63  64
ATOM     64  C   UNL A   1      33.459  29.068  26.350  1.00  0.00     0.261 C 
BRANCH  64  65
ATOM     65  O   UNL A   1      32.259  28.623  25.700  1.00  0.00    -0.460 OA
BRANCH  65  66
ATOM     66  C   UNL A   1      32.240  28.732  24.332  1.00  0.00     0.340 C 
ATOM     67  O   UNL A   1      33.205  28.871  23.622  1.00  0.00    -0.246 OA
BRANCH  66  68
ATOM     68  C   UNL A   1      30.817  28.579  23.896  1.00  0.00     0.084 A 
ATOM     69  C   UNL A   1      30.145  29.742  23.481  1.00  0.00     0.033 A 
ATOM     70  C   UNL A   1      30.148  27.332  23.901  1.00  0.00     0.051 A 
ATOM     71  C   UNL A   1      28.807  29.687  23.116  1.00  0.00     0.018 A 
ATOM     72  C   UNL A   1      28.794  27.308  23.525  1.00  0.00     0.028 A 
ATOM     73  Br  UNL A   1      27.919  31.266  22.586  1.00  0.00    -0.051 Br
ATOM     74  C   UNL A   1      28.124  28.477  23.148  1.00  0.00     0.018 A 
BRANCH  70  75
ATOM     75  N   UNL A   1      30.783  26.129  24.256  1.00  0.00    -0.370 N 
ATOM     76  C   UNL A   1      30.787  25.465  25.524  1.00  0.00     0.125 C 
ATOM     77  C   UNL A   1      30.868  24.878  23.548  1.00  0.00     0.125 C 
ATOM     78  C   UNL A   1      31.576  24.327  24.820  1.00  0.00     0.005 C 
ATOM     79  C   UNL A   1      31.266  22.911  25.310  1.00  0.00     0.011 C 
ATOM     80  C   UNL A   1      33.101  24.528  24.732  1.00  0.00     0.011 C 
ATOM     81  C   UNL A   1      31.919  22.672  26.680  1.00  0.00     0.001 C 
ATOM     82  C   UNL A   1      33.717  24.348  26.107  1.00  0.00     0.001 C 
ATOM     83  C   UNL A   1      33.420  22.964  26.669  1.00  0.00     0.000 C 
ENDBRANCH  70  75
ENDBRANCH  66  68
ENDBRANCH  65  66
ENDBRANCH  64  65
ENDBRANCH  63  64
ENDBRANCH  62  63
ENDBRANCH   1  62
TORSDOF 15
ENDMDL
MODEL 3
REMARK VINA RESULT:     -11.2      4.555      8.950
REMARK SMILES O=C(OCCOCCOC(=O)c1cc(Br)ccc1N1CC2(CCCCC2)C1)c1ccc(-c2c3nc(c(-c4c(F)cccc4F)c4ccc([nH]4)c(-c4c(F)cccc4F)c4nc(c(-c5c(F)cccc5F)c5ccc2[nH]5)C=C4)C=C3)cc1
REMARK SMILES IDX 5 1 4 2 3 3 2 4 1 5 28 6 29 7 81 8 30 9 80 10 31 11 32 12
REMARK SMILES IDX 33 13 74 14 34 15 79 16 73 17 75 18 35 19 78 20 72 21 71 22
REMARK SMILES IDX 36 24 62 25 45 26 61 27 46 28 49 29 60 30 76 31 47 32 48 33
REMARK SMILES IDX 59 35 77 36 50 37 37 38 38 39 43 40 39 41 40 42 42 43 44 44
REMARK SMILES IDX 41 45 63 46 64 47 69 48 65 49 66 50 68 51 70 52 67 53 51 54
REMARK SMILES IDX 52 55 57 56 53 57 54 58 56 59 58 60 55 61 6 62 7 63 8 64
REMARK SMILES IDX 9 65 10 66 11 67 12 68 13 69 18 70 14 71 17 72 15 73 16 74
REMARK SMILES IDX 19 75 20 76 27 77 21 78 22 79 26 80 23 81 25 82 24 83
REMARK H PARENT 75 23 49 34
REMARK Flexibility Score: inf
ROOT
ATOM      1  C   UNL A   1      31.394  31.893  26.488  1.00  0.00     0.202 C 
ENDROOT
BRANCH   1   2
ATOM      2  C   UNL A   1      32.571  32.482  27.266  1.00  0.00     0.261 C 
BRANCH   2   3
ATOM      3  O   UNL A   1      32.242  33.839  27.640  1.00  0.00    -0.460 OA
BRANCH   3   4
ATOM      4  C   UNL A   1      32.941  34.640  28.477  1.00  0.00     0.338 C 
ATOM      5  O   UNL A   1      32.533  35.765  28.751  1.00  0.00    -0.246 OA
BRANCH   4   6
ATOM      6  C   UNL A   1      34.114  34.121  29.216  1.00  0.00     0.060 A 
ATOM      7  C   UNL A   1      33.993  33.224  30.267  1.00  0.00     0.016 A 
ATOM      8  C   UNL A   1      35.395  34.423  28.736  1.00  0.00     0.016 A 
ATOM      9  C   UNL A   1      35.116  32.705  30.892  1.00  0.00     0.010 A 
ATOM     10  C   UNL A   1      36.530  33.845  29.325  1.00  0.00     0.010 A 
ATOM     11  C   UNL A   1      36.397  32.984  30.425  1.00  0.00    -0.014 A 
BRANCH  11  12
ATOM     12  C   UNL A   1      37.553  32.402  31.154  1.00  0.00     0.031 A 
ATOM     13  C   UNL A   1      38.369  31.327  30.501  1.00  0.00     0.074 A 
ATOM     14  C   UNL A   1      37.956  32.930  32.330  1.00  0.00     0.049 A 
ATOM     15  N   UNL A   1      39.326  30.593  31.004  1.00  0.00    -0.248 NA
ATOM     16  C   UNL A   1      38.072  31.040  29.088  1.00  0.00     0.031 C 
ATOM     17  C   UNL A   1      37.331  34.071  33.005  1.00  0.00     0.029 A 
ATOM     18  N   UNL A   1      39.017  32.616  33.141  1.00  0.00    -0.354 N 
ATOM     19  C   UNL A   1      39.694  29.712  29.996  1.00  0.00     0.074 A 
ATOM     20  C   UNL A   1      38.876  30.017  28.843  1.00  0.00     0.031 C 
ATOM     21  C   UNL A   1      38.067  34.414  34.072  1.00  0.00     0.029 A 
ATOM     22  C   UNL A   1      39.132  33.434  34.241  1.00  0.00     0.049 A 
ATOM     23  H   UNL A   1      39.638  31.875  32.953  1.00  0.00     0.167 HD
ATOM     24  C   UNL A   1      40.617  28.724  30.045  1.00  0.00     0.037 A 
ATOM     25  C   UNL A   1      39.963  33.367  35.299  1.00  0.00     0.037 A 
ATOM     26  C   UNL A   1      41.450  28.469  31.192  1.00  0.00     0.049 A 
ATOM     27  C   UNL A   1      40.928  32.217  35.367  1.00  0.00     0.074 A 
ATOM     28  C   UNL A   1      42.370  27.455  31.388  1.00  0.00     0.029 A 
ATOM     29  N   UNL A   1      41.471  29.257  32.335  1.00  0.00    -0.354 N 
ATOM     30  N   UNL A   1      41.171  31.289  34.471  1.00  0.00    -0.248 NA
ATOM     31  C   UNL A   1      41.700  32.073  36.607  1.00  0.00     0.031 C 
ATOM     32  C   UNL A   1      42.918  27.607  32.666  1.00  0.00     0.029 A 
ATOM     33  C   UNL A   1      42.378  28.745  33.246  1.00  0.00     0.049 A 
ATOM     34  H   UNL A   1      40.922  30.061  32.476  1.00  0.00     0.167 HD
ATOM     35  C   UNL A   1      42.120  30.450  35.038  1.00  0.00     0.074 A 
ATOM     36  C   UNL A   1      42.433  31.001  36.343  1.00  0.00     0.031 C 
ATOM     37  C   UNL A   1      42.672  29.320  34.535  1.00  0.00     0.037 A 
BRANCH  24  38
ATOM     38  C   UNL A   1      40.698  27.802  28.864  1.00  0.00     0.057 A 
ATOM     39  C   UNL A   1      41.556  28.028  27.783  1.00  0.00     0.134 A 
ATOM     40  C   UNL A   1      39.870  26.671  28.805  1.00  0.00     0.134 A 
ATOM     41  F   UNL A   1      42.355  29.107  27.763  1.00  0.00    -0.206 F 
ATOM     42  C   UNL A   1      41.570  27.180  26.673  1.00  0.00     0.040 A 
ATOM     43  C   UNL A   1      39.894  25.802  27.714  1.00  0.00     0.040 A 
ATOM     44  F   UNL A   1      39.019  26.397  29.806  1.00  0.00    -0.206 F 
ATOM     45  C   UNL A   1      40.739  26.061  26.638  1.00  0.00     0.006 A 
ENDBRANCH  24  38
BRANCH  25  46
ATOM     46  C   UNL A   1      39.855  34.350  36.413  1.00  0.00     0.057 A 
ATOM     47  C   UNL A   1      40.590  35.541  36.413  1.00  0.00     0.134 A 
ATOM     48  C   UNL A   1      39.024  34.114  37.518  1.00  0.00     0.134 A 
ATOM     49  F   UNL A   1      41.429  35.818  35.403  1.00  0.00    -0.206 F 
ATOM     50  C   UNL A   1      40.508  36.454  37.468  1.00  0.00     0.040 A 
ATOM     51  C   UNL A   1      38.905  35.034  38.561  1.00  0.00     0.040 A 
ATOM     52  F   UNL A   1      38.298  32.989  37.593  1.00  0.00    -0.206 F 
ATOM     53  C   UNL A   1      39.654  36.206  38.541  1.00  0.00     0.006 A 
ENDBRANCH  25  46
BRANCH  37  54
ATOM     54  C   UNL A   1      43.687  28.624  35.390  1.00  0.00     0.057 A 
ATOM     55  C   UNL A   1      43.324  27.628  36.306  1.00  0.00     0.134 A 
ATOM     56  C   UNL A   1      45.048  28.931  35.268  1.00  0.00     0.134 A 
ATOM     57  F   UNL A   1      42.034  27.301  36.479  1.00  0.00    -0.206 F 
ATOM     58  C   UNL A   1      44.279  26.976  37.085  1.00  0.00     0.040 A 
ATOM     59  C   UNL A   1      46.014  28.266  36.022  1.00  0.00     0.040 A 
ATOM     60  F   UNL A   1      45.460  29.871  34.403  1.00  0.00    -0.206 F 
ATOM     61  C   UNL A   1      45.630  27.289  36.938  1.00  0.00     0.006 A 
ENDBRANCH  37  54
ENDBRANCH  11  12
ENDBRANCH   4   6
ENDBRANCH   3   4
ENDBRANCH   2   3
ENDBRANCH   1   2
BRANCH   1  62
ATOM     62  O   UNL A   1      31.697  30.541  26.168  1.00  0.00    -0.374 OA
BRANCH  62  63
ATOM     63  C   UNL A   1      32.612  29.871  27.030  1.00  0.00     0.202 C 
BRANCH  63  64
ATOM     64  C   UNL A   1      31.978  28.564  27.498  1.00  0.00     0.261 C 
BRANCH  64  65
ATOM     65  O   UNL A   1      32.480  27.503  26.672  1.00  0.00    -0.460 OA
BRANCH  65  66
ATOM     66  C   UNL A   1      31.545  26.614  26.204  1.00  0.00     0.340 C 
ATOM     67  O   UNL A   1      30.903  25.845  26.876  1.00  0.00    -0.246 OA
BRANCH  66  68
ATOM     68  C   UNL A   1      31.431  26.828  24.727  1.00  0.00     0.084 A 
ATOM     69  C   UNL A   1      30.567  27.848  24.292  1.00  0.00     0.033 A 
ATOM     70  C   UNL A   1      32.142  26.045  23.786  1.00  0.00     0.051 A 
ATOM     71  C   UNL A   1      30.367  28.069  22.937  1.00  0.00     0.018 A 
ATOM     72  C   UNL A   1      31.919  26.292  22.420  1.00  0.00     0.028 A 
ATOM     73  Br  UNL A   1      29.184  29.428  22.377  1.00  0.00    -0.051 Br
ATOM     74  C   UNL A   1      31.030  27.287  21.997  1.00  0.00     0.018 A 
BRANCH  70  75
ATOM     75  N   UNL A   1      33.057  25.047  24.163  1.00  0.00    -0.370 N 
ATOM     76  C   UNL A   1      34.403  25.202  24.626  1.00  0.00     0.125 C 
ATOM     77  C   UNL A   1      32.867  23.867  24.966  1.00  0.00     0.125 C 
ATOM     78  C   UNL A   1      34.405  23.663  24.843  1.00  0.00     0.005 C 
ATOM     79  C   UNL A   1      35.206  23.171  26.051  1.00  0.00     0.011 C 
ATOM     80  C   UNL A   1      34.751  22.815  23.605  1.00  0.00     0.011 C 
ATOM     81  C   UNL A   1      36.711  23.247  25.751  1.00  0.00     0.001 C 
ATOM     82  C   UNL A   1      36.228  22.953  23.291  1.00  0.00     0.001 C 
ATOM     83  C   UNL A   1      37.088  22.506  24.467  1.00  0.00     0.000 C 
ENDBRANCH  70  75
ENDBRANCH  66  68
ENDBRANCH  65  66
ENDBRANCH  64  65
ENDBRANCH  63  64
ENDBRANCH  62  63
ENDBRANCH   1  62
TORSDOF 15
ENDMDL
