MODEL 1
REMARK VINA RESULT:     -12.9      0.000      0.000
REMARK SMILES O=C(OCCOCCOC(=O)[C@H]1CCCN(c2cc(-c3ccccn3)nc(-c3ccccc3F)n2)C1)c1ccc(-c2c3nc(c(-c4c(F)cccc4F)c4ccc([nH]4)c(-c4c(F)cccc4F)c4nc(c(-c5c(F)cccc5F)c5ccc2[nH]5)C=C4)C=C3)cc1
REMARK SMILES IDX 6 1 5 2 4 3 3 4 2 5 1 6 37 7 38 8 90 9 39 10 89 11 40 12
REMARK SMILES IDX 41 13 42 14 83 15 43 16 88 17 82 18 84 19 44 20 87 21 81 22
REMARK SMILES IDX 80 23 45 25 71 26 54 27 70 28 55 29 58 30 69 31 85 32 56 33
REMARK SMILES IDX 57 34 68 36 86 37 59 38 46 39 47 40 52 41 48 42 49 43 51 44
REMARK SMILES IDX 53 45 50 46 72 47 73 48 78 49 74 50 75 51 77 52 79 53 76 54
REMARK SMILES IDX 60 55 61 56 66 57 62 58 63 59 65 60 67 61 64 62 7 63 8 64
REMARK SMILES IDX 9 65 10 66 11 67 12 68 13 69 36 70 14 71 16 72 15 73 17 74
REMARK SMILES IDX 18 75 35 76 19 77 27 78 26 79 20 80 21 81 25 82 22 83 24 84
REMARK SMILES IDX 23 85 28 86 29 87 33 88 30 89 32 90 34 91 31 92
REMARK H PARENT 84 24 58 35
REMARK Flexibility Score: inf
ROOT
ATOM      1  O   UNL A   1      32.711  30.096  25.705  1.00  0.00    -0.374 OA
ENDROOT
BRANCH   1   2
ATOM      2  C   UNL A   1      31.985  30.578  26.844  1.00  0.00     0.202 C 
BRANCH   2   3
ATOM      3  C   UNL A   1      31.444  32.010  26.746  1.00  0.00     0.261 C 
BRANCH   3   4
ATOM      4  O   UNL A   1      32.523  32.964  26.782  1.00  0.00    -0.460 OA
BRANCH   4   5
ATOM      5  C   UNL A   1      33.132  33.505  27.864  1.00  0.00     0.338 C 
ATOM      6  O   UNL A   1      32.621  34.478  28.413  1.00  0.00    -0.246 OA
BRANCH   5   7
ATOM      7  C   UNL A   1      34.402  32.965  28.429  1.00  0.00     0.060 A 
ATOM      8  C   UNL A   1      34.519  31.709  29.017  1.00  0.00     0.016 A 
ATOM      9  C   UNL A   1      35.565  33.741  28.293  1.00  0.00     0.016 A 
ATOM     10  C   UNL A   1      35.706  31.269  29.555  1.00  0.00     0.010 A 
ATOM     11  C   UNL A   1      36.795  33.271  28.766  1.00  0.00     0.010 A 
ATOM     12  C   UNL A   1      36.856  32.036  29.417  1.00  0.00    -0.014 A 
BRANCH  12  13
ATOM     13  C   UNL A   1      38.062  31.498  30.063  1.00  0.00     0.031 A 
ATOM     14  C   UNL A   1      38.238  31.726  31.529  1.00  0.00     0.074 A 
ATOM     15  C   UNL A   1      38.816  30.620  29.374  1.00  0.00     0.049 A 
ATOM     16  N   UNL A   1      39.175  31.283  32.321  1.00  0.00    -0.248 NA
ATOM     17  C   UNL A   1      37.209  32.535  32.205  1.00  0.00     0.031 C 
ATOM     18  C   UNL A   1      38.585  30.227  27.978  1.00  0.00     0.029 A 
ATOM     19  N   UNL A   1      39.871  29.843  29.764  1.00  0.00    -0.354 N 
ATOM     20  C   UNL A   1      38.861  31.775  33.578  1.00  0.00     0.074 A 
ATOM     21  C   UNL A   1      37.651  32.553  33.453  1.00  0.00     0.031 C 
ATOM     22  C   UNL A   1      39.432  29.241  27.652  1.00  0.00     0.029 A 
ATOM     23  C   UNL A   1      40.322  28.996  28.779  1.00  0.00     0.049 A 
ATOM     24  H   UNL A   1      40.270  29.886  30.664  1.00  0.00     0.167 HD
ATOM     25  C   UNL A   1      39.538  31.585  34.731  1.00  0.00     0.037 A 
ATOM     26  C   UNL A   1      41.361  28.142  28.789  1.00  0.00     0.037 A 
ATOM     27  C   UNL A   1      40.732  30.790  34.815  1.00  0.00     0.049 A 
ATOM     28  C   UNL A   1      42.167  28.052  30.055  1.00  0.00     0.074 A 
ATOM     29  C   UNL A   1      41.563  30.591  35.900  1.00  0.00     0.029 A 
ATOM     30  N   UNL A   1      41.254  30.050  33.761  1.00  0.00    -0.354 N 
ATOM     31  N   UNL A   1      41.932  28.607  31.222  1.00  0.00    -0.248 NA
ATOM     32  C   UNL A   1      43.391  27.247  30.006  1.00  0.00     0.031 C 
ATOM     33  C   UNL A   1      42.615  29.768  35.489  1.00  0.00     0.029 A 
ATOM     34  C   UNL A   1      42.410  29.408  34.164  1.00  0.00     0.049 A 
ATOM     35  H   UNL A   1      40.859  29.991  32.861  1.00  0.00     0.167 HD
ATOM     36  C   UNL A   1      42.974  28.213  32.047  1.00  0.00     0.074 A 
ATOM     37  C   UNL A   1      43.824  27.346  31.254  1.00  0.00     0.031 C 
ATOM     38  C   UNL A   1      43.217  28.546  33.338  1.00  0.00     0.037 A 
BRANCH  25  39
ATOM     39  C   UNL A   1      39.044  32.294  35.954  1.00  0.00     0.057 A 
ATOM     40  C   UNL A   1      38.175  31.646  36.840  1.00  0.00     0.134 A 
ATOM     41  C   UNL A   1      39.404  33.614  36.248  1.00  0.00     0.134 A 
ATOM     42  F   UNL A   1      37.804  30.376  36.622  1.00  0.00    -0.206 F 
ATOM     43  C   UNL A   1      37.666  32.293  37.967  1.00  0.00     0.040 A 
ATOM     44  C   UNL A   1      38.916  34.265  37.384  1.00  0.00     0.040 A 
ATOM     45  F   UNL A   1      40.259  34.279  35.456  1.00  0.00    -0.206 F 
ATOM     46  C   UNL A   1      38.037  33.608  38.241  1.00  0.00     0.006 A 
ENDBRANCH  25  39
BRANCH  26  47
ATOM     47  C   UNL A   1      41.729  27.375  27.570  1.00  0.00     0.057 A 
ATOM     48  C   UNL A   1      42.385  27.988  26.493  1.00  0.00     0.134 A 
ATOM     49  C   UNL A   1      41.458  26.006  27.452  1.00  0.00     0.134 A 
ATOM     50  F   UNL A   1      42.681  29.297  26.536  1.00  0.00    -0.206 F 
ATOM     51  C   UNL A   1      42.742  27.280  25.344  1.00  0.00     0.040 A 
ATOM     52  C   UNL A   1      41.838  25.277  26.322  1.00  0.00     0.040 A 
ATOM     53  F   UNL A   1      40.850  25.349  28.451  1.00  0.00    -0.206 F 
ATOM     54  C   UNL A   1      42.477  25.916  25.261  1.00  0.00     0.006 A 
ENDBRANCH  26  47
BRANCH  38  55
ATOM     55  C   UNL A   1      44.440  27.955  33.969  1.00  0.00     0.057 A 
ATOM     56  C   UNL A   1      44.370  26.729  34.642  1.00  0.00     0.134 A 
ATOM     57  C   UNL A   1      45.664  28.635  33.974  1.00  0.00     0.134 A 
ATOM     58  F   UNL A   1      43.220  26.038  34.682  1.00  0.00    -0.206 F 
ATOM     59  C   UNL A   1      45.473  26.205  35.313  1.00  0.00     0.040 A 
ATOM     60  C   UNL A   1      46.783  28.106  34.615  1.00  0.00     0.040 A 
ATOM     61  F   UNL A   1      45.794  29.808  33.336  1.00  0.00    -0.206 F 
ATOM     62  C   UNL A   1      46.686  26.894  35.296  1.00  0.00     0.006 A 
ENDBRANCH  38  55
ENDBRANCH  12  13
ENDBRANCH   5   7
ENDBRANCH   4   5
ENDBRANCH   3   4
ENDBRANCH   2   3
ENDBRANCH   1   2
BRANCH   1  63
ATOM     63  C   UNL A   1      32.090  29.034  24.967  1.00  0.00     0.202 C 
BRANCH  63  64
ATOM     64  C   UNL A   1      33.151  28.235  24.207  1.00  0.00     0.261 C 
BRANCH  64  65
ATOM     65  O   UNL A   1      32.688  28.090  22.859  1.00  0.00    -0.463 OA
BRANCH  65  66
ATOM     66  C   UNL A   1      33.044  26.907  22.278  1.00  0.00     0.310 C 
ATOM     67  O   UNL A   1      33.689  26.794  21.244  1.00  0.00    -0.252 OA
BRANCH  66  68
ATOM     68  C   UNL A   1      32.611  25.771  23.170  1.00  0.00     0.118 C 
ATOM     69  C   UNL A   1      31.108  25.523  23.038  1.00  0.00     0.019 C 
ATOM     70  C   UNL A   1      33.492  24.546  22.907  1.00  0.00     0.133 C 
ATOM     71  C   UNL A   1      30.684  24.244  23.751  1.00  0.00     0.022 C 
ATOM     72  N   UNL A   1      32.924  23.388  23.590  1.00  0.00    -0.356 N 
ATOM     73  C   UNL A   1      31.537  23.067  23.290  1.00  0.00     0.118 C 
BRANCH  72  74
ATOM     74  C   UNL A   1      33.787  22.388  23.986  1.00  0.00     0.133 A 
ATOM     75  C   UNL A   1      33.365  21.079  24.060  1.00  0.00     0.077 A 
ATOM     76  N   UNL A   1      35.026  22.746  24.360  1.00  0.00    -0.211 NA
ATOM     77  C   UNL A   1      34.255  20.147  24.552  1.00  0.00     0.095 A 
ATOM     78  C   UNL A   1      35.831  21.776  24.839  1.00  0.00     0.165 A 
ATOM     79  N   UNL A   1      35.499  20.480  24.947  1.00  0.00    -0.226 NA
BRANCH  77  80
ATOM     80  C   UNL A   1      33.858  18.743  24.700  1.00  0.00     0.089 A 
ATOM     81  C   UNL A   1      34.662  17.707  24.226  1.00  0.00     0.030 A 
ATOM     82  N   UNL A   1      32.630  18.519  25.237  1.00  0.00    -0.255 NA
ATOM     83  C   UNL A   1      34.198  16.398  24.314  1.00  0.00     0.004 A 
ATOM     84  C   UNL A   1      32.213  17.239  25.323  1.00  0.00     0.112 A 
ATOM     85  C   UNL A   1      32.950  16.156  24.873  1.00  0.00     0.020 A 
ENDBRANCH  77  80
BRANCH  78  86
ATOM     86  C   UNL A   1      37.108  22.180  25.424  1.00  0.00     0.055 A 
ATOM     87  C   UNL A   1      37.266  23.450  26.011  1.00  0.00     0.015 A 
ATOM     88  C   UNL A   1      38.199  21.306  25.468  1.00  0.00     0.134 A 
ATOM     89  C   UNL A   1      38.464  23.815  26.637  1.00  0.00     0.001 A 
ATOM     90  C   UNL A   1      39.401  21.666  26.081  1.00  0.00     0.040 A 
ATOM     91  F   UNL A   1      38.124  20.093  24.899  1.00  0.00    -0.206 F 
ATOM     92  C   UNL A   1      39.531  22.920  26.674  1.00  0.00     0.003 A 
ENDBRANCH  78  86
ENDBRANCH  72  74
ENDBRANCH  66  68
ENDBRANCH  65  66
ENDBRANCH  64  65
ENDBRANCH  63  64
ENDBRANCH   1  63
TORSDOF 17
ENDMDL
MODEL 2
REMARK VINA RESULT:     -12.7      3.509      8.145
REMARK SMILES O=C(OCCOCCOC(=O)[C@H]1CCCN(c2cc(-c3ccccn3)nc(-c3ccccc3F)n2)C1)c1ccc(-c2c3nc(c(-c4c(F)cccc4F)c4ccc([nH]4)c(-c4c(F)cccc4F)c4nc(c(-c5c(F)cccc5F)c5ccc2[nH]5)C=C4)C=C3)cc1
REMARK SMILES IDX 6 1 5 2 4 3 3 4 2 5 1 6 37 7 38 8 90 9 39 10 89 11 40 12
REMARK SMILES IDX 41 13 42 14 83 15 43 16 88 17 82 18 84 19 44 20 87 21 81 22
REMARK SMILES IDX 80 23 45 25 71 26 54 27 70 28 55 29 58 30 69 31 85 32 56 33
REMARK SMILES IDX 57 34 68 36 86 37 59 38 46 39 47 40 52 41 48 42 49 43 51 44
REMARK SMILES IDX 53 45 50 46 72 47 73 48 78 49 74 50 75 51 77 52 79 53 76 54
REMARK SMILES IDX 60 55 61 56 66 57 62 58 63 59 65 60 67 61 64 62 7 63 8 64
REMARK SMILES IDX 9 65 10 66 11 67 12 68 13 69 36 70 14 71 16 72 15 73 17 74
REMARK SMILES IDX 18 75 35 76 19 77 27 78 26 79 20 80 21 81 25 82 22 83 24 84
REMARK SMILES IDX 23 85 28 86 29 87 33 88 30 89 32 90 34 91 31 92
REMARK H PARENT 84 24 58 35
REMARK Flexibility Score: inf
ROOT
ATOM      1  O   UNL A   1      43.885  20.477  24.575  1.00  0.00    -0.374 OA
ENDROOT
BRANCH   1   2
ATOM      2  C   UNL A   1      44.905  21.473  24.733  1.00  0.00     0.202 C 
BRANCH   2   3
ATOM      3  C   UNL A   1      44.699  22.782  23.961  1.00  0.00     0.261 C 
BRANCH   3   4
ATOM      4  O   UNL A   1      43.957  23.728  24.755  1.00  0.00    -0.460 OA
BRANCH   4   5
ATOM      5  C   UNL A   1      44.346  24.951  25.187  1.00  0.00     0.338 C 
ATOM      6  O   UNL A   1      45.285  25.513  24.626  1.00  0.00    -0.246 OA
BRANCH   5   7
ATOM      7  C   UNL A   1      43.680  25.657  26.318  1.00  0.00     0.060 A 
ATOM      8  C   UNL A   1      43.854  27.009  26.600  1.00  0.00     0.016 A 
ATOM      9  C   UNL A   1      42.763  24.933  27.098  1.00  0.00     0.016 A 
ATOM     10  C   UNL A   1      43.242  27.609  27.677  1.00  0.00     0.010 A 
ATOM     11  C   UNL A   1      42.075  25.551  28.148  1.00  0.00     0.010 A 
ATOM     12  C   UNL A   1      42.335  26.892  28.445  1.00  0.00    -0.014 A 
BRANCH  12  13
ATOM     13  C   UNL A   1      41.768  27.610  29.597  1.00  0.00     0.031 A 
ATOM     14  C   UNL A   1      42.576  27.679  30.853  1.00  0.00     0.074 A 
ATOM     15  C   UNL A   1      40.680  28.378  29.396  1.00  0.00     0.049 A 
ATOM     16  N   UNL A   1      42.316  28.317  31.960  1.00  0.00    -0.248 NA
ATOM     17  C   UNL A   1      43.862  26.960  30.856  1.00  0.00     0.031 C 
ATOM     18  C   UNL A   1      39.946  28.481  28.129  1.00  0.00     0.029 A 
ATOM     19  N   UNL A   1      40.049  29.272  30.215  1.00  0.00    -0.354 N 
ATOM     20  C   UNL A   1      43.392  28.060  32.796  1.00  0.00     0.074 A 
ATOM     21  C   UNL A   1      44.309  27.207  32.078  1.00  0.00     0.031 C 
ATOM     22  C   UNL A   1      39.006  29.431  28.240  1.00  0.00     0.029 A 
ATOM     23  C   UNL A   1      39.011  29.936  29.606  1.00  0.00     0.049 A 
ATOM     24  H   UNL A   1      40.313  29.426  31.152  1.00  0.00     0.167 HD
ATOM     25  C   UNL A   1      43.582  28.506  34.056  1.00  0.00     0.037 A 
ATOM     26  C   UNL A   1      38.147  30.832  30.115  1.00  0.00     0.037 A 
ATOM     27  C   UNL A   1      42.649  29.366  34.730  1.00  0.00     0.049 A 
ATOM     28  C   UNL A   1      38.316  31.208  31.560  1.00  0.00     0.074 A 
ATOM     29  C   UNL A   1      42.676  29.816  36.036  1.00  0.00     0.029 A 
ATOM     30  N   UNL A   1      41.521  29.916  34.133  1.00  0.00    -0.354 N 
ATOM     31  N   UNL A   1      39.279  30.877  32.391  1.00  0.00    -0.248 NA
ATOM     32  C   UNL A   1      37.275  32.055  32.152  1.00  0.00     0.031 C 
ATOM     33  C   UNL A   1      41.538  30.600  36.243  1.00  0.00     0.029 A 
ATOM     34  C   UNL A   1      40.832  30.686  35.051  1.00  0.00     0.049 A 
ATOM     35  H   UNL A   1      41.253  29.778  33.196  1.00  0.00     0.167 HD
ATOM     36  C   UNL A   1      38.964  31.480  33.599  1.00  0.00     0.074 A 
ATOM     37  C   UNL A   1      37.737  32.223  33.383  1.00  0.00     0.031 C 
ATOM     38  C   UNL A   1      39.617  31.416  34.784  1.00  0.00     0.037 A 
BRANCH  25  39
ATOM     39  C   UNL A   1      44.792  28.020  34.793  1.00  0.00     0.057 A 
ATOM     40  C   UNL A   1      45.977  28.765  34.767  1.00  0.00     0.134 A 
ATOM     41  C   UNL A   1      44.799  26.815  35.505  1.00  0.00     0.134 A 
ATOM     42  F   UNL A   1      46.031  29.935  34.113  1.00  0.00    -0.206 F 
ATOM     43  C   UNL A   1      47.133  28.319  35.409  1.00  0.00     0.040 A 
ATOM     44  C   UNL A   1      45.944  26.370  36.168  1.00  0.00     0.040 A 
ATOM     45  F   UNL A   1      43.686  26.072  35.595  1.00  0.00    -0.206 F 
ATOM     46  C   UNL A   1      47.118  27.117  36.112  1.00  0.00     0.006 A 
ENDBRANCH  25  39
BRANCH  26  47
ATOM     47  C   UNL A   1      37.031  31.369  29.292  1.00  0.00     0.057 A 
ATOM     48  C   UNL A   1      37.065  32.674  28.780  1.00  0.00     0.134 A 
ATOM     49  C   UNL A   1      35.912  30.590  28.973  1.00  0.00     0.134 A 
ATOM     50  F   UNL A   1      38.108  33.478  29.041  1.00  0.00    -0.206 F 
ATOM     51  C   UNL A   1      36.028  33.190  28.001  1.00  0.00     0.040 A 
ATOM     52  C   UNL A   1      34.881  31.082  28.167  1.00  0.00     0.040 A 
ATOM     53  F   UNL A   1      35.821  29.327  29.411  1.00  0.00    -0.206 F 
ATOM     54  C   UNL A   1      34.935  32.389  27.684  1.00  0.00     0.006 A 
ENDBRANCH  26  47
BRANCH  38  55
ATOM     55  C   UNL A   1      39.024  32.183  35.925  1.00  0.00     0.057 A 
ATOM     56  C   UNL A   1      39.380  33.520  36.142  1.00  0.00     0.134 A 
ATOM     57  C   UNL A   1      38.162  31.577  36.847  1.00  0.00     0.134 A 
ATOM     58  F   UNL A   1      40.213  34.150  35.299  1.00  0.00    -0.206 F 
ATOM     59  C   UNL A   1      38.910  34.225  37.249  1.00  0.00     0.040 A 
ATOM     60  C   UNL A   1      37.661  32.282  37.940  1.00  0.00     0.040 A 
ATOM     61  F   UNL A   1      37.778  30.302  36.683  1.00  0.00    -0.206 F 
ATOM     62  C   UNL A   1      38.044  33.605  38.149  1.00  0.00     0.006 A 
ENDBRANCH  38  55
ENDBRANCH  12  13
ENDBRANCH   5   7
ENDBRANCH   4   5
ENDBRANCH   3   4
ENDBRANCH   2   3
ENDBRANCH   1   2
BRANCH   1  63
ATOM     63  C   UNL A   1      43.329  19.948  25.788  1.00  0.00     0.202 C 
BRANCH  63  64
ATOM     64  C   UNL A   1      42.724  21.077  26.623  1.00  0.00     0.261 C 
BRANCH  64  65
ATOM     65  O   UNL A   1      41.570  21.554  25.919  1.00  0.00    -0.463 OA
BRANCH  65  66
ATOM     66  C   UNL A   1      40.479  20.743  26.035  1.00  0.00     0.310 C 
ATOM     67  O   UNL A   1      40.496  19.521  25.971  1.00  0.00    -0.252 OA
BRANCH  66  68
ATOM     68  C   UNL A   1      39.272  21.586  26.363  1.00  0.00     0.118 C 
ATOM     69  C   UNL A   1      39.644  23.069  26.401  1.00  0.00     0.019 C 
ATOM     70  C   UNL A   1      38.125  21.234  25.412  1.00  0.00     0.133 C 
ATOM     71  C   UNL A   1      38.409  23.956  26.505  1.00  0.00     0.022 C 
ATOM     72  N   UNL A   1      37.050  22.208  25.572  1.00  0.00    -0.356 N 
ATOM     73  C   UNL A   1      37.407  23.609  25.410  1.00  0.00     0.118 C 
BRANCH  72  74
ATOM     74  C   UNL A   1      35.762  21.795  25.301  1.00  0.00     0.133 A 
ATOM     75  C   UNL A   1      35.438  20.456  25.292  1.00  0.00     0.077 A 
ATOM     76  N   UNL A   1      34.858  22.736  24.983  1.00  0.00    -0.211 NA
ATOM     77  C   UNL A   1      34.153  20.113  24.923  1.00  0.00     0.095 A 
ATOM     78  C   UNL A   1      33.629  22.316  24.625  1.00  0.00     0.165 A 
ATOM     79  N   UNL A   1      33.232  21.035  24.586  1.00  0.00    -0.226 NA
BRANCH  77  80
ATOM     80  C   UNL A   1      33.752  18.704  24.848  1.00  0.00     0.089 A 
ATOM     81  C   UNL A   1      34.493  17.776  24.116  1.00  0.00     0.030 A 
ATOM     82  N   UNL A   1      32.578  18.380  25.451  1.00  0.00    -0.255 NA
ATOM     83  C   UNL A   1      34.020  16.472  24.007  1.00  0.00     0.004 A 
ATOM     84  C   UNL A   1      32.152  17.104  25.339  1.00  0.00     0.112 A 
ATOM     85  C   UNL A   1      32.828  16.126  24.629  1.00  0.00     0.020 A 
ENDBRANCH  77  80
BRANCH  78  86
ATOM     86  C   UNL A   1      32.698  23.311  24.097  1.00  0.00     0.055 A 
ATOM     87  C   UNL A   1      31.637  23.800  24.883  1.00  0.00     0.015 A 
ATOM     88  C   UNL A   1      32.855  23.850  22.815  1.00  0.00     0.134 A 
ATOM     89  C   UNL A   1      30.786  24.805  24.408  1.00  0.00     0.001 A 
ATOM     90  C   UNL A   1      32.004  24.845  22.330  1.00  0.00     0.040 A 
ATOM     91  F   UNL A   1      33.826  23.404  22.004  1.00  0.00    -0.206 F 
ATOM     92  C   UNL A   1      30.972  25.329  23.132  1.00  0.00     0.003 A 
ENDBRANCH  78  86
ENDBRANCH  72  74
ENDBRANCH  66  68
ENDBRANCH  65  66
ENDBRANCH  64  65
ENDBRANCH  63  64
ENDBRANCH   1  63
TORSDOF 17
ENDMDL
MODEL 3
REMARK VINA RESULT:     -12.7      3.527      8.500
REMARK SMILES O=C(OCCOCCOC(=O)[C@H]1CCCN(c2cc(-c3ccccn3)nc(-c3ccccc3F)n2)C1)c1ccc(-c2c3nc(c(-c4c(F)cccc4F)c4ccc([nH]4)c(-c4c(F)cccc4F)c4nc(c(-c5c(F)cccc5F)c5ccc2[nH]5)C=C4)C=C3)cc1
REMARK SMILES IDX 6 1 5 2 4 3 3 4 2 5 1 6 37 7 38 8 90 9 39 10 89 11 40 12
REMARK SMILES IDX 41 13 42 14 83 15 43 16 88 17 82 18 84 19 44 20 87 21 81 22
REMARK SMILES IDX 80 23 45 25 71 26 54 27 70 28 55 29 58 30 69 31 85 32 56 33
REMARK SMILES IDX 57 34 68 36 86 37 59 38 46 39 47 40 52 41 48 42 49 43 51 44
REMARK SMILES IDX 53 45 50 46 72 47 73 48 78 49 74 50 75 51 77 52 79 53 76 54
REMARK SMILES IDX 60 55 61 56 66 57 62 58 63 59 65 60 67 61 64 62 7 63 8 64
REMARK SMILES IDX 9 65 10 66 11 67 12 68 13 69 36 70 14 71 16 72 15 73 17 74
REMARK SMILES IDX 18 75 35 76 19 77 27 78 26 79 20 80 21 81 25 82 22 83 24 84
REMARK SMILES IDX 23 85 28 86 29 87 33 88 30 89 32 90 34 91 31 92
REMARK H PARENT 84 24 58 35
REMARK Flexibility Score: inf
ROOT
ATOM      1  O   UNL A   1      37.567  22.400  25.179  1.00  0.00    -0.374 OA
ENDROOT
BRANCH   1   2
ATOM      2  C   UNL A   1      38.755  21.838  25.755  1.00  0.00     0.202 C 
BRANCH   2   3
ATOM      3  C   UNL A   1      39.464  22.692  26.813  1.00  0.00     0.261 C 
BRANCH   3   4
ATOM      4  O   UNL A   1      39.667  24.034  26.329  1.00  0.00    -0.460 OA
BRANCH   4   5
ATOM      5  C   UNL A   1      40.689  24.880  26.600  1.00  0.00     0.338 C 
ATOM      6  O   UNL A   1      41.735  24.779  25.962  1.00  0.00    -0.246 OA
BRANCH   5   7
ATOM      7  C   UNL A   1      40.602  25.942  27.642  1.00  0.00     0.060 A 
ATOM      8  C   UNL A   1      41.324  27.132  27.601  1.00  0.00     0.016 A 
ATOM      9  C   UNL A   1      39.682  25.766  28.689  1.00  0.00     0.016 A 
ATOM     10  C   UNL A   1      41.235  28.069  28.605  1.00  0.00     0.010 A 
ATOM     11  C   UNL A   1      39.525  26.746  29.674  1.00  0.00     0.010 A 
ATOM     12  C   UNL A   1      40.323  27.893  29.637  1.00  0.00    -0.014 A 
BRANCH  12  13
ATOM     13  C   UNL A   1      40.335  28.928  30.681  1.00  0.00     0.031 A 
ATOM     14  C   UNL A   1      39.308  30.012  30.613  1.00  0.00     0.074 A 
ATOM     15  C   UNL A   1      41.093  28.720  31.775  1.00  0.00     0.049 A 
ATOM     16  N   UNL A   1      39.079  30.978  31.458  1.00  0.00    -0.248 NA
ATOM     17  C   UNL A   1      38.394  29.991  29.457  1.00  0.00     0.031 C 
ATOM     18  C   UNL A   1      41.994  27.577  31.968  1.00  0.00     0.029 A 
ATOM     19  N   UNL A   1      41.172  29.405  32.956  1.00  0.00    -0.354 N 
ATOM     20  C   UNL A   1      38.014  31.690  30.928  1.00  0.00     0.074 A 
ATOM     21  C   UNL A   1      37.638  31.053  29.687  1.00  0.00     0.031 C 
ATOM     22  C   UNL A   1      42.485  27.609  33.215  1.00  0.00     0.029 A 
ATOM     23  C   UNL A   1      42.008  28.818  33.875  1.00  0.00     0.049 A 
ATOM     24  H   UNL A   1      40.677  30.238  33.130  1.00  0.00     0.167 HD
ATOM     25  C   UNL A   1      37.413  32.783  31.445  1.00  0.00     0.037 A 
ATOM     26  C   UNL A   1      42.365  29.235  35.102  1.00  0.00     0.037 A 
ATOM     27  C   UNL A   1      37.809  33.377  32.692  1.00  0.00     0.049 A 
ATOM     28  C   UNL A   1      41.768  30.525  35.592  1.00  0.00     0.074 A 
ATOM     29  C   UNL A   1      37.346  34.536  33.283  1.00  0.00     0.029 A 
ATOM     30  N   UNL A   1      38.766  32.840  33.544  1.00  0.00    -0.354 N 
ATOM     31  N   UNL A   1      40.834  31.263  35.037  1.00  0.00    -0.248 NA
ATOM     32  C   UNL A   1      42.286  31.058  36.856  1.00  0.00     0.031 C 
ATOM     33  C   UNL A   1      38.056  34.725  34.471  1.00  0.00     0.029 A 
ATOM     34  C   UNL A   1      38.922  33.655  34.650  1.00  0.00     0.049 A 
ATOM     35  H   UNL A   1      39.259  32.002  33.385  1.00  0.00     0.167 HD
ATOM     36  C   UNL A   1      40.647  32.343  35.887  1.00  0.00     0.074 A 
ATOM     37  C   UNL A   1      41.543  32.145  37.010  1.00  0.00     0.031 C 
ATOM     38  C   UNL A   1      39.822  33.409  35.748  1.00  0.00     0.037 A 
BRANCH  25  39
ATOM     39  C   UNL A   1      36.329  33.429  30.639  1.00  0.00     0.057 A 
ATOM     40  C   UNL A   1      34.991  33.305  31.032  1.00  0.00     0.134 A 
ATOM     41  C   UNL A   1      36.597  34.152  29.471  1.00  0.00     0.134 A 
ATOM     42  F   UNL A   1      34.669  32.637  32.149  1.00  0.00    -0.206 F 
ATOM     43  C   UNL A   1      33.955  33.861  30.280  1.00  0.00     0.040 A 
ATOM     44  C   UNL A   1      35.570  34.730  28.722  1.00  0.00     0.040 A 
ATOM     45  F   UNL A   1      37.861  34.335  29.059  1.00  0.00    -0.206 F 
ATOM     46  C   UNL A   1      34.244  34.576  29.121  1.00  0.00     0.006 A 
ENDBRANCH  25  39
BRANCH  26  47
ATOM     47  C   UNL A   1      43.364  28.480  35.905  1.00  0.00     0.057 A 
ATOM     48  C   UNL A   1      42.975  27.439  36.760  1.00  0.00     0.134 A 
ATOM     49  C   UNL A   1      44.733  28.759  35.825  1.00  0.00     0.134 A 
ATOM     50  F   UNL A   1      41.679  27.113  36.885  1.00  0.00    -0.206 F 
ATOM     51  C   UNL A   1      43.901  26.718  37.515  1.00  0.00     0.040 A 
ATOM     52  C   UNL A   1      45.675  28.024  36.551  1.00  0.00     0.040 A 
ATOM     53  F   UNL A   1      45.180  29.729  35.013  1.00  0.00    -0.206 F 
ATOM     54  C   UNL A   1      45.259  27.004  37.404  1.00  0.00     0.006 A 
ENDBRANCH  26  47
BRANCH  38  55
ATOM     55  C   UNL A   1      39.843  34.426  36.847  1.00  0.00     0.057 A 
ATOM     56  C   UNL A   1      38.922  34.355  37.899  1.00  0.00     0.134 A 
ATOM     57  C   UNL A   1      40.724  35.514  36.821  1.00  0.00     0.134 A 
ATOM     58  F   UNL A   1      38.045  33.342  37.969  1.00  0.00    -0.206 F 
ATOM     59  C   UNL A   1      38.866  35.341  38.882  1.00  0.00     0.040 A 
ATOM     60  C   UNL A   1      40.698  36.490  37.816  1.00  0.00     0.040 A 
ATOM     61  F   UNL A   1      41.636  35.630  35.844  1.00  0.00    -0.206 F 
ATOM     62  C   UNL A   1      39.759  36.411  38.844  1.00  0.00     0.006 A 
ENDBRANCH  38  55
ENDBRANCH  12  13
ENDBRANCH   5   7
ENDBRANCH   4   5
ENDBRANCH   3   4
ENDBRANCH   2   3
ENDBRANCH   1   2
BRANCH   1  63
ATOM     63  C   UNL A   1      36.324  21.956  25.743  1.00  0.00     0.202 C 
BRANCH  63  64
ATOM     64  C   UNL A   1      35.406  21.432  24.639  1.00  0.00     0.261 C 
BRANCH  64  65
ATOM     65  O   UNL A   1      34.336  22.373  24.494  1.00  0.00    -0.463 OA
BRANCH  65  66
ATOM     66  C   UNL A   1      34.499  23.237  23.450  1.00  0.00     0.310 C 
ATOM     67  O   UNL A   1      35.518  23.357  22.783  1.00  0.00    -0.252 OA
BRANCH  66  68
ATOM     68  C   UNL A   1      33.190  23.938  23.183  1.00  0.00     0.118 C 
ATOM     69  C   UNL A   1      32.032  22.939  23.187  1.00  0.00     0.019 C 
ATOM     70  C   UNL A   1      33.030  25.114  24.150  1.00  0.00     0.133 C 
ATOM     71  C   UNL A   1      30.681  23.645  23.146  1.00  0.00     0.022 C 
ATOM     72  N   UNL A   1      31.671  25.638  24.053  1.00  0.00    -0.356 N 
ATOM     73  C   UNL A   1      30.589  24.688  24.254  1.00  0.00     0.118 C 
BRANCH  72  74
ATOM     74  C   UNL A   1      31.474  26.972  24.342  1.00  0.00     0.133 A 
ATOM     75  C   UNL A   1      30.546  27.715  23.646  1.00  0.00     0.077 A 
ATOM     76  N   UNL A   1      32.262  27.532  25.275  1.00  0.00    -0.211 NA
ATOM     77  C   UNL A   1      30.468  29.064  23.927  1.00  0.00     0.095 A 
ATOM     78  C   UNL A   1      32.129  28.856  25.481  1.00  0.00     0.165 A 
ATOM     79  N   UNL A   1      31.255  29.653  24.847  1.00  0.00    -0.226 NA
BRANCH  77  80
ATOM     80  C   UNL A   1      29.534  29.924  23.193  1.00  0.00     0.089 A 
ATOM     81  C   UNL A   1      28.921  31.017  23.804  1.00  0.00     0.030 A 
ATOM     82  N   UNL A   1      29.236  29.542  21.923  1.00  0.00    -0.255 NA
ATOM     83  C   UNL A   1      27.977  31.749  23.088  1.00  0.00     0.004 A 
ATOM     84  C   UNL A   1      28.328  30.278  21.249  1.00  0.00     0.112 A 
ATOM     85  C   UNL A   1      27.673  31.375  21.785  1.00  0.00     0.020 A 
ENDBRANCH  77  80
BRANCH  78  86
ATOM     86  C   UNL A   1      33.105  29.510  26.351  1.00  0.00     0.055 A 
ATOM     87  C   UNL A   1      34.374  28.941  26.572  1.00  0.00     0.015 A 
ATOM     88  C   UNL A   1      32.836  30.745  26.952  1.00  0.00     0.134 A 
ATOM     89  C   UNL A   1      35.338  29.598  27.345  1.00  0.00     0.001 A 
ATOM     90  C   UNL A   1      33.789  31.401  27.733  1.00  0.00     0.040 A 
ATOM     91  F   UNL A   1      31.635  31.325  26.807  1.00  0.00    -0.206 F 
ATOM     92  C   UNL A   1      35.046  30.830  27.924  1.00  0.00     0.003 A 
ENDBRANCH  78  86
ENDBRANCH  72  74
ENDBRANCH  66  68
ENDBRANCH  65  66
ENDBRANCH  64  65
ENDBRANCH  63  64
ENDBRANCH   1  63
TORSDOF 17
ENDMDL
