MODEL 1
REMARK VINA RESULT:     -11.5      0.000      0.000
REMARK SMILES CC1(C)[C@H](C(=O)OCCOCCOC(=O)c2ccc(-c3c4nc(c(-c5c(F)cccc5F)c5ccc([nH]5)c(-c5c(F)cccc5F)c5nc(c(-c6c(F)cccc6F)c6ccc3[nH]6)C=C5)C=C4)cc2)[C@@H]1C(=O)Nc1ccc(NC(=O)C2CCC2)cc1
REMARK SMILES IDX 9 1 8 2 7 3 5 4 6 5 4 6 1 7 2 8 3 9 70 10 71 11 72 12 73 13
REMARK SMILES IDX 74 15 75 16 86 17 76 18 85 19 77 20 78 21 79 22 80 24 81 25
REMARK SMILES IDX 82 26 84 27 83 28 10 29 11 30 12 31 13 32 14 33 15 34 16 35
REMARK SMILES IDX 17 36 69 37 18 38 68 39 19 40 20 41 21 42 62 43 22 44 67 45
REMARK SMILES IDX 61 46 63 47 23 48 66 49 60 50 59 51 24 53 50 54 33 55 49 56
REMARK SMILES IDX 34 57 37 58 48 59 64 60 35 61 36 62 47 64 65 65 38 66 25 67
REMARK SMILES IDX 26 68 31 69 27 70 28 71 30 72 32 73 29 74 51 75 52 76 57 77
REMARK SMILES IDX 53 78 54 79 56 80 58 81 55 82 39 83 40 84 45 85 41 86 42 87
REMARK SMILES IDX 44 88 46 89 43 90
REMARK H PARENT 73 14 78 23 63 52 37 63
REMARK Flexibility Score: inf
ROOT
ATOM      1  C   UNL A   1      40.175  21.502  26.643  1.00  0.00     0.202 C 
ENDROOT
BRANCH   1   2
ATOM      2  C   UNL A   1      38.911  21.528  25.759  1.00  0.00     0.261 C 
BRANCH   2   3
ATOM      3  O   UNL A   1      37.896  22.509  25.957  1.00  0.00    -0.463 OA
BRANCH   3   4
ATOM      4  C   UNL A   1      36.641  22.185  25.579  1.00  0.00     0.310 C 
ATOM      5  O   UNL A   1      36.117  21.105  25.760  1.00  0.00    -0.252 OA
BRANCH   4   6
ATOM      6  C   UNL A   1      35.839  23.327  25.079  1.00  0.00     0.118 C 
ATOM      7  C   UNL A   1      34.434  24.179  23.113  1.00  0.00     0.013 C 
ATOM      8  C   UNL A   1      34.539  23.256  24.303  1.00  0.00    -0.009 C 
ATOM      9  C   UNL A   1      33.844  21.931  24.066  1.00  0.00     0.013 C 
ATOM     10  C   UNL A   1      34.592  23.888  25.713  1.00  0.00     0.100 C 
BRANCH  10  11
ATOM     11  C   UNL A   1      33.724  23.325  26.774  1.00  0.00     0.228 C 
ATOM     12  O   UNL A   1      34.239  22.666  27.677  1.00  0.00    -0.274 OA
ATOM     13  N   UNL A   1      32.364  23.488  26.785  1.00  0.00    -0.326 N 
ATOM     14  H   UNL A   1      31.876  22.928  27.430  1.00  0.00     0.169 HD
BRANCH  13  15
ATOM     15  C   UNL A   1      31.577  24.335  26.009  1.00  0.00     0.041 A 
ATOM     16  C   UNL A   1      31.540  25.649  26.445  1.00  0.00     0.028 A 
ATOM     17  C   UNL A   1      30.938  23.986  24.824  1.00  0.00     0.028 A 
ATOM     18  C   UNL A   1      31.050  26.638  25.601  1.00  0.00     0.028 A 
ATOM     19  C   UNL A   1      30.347  24.993  24.034  1.00  0.00     0.028 A 
ATOM     20  C   UNL A   1      30.466  26.351  24.386  1.00  0.00     0.041 A 
BRANCH  20  21
ATOM     21  N   UNL A   1      30.062  27.317  23.455  1.00  0.00    -0.326 N 
ATOM     22  C   UNL A   1      30.662  28.267  22.652  1.00  0.00     0.227 C 
ATOM     23  H   UNL A   1      29.084  27.319  23.341  1.00  0.00     0.169 HD
ATOM     24  O   UNL A   1      29.847  28.880  21.931  1.00  0.00    -0.274 OA
BRANCH  22  25
ATOM     25  C   UNL A   1      32.163  28.608  22.510  1.00  0.00     0.079 C 
ATOM     26  C   UNL A   1      32.808  29.090  23.865  1.00  0.00     0.013 C 
ATOM     27  C   UNL A   1      33.376  27.643  22.454  1.00  0.00     0.013 C 
ATOM     28  C   UNL A   1      34.163  28.620  23.327  1.00  0.00     0.002 C 
ENDBRANCH  22  25
ENDBRANCH  20  21
ENDBRANCH  13  15
ENDBRANCH  10  11
ENDBRANCH   4   6
ENDBRANCH   3   4
ENDBRANCH   2   3
ENDBRANCH   1   2
BRANCH   1  29
ATOM     29  O   UNL A   1      41.383  20.834  26.327  1.00  0.00    -0.374 OA
BRANCH  29  30
ATOM     30  C   UNL A   1      42.657  21.391  26.569  1.00  0.00     0.202 C 
BRANCH  30  31
ATOM     31  C   UNL A   1      43.402  22.018  25.398  1.00  0.00     0.261 C 
BRANCH  31  32
ATOM     32  O   UNL A   1      42.808  23.233  24.929  1.00  0.00    -0.460 OA
BRANCH  32  33
ATOM     33  C   UNL A   1      43.571  24.332  25.132  1.00  0.00     0.338 C 
ATOM     34  O   UNL A   1      44.646  24.594  24.621  1.00  0.00    -0.246 OA
BRANCH  33  35
ATOM     35  C   UNL A   1      42.862  25.289  25.998  1.00  0.00     0.060 A 
ATOM     36  C   UNL A   1      43.460  26.538  26.198  1.00  0.00     0.016 A 
ATOM     37  C   UNL A   1      41.690  24.940  26.676  1.00  0.00     0.016 A 
ATOM     38  C   UNL A   1      42.932  27.417  27.136  1.00  0.00     0.010 A 
ATOM     39  C   UNL A   1      41.167  25.820  27.627  1.00  0.00     0.010 A 
ATOM     40  C   UNL A   1      41.818  27.038  27.895  1.00  0.00    -0.014 A 
BRANCH  40  41
ATOM     41  C   UNL A   1      41.484  27.821  29.107  1.00  0.00     0.031 A 
ATOM     42  C   UNL A   1      40.281  28.725  29.068  1.00  0.00     0.074 A 
ATOM     43  C   UNL A   1      42.192  27.681  30.239  1.00  0.00     0.049 A 
ATOM     44  N   UNL A   1      39.784  29.488  30.007  1.00  0.00    -0.248 NA
ATOM     45  C   UNL A   1      39.539  28.775  27.797  1.00  0.00     0.031 C 
ATOM     46  C   UNL A   1      43.348  26.803  30.411  1.00  0.00     0.029 A 
ATOM     47  N   UNL A   1      42.034  28.277  31.464  1.00  0.00    -0.354 N 
ATOM     48  C   UNL A   1      38.675  30.106  29.443  1.00  0.00     0.074 A 
ATOM     49  C   UNL A   1      38.592  29.659  28.069  1.00  0.00     0.031 C 
ATOM     50  C   UNL A   1      43.801  26.924  31.671  1.00  0.00     0.029 A 
ATOM     51  C   UNL A   1      42.981  27.903  32.384  1.00  0.00     0.049 A 
ATOM     52  H   UNL A   1      41.310  28.914  31.664  1.00  0.00     0.167 HD
ATOM     53  C   UNL A   1      37.796  30.958  30.020  1.00  0.00     0.037 A 
ATOM     54  C   UNL A   1      43.168  28.316  33.652  1.00  0.00     0.037 A 
ATOM     55  C   UNL A   1      37.878  31.399  31.385  1.00  0.00     0.049 A 
ATOM     56  C   UNL A   1      42.218  29.320  34.249  1.00  0.00     0.074 A 
ATOM     57  C   UNL A   1      37.028  32.251  32.070  1.00  0.00     0.029 A 
ATOM     58  N   UNL A   1      38.876  31.030  32.274  1.00  0.00    -0.354 N 
ATOM     59  N   UNL A   1      41.157  29.877  33.716  1.00  0.00    -0.248 NA
ATOM     60  C   UNL A   1      42.490  29.749  35.629  1.00  0.00     0.031 C 
ATOM     61  C   UNL A   1      37.540  32.435  33.358  1.00  0.00     0.029 A 
ATOM     62  C   UNL A   1      38.679  31.656  33.493  1.00  0.00     0.049 A 
ATOM     63  H   UNL A   1      39.615  30.413  32.068  1.00  0.00     0.167 HD
ATOM     64  C   UNL A   1      40.620  30.697  34.702  1.00  0.00     0.074 A 
ATOM     65  C   UNL A   1      41.465  30.553  35.869  1.00  0.00     0.031 C 
ATOM     66  C   UNL A   1      39.527  31.497  34.647  1.00  0.00     0.037 A 
BRANCH  53  67
ATOM     67  C   UNL A   1      36.683  31.487  29.162  1.00  0.00     0.057 A 
ATOM     68  C   UNL A   1      35.584  30.695  28.802  1.00  0.00     0.134 A 
ATOM     69  C   UNL A   1      36.702  32.812  28.708  1.00  0.00     0.134 A 
ATOM     70  F   UNL A   1      35.514  29.413  29.189  1.00  0.00    -0.206 F 
ATOM     71  C   UNL A   1      34.555  31.196  28.002  1.00  0.00     0.040 A 
ATOM     72  C   UNL A   1      35.666  33.331  27.931  1.00  0.00     0.040 A 
ATOM     73  F   UNL A   1      37.724  33.623  29.017  1.00  0.00    -0.206 F 
ATOM     74  C   UNL A   1      34.592  32.521  27.571  1.00  0.00     0.006 A 
ENDBRANCH  53  67
BRANCH  54  75
ATOM     75  C   UNL A   1      44.310  27.791  34.444  1.00  0.00     0.057 A 
ATOM     76  C   UNL A   1      44.175  26.655  35.248  1.00  0.00     0.134 A 
ATOM     77  C   UNL A   1      45.554  28.434  34.438  1.00  0.00     0.134 A 
ATOM     78  F   UNL A   1      43.002  26.008  35.313  1.00  0.00    -0.206 F 
ATOM     79  C   UNL A   1      45.231  26.186  36.032  1.00  0.00     0.040 A 
ATOM     80  C   UNL A   1      46.625  27.962  35.197  1.00  0.00     0.040 A 
ATOM     81  F   UNL A   1      45.747  29.529  33.687  1.00  0.00    -0.206 F 
ATOM     82  C   UNL A   1      46.462  26.839  36.004  1.00  0.00     0.006 A 
ENDBRANCH  54  75
BRANCH  66  83
ATOM     83  C   UNL A   1      39.162  32.251  35.893  1.00  0.00     0.057 A 
ATOM     84  C   UNL A   1      38.329  31.701  36.874  1.00  0.00     0.134 A 
ATOM     85  C   UNL A   1      39.682  33.531  36.129  1.00  0.00     0.134 A 
ATOM     86  F   UNL A   1      37.789  30.484  36.705  1.00  0.00    -0.206 F 
ATOM     87  C   UNL A   1      38.004  32.406  38.035  1.00  0.00     0.040 A 
ATOM     88  C   UNL A   1      39.387  34.234  37.298  1.00  0.00     0.040 A 
ATOM     89  F   UNL A   1      40.495  34.112  35.235  1.00  0.00    -0.206 F 
ATOM     90  C   UNL A   1      38.540  33.674  38.252  1.00  0.00     0.006 A 
ENDBRANCH  66  83
ENDBRANCH  40  41
ENDBRANCH  33  35
ENDBRANCH  32  33
ENDBRANCH  31  32
ENDBRANCH  30  31
ENDBRANCH  29  30
ENDBRANCH   1  29
TORSDOF 18
ENDMDL
MODEL 2
REMARK VINA RESULT:     -11.4      1.357      6.259
REMARK SMILES CC1(C)[C@H](C(=O)OCCOCCOC(=O)c2ccc(-c3c4nc(c(-c5c(F)cccc5F)c5ccc([nH]5)c(-c5c(F)cccc5F)c5nc(c(-c6c(F)cccc6F)c6ccc3[nH]6)C=C5)C=C4)cc2)[C@@H]1C(=O)Nc1ccc(NC(=O)C2CCC2)cc1
REMARK SMILES IDX 9 1 8 2 7 3 5 4 6 5 4 6 1 7 2 8 3 9 70 10 71 11 72 12 73 13
REMARK SMILES IDX 74 15 75 16 86 17 76 18 85 19 77 20 78 21 79 22 80 24 81 25
REMARK SMILES IDX 82 26 84 27 83 28 10 29 11 30 12 31 13 32 14 33 15 34 16 35
REMARK SMILES IDX 17 36 69 37 18 38 68 39 19 40 20 41 21 42 62 43 22 44 67 45
REMARK SMILES IDX 61 46 63 47 23 48 66 49 60 50 59 51 24 53 50 54 33 55 49 56
REMARK SMILES IDX 34 57 37 58 48 59 64 60 35 61 36 62 47 64 65 65 38 66 25 67
REMARK SMILES IDX 26 68 31 69 27 70 28 71 30 72 32 73 29 74 51 75 52 76 57 77
REMARK SMILES IDX 53 78 54 79 56 80 58 81 55 82 39 83 40 84 45 85 41 86 42 87
REMARK SMILES IDX 44 88 46 89 43 90
REMARK H PARENT 73 14 78 23 63 52 37 63
REMARK Flexibility Score: inf
ROOT
ATOM      1  C   UNL A   1      41.757  21.478  26.232  1.00  0.00     0.202 C 
ENDROOT
BRANCH   1   2
ATOM      2  C   UNL A   1      40.264  21.219  26.518  1.00  0.00     0.261 C 
BRANCH   2   3
ATOM      3  O   UNL A   1      39.254  22.078  25.994  1.00  0.00    -0.463 OA
BRANCH   3   4
ATOM      4  C   UNL A   1      38.155  21.493  25.470  1.00  0.00     0.310 C 
ATOM      5  O   UNL A   1      38.136  20.406  24.932  1.00  0.00    -0.252 OA
BRANCH   4   6
ATOM      6  C   UNL A   1      36.886  22.197  25.772  1.00  0.00     0.118 C 
ATOM      7  C   UNL A   1      35.432  24.216  25.161  1.00  0.00     0.013 C 
ATOM      8  C   UNL A   1      35.949  22.850  24.777  1.00  0.00    -0.009 C 
ATOM      9  C   UNL A   1      36.183  22.722  23.285  1.00  0.00     0.013 C 
ATOM     10  C   UNL A   1      35.496  21.636  25.621  1.00  0.00     0.100 C 
BRANCH  10  11
ATOM     11  C   UNL A   1      35.029  20.419  24.915  1.00  0.00     0.228 C 
ATOM     12  O   UNL A   1      35.721  19.403  24.959  1.00  0.00    -0.274 OA
ATOM     13  N   UNL A   1      33.864  20.380  24.194  1.00  0.00    -0.326 N 
ATOM     14  H   UNL A   1      33.745  19.584  23.627  1.00  0.00     0.169 HD
BRANCH  13  15
ATOM     15  C   UNL A   1      32.829  21.309  24.151  1.00  0.00     0.041 A 
ATOM     16  C   UNL A   1      32.232  21.565  25.374  1.00  0.00     0.028 A 
ATOM     17  C   UNL A   1      32.441  22.038  23.031  1.00  0.00     0.028 A 
ATOM     18  C   UNL A   1      31.409  22.675  25.517  1.00  0.00     0.028 A 
ATOM     19  C   UNL A   1      31.518  23.093  23.179  1.00  0.00     0.028 A 
ATOM     20  C   UNL A   1      31.047  23.470  24.451  1.00  0.00     0.041 A 
BRANCH  20  21
ATOM     21  N   UNL A   1      30.316  24.660  24.564  1.00  0.00    -0.326 N 
ATOM     22  C   UNL A   1      30.428  25.861  25.235  1.00  0.00     0.227 C 
ATOM     23  H   UNL A   1      29.499  24.633  24.014  1.00  0.00     0.169 HD
ATOM     24  O   UNL A   1      29.507  26.660  24.964  1.00  0.00    -0.274 OA
BRANCH  22  25
ATOM     25  C   UNL A   1      31.541  26.332  26.198  1.00  0.00     0.079 C 
ATOM     26  C   UNL A   1      32.822  26.852  25.439  1.00  0.00     0.013 C 
ATOM     27  C   UNL A   1      31.650  27.669  26.977  1.00  0.00     0.013 C 
ATOM     28  C   UNL A   1      33.148  27.697  26.674  1.00  0.00     0.002 C 
ENDBRANCH  22  25
ENDBRANCH  20  21
ENDBRANCH  13  15
ENDBRANCH  10  11
ENDBRANCH   4   6
ENDBRANCH   3   4
ENDBRANCH   2   3
ENDBRANCH   1   2
BRANCH   1  29
ATOM     29  O   UNL A   1      42.589  20.668  25.422  1.00  0.00    -0.374 OA
BRANCH  29  30
ATOM     30  C   UNL A   1      43.980  20.875  25.298  1.00  0.00     0.202 C 
BRANCH  30  31
ATOM     31  C   UNL A   1      44.466  22.251  24.862  1.00  0.00     0.261 C 
BRANCH  31  32
ATOM     32  O   UNL A   1      44.645  23.163  25.950  1.00  0.00    -0.460 OA
BRANCH  32  33
ATOM     33  C   UNL A   1      44.733  24.460  25.572  1.00  0.00     0.338 C 
ATOM     34  O   UNL A   1      45.394  24.924  24.659  1.00  0.00    -0.246 OA
BRANCH  33  35
ATOM     35  C   UNL A   1      43.796  25.282  26.357  1.00  0.00     0.060 A 
ATOM     36  C   UNL A   1      44.046  26.657  26.418  1.00  0.00     0.016 A 
ATOM     37  C   UNL A   1      42.754  24.711  27.093  1.00  0.00     0.016 A 
ATOM     38  C   UNL A   1      43.304  27.460  27.276  1.00  0.00     0.010 A 
ATOM     39  C   UNL A   1      42.016  25.516  27.964  1.00  0.00     0.010 A 
ATOM     40  C   UNL A   1      42.325  26.882  28.095  1.00  0.00    -0.014 A 
BRANCH  40  41
ATOM     41  C   UNL A   1      41.794  27.671  29.231  1.00  0.00     0.031 A 
ATOM     42  C   UNL A   1      42.516  27.603  30.550  1.00  0.00     0.074 A 
ATOM     43  C   UNL A   1      40.736  28.483  29.077  1.00  0.00     0.049 A 
ATOM     44  N   UNL A   1      42.252  28.217  31.674  1.00  0.00    -0.248 NA
ATOM     45  C   UNL A   1      43.695  26.723  30.608  1.00  0.00     0.031 C 
ATOM     46  C   UNL A   1      39.984  28.665  27.837  1.00  0.00     0.029 A 
ATOM     47  N   UNL A   1      40.113  29.311  29.975  1.00  0.00    -0.354 N 
ATOM     48  C   UNL A   1      43.228  27.800  32.570  1.00  0.00     0.074 A 
ATOM     49  C   UNL A   1      44.069  26.852  31.871  1.00  0.00     0.031 C 
ATOM     50  C   UNL A   1      38.994  29.548  28.056  1.00  0.00     0.029 A 
ATOM     51  C   UNL A   1      39.030  29.972  29.455  1.00  0.00     0.049 A 
ATOM     52  H   UNL A   1      40.416  29.419  30.907  1.00  0.00     0.167 HD
ATOM     53  C   UNL A   1      43.417  28.182  33.855  1.00  0.00     0.037 A 
ATOM     54  C   UNL A   1      38.162  30.814  30.047  1.00  0.00     0.037 A 
ATOM     55  C   UNL A   1      42.582  29.125  34.547  1.00  0.00     0.049 A 
ATOM     56  C   UNL A   1      38.351  31.168  31.499  1.00  0.00     0.074 A 
ATOM     57  C   UNL A   1      42.698  29.589  35.846  1.00  0.00     0.029 A 
ATOM     58  N   UNL A   1      41.469  29.743  33.998  1.00  0.00    -0.354 N 
ATOM     59  N   UNL A   1      39.294  30.790  32.330  1.00  0.00    -0.248 NA
ATOM     60  C   UNL A   1      37.357  32.072  32.095  1.00  0.00     0.031 C 
ATOM     61  C   UNL A   1      41.626  30.451  36.097  1.00  0.00     0.029 A 
ATOM     62  C   UNL A   1      40.873  30.565  34.939  1.00  0.00     0.049 A 
ATOM     63  H   UNL A   1      41.150  29.616  33.075  1.00  0.00     0.167 HD
ATOM     64  C   UNL A   1      39.022  31.430  33.533  1.00  0.00     0.074 A 
ATOM     65  C   UNL A   1      37.836  32.232  33.320  1.00  0.00     0.031 C 
ATOM     66  C   UNL A   1      39.694  31.361  34.709  1.00  0.00     0.037 A 
BRANCH  53  67
ATOM     67  C   UNL A   1      44.560  27.554  34.600  1.00  0.00     0.057 A 
ATOM     68  C   UNL A   1      44.412  26.355  35.309  1.00  0.00     0.134 A 
ATOM     69  C   UNL A   1      45.828  28.147  34.588  1.00  0.00     0.134 A 
ATOM     70  F   UNL A   1      43.219  25.746  35.375  1.00  0.00    -0.206 F 
ATOM     71  C   UNL A   1      45.481  25.780  36.000  1.00  0.00     0.040 A 
ATOM     72  C   UNL A   1      46.910  27.568  35.252  1.00  0.00     0.040 A 
ATOM     73  F   UNL A   1      46.038  29.295  33.927  1.00  0.00    -0.206 F 
ATOM     74  C   UNL A   1      46.736  26.384  35.966  1.00  0.00     0.006 A 
ENDBRANCH  53  67
BRANCH  54  75
ATOM     75  C   UNL A   1      37.024  31.375  29.276  1.00  0.00     0.057 A 
ATOM     76  C   UNL A   1      35.902  30.599  28.968  1.00  0.00     0.134 A 
ATOM     77  C   UNL A   1      37.047  32.693  28.803  1.00  0.00     0.134 A 
ATOM     78  F   UNL A   1      35.831  29.322  29.374  1.00  0.00    -0.206 F 
ATOM     79  C   UNL A   1      34.850  31.107  28.202  1.00  0.00     0.040 A 
ATOM     80  C   UNL A   1      35.993  33.221  28.057  1.00  0.00     0.040 A 
ATOM     81  F   UNL A   1      38.095  33.488  29.065  1.00  0.00    -0.206 F 
ATOM     82  C   UNL A   1      34.893  32.424  27.748  1.00  0.00     0.006 A 
ENDBRANCH  54  75
BRANCH  66  83
ATOM     83  C   UNL A   1      39.183  32.201  35.844  1.00  0.00     0.057 A 
ATOM     84  C   UNL A   1      39.579  33.532  36.016  1.00  0.00     0.134 A 
ATOM     85  C   UNL A   1      38.255  31.678  36.754  1.00  0.00     0.134 A 
ATOM     86  F   UNL A   1      40.474  34.090  35.186  1.00  0.00    -0.206 F 
ATOM     87  C   UNL A   1      39.089  34.308  37.070  1.00  0.00     0.040 A 
ATOM     88  C   UNL A   1      37.737  32.452  37.794  1.00  0.00     0.040 A 
ATOM     89  F   UNL A   1      37.825  30.413  36.640  1.00  0.00    -0.206 F 
ATOM     90  C   UNL A   1      38.160  33.769  37.958  1.00  0.00     0.006 A 
ENDBRANCH  66  83
ENDBRANCH  40  41
ENDBRANCH  33  35
ENDBRANCH  32  33
ENDBRANCH  31  32
ENDBRANCH  30  31
ENDBRANCH  29  30
ENDBRANCH   1  29
TORSDOF 18
ENDMDL
MODEL 3
REMARK VINA RESULT:     -11.3      2.811      8.423
REMARK SMILES CC1(C)[C@H](C(=O)OCCOCCOC(=O)c2ccc(-c3c4nc(c(-c5c(F)cccc5F)c5ccc([nH]5)c(-c5c(F)cccc5F)c5nc(c(-c6c(F)cccc6F)c6ccc3[nH]6)C=C5)C=C4)cc2)[C@@H]1C(=O)Nc1ccc(NC(=O)C2CCC2)cc1
REMARK SMILES IDX 9 1 8 2 7 3 5 4 6 5 4 6 1 7 2 8 3 9 70 10 71 11 72 12 73 13
REMARK SMILES IDX 74 15 75 16 86 17 76 18 85 19 77 20 78 21 79 22 80 24 81 25
REMARK SMILES IDX 82 26 84 27 83 28 10 29 11 30 12 31 13 32 14 33 15 34 16 35
REMARK SMILES IDX 17 36 69 37 18 38 68 39 19 40 20 41 21 42 62 43 22 44 67 45
REMARK SMILES IDX 61 46 63 47 23 48 66 49 60 50 59 51 24 53 50 54 33 55 49 56
REMARK SMILES IDX 34 57 37 58 48 59 64 60 35 61 36 62 47 64 65 65 38 66 25 67
REMARK SMILES IDX 26 68 31 69 27 70 28 71 30 72 32 73 29 74 51 75 52 76 57 77
REMARK SMILES IDX 53 78 54 79 56 80 58 81 55 82 39 83 40 84 45 85 41 86 42 87
REMARK SMILES IDX 44 88 46 89 43 90
REMARK H PARENT 73 14 78 23 63 52 37 63
REMARK Flexibility Score: inf
ROOT
ATOM      1  C   UNL A   1      32.045  29.550  26.501  1.00  0.00     0.202 C 
ENDROOT
BRANCH   1   2
ATOM      2  C   UNL A   1      31.591  28.261  27.217  1.00  0.00     0.261 C 
BRANCH   2   3
ATOM      3  O   UNL A   1      31.476  27.029  26.509  1.00  0.00    -0.463 OA
BRANCH   3   4
ATOM      4  C   UNL A   1      32.216  26.889  25.388  1.00  0.00     0.310 C 
ATOM      5  O   UNL A   1      33.400  26.628  25.364  1.00  0.00    -0.252 OA
BRANCH   4   6
ATOM      6  C   UNL A   1      31.427  26.883  24.133  1.00  0.00     0.118 C 
ATOM      7  C   UNL A   1      30.254  28.371  22.407  1.00  0.00     0.013 C 
ATOM      8  C   UNL A   1      31.554  27.851  22.973  1.00  0.00    -0.009 C 
ATOM      9  C   UNL A   1      32.652  28.895  22.946  1.00  0.00     0.013 C 
ATOM     10  C   UNL A   1      31.876  26.349  22.798  1.00  0.00     0.100 C 
BRANCH  10  11
ATOM     11  C   UNL A   1      33.230  25.966  22.329  1.00  0.00     0.228 C 
ATOM     12  O   UNL A   1      33.872  26.764  21.649  1.00  0.00    -0.274 OA
ATOM     13  N   UNL A   1      33.793  24.747  22.604  1.00  0.00    -0.326 N 
ATOM     14  H   UNL A   1      34.611  24.536  22.099  1.00  0.00     0.169 HD
BRANCH  13  15
ATOM     15  C   UNL A   1      33.368  23.767  23.497  1.00  0.00     0.041 A 
ATOM     16  C   UNL A   1      32.371  22.937  23.012  1.00  0.00     0.028 A 
ATOM     17  C   UNL A   1      33.924  23.514  24.746  1.00  0.00     0.028 A 
ATOM     18  C   UNL A   1      32.081  21.752  23.676  1.00  0.00     0.028 A 
ATOM     19  C   UNL A   1      33.534  22.361  25.457  1.00  0.00     0.028 A 
ATOM     20  C   UNL A   1      32.654  21.423  24.885  1.00  0.00     0.041 A 
BRANCH  20  21
ATOM     21  N   UNL A   1      32.480  20.193  25.534  1.00  0.00    -0.326 N 
ATOM     22  C   UNL A   1      32.836  18.875  25.326  1.00  0.00     0.227 C 
ATOM     23  H   UNL A   1      31.964  20.296  26.367  1.00  0.00     0.169 HD
ATOM     24  O   UNL A   1      32.472  18.119  26.251  1.00  0.00    -0.274 OA
BRANCH  22  25
ATOM     25  C   UNL A   1      33.645  18.263  24.159  1.00  0.00     0.079 C 
ATOM     26  C   UNL A   1      34.256  16.855  24.517  1.00  0.00     0.013 C 
ATOM     27  C   UNL A   1      33.122  17.542  22.890  1.00  0.00     0.013 C 
ATOM     28  C   UNL A   1      34.266  16.535  23.020  1.00  0.00     0.002 C 
ENDBRANCH  22  25
ENDBRANCH  20  21
ENDBRANCH  13  15
ENDBRANCH  10  11
ENDBRANCH   4   6
ENDBRANCH   3   4
ENDBRANCH   2   3
ENDBRANCH   1   2
BRANCH   1  29
ATOM     29  O   UNL A   1      32.176  30.822  27.108  1.00  0.00    -0.374 OA
BRANCH  29  30
ATOM     30  C   UNL A   1      31.426  31.948  26.708  1.00  0.00     0.202 C 
BRANCH  30  31
ATOM     31  C   UNL A   1      32.022  33.330  26.944  1.00  0.00     0.261 C 
BRANCH  31  32
ATOM     32  O   UNL A   1      32.286  33.609  28.323  1.00  0.00    -0.460 OA
BRANCH  32  33
ATOM     33  C   UNL A   1      33.386  34.369  28.530  1.00  0.00     0.338 C 
ATOM     34  O   UNL A   1      33.434  35.578  28.687  1.00  0.00    -0.246 OA
BRANCH  33  35
ATOM     35  C   UNL A   1      34.576  33.514  28.671  1.00  0.00     0.060 A 
ATOM     36  C   UNL A   1      34.390  32.242  29.223  1.00  0.00     0.016 A 
ATOM     37  C   UNL A   1      35.857  33.979  28.359  1.00  0.00     0.016 A 
ATOM     38  C   UNL A   1      35.491  31.456  29.540  1.00  0.00     0.010 A 
ATOM     39  C   UNL A   1      36.964  33.192  28.688  1.00  0.00     0.010 A 
ATOM     40  C   UNL A   1      36.784  31.951  29.326  1.00  0.00    -0.014 A 
BRANCH  40  41
ATOM     41  C   UNL A   1      37.924  31.264  29.976  1.00  0.00     0.031 A 
ATOM     42  C   UNL A   1      38.207  31.557  31.424  1.00  0.00     0.074 A 
ATOM     43  C   UNL A   1      38.649  30.348  29.314  1.00  0.00     0.049 A 
ATOM     44  N   UNL A   1      39.132  31.064  32.207  1.00  0.00    -0.248 NA
ATOM     45  C   UNL A   1      37.327  32.539  32.079  1.00  0.00     0.031 C 
ATOM     46  C   UNL A   1      38.441  29.949  27.923  1.00  0.00     0.029 A 
ATOM     47  N   UNL A   1      39.709  29.584  29.731  1.00  0.00    -0.354 N 
ATOM     48  C   UNL A   1      38.946  31.673  33.441  1.00  0.00     0.074 A 
ATOM     49  C   UNL A   1      37.844  32.599  33.296  1.00  0.00     0.031 C 
ATOM     50  C   UNL A   1      39.352  29.015  27.599  1.00  0.00     0.029 A 
ATOM     51  C   UNL A   1      40.219  28.770  28.752  1.00  0.00     0.049 A 
ATOM     52  H   UNL A   1      40.070  29.618  30.647  1.00  0.00     0.167 HD
ATOM     53  C   UNL A   1      39.622  31.470  34.596  1.00  0.00     0.037 A 
ATOM     54  C   UNL A   1      41.274  27.933  28.782  1.00  0.00     0.037 A 
ATOM     55  C   UNL A   1      40.715  30.548  34.739  1.00  0.00     0.049 A 
ATOM     56  C   UNL A   1      42.055  27.778  30.060  1.00  0.00     0.074 A 
ATOM     57  C   UNL A   1      41.458  30.258  35.872  1.00  0.00     0.029 A 
ATOM     58  N   UNL A   1      41.230  29.771  33.713  1.00  0.00    -0.354 N 
ATOM     59  N   UNL A   1      41.854  28.338  31.229  1.00  0.00    -0.248 NA
ATOM     60  C   UNL A   1      43.210  26.868  30.023  1.00  0.00     0.031 C 
ATOM     61  C   UNL A   1      42.453  29.342  35.517  1.00  0.00     0.029 A 
ATOM     62  C   UNL A   1      42.297  29.020  34.178  1.00  0.00     0.049 A 
ATOM     63  H   UNL A   1      40.887  29.754  32.790  1.00  0.00     0.167 HD
ATOM     64  C   UNL A   1      42.836  27.828  32.071  1.00  0.00     0.074 A 
ATOM     65  C   UNL A   1      43.622  26.903  31.282  1.00  0.00     0.031 C 
ATOM     66  C   UNL A   1      43.066  28.100  33.380  1.00  0.00     0.037 A 
BRANCH  53  67
ATOM     67  C   UNL A   1      39.210  32.283  35.789  1.00  0.00     0.057 A 
ATOM     68  C   UNL A   1      38.329  31.784  36.758  1.00  0.00     0.134 A 
ATOM     69  C   UNL A   1      39.718  33.574  35.981  1.00  0.00     0.134 A 
ATOM     70  F   UNL A   1      37.793  30.562  36.624  1.00  0.00    -0.206 F 
ATOM     71  C   UNL A   1      37.951  32.549  37.863  1.00  0.00     0.040 A 
ATOM     72  C   UNL A   1      39.368  34.337  37.096  1.00  0.00     0.040 A 
ATOM     73  F   UNL A   1      40.566  34.111  35.092  1.00  0.00    -0.206 F 
ATOM     74  C   UNL A   1      38.477  33.827  38.037  1.00  0.00     0.006 A 
ENDBRANCH  53  67
BRANCH  54  75
ATOM     75  C   UNL A   1      41.665  27.183  27.562  1.00  0.00     0.057 A 
ATOM     76  C   UNL A   1      41.188  25.891  27.319  1.00  0.00     0.134 A 
ATOM     77  C   UNL A   1      42.549  27.731  26.624  1.00  0.00     0.134 A 
ATOM     78  F   UNL A   1      40.356  25.303  28.192  1.00  0.00    -0.206 F 
ATOM     79  C   UNL A   1      41.590  25.162  26.197  1.00  0.00     0.040 A 
ATOM     80  C   UNL A   1      42.939  27.025  25.486  1.00  0.00     0.040 A 
ATOM     81  F   UNL A   1      43.040  28.967  26.799  1.00  0.00    -0.206 F 
ATOM     82  C   UNL A   1      42.465  25.732  25.275  1.00  0.00     0.006 A 
ENDBRANCH  54  75
BRANCH  66  83
ATOM     83  C   UNL A   1      44.191  27.364  34.048  1.00  0.00     0.057 A 
ATOM     84  C   UNL A   1      44.007  26.106  34.634  1.00  0.00     0.134 A 
ATOM     85  C   UNL A   1      45.482  27.907  34.073  1.00  0.00     0.134 A 
ATOM     86  F   UNL A   1      42.793  25.535  34.655  1.00  0.00    -0.206 F 
ATOM     87  C   UNL A   1      45.062  25.425  35.245  1.00  0.00     0.040 A 
ATOM     88  C   UNL A   1      46.550  27.223  34.655  1.00  0.00     0.040 A 
ATOM     89  F   UNL A   1      45.730  29.103  33.520  1.00  0.00    -0.206 F 
ATOM     90  C   UNL A   1      46.340  25.981  35.249  1.00  0.00     0.006 A 
ENDBRANCH  66  83
ENDBRANCH  40  41
ENDBRANCH  33  35
ENDBRANCH  32  33
ENDBRANCH  31  32
ENDBRANCH  30  31
ENDBRANCH  29  30
ENDBRANCH   1  29
TORSDOF 18
ENDMDL
