MODEL 1
REMARK VINA RESULT:     -10.2      0.000      0.000
REMARK SMILES Cc1cc2c(c(C)c1Br)C=C(C(=O)OCCOCCOC(=O)c1ccc(-c3c4nc(c(-c5c(F)cccc5F)c5ccc([nH]5)c(-c5c(F)cccc5F)c5nc(c(-c6c(F)cccc6F)c6ccc3[nH]6)C=C5)C=C4)cc1)[C@@H](C(F)(F)F)O2
REMARK SMILES IDX 18 1 17 2 16 3 15 4 14 5 12 6 13 7 11 8 1 9 2 10 3 11 8 12
REMARK SMILES IDX 4 13 6 14 9 15 5 16 82 17 7 18 10 19 77 20 78 21 79 22 80 23
REMARK SMILES IDX 81 24 19 25 20 26 21 27 22 28 23 29 24 30 76 31 25 32 75 33
REMARK SMILES IDX 26 34 27 35 28 36 69 37 29 38 74 39 68 40 70 41 30 42 73 43
REMARK SMILES IDX 67 44 66 45 31 47 57 48 40 49 56 50 41 51 44 52 55 53 71 54
REMARK SMILES IDX 42 55 43 56 54 58 72 59 45 60 32 61 33 62 38 63 34 64 35 65
REMARK SMILES IDX 37 66 39 67 36 68 58 69 59 70 64 71 60 72 61 73 63 74 65 75
REMARK SMILES IDX 62 76 46 77 47 78 52 79 48 80 49 81 51 82 53 83 50 84
REMARK H PARENT 70 46 44 57
REMARK Flexibility Score: inf
ROOT
ATOM      1  C   UNL A   1      41.923  19.078  26.681  1.00  0.00     0.202 C 
ENDROOT
BRANCH   1   2
ATOM      2  O   UNL A   1      42.578  18.222  25.743  1.00  0.00    -0.374 OA
BRANCH   2   3
ATOM      3  C   UNL A   1      43.961  18.453  25.485  1.00  0.00     0.202 C 
BRANCH   3   4
ATOM      4  C   UNL A   1      44.300  19.662  24.606  1.00  0.00     0.261 C 
BRANCH   4   5
ATOM      5  O   UNL A   1      45.045  20.651  25.333  1.00  0.00    -0.460 OA
BRANCH   5   6
ATOM      6  C   UNL A   1      44.364  21.791  25.587  1.00  0.00     0.338 C 
ATOM      7  O   UNL A   1      43.234  22.068  25.214  1.00  0.00    -0.246 OA
BRANCH   6   8
ATOM      8  C   UNL A   1      45.137  22.642  26.509  1.00  0.00     0.087 C 
ATOM      9  C   UNL A   1      46.985  26.895  31.019  1.00  0.00     0.046 C 
ATOM     10  C   UNL A   1      46.382  25.744  30.257  1.00  0.00    -0.033 A 
ATOM     11  C   UNL A   1      46.953  25.390  29.027  1.00  0.00     0.051 A 
ATOM     12  C   UNL A   1      45.256  25.031  30.719  1.00  0.00     0.024 A 
ATOM     13  C   UNL A   1      46.386  24.394  28.235  1.00  0.00     0.128 A 
ATOM     14  C   UNL A   1      44.683  23.996  29.941  1.00  0.00    -0.026 A 
ATOM     15  Br  UNL A   1      44.499  25.519  32.409  1.00  0.00    -0.050 Br
ATOM     16  C   UNL A   1      45.238  23.721  28.664  1.00  0.00     0.021 A 
ATOM     17  O   UNL A   1      47.030  24.153  27.053  1.00  0.00    -0.475 OA
ATOM     18  C   UNL A   1      43.498  23.185  30.417  1.00  0.00     0.046 C 
ATOM     19  C   UNL A   1      44.608  22.794  27.729  1.00  0.00     0.027 C 
ATOM     20  C   UNL A   1      46.406  23.297  26.060  1.00  0.00     0.316 C 
BRANCH  20  21
ATOM     21  C   UNL A   1      46.233  24.107  24.766  1.00  0.00     0.430 C 
ATOM     22  F   UNL A   1      45.095  24.842  24.797  1.00  0.00    -0.167 F 
ATOM     23  F   UNL A   1      47.249  24.980  24.579  1.00  0.00    -0.167 F 
ATOM     24  F   UNL A   1      46.174  23.313  23.674  1.00  0.00    -0.167 F 
ENDBRANCH  20  21
ENDBRANCH   6   8
ENDBRANCH   5   6
ENDBRANCH   4   5
ENDBRANCH   3   4
ENDBRANCH   2   3
ENDBRANCH   1   2
BRANCH   1  25
ATOM     25  C   UNL A   1      40.713  19.871  26.175  1.00  0.00     0.261 C 
BRANCH  25  26
ATOM     26  O   UNL A   1      40.430  21.011  27.011  1.00  0.00    -0.460 OA
BRANCH  26  27
ATOM     27  C   UNL A   1      39.661  21.964  26.433  1.00  0.00     0.338 C 
ATOM     28  O   UNL A   1      38.782  21.806  25.596  1.00  0.00    -0.246 OA
BRANCH  27  29
ATOM     29  C   UNL A   1      39.888  23.260  27.093  1.00  0.00     0.060 A 
ATOM     30  C   UNL A   1      39.173  24.367  26.618  1.00  0.00     0.016 A 
ATOM     31  C   UNL A   1      40.849  23.409  28.096  1.00  0.00     0.016 A 
ATOM     32  C   UNL A   1      39.447  25.638  27.114  1.00  0.00     0.010 A 
ATOM     33  C   UNL A   1      41.133  24.689  28.582  1.00  0.00     0.010 A 
ATOM     34  C   UNL A   1      40.458  25.811  28.070  1.00  0.00    -0.014 A 
BRANCH  34  35
ATOM     35  C   UNL A   1      40.903  27.183  28.410  1.00  0.00     0.031 A 
ATOM     36  C   UNL A   1      42.325  27.580  28.124  1.00  0.00     0.074 A 
ATOM     37  C   UNL A   1      40.038  28.081  28.913  1.00  0.00     0.049 A 
ATOM     38  N   UNL A   1      42.923  28.725  28.329  1.00  0.00    -0.248 NA
ATOM     39  C   UNL A   1      43.187  26.549  27.523  1.00  0.00     0.031 C 
ATOM     40  C   UNL A   1      38.624  27.831  29.184  1.00  0.00     0.029 A 
ATOM     41  N   UNL A   1      40.226  29.390  29.277  1.00  0.00    -0.354 N 
ATOM     42  C   UNL A   1      44.223  28.557  27.872  1.00  0.00     0.074 A 
ATOM     43  C   UNL A   1      44.341  27.189  27.415  1.00  0.00     0.031 C 
ATOM     44  C   UNL A   1      38.069  28.955  29.669  1.00  0.00     0.029 A 
ATOM     45  C   UNL A   1      39.094  29.992  29.768  1.00  0.00     0.049 A 
ATOM     46  H   UNL A   1      41.089  29.855  29.193  1.00  0.00     0.167 HD
ATOM     47  C   UNL A   1      45.225  29.466  27.824  1.00  0.00     0.037 A 
ATOM     48  C   UNL A   1      38.910  31.237  30.252  1.00  0.00     0.037 A 
ATOM     49  C   UNL A   1      45.110  30.824  28.282  1.00  0.00     0.049 A 
ATOM     50  C   UNL A   1      40.067  32.199  30.277  1.00  0.00     0.074 A 
ATOM     51  C   UNL A   1      46.070  31.820  28.272  1.00  0.00     0.029 A 
ATOM     52  N   UNL A   1      43.965  31.375  28.837  1.00  0.00    -0.354 N 
ATOM     53  N   UNL A   1      41.289  32.034  29.834  1.00  0.00    -0.248 NA
ATOM     54  C   UNL A   1      39.819  33.521  30.874  1.00  0.00     0.031 C 
ATOM     55  C   UNL A   1      45.520  32.962  28.862  1.00  0.00     0.029 A 
ATOM     56  C   UNL A   1      44.203  32.691  29.198  1.00  0.00     0.049 A 
ATOM     57  H   UNL A   1      43.111  30.901  28.957  1.00  0.00     0.167 HD
ATOM     58  C   UNL A   1      41.950  33.232  30.078  1.00  0.00     0.074 A 
ATOM     59  C   UNL A   1      40.990  34.121  30.698  1.00  0.00     0.031 C 
ATOM     60  C   UNL A   1      43.236  33.564  29.812  1.00  0.00     0.037 A 
BRANCH  47  61
ATOM     61  C   UNL A   1      46.541  29.019  27.261  1.00  0.00     0.057 A 
ATOM     62  C   UNL A   1      47.682  28.904  28.066  1.00  0.00     0.134 A 
ATOM     63  C   UNL A   1      46.655  28.648  25.916  1.00  0.00     0.134 A 
ATOM     64  F   UNL A   1      47.641  29.256  29.359  1.00  0.00    -0.206 F 
ATOM     65  C   UNL A   1      48.895  28.446  27.547  1.00  0.00     0.040 A 
ATOM     66  C   UNL A   1      47.856  28.168  25.392  1.00  0.00     0.040 A 
ATOM     67  F   UNL A   1      45.598  28.732  25.094  1.00  0.00    -0.206 F 
ATOM     68  C   UNL A   1      48.981  28.068  26.208  1.00  0.00     0.006 A 
ENDBRANCH  47  61
BRANCH  48  69
ATOM     69  C   UNL A   1      37.573  31.646  30.750  1.00  0.00     0.057 A 
ATOM     70  C   UNL A   1      36.608  32.169  29.883  1.00  0.00     0.134 A 
ATOM     71  C   UNL A   1      37.231  31.525  32.102  1.00  0.00     0.134 A 
ATOM     72  F   UNL A   1      36.886  32.331  28.582  1.00  0.00    -0.206 F 
ATOM     73  C   UNL A   1      35.351  32.564  30.343  1.00  0.00     0.040 A 
ATOM     74  C   UNL A   1      35.969  31.894  32.572  1.00  0.00     0.040 A 
ATOM     75  F   UNL A   1      38.112  31.031  32.983  1.00  0.00    -0.206 F 
ATOM     76  C   UNL A   1      35.026  32.420  31.691  1.00  0.00     0.006 A 
ENDBRANCH  48  69
BRANCH  60  77
ATOM     77  C   UNL A   1      43.688  34.949  30.173  1.00  0.00     0.057 A 
ATOM     78  C   UNL A   1      43.558  36.018  29.279  1.00  0.00     0.134 A 
ATOM     79  C   UNL A   1      44.180  35.230  31.454  1.00  0.00     0.134 A 
ATOM     80  F   UNL A   1      43.103  35.813  28.034  1.00  0.00    -0.206 F 
ATOM     81  C   UNL A   1      43.908  37.319  29.646  1.00  0.00     0.040 A 
ATOM     82  C   UNL A   1      44.511  36.529  31.839  1.00  0.00     0.040 A 
ATOM     83  F   UNL A   1      44.319  34.250  32.361  1.00  0.00    -0.206 F 
ATOM     84  C   UNL A   1      44.376  37.579  30.933  1.00  0.00     0.006 A 
ENDBRANCH  60  77
ENDBRANCH  34  35
ENDBRANCH  27  29
ENDBRANCH  26  27
ENDBRANCH  25  26
ENDBRANCH   1  25
TORSDOF 15
ENDMDL
MODEL 2
REMARK VINA RESULT:     -10.2      5.451     11.054
REMARK SMILES Cc1cc2c(c(C)c1Br)C=C(C(=O)OCCOCCOC(=O)c1ccc(-c3c4nc(c(-c5c(F)cccc5F)c5ccc([nH]5)c(-c5c(F)cccc5F)c5nc(c(-c6c(F)cccc6F)c6ccc3[nH]6)C=C5)C=C4)cc1)[C@@H](C(F)(F)F)O2
REMARK SMILES IDX 18 1 17 2 16 3 15 4 14 5 12 6 13 7 11 8 1 9 2 10 3 11 8 12
REMARK SMILES IDX 4 13 6 14 9 15 5 16 82 17 7 18 10 19 77 20 78 21 79 22 80 23
REMARK SMILES IDX 81 24 19 25 20 26 21 27 22 28 23 29 24 30 76 31 25 32 75 33
REMARK SMILES IDX 26 34 27 35 28 36 69 37 29 38 74 39 68 40 70 41 30 42 73 43
REMARK SMILES IDX 67 44 66 45 31 47 57 48 40 49 56 50 41 51 44 52 55 53 71 54
REMARK SMILES IDX 42 55 43 56 54 58 72 59 45 60 32 61 33 62 38 63 34 64 35 65
REMARK SMILES IDX 37 66 39 67 36 68 58 69 59 70 64 71 60 72 61 73 63 74 65 75
REMARK SMILES IDX 62 76 46 77 47 78 52 79 48 80 49 81 51 82 53 83 50 84
REMARK H PARENT 70 46 44 57
REMARK Flexibility Score: inf
ROOT
ATOM      1  C   UNL A   1      31.134  31.790  26.287  1.00  0.00     0.202 C 
ENDROOT
BRANCH   1   2
ATOM      2  O   UNL A   1      31.962  30.665  25.985  1.00  0.00    -0.374 OA
BRANCH   2   3
ATOM      3  C   UNL A   1      32.155  29.689  27.005  1.00  0.00     0.202 C 
BRANCH   3   4
ATOM      4  C   UNL A   1      31.864  28.234  26.622  1.00  0.00     0.261 C 
BRANCH   4   5
ATOM      5  O   UNL A   1      33.056  27.432  26.647  1.00  0.00    -0.460 OA
BRANCH   5   6
ATOM      6  C   UNL A   1      33.422  26.935  25.444  1.00  0.00     0.338 C 
ATOM      7  O   UNL A   1      33.817  27.570  24.477  1.00  0.00    -0.246 OA
BRANCH   6   8
ATOM      8  C   UNL A   1      33.400  25.462  25.483  1.00  0.00     0.087 C 
ATOM      9  C   UNL A   1      34.645  19.171  24.635  1.00  0.00     0.046 C 
ATOM     10  C   UNL A   1      34.699  20.638  24.975  1.00  0.00    -0.033 A 
ATOM     11  C   UNL A   1      33.490  21.334  25.106  1.00  0.00     0.051 A 
ATOM     12  C   UNL A   1      35.913  21.337  25.139  1.00  0.00     0.024 A 
ATOM     13  C   UNL A   1      33.476  22.709  25.331  1.00  0.00     0.128 A 
ATOM     14  C   UNL A   1      35.918  22.730  25.397  1.00  0.00    -0.026 A 
ATOM     15  Br  UNL A   1      37.554  20.366  24.972  1.00  0.00    -0.050 Br
ATOM     16  C   UNL A   1      34.678  23.417  25.441  1.00  0.00     0.021 A 
ATOM     17  O   UNL A   1      32.233  23.271  25.426  1.00  0.00    -0.475 OA
ATOM     18  C   UNL A   1      37.197  23.509  25.614  1.00  0.00     0.046 C 
ATOM     19  C   UNL A   1      34.600  24.871  25.529  1.00  0.00     0.027 C 
ATOM     20  C   UNL A   1      32.102  24.717  25.440  1.00  0.00     0.316 C 
BRANCH  20  21
ATOM     21  C   UNL A   1      31.215  25.132  24.257  1.00  0.00     0.430 C 
ATOM     22  F   UNL A   1      30.369  24.133  23.904  1.00  0.00    -0.167 F 
ATOM     23  F   UNL A   1      30.442  26.201  24.558  1.00  0.00    -0.167 F 
ATOM     24  F   UNL A   1      31.942  25.453  23.164  1.00  0.00    -0.167 F 
ENDBRANCH  20  21
ENDBRANCH   6   8
ENDBRANCH   5   6
ENDBRANCH   4   5
ENDBRANCH   3   4
ENDBRANCH   2   3
ENDBRANCH   1   2
BRANCH   1  25
ATOM     25  C   UNL A   1      31.840  33.123  26.563  1.00  0.00     0.261 C 
BRANCH  25  26
ATOM     26  O   UNL A   1      32.299  33.216  27.926  1.00  0.00    -0.460 OA
BRANCH  26  27
ATOM     27  C   UNL A   1      33.325  34.076  28.124  1.00  0.00     0.338 C 
ATOM     28  O   UNL A   1      33.270  35.296  28.210  1.00  0.00    -0.246 OA
BRANCH  27  29
ATOM     29  C   UNL A   1      34.557  33.327  28.420  1.00  0.00     0.060 A 
ATOM     30  C   UNL A   1      34.427  31.990  28.817  1.00  0.00     0.016 A 
ATOM     31  C   UNL A   1      35.809  33.945  28.400  1.00  0.00     0.016 A 
ATOM     32  C   UNL A   1      35.545  31.276  29.237  1.00  0.00     0.010 A 
ATOM     33  C   UNL A   1      36.929  33.231  28.837  1.00  0.00     0.010 A 
ATOM     34  C   UNL A   1      36.797  31.906  29.289  1.00  0.00    -0.014 A 
BRANCH  34  35
ATOM     35  C   UNL A   1      37.924  31.218  29.960  1.00  0.00     0.031 A 
ATOM     36  C   UNL A   1      38.202  31.517  31.407  1.00  0.00     0.074 A 
ATOM     37  C   UNL A   1      38.655  30.297  29.306  1.00  0.00     0.049 A 
ATOM     38  N   UNL A   1      39.126  31.025  32.192  1.00  0.00    -0.248 NA
ATOM     39  C   UNL A   1      37.318  32.497  32.058  1.00  0.00     0.031 C 
ATOM     40  C   UNL A   1      38.448  29.885  27.919  1.00  0.00     0.029 A 
ATOM     41  N   UNL A   1      39.714  29.537  29.731  1.00  0.00    -0.354 N 
ATOM     42  C   UNL A   1      38.927  31.625  33.428  1.00  0.00     0.074 A 
ATOM     43  C   UNL A   1      37.821  32.546  33.282  1.00  0.00     0.031 C 
ATOM     44  C   UNL A   1      39.352  28.941  27.608  1.00  0.00     0.029 A 
ATOM     45  C   UNL A   1      40.217  28.704  28.762  1.00  0.00     0.049 A 
ATOM     46  H   UNL A   1      40.081  29.584  30.644  1.00  0.00     0.167 HD
ATOM     47  C   UNL A   1      39.597  31.416  34.585  1.00  0.00     0.037 A 
ATOM     48  C   UNL A   1      41.262  27.854  28.802  1.00  0.00     0.037 A 
ATOM     49  C   UNL A   1      40.698  30.503  34.731  1.00  0.00     0.049 A 
ATOM     50  C   UNL A   1      42.052  27.711  30.075  1.00  0.00     0.074 A 
ATOM     51  C   UNL A   1      41.439  30.222  35.865  1.00  0.00     0.029 A 
ATOM     52  N   UNL A   1      41.221  29.729  33.707  1.00  0.00    -0.354 N 
ATOM     53  N   UNL A   1      41.850  28.276  31.241  1.00  0.00    -0.248 NA
ATOM     54  C   UNL A   1      43.219  26.816  30.037  1.00  0.00     0.031 C 
ATOM     55  C   UNL A   1      42.439  29.308  35.518  1.00  0.00     0.029 A 
ATOM     56  C   UNL A   1      42.292  28.987  34.178  1.00  0.00     0.049 A 
ATOM     57  H   UNL A   1      40.881  29.708  32.784  1.00  0.00     0.167 HD
ATOM     58  C   UNL A   1      42.847  27.791  32.079  1.00  0.00     0.074 A 
ATOM     59  C   UNL A   1      43.647  26.876  31.292  1.00  0.00     0.031 C 
ATOM     60  C   UNL A   1      43.078  28.079  33.382  1.00  0.00     0.037 A 
BRANCH  47  61
ATOM     61  C   UNL A   1      39.160  32.194  35.791  1.00  0.00     0.057 A 
ATOM     62  C   UNL A   1      39.603  33.504  36.018  1.00  0.00     0.134 A 
ATOM     63  C   UNL A   1      38.246  31.651  36.701  1.00  0.00     0.134 A 
ATOM     64  F   UNL A   1      40.489  34.076  35.189  1.00  0.00    -0.206 F 
ATOM     65  C   UNL A   1      39.160  34.241  37.118  1.00  0.00     0.040 A 
ATOM     66  C   UNL A   1      37.780  32.386  37.792  1.00  0.00     0.040 A 
ATOM     67  F   UNL A   1      37.781  30.403  36.538  1.00  0.00    -0.206 F 
ATOM     68  C   UNL A   1      38.238  33.685  38.003  1.00  0.00     0.006 A 
ENDBRANCH  47  61
BRANCH  48  69
ATOM     69  C   UNL A   1      41.621  27.068  27.596  1.00  0.00     0.057 A 
ATOM     70  C   UNL A   1      42.451  27.603  26.605  1.00  0.00     0.134 A 
ATOM     71  C   UNL A   1      41.143  25.765  27.406  1.00  0.00     0.134 A 
ATOM     72  F   UNL A   1      42.920  28.853  26.720  1.00  0.00    -0.206 F 
ATOM     73  C   UNL A   1      42.788  26.874  25.463  1.00  0.00     0.040 A 
ATOM     74  C   UNL A   1      41.490  25.017  26.280  1.00  0.00     0.040 A 
ATOM     75  F   UNL A   1      40.342  25.197  28.319  1.00  0.00    -0.206 F 
ATOM     76  C   UNL A   1      42.313  25.573  25.302  1.00  0.00     0.006 A 
ENDBRANCH  48  69
BRANCH  60  77
ATOM     77  C   UNL A   1      44.231  27.393  34.055  1.00  0.00     0.057 A 
ATOM     78  C   UNL A   1      45.491  27.995  34.143  1.00  0.00     0.134 A 
ATOM     79  C   UNL A   1      44.055  26.158  34.692  1.00  0.00     0.134 A 
ATOM     80  F   UNL A   1      45.727  29.173  33.546  1.00  0.00    -0.206 F 
ATOM     81  C   UNL A   1      46.541  27.387  34.836  1.00  0.00     0.040 A 
ATOM     82  C   UNL A   1      45.088  25.553  35.407  1.00  0.00     0.040 A 
ATOM     83  F   UNL A   1      42.868  25.534  34.654  1.00  0.00    -0.206 F 
ATOM     84  C   UNL A   1      46.337  26.167  35.479  1.00  0.00     0.006 A 
ENDBRANCH  60  77
ENDBRANCH  34  35
ENDBRANCH  27  29
ENDBRANCH  26  27
ENDBRANCH  25  26
ENDBRANCH   1  25
TORSDOF 15
ENDMDL
MODEL 3
REMARK VINA RESULT:     -10.1      5.190      8.981
REMARK SMILES Cc1cc2c(c(C)c1Br)C=C(C(=O)OCCOCCOC(=O)c1ccc(-c3c4nc(c(-c5c(F)cccc5F)c5ccc([nH]5)c(-c5c(F)cccc5F)c5nc(c(-c6c(F)cccc6F)c6ccc3[nH]6)C=C5)C=C4)cc1)[C@@H](C(F)(F)F)O2
REMARK SMILES IDX 18 1 17 2 16 3 15 4 14 5 12 6 13 7 11 8 1 9 2 10 3 11 8 12
REMARK SMILES IDX 4 13 6 14 9 15 5 16 82 17 7 18 10 19 77 20 78 21 79 22 80 23
REMARK SMILES IDX 81 24 19 25 20 26 21 27 22 28 23 29 24 30 76 31 25 32 75 33
REMARK SMILES IDX 26 34 27 35 28 36 69 37 29 38 74 39 68 40 70 41 30 42 73 43
REMARK SMILES IDX 67 44 66 45 31 47 57 48 40 49 56 50 41 51 44 52 55 53 71 54
REMARK SMILES IDX 42 55 43 56 54 58 72 59 45 60 32 61 33 62 38 63 34 64 35 65
REMARK SMILES IDX 37 66 39 67 36 68 58 69 59 70 64 71 60 72 61 73 63 74 65 75
REMARK SMILES IDX 62 76 46 77 47 78 52 79 48 80 49 81 51 82 53 83 50 84
REMARK H PARENT 70 46 44 57
REMARK Flexibility Score: inf
ROOT
ATOM      1  C   UNL A   1      32.633  29.471  24.930  1.00  0.00     0.202 C 
ENDROOT
BRANCH   1   2
ATOM      2  O   UNL A   1      32.213  29.015  23.642  1.00  0.00    -0.374 OA
BRANCH   2   3
ATOM      3  C   UNL A   1      33.202  28.461  22.778  1.00  0.00     0.202 C 
BRANCH   3   4
ATOM      4  C   UNL A   1      33.237  26.933  22.669  1.00  0.00     0.261 C 
BRANCH   4   5
ATOM      5  O   UNL A   1      34.032  26.347  23.711  1.00  0.00    -0.460 OA
BRANCH   5   6
ATOM      6  C   UNL A   1      33.332  25.607  24.600  1.00  0.00     0.338 C 
ATOM      7  O   UNL A   1      32.270  25.903  25.126  1.00  0.00    -0.246 OA
BRANCH   6   8
ATOM      8  C   UNL A   1      33.973  24.290  24.772  1.00  0.00     0.087 C 
ATOM      9  C   UNL A   1      38.153  19.359  25.001  1.00  0.00     0.046 C 
ATOM     10  C   UNL A   1      37.414  20.657  25.195  1.00  0.00    -0.033 A 
ATOM     11  C   UNL A   1      36.057  20.707  24.848  1.00  0.00     0.051 A 
ATOM     12  C   UNL A   1      38.037  21.823  25.687  1.00  0.00     0.024 A 
ATOM     13  C   UNL A   1      35.343  21.901  24.921  1.00  0.00     0.128 A 
ATOM     14  C   UNL A   1      37.319  23.038  25.796  1.00  0.00    -0.026 A 
ATOM     15  Br  UNL A   1      39.887  21.731  26.172  1.00  0.00    -0.050 Br
ATOM     16  C   UNL A   1      35.971  23.072  25.357  1.00  0.00     0.021 A 
ATOM     17  O   UNL A   1      34.032  21.819  24.540  1.00  0.00    -0.475 OA
ATOM     18  C   UNL A   1      37.943  24.301  26.351  1.00  0.00     0.046 C 
ATOM     19  C   UNL A   1      35.214  24.317  25.273  1.00  0.00     0.027 C 
ATOM     20  C   UNL A   1      33.259  23.037  24.370  1.00  0.00     0.316 C 
BRANCH  20  21
ATOM     21  C   UNL A   1      32.743  23.082  22.924  1.00  0.00     0.430 C 
ATOM     22  F   UNL A   1      31.688  23.925  22.808  1.00  0.00    -0.167 F 
ATOM     23  F   UNL A   1      33.688  23.530  22.066  1.00  0.00    -0.167 F 
ATOM     24  F   UNL A   1      32.342  21.867  22.488  1.00  0.00    -0.167 F 
ENDBRANCH  20  21
ENDBRANCH   6   8
ENDBRANCH   5   6
ENDBRANCH   4   5
ENDBRANCH   3   4
ENDBRANCH   2   3
ENDBRANCH   1   2
BRANCH   1  25
ATOM     25  C   UNL A   1      31.703  30.445  25.663  1.00  0.00     0.261 C 
BRANCH  25  26
ATOM     26  O   UNL A   1      32.112  30.653  27.029  1.00  0.00    -0.460 OA
BRANCH  26  27
ATOM     27  C   UNL A   1      32.847  31.770  27.240  1.00  0.00     0.338 C 
ATOM     28  O   UNL A   1      32.465  32.932  27.199  1.00  0.00    -0.246 OA
BRANCH  27  29
ATOM     29  C   UNL A   1      34.187  31.404  27.728  1.00  0.00     0.060 A 
ATOM     30  C   UNL A   1      34.433  30.053  28.002  1.00  0.00     0.016 A 
ATOM     31  C   UNL A   1      35.153  32.375  28.000  1.00  0.00     0.016 A 
ATOM     32  C   UNL A   1      35.635  29.670  28.591  1.00  0.00     0.010 A 
ATOM     33  C   UNL A   1      36.354  31.990  28.606  1.00  0.00     0.010 A 
ATOM     34  C   UNL A   1      36.585  30.642  28.934  1.00  0.00    -0.014 A 
BRANCH  34  35
ATOM     35  C   UNL A   1      37.745  30.254  29.772  1.00  0.00     0.031 A 
ATOM     36  C   UNL A   1      38.794  29.350  29.188  1.00  0.00     0.074 A 
ATOM     37  C   UNL A   1      37.890  30.747  31.014  1.00  0.00     0.049 A 
ATOM     38  N   UNL A   1      39.892  28.894  29.734  1.00  0.00    -0.248 NA
ATOM     39  C   UNL A   1      38.580  28.902  27.802  1.00  0.00     0.031 C 
ATOM     40  C   UNL A   1      36.967  31.672  31.668  1.00  0.00     0.029 A 
ATOM     41  N   UNL A   1      38.879  30.541  31.942  1.00  0.00    -0.354 N 
ATOM     42  C   UNL A   1      40.504  28.119  28.758  1.00  0.00     0.074 A 
ATOM     43  C   UNL A   1      39.639  28.132  27.599  1.00  0.00     0.031 C 
ATOM     44  C   UNL A   1      37.437  31.958  32.895  1.00  0.00     0.029 A 
ATOM     45  C   UNL A   1      38.675  31.216  33.121  1.00  0.00     0.049 A 
ATOM     46  H   UNL A   1      39.660  29.965  31.780  1.00  0.00     0.167 HD
ATOM     47  C   UNL A   1      41.689  27.467  28.818  1.00  0.00     0.037 A 
ATOM     48  C   UNL A   1      39.402  31.223  34.255  1.00  0.00     0.037 A 
ATOM     49  C   UNL A   1      42.548  27.450  29.971  1.00  0.00     0.049 A 
ATOM     50  C   UNL A   1      40.668  30.411  34.330  1.00  0.00     0.074 A 
ATOM     51  C   UNL A   1      43.769  26.819  30.125  1.00  0.00     0.029 A 
ATOM     52  N   UNL A   1      42.271  28.090  31.169  1.00  0.00    -0.354 N 
ATOM     53  N   UNL A   1      41.242  29.690  33.399  1.00  0.00    -0.248 NA
ATOM     54  C   UNL A   1      41.383  30.411  35.615  1.00  0.00     0.031 C 
ATOM     55  C   UNL A   1      44.212  27.040  31.433  1.00  0.00     0.029 A 
ATOM     56  C   UNL A   1      43.288  27.847  32.077  1.00  0.00     0.049 A 
ATOM     57  H   UNL A   1      41.472  28.636  31.347  1.00  0.00     0.167 HD
ATOM     58  C   UNL A   1      42.394  29.168  33.975  1.00  0.00     0.074 A 
ATOM     59  C   UNL A   1      42.444  29.665  35.334  1.00  0.00     0.031 C 
ATOM     60  C   UNL A   1      43.325  28.350  33.427  1.00  0.00     0.037 A 
BRANCH  47  61
ATOM     61  C   UNL A   1      42.126  26.709  27.600  1.00  0.00     0.057 A 
ATOM     62  C   UNL A   1      42.901  27.311  26.600  1.00  0.00     0.134 A 
ATOM     63  C   UNL A   1      41.817  25.352  27.452  1.00  0.00     0.134 A 
ATOM     64  F   UNL A   1      43.219  28.612  26.677  1.00  0.00    -0.206 F 
ATOM     65  C   UNL A   1      43.343  26.591  25.489  1.00  0.00     0.040 A 
ATOM     66  C   UNL A   1      42.272  24.616  26.357  1.00  0.00     0.040 A 
ATOM     67  F   UNL A   1      41.082  24.715  28.377  1.00  0.00    -0.206 F 
ATOM     68  C   UNL A   1      43.036  25.236  25.371  1.00  0.00     0.006 A 
ENDBRANCH  47  61
BRANCH  48  69
ATOM     69  C   UNL A   1      38.952  32.032  35.415  1.00  0.00     0.057 A 
ATOM     70  C   UNL A   1      38.210  31.458  36.452  1.00  0.00     0.134 A 
ATOM     71  C   UNL A   1      39.253  33.396  35.514  1.00  0.00     0.134 A 
ATOM     72  F   UNL A   1      37.871  30.161  36.403  1.00  0.00    -0.206 F 
ATOM     73  C   UNL A   1      37.775  32.211  37.544  1.00  0.00     0.040 A 
ATOM     74  C   UNL A   1      38.845  34.157  36.611  1.00  0.00     0.040 A 
ATOM     75  F   UNL A   1      39.960  34.005  34.552  1.00  0.00    -0.206 F 
ATOM     76  C   UNL A   1      38.099  33.565  37.629  1.00  0.00     0.006 A 
ENDBRANCH  48  69
BRANCH  60  77
ATOM     77  C   UNL A   1      44.490  27.947  34.283  1.00  0.00     0.057 A 
ATOM     78  C   UNL A   1      44.471  26.768  35.037  1.00  0.00     0.134 A 
ATOM     79  C   UNL A   1      45.670  28.700  34.285  1.00  0.00     0.134 A 
ATOM     80  F   UNL A   1      43.366  26.007  35.084  1.00  0.00    -0.206 F 
ATOM     81  C   UNL A   1      45.585  26.357  35.772  1.00  0.00     0.040 A 
ATOM     82  C   UNL A   1      46.797  28.287  34.996  1.00  0.00     0.040 A 
ATOM     83  F   UNL A   1      45.757  29.834  33.573  1.00  0.00    -0.206 F 
ATOM     84  C   UNL A   1      46.756  27.112  35.744  1.00  0.00     0.006 A 
ENDBRANCH  60  77
ENDBRANCH  34  35
ENDBRANCH  27  29
ENDBRANCH  26  27
ENDBRANCH  25  26
ENDBRANCH   1  25
TORSDOF 15
ENDMDL
