MODEL 1
REMARK VINA RESULT:     -10.0      0.000      0.000
REMARK SMILES CC(C)[C@@H]([NH2+][C@@H]1CSCC(C)(C)C1)C(=O)OCCOCCOC(=O)c1ccc(-c2c3nc(c(-c4c(F)cccc4F)c4ccc([nH]4)c(-c4c(F)cccc4F)c4nc(c(-c5c(F)cccc5F)c5ccc2[nH]5)C=C4)C=C3)cc1
REMARK SMILES IDX 19 1 18 2 17 3 16 4 14 5 15 6 4 7 2 8 1 9 3 10 5 11 6 14
REMARK SMILES IDX 7 15 13 16 8 17 10 18 9 19 11 20 12 21 20 22 21 23 22 24
REMARK SMILES IDX 23 25 24 26 25 27 26 28 78 29 27 30 77 31 28 32 29 33 30 34
REMARK SMILES IDX 71 35 31 36 76 37 70 38 72 39 32 40 75 41 69 42 68 43 33 45
REMARK SMILES IDX 59 46 42 47 58 48 43 49 46 50 57 51 73 52 44 53 45 54 56 56
REMARK SMILES IDX 74 57 47 58 34 59 35 60 40 61 36 62 37 63 39 64 41 65 38 66
REMARK SMILES IDX 60 67 61 68 66 69 62 70 63 71 65 72 67 73 64 74 48 75 49 76
REMARK SMILES IDX 54 77 50 78 51 79 53 80 55 81 52 82
REMARK H PARENT 5 12 5 13 72 44 46 55
REMARK Flexibility Score: inf
ROOT
ATOM      1  O   UNL A   1      31.644  29.199  23.907  1.00  0.00    -0.374 OA
ENDROOT
BRANCH   1   2
ATOM      2  C   UNL A   1      32.280  28.325  22.988  1.00  0.00     0.202 C 
BRANCH   2   3
ATOM      3  C   UNL A   1      33.708  27.875  23.295  1.00  0.00     0.261 C 
BRANCH   3   4
ATOM      4  O   UNL A   1      34.020  26.496  23.040  1.00  0.00    -0.459 OA
BRANCH   4   5
ATOM      5  C   UNL A   1      34.008  25.697  24.145  1.00  0.00     0.365 C 
ATOM      6  O   UNL A   1      33.850  26.104  25.293  1.00  0.00    -0.245 OA
BRANCH   5   7
ATOM      7  C   UNL A   1      34.281  24.216  23.827  1.00  0.00     0.296 C 
BRANCH   7   8
ATOM      8  C   UNL A   1      35.682  23.723  24.319  1.00  0.00     0.053 C 
ATOM      9  C   UNL A   1      35.563  22.908  25.619  1.00  0.00     0.014 C 
ATOM     10  C   UNL A   1      36.446  22.876  23.300  1.00  0.00     0.014 C 
ENDBRANCH   7   8
BRANCH   7  11
ATOM     11  N   UNL A   1      33.257  23.361  24.454  1.00  0.00    -0.331 N 
ATOM     12  H   UNL A   1      33.147  23.700  25.409  1.00  0.00     0.347 HD
ATOM     13  H   UNL A   1      33.635  22.427  24.299  1.00  0.00     0.347 HD
BRANCH  11  14
ATOM     14  C   UNL A   1      31.905  23.238  23.906  1.00  0.00     0.193 C 
ATOM     15  C   UNL A   1      31.169  24.431  23.269  1.00  0.00     0.134 C 
ATOM     16  C   UNL A   1      31.041  22.651  25.040  1.00  0.00     0.073 C 
ATOM     17  S   UNL A   1      30.108  25.485  24.315  1.00  0.00    -0.155 SA
ATOM     18  C   UNL A   1      30.926  23.540  26.311  1.00  0.00    -0.021 C 
ATOM     19  C   UNL A   1      30.596  25.017  26.002  1.00  0.00     0.076 C 
ATOM     20  C   UNL A   1      32.216  23.503  27.173  1.00  0.00     0.012 C 
ATOM     21  C   UNL A   1      29.815  22.938  27.197  1.00  0.00     0.012 C 
ENDBRANCH  11  14
ENDBRANCH   7  11
ENDBRANCH   5   7
ENDBRANCH   4   5
ENDBRANCH   3   4
ENDBRANCH   2   3
ENDBRANCH   1   2
BRANCH   1  22
ATOM     22  C   UNL A   1      32.331  29.487  25.122  1.00  0.00     0.202 C 
BRANCH  22  23
ATOM     23  C   UNL A   1      31.764  30.636  25.963  1.00  0.00     0.261 C 
BRANCH  23  24
ATOM     24  O   UNL A   1      32.424  30.744  27.242  1.00  0.00    -0.460 OA
BRANCH  24  25
ATOM     25  C   UNL A   1      33.179  31.853  27.403  1.00  0.00     0.338 C 
ATOM     26  O   UNL A   1      32.790  33.019  27.429  1.00  0.00    -0.246 OA
BRANCH  25  27
ATOM     27  C   UNL A   1      34.571  31.496  27.725  1.00  0.00     0.060 A 
ATOM     28  C   UNL A   1      34.872  30.136  27.894  1.00  0.00     0.016 A 
ATOM     29  C   UNL A   1      35.531  32.473  27.990  1.00  0.00     0.016 A 
ATOM     30  C   UNL A   1      36.109  29.751  28.406  1.00  0.00     0.010 A 
ATOM     31  C   UNL A   1      36.766  32.086  28.519  1.00  0.00     0.010 A 
ATOM     32  C   UNL A   1      37.038  30.730  28.778  1.00  0.00    -0.014 A 
BRANCH  32  33
ATOM     33  C   UNL A   1      38.183  30.362  29.648  1.00  0.00     0.031 A 
ATOM     34  C   UNL A   1      39.213  29.410  29.102  1.00  0.00     0.074 A 
ATOM     35  C   UNL A   1      38.320  30.869  30.884  1.00  0.00     0.049 A 
ATOM     36  N   UNL A   1      40.231  28.850  29.704  1.00  0.00    -0.248 NA
ATOM     37  C   UNL A   1      39.074  29.040  27.684  1.00  0.00     0.031 C 
ATOM     38  C   UNL A   1      37.434  31.856  31.499  1.00  0.00     0.029 A 
ATOM     39  N   UNL A   1      39.260  30.608  31.850  1.00  0.00    -0.354 N 
ATOM     40  C   UNL A   1      40.842  28.052  28.744  1.00  0.00     0.074 A 
ATOM     41  C   UNL A   1      40.074  28.186  27.527  1.00  0.00     0.031 C 
ATOM     42  C   UNL A   1      37.860  32.100  32.750  1.00  0.00     0.029 A 
ATOM     43  C   UNL A   1      39.023  31.258  33.036  1.00  0.00     0.049 A 
ATOM     44  H   UNL A   1      40.030  30.012  31.705  1.00  0.00     0.167 HD
ATOM     45  C   UNL A   1      41.946  27.279  28.867  1.00  0.00     0.037 A 
ATOM     46  C   UNL A   1      39.651  31.154  34.223  1.00  0.00     0.037 A 
ATOM     47  C   UNL A   1      42.712  27.151  30.077  1.00  0.00     0.049 A 
ATOM     48  C   UNL A   1      40.821  30.215  34.364  1.00  0.00     0.074 A 
ATOM     49  C   UNL A   1      43.845  26.390  30.304  1.00  0.00     0.029 A 
ATOM     50  N   UNL A   1      42.418  27.801  31.265  1.00  0.00    -0.354 N 
ATOM     51  N   UNL A   1      41.385  29.455  33.457  1.00  0.00    -0.248 NA
ATOM     52  C   UNL A   1      41.437  30.114  35.696  1.00  0.00     0.031 C 
ATOM     53  C   UNL A   1      44.213  26.547  31.644  1.00  0.00     0.029 A 
ATOM     54  C   UNL A   1      43.337  27.443  32.236  1.00  0.00     0.049 A 
ATOM     55  H   UNL A   1      41.668  28.424  31.398  1.00  0.00     0.167 HD
ATOM     56  C   UNL A   1      42.440  28.815  34.097  1.00  0.00     0.074 A 
ATOM     57  C   UNL A   1      42.437  29.273  35.470  1.00  0.00     0.031 C 
ATOM     58  C   UNL A   1      43.333  27.929  33.592  1.00  0.00     0.037 A 
BRANCH  45  59
ATOM     59  C   UNL A   1      42.370  26.486  27.668  1.00  0.00     0.057 A 
ATOM     60  C   UNL A   1      43.238  27.009  26.703  1.00  0.00     0.134 A 
ATOM     61  C   UNL A   1      41.926  25.169  27.493  1.00  0.00     0.134 A 
ATOM     62  F   UNL A   1      43.686  28.269  26.804  1.00  0.00    -0.206 F 
ATOM     63  C   UNL A   1      43.634  26.258  25.595  1.00  0.00     0.040 A 
ATOM     64  C   UNL A   1      42.333  24.399  26.403  1.00  0.00     0.040 A 
ATOM     65  F   UNL A   1      41.093  24.607  28.383  1.00  0.00    -0.206 F 
ATOM     66  C   UNL A   1      43.187  24.946  25.446  1.00  0.00     0.006 A 
ENDBRANCH  45  59
BRANCH  46  67
ATOM     67  C   UNL A   1      39.169  31.937  35.389  1.00  0.00     0.057 A 
ATOM     68  C   UNL A   1      38.265  31.390  36.307  1.00  0.00     0.134 A 
ATOM     69  C   UNL A   1      39.582  33.259  35.599  1.00  0.00     0.134 A 
ATOM     70  F   UNL A   1      37.813  30.139  36.143  1.00  0.00    -0.206 F 
ATOM     71  C   UNL A   1      37.780  32.133  37.385  1.00  0.00     0.040 A 
ATOM     72  C   UNL A   1      39.123  34.004  36.685  1.00  0.00     0.040 A 
ATOM     73  F   UNL A   1      40.444  33.842  34.753  1.00  0.00    -0.206 F 
ATOM     74  C   UNL A   1      38.213  33.443  37.578  1.00  0.00     0.006 A 
ENDBRANCH  46  67
BRANCH  58  75
ATOM     75  C   UNL A   1      44.418  27.436  34.502  1.00  0.00     0.057 A 
ATOM     76  C   UNL A   1      45.618  28.135  34.670  1.00  0.00     0.134 A 
ATOM     77  C   UNL A   1      44.221  26.286  35.278  1.00  0.00     0.134 A 
ATOM     78  F   UNL A   1      45.870  29.237  33.948  1.00  0.00    -0.206 F 
ATOM     79  C   UNL A   1      46.590  27.704  35.575  1.00  0.00     0.040 A 
ATOM     80  C   UNL A   1      45.175  25.858  36.201  1.00  0.00     0.040 A 
ATOM     81  F   UNL A   1      43.088  25.577  35.170  1.00  0.00    -0.206 F 
ATOM     82  C   UNL A   1      46.365  26.567  36.350  1.00  0.00     0.006 A 
ENDBRANCH  58  75
ENDBRANCH  32  33
ENDBRANCH  25  27
ENDBRANCH  24  25
ENDBRANCH  23  24
ENDBRANCH  22  23
ENDBRANCH   1  22
TORSDOF 17
ENDMDL
MODEL 2
REMARK VINA RESULT:     -10.0      1.470      2.816
REMARK SMILES CC(C)[C@@H]([NH2+][C@@H]1CSCC(C)(C)C1)C(=O)OCCOCCOC(=O)c1ccc(-c2c3nc(c(-c4c(F)cccc4F)c4ccc([nH]4)c(-c4c(F)cccc4F)c4nc(c(-c5c(F)cccc5F)c5ccc2[nH]5)C=C4)C=C3)cc1
REMARK SMILES IDX 19 1 18 2 17 3 16 4 14 5 15 6 4 7 2 8 1 9 3 10 5 11 6 14
REMARK SMILES IDX 7 15 13 16 8 17 10 18 9 19 11 20 12 21 20 22 21 23 22 24
REMARK SMILES IDX 23 25 24 26 25 27 26 28 78 29 27 30 77 31 28 32 29 33 30 34
REMARK SMILES IDX 71 35 31 36 76 37 70 38 72 39 32 40 75 41 69 42 68 43 33 45
REMARK SMILES IDX 59 46 42 47 58 48 43 49 46 50 57 51 73 52 44 53 45 54 56 56
REMARK SMILES IDX 74 57 47 58 34 59 35 60 40 61 36 62 37 63 39 64 41 65 38 66
REMARK SMILES IDX 60 67 61 68 66 69 62 70 63 71 65 72 67 73 64 74 48 75 49 76
REMARK SMILES IDX 54 77 50 78 51 79 53 80 55 81 52 82
REMARK H PARENT 5 12 5 13 72 44 46 55
REMARK Flexibility Score: inf
ROOT
ATOM      1  O   UNL A   1      31.897  30.597  27.004  1.00  0.00    -0.374 OA
ENDROOT
BRANCH   1   2
ATOM      2  C   UNL A   1      31.716  29.274  26.519  1.00  0.00     0.202 C 
BRANCH   2   3
ATOM      3  C   UNL A   1      31.734  28.131  27.533  1.00  0.00     0.261 C 
BRANCH   3   4
ATOM      4  O   UNL A   1      31.371  26.829  27.043  1.00  0.00    -0.459 OA
BRANCH   4   5
ATOM      5  C   UNL A   1      32.339  26.208  26.309  1.00  0.00     0.365 C 
ATOM      6  O   UNL A   1      33.511  26.569  26.262  1.00  0.00    -0.245 OA
BRANCH   5   7
ATOM      7  C   UNL A   1      31.807  25.030  25.475  1.00  0.00     0.296 C 
BRANCH   7   8
ATOM      8  C   UNL A   1      31.331  25.446  24.043  1.00  0.00     0.053 C 
ATOM      9  C   UNL A   1      29.887  25.976  24.066  1.00  0.00     0.014 C 
ATOM     10  C   UNL A   1      32.210  26.501  23.369  1.00  0.00     0.014 C 
ENDBRANCH   7   8
BRANCH   7  11
ATOM     11  N   UNL A   1      32.849  23.999  25.321  1.00  0.00    -0.331 N 
ATOM     12  H   UNL A   1      32.880  23.490  26.204  1.00  0.00     0.347 HD
ATOM     13  H   UNL A   1      33.657  24.553  25.040  1.00  0.00     0.347 HD
BRANCH  11  14
ATOM     14  C   UNL A   1      32.790  22.985  24.267  1.00  0.00     0.193 C 
ATOM     15  C   UNL A   1      32.582  21.493  24.578  1.00  0.00     0.134 C 
ATOM     16  C   UNL A   1      34.080  23.161  23.441  1.00  0.00     0.073 C 
ATOM     17  S   UNL A   1      34.039  20.423  24.830  1.00  0.00    -0.155 SA
ATOM     18  C   UNL A   1      35.403  22.913  24.220  1.00  0.00    -0.021 C 
ATOM     19  C   UNL A   1      35.392  21.614  25.057  1.00  0.00     0.076 C 
ATOM     20  C   UNL A   1      35.758  24.093  25.163  1.00  0.00     0.012 C 
ATOM     21  C   UNL A   1      36.545  22.849  23.184  1.00  0.00     0.012 C 
ENDBRANCH  11  14
ENDBRANCH   7  11
ENDBRANCH   5   7
ENDBRANCH   4   5
ENDBRANCH   3   4
ENDBRANCH   2   3
ENDBRANCH   1   2
BRANCH   1  22
ATOM     22  C   UNL A   1      31.297  31.656  26.263  1.00  0.00     0.202 C 
BRANCH  22  23
ATOM     23  C   UNL A   1      31.807  33.068  26.569  1.00  0.00     0.261 C 
BRANCH  23  24
ATOM     24  O   UNL A   1      32.176  33.219  27.956  1.00  0.00    -0.460 OA
BRANCH  24  25
ATOM     25  C   UNL A   1      33.214  34.052  28.183  1.00  0.00     0.338 C 
ATOM     26  O   UNL A   1      33.170  35.273  28.326  1.00  0.00    -0.246 OA
BRANCH  25  27
ATOM     27  C   UNL A   1      34.454  33.293  28.416  1.00  0.00     0.060 A 
ATOM     28  C   UNL A   1      34.336  32.010  28.972  1.00  0.00     0.016 A 
ATOM     29  C   UNL A   1      35.710  33.871  28.225  1.00  0.00     0.016 A 
ATOM     30  C   UNL A   1      35.470  31.331  29.414  1.00  0.00     0.010 A 
ATOM     31  C   UNL A   1      36.845  33.195  28.682  1.00  0.00     0.010 A 
ATOM     32  C   UNL A   1      36.723  31.949  29.326  1.00  0.00    -0.014 A 
BRANCH  32  33
ATOM     33  C   UNL A   1      37.863  31.411  30.109  1.00  0.00     0.031 A 
ATOM     34  C   UNL A   1      38.768  30.406  29.448  1.00  0.00     0.074 A 
ATOM     35  C   UNL A   1      38.105  31.812  31.368  1.00  0.00     0.049 A 
ATOM     36  N   UNL A   1      39.750  29.708  29.958  1.00  0.00    -0.248 NA
ATOM     37  C   UNL A   1      38.529  30.154  28.017  1.00  0.00     0.031 C 
ATOM     38  C   UNL A   1      37.351  32.833  32.092  1.00  0.00     0.029 A 
ATOM     39  N   UNL A   1      39.056  31.392  32.264  1.00  0.00    -0.354 N 
ATOM     40  C   UNL A   1      40.235  28.926  28.917  1.00  0.00     0.074 A 
ATOM     41  C   UNL A   1      39.431  29.221  27.752  1.00  0.00     0.031 C 
ATOM     42  C   UNL A   1      37.854  32.944  33.334  1.00  0.00     0.029 A 
ATOM     43  C   UNL A   1      38.938  31.976  33.502  1.00  0.00     0.049 A 
ATOM     44  H   UNL A   1      39.755  30.737  32.040  1.00  0.00     0.167 HD
ATOM     45  C   UNL A   1      41.261  28.043  28.930  1.00  0.00     0.037 A 
ATOM     46  C   UNL A   1      39.605  31.726  34.646  1.00  0.00     0.037 A 
ATOM     47  C   UNL A   1      42.063  27.755  30.087  1.00  0.00     0.049 A 
ATOM     48  C   UNL A   1      40.681  30.670  34.663  1.00  0.00     0.074 A 
ATOM     49  C   UNL A   1      43.123  26.873  30.205  1.00  0.00     0.029 A 
ATOM     50  N   UNL A   1      41.889  28.343  31.331  1.00  0.00    -0.354 N 
ATOM     51  N   UNL A   1      41.125  29.927  33.679  1.00  0.00    -0.248 NA
ATOM     52  C   UNL A   1      41.342  30.415  35.951  1.00  0.00     0.031 C 
ATOM     53  C   UNL A   1      43.565  26.898  31.532  1.00  0.00     0.029 A 
ATOM     54  C   UNL A   1      42.810  27.829  32.227  1.00  0.00     0.049 A 
ATOM     55  H   UNL A   1      41.212  29.025  31.544  1.00  0.00     0.167 HD
ATOM     56  C   UNL A   1      42.138  29.143  34.219  1.00  0.00     0.074 A 
ATOM     57  C   UNL A   1      42.242  29.499  35.618  1.00  0.00     0.031 C 
ATOM     58  C   UNL A   1      42.915  28.214  33.611  1.00  0.00     0.037 A 
BRANCH  45  59
ATOM     59  C   UNL A   1      41.549  27.301  27.660  1.00  0.00     0.057 A 
ATOM     60  C   UNL A   1      40.975  26.054  27.385  1.00  0.00     0.134 A 
ATOM     61  C   UNL A   1      42.391  27.855  26.687  1.00  0.00     0.134 A 
ATOM     62  F   UNL A   1      40.173  25.463  28.282  1.00  0.00    -0.206 F 
ATOM     63  C   UNL A   1      41.243  25.376  26.195  1.00  0.00     0.040 A 
ATOM     64  C   UNL A   1      42.648  27.198  25.484  1.00  0.00     0.040 A 
ATOM     65  F   UNL A   1      42.973  29.048  26.889  1.00  0.00    -0.206 F 
ATOM     66  C   UNL A   1      42.076  25.951  25.237  1.00  0.00     0.006 A 
ENDBRANCH  45  59
BRANCH  46  67
ATOM     67  C   UNL A   1      39.256  32.466  35.884  1.00  0.00     0.057 A 
ATOM     68  C   UNL A   1      38.343  31.945  36.808  1.00  0.00     0.134 A 
ATOM     69  C   UNL A   1      39.809  33.722  36.163  1.00  0.00     0.134 A 
ATOM     70  F   UNL A   1      37.759  30.759  36.583  1.00  0.00    -0.206 F 
ATOM     71  C   UNL A   1      37.982  32.651  37.957  1.00  0.00     0.040 A 
ATOM     72  C   UNL A   1      39.476  34.428  37.319  1.00  0.00     0.040 A 
ATOM     73  F   UNL A   1      40.689  34.277  35.316  1.00  0.00    -0.206 F 
ATOM     74  C   UNL A   1      38.554  33.895  38.216  1.00  0.00     0.006 A 
ENDBRANCH  46  67
BRANCH  58  75
ATOM     75  C   UNL A   1      43.984  27.554  34.428  1.00  0.00     0.057 A 
ATOM     76  C   UNL A   1      43.778  26.323  35.060  1.00  0.00     0.134 A 
ATOM     77  C   UNL A   1      45.261  28.124  34.516  1.00  0.00     0.134 A 
ATOM     78  F   UNL A   1      42.575  25.732  35.022  1.00  0.00    -0.206 F 
ATOM     79  C   UNL A   1      44.804  25.684  35.759  1.00  0.00     0.040 A 
ATOM     80  C   UNL A   1      46.300  27.485  35.192  1.00  0.00     0.040 A 
ATOM     81  F   UNL A   1      45.525  29.299  33.924  1.00  0.00    -0.206 F 
ATOM     82  C   UNL A   1      46.072  26.261  35.818  1.00  0.00     0.006 A 
ENDBRANCH  58  75
ENDBRANCH  32  33
ENDBRANCH  25  27
ENDBRANCH  24  25
ENDBRANCH  23  24
ENDBRANCH  22  23
ENDBRANCH   1  22
TORSDOF 17
ENDMDL
MODEL 3
REMARK VINA RESULT:      -9.9      4.189      7.185
REMARK SMILES CC(C)[C@@H]([NH2+][C@@H]1CSCC(C)(C)C1)C(=O)OCCOCCOC(=O)c1ccc(-c2c3nc(c(-c4c(F)cccc4F)c4ccc([nH]4)c(-c4c(F)cccc4F)c4nc(c(-c5c(F)cccc5F)c5ccc2[nH]5)C=C4)C=C3)cc1
REMARK SMILES IDX 19 1 18 2 17 3 16 4 14 5 15 6 4 7 2 8 1 9 3 10 5 11 6 14
REMARK SMILES IDX 7 15 13 16 8 17 10 18 9 19 11 20 12 21 20 22 21 23 22 24
REMARK SMILES IDX 23 25 24 26 25 27 26 28 78 29 27 30 77 31 28 32 29 33 30 34
REMARK SMILES IDX 71 35 31 36 76 37 70 38 72 39 32 40 75 41 69 42 68 43 33 45
REMARK SMILES IDX 59 46 42 47 58 48 43 49 46 50 57 51 73 52 44 53 45 54 56 56
REMARK SMILES IDX 74 57 47 58 34 59 35 60 40 61 36 62 37 63 39 64 41 65 38 66
REMARK SMILES IDX 60 67 61 68 66 69 62 70 63 71 65 72 67 73 64 74 48 75 49 76
REMARK SMILES IDX 54 77 50 78 51 79 53 80 55 81 52 82
REMARK H PARENT 5 12 5 13 72 44 46 55
REMARK Flexibility Score: inf
ROOT
ATOM      1  O   UNL A   1      37.449  21.164  25.225  1.00  0.00    -0.374 OA
ENDROOT
BRANCH   1   2
ATOM      2  C   UNL A   1      36.382  21.702  24.458  1.00  0.00     0.202 C 
BRANCH   2   3
ATOM      3  C   UNL A   1      36.627  23.012  23.709  1.00  0.00     0.261 C 
BRANCH   3   4
ATOM      4  O   UNL A   1      35.504  23.576  23.011  1.00  0.00    -0.459 OA
BRANCH   4   5
ATOM      5  C   UNL A   1      34.622  24.248  23.805  1.00  0.00     0.365 C 
ATOM      6  O   UNL A   1      34.904  24.736  24.896  1.00  0.00    -0.245 OA
BRANCH   5   7
ATOM      7  C   UNL A   1      33.194  24.285  23.232  1.00  0.00     0.296 C 
BRANCH   7   8
ATOM      8  C   UNL A   1      32.285  23.121  23.751  1.00  0.00     0.053 C 
ATOM      9  C   UNL A   1      30.813  23.348  23.366  1.00  0.00     0.014 C 
ATOM     10  C   UNL A   1      32.694  21.733  23.255  1.00  0.00     0.014 C 
ENDBRANCH   7   8
BRANCH   7  11
ATOM     11  N   UNL A   1      32.536  25.558  23.577  1.00  0.00    -0.331 N 
ATOM     12  H   UNL A   1      32.744  25.729  24.561  1.00  0.00     0.347 HD
ATOM     13  H   UNL A   1      31.572  25.383  23.297  1.00  0.00     0.347 HD
BRANCH  11  14
ATOM     14  C   UNL A   1      32.838  26.805  22.872  1.00  0.00     0.193 C 
ATOM     15  C   UNL A   1      33.722  27.902  23.493  1.00  0.00     0.134 C 
ATOM     16  C   UNL A   1      31.475  27.408  22.479  1.00  0.00     0.073 C 
ATOM     17  S   UNL A   1      32.939  29.231  24.469  1.00  0.00    -0.155 SA
ATOM     18  C   UNL A   1      30.550  27.785  23.671  1.00  0.00    -0.021 C 
ATOM     19  C   UNL A   1      31.269  28.587  24.779  1.00  0.00     0.076 C 
ATOM     20  C   UNL A   1      29.895  26.539  24.322  1.00  0.00     0.012 C 
ATOM     21  C   UNL A   1      29.383  28.622  23.104  1.00  0.00     0.012 C 
ENDBRANCH  11  14
ENDBRANCH   7  11
ENDBRANCH   5   7
ENDBRANCH   4   5
ENDBRANCH   3   4
ENDBRANCH   2   3
ENDBRANCH   1   2
BRANCH   1  22
ATOM     22  C   UNL A   1      37.846  19.823  24.949  1.00  0.00     0.202 C 
BRANCH  22  23
ATOM     23  C   UNL A   1      39.109  19.331  25.665  1.00  0.00     0.261 C 
BRANCH  23  24
ATOM     24  O   UNL A   1      40.130  20.351  25.717  1.00  0.00    -0.460 OA
BRANCH  24  25
ATOM     25  C   UNL A   1      40.842  20.386  26.864  1.00  0.00     0.338 C 
ATOM     26  O   UNL A   1      41.482  19.466  27.369  1.00  0.00    -0.246 OA
BRANCH  25  27
ATOM     27  C   UNL A   1      40.914  21.758  27.393  1.00  0.00     0.060 A 
ATOM     28  C   UNL A   1      40.138  22.741  26.761  1.00  0.00     0.016 A 
ATOM     29  C   UNL A   1      41.820  22.106  28.396  1.00  0.00     0.016 A 
ATOM     30  C   UNL A   1      40.323  24.087  27.072  1.00  0.00     0.010 A 
ATOM     31  C   UNL A   1      42.015  23.457  28.697  1.00  0.00     0.010 A 
ATOM     32  C   UNL A   1      41.307  24.453  27.998  1.00  0.00    -0.014 A 
BRANCH  32  33
ATOM     33  C   UNL A   1      41.762  25.864  28.066  1.00  0.00     0.031 A 
ATOM     34  C   UNL A   1      43.095  26.211  27.460  1.00  0.00     0.074 A 
ATOM     35  C   UNL A   1      41.009  26.820  28.635  1.00  0.00     0.049 A 
ATOM     36  N   UNL A   1      43.759  27.338  27.497  1.00  0.00    -0.248 NA
ATOM     37  C   UNL A   1      43.771  25.138  26.712  1.00  0.00     0.031 C 
ATOM     38  C   UNL A   1      39.670  26.629  29.188  1.00  0.00     0.029 A 
ATOM     39  N   UNL A   1      41.278  28.149  28.849  1.00  0.00    -0.354 N 
ATOM     40  C   UNL A   1      44.934  27.106  26.793  1.00  0.00     0.074 A 
ATOM     41  C   UNL A   1      44.902  25.728  26.354  1.00  0.00     0.031 C 
ATOM     42  C   UNL A   1      39.243  27.795  29.701  1.00  0.00     0.029 A 
ATOM     43  C   UNL A   1      40.293  28.802  29.547  1.00  0.00     0.049 A 
ATOM     44  H   UNL A   1      42.098  28.591  28.532  1.00  0.00     0.167 HD
ATOM     45  C   UNL A   1      45.947  27.964  26.533  1.00  0.00     0.037 A 
ATOM     46  C   UNL A   1      40.262  30.057  30.037  1.00  0.00     0.037 A 
ATOM     47  C   UNL A   1      45.975  29.334  26.966  1.00  0.00     0.049 A 
ATOM     48  C   UNL A   1      41.443  30.968  29.818  1.00  0.00     0.074 A 
ATOM     49  C   UNL A   1      46.959  30.285  26.757  1.00  0.00     0.029 A 
ATOM     50  N   UNL A   1      44.972  29.947  27.700  1.00  0.00    -0.354 N 
ATOM     51  N   UNL A   1      42.554  30.738  29.163  1.00  0.00    -0.248 NA
ATOM     52  C   UNL A   1      41.367  32.310  30.414  1.00  0.00     0.031 C 
ATOM     53  C   UNL A   1      46.568  31.464  27.401  1.00  0.00     0.029 A 
ATOM     54  C   UNL A   1      45.321  31.259  27.970  1.00  0.00     0.049 A 
ATOM     55  H   UNL A   1      44.136  29.514  27.987  1.00  0.00     0.167 HD
ATOM     56  C   UNL A   1      43.292  31.914  29.237  1.00  0.00     0.074 A 
ATOM     57  C   UNL A   1      42.504  32.855  30.003  1.00  0.00     0.031 C 
ATOM     58  C   UNL A   1      44.512  32.190  28.714  1.00  0.00     0.037 A 
BRANCH  45  59
ATOM     59  C   UNL A   1      47.124  27.433  25.773  1.00  0.00     0.057 A 
ATOM     60  C   UNL A   1      47.236  27.578  24.385  1.00  0.00     0.134 A 
ATOM     61  C   UNL A   1      48.174  26.792  26.443  1.00  0.00     0.134 A 
ATOM     62  F   UNL A   1      46.257  28.169  23.683  1.00  0.00    -0.206 F 
ATOM     63  C   UNL A   1      48.342  27.089  23.687  1.00  0.00     0.040 A 
ATOM     64  C   UNL A   1      49.295  26.319  25.761  1.00  0.00     0.040 A 
ATOM     65  F   UNL A   1      48.130  26.621  27.773  1.00  0.00    -0.206 F 
ATOM     66  C   UNL A   1      49.379  26.463  24.377  1.00  0.00     0.006 A 
ENDBRANCH  45  59
BRANCH  46  67
ATOM     67  C   UNL A   1      39.086  30.522  30.814  1.00  0.00     0.057 A 
ATOM     68  C   UNL A   1      38.991  30.298  32.192  1.00  0.00     0.134 A 
ATOM     69  C   UNL A   1      38.018  31.180  30.192  1.00  0.00     0.134 A 
ATOM     70  F   UNL A   1      39.970  29.649  32.838  1.00  0.00    -0.206 F 
ATOM     71  C   UNL A   1      37.871  30.701  32.922  1.00  0.00     0.040 A 
ATOM     72  C   UNL A   1      36.903  31.609  30.914  1.00  0.00     0.040 A 
ATOM     73  F   UNL A   1      38.046  31.423  28.873  1.00  0.00    -0.206 F 
ATOM     74  C   UNL A   1      36.825  31.363  32.283  1.00  0.00     0.006 A 
ENDBRANCH  46  67
BRANCH  58  75
ATOM     75  C   UNL A   1      45.052  33.576  28.897  1.00  0.00     0.057 A 
ATOM     76  C   UNL A   1      45.912  33.901  29.952  1.00  0.00     0.134 A 
ATOM     77  C   UNL A   1      44.768  34.577  27.958  1.00  0.00     0.134 A 
ATOM     78  F   UNL A   1      46.214  32.990  30.889  1.00  0.00    -0.206 F 
ATOM     79  C   UNL A   1      46.467  35.177  30.071  1.00  0.00     0.040 A 
ATOM     80  C   UNL A   1      45.333  35.848  28.054  1.00  0.00     0.040 A 
ATOM     81  F   UNL A   1      43.958  34.325  26.919  1.00  0.00    -0.206 F 
ATOM     82  C   UNL A   1      46.185  36.152  29.115  1.00  0.00     0.006 A 
ENDBRANCH  58  75
ENDBRANCH  32  33
ENDBRANCH  25  27
ENDBRANCH  24  25
ENDBRANCH  23  24
ENDBRANCH  22  23
ENDBRANCH   1  22
TORSDOF 17
ENDMDL
