MODEL 1
REMARK VINA RESULT:     -10.8      0.000      0.000
REMARK SMILES COc1cc(/C=C/C(=O)c2ccc(OCC(=O)OCCOCCOC(=O)c3ccc(-c4c5nc(c(-c6c(F)cccc6F)c6ccc([nH]6)c(-c6c(F)cccc6F)c6nc(c(-c7c(F)cccc7F)c7ccc4[nH]7)C=C6)C=C5)cc3)cc2)cc2c1OCCO2
REMARK SMILES IDX 19 1 18 2 16 3 17 4 15 5 14 6 13 7 10 8 11 9 82 10 12 11
REMARK SMILES IDX 81 12 8 13 9 14 7 15 6 16 5 17 3 18 4 19 85 20 84 21 86 22
REMARK SMILES IDX 83 23 89 24 87 25 88 26 2 27 1 28 20 29 21 30 22 31 23 32
REMARK SMILES IDX 24 33 25 34 26 35 27 36 28 37 80 38 29 39 79 40 30 41 31 42
REMARK SMILES IDX 32 43 73 44 33 45 78 46 72 47 74 48 34 49 77 50 71 51 70 52
REMARK SMILES IDX 35 54 61 55 44 56 60 57 45 58 48 59 59 60 75 61 46 62 47 63
REMARK SMILES IDX 58 65 76 66 49 67 36 68 37 69 42 70 38 71 39 72 41 73 43 74
REMARK SMILES IDX 40 75 62 76 63 77 68 78 64 79 65 80 67 81 69 82 66 83 50 84
REMARK SMILES IDX 51 85 56 86 52 87 53 88 55 89 57 90 54 91
REMARK H PARENT 74 53 48 64
REMARK Flexibility Score: inf
ROOT
ATOM      1  C   UNL A   1      41.914  22.078  25.634  1.00  0.00     0.261 C 
ENDROOT
BRANCH   1   2
ATOM      2  O   UNL A   1      40.934  22.244  26.685  1.00  0.00    -0.461 OA
BRANCH   2   3
ATOM      3  C   UNL A   1      39.753  21.589  26.503  1.00  0.00     0.344 C 
ATOM      4  O   UNL A   1      39.622  20.370  26.580  1.00  0.00    -0.248 OA
BRANCH   3   5
ATOM      5  C   UNL A   1      38.570  22.495  26.113  1.00  0.00     0.351 C 
BRANCH   5   6
ATOM      6  O   UNL A   1      37.985  22.516  24.826  1.00  0.00    -0.482 OA
BRANCH   6   7
ATOM      7  C   UNL A   1      36.745  23.053  24.625  1.00  0.00     0.120 A 
ATOM      8  C   UNL A   1      34.028  23.801  24.715  1.00  0.00     0.022 A 
ATOM      9  C   UNL A   1      34.867  24.054  25.806  1.00  0.00     0.016 A 
ATOM     10  C   UNL A   1      34.581  23.293  23.533  1.00  0.00     0.016 A 
ATOM     11  C   UNL A   1      36.215  23.682  25.759  1.00  0.00     0.047 A 
ATOM     12  C   UNL A   1      35.943  22.926  23.487  1.00  0.00     0.047 A 
BRANCH   8  13
ATOM     13  C   UNL A   1      32.590  24.129  24.870  1.00  0.00     0.185 C 
ATOM     14  O   UNL A   1      31.799  23.201  25.037  1.00  0.00    -0.289 OA
BRANCH  13  15
ATOM     15  C   UNL A   1      32.044  25.515  24.705  1.00  0.00     0.053 C 
ATOM     16  C   UNL A   1      31.488  26.093  23.628  1.00  0.00     0.012 C 
BRANCH  16  17
ATOM     17  C   UNL A   1      30.897  27.454  23.565  1.00  0.00    -0.018 A 
ATOM     18  C   UNL A   1      30.764  29.710  24.530  1.00  0.00     0.165 A 
ATOM     19  C   UNL A   1      31.333  28.428  24.482  1.00  0.00     0.058 A 
ATOM     20  C   UNL A   1      29.763  30.059  23.620  1.00  0.00     0.203 A 
ATOM     21  C   UNL A   1      29.352  29.114  22.670  1.00  0.00     0.165 A 
ATOM     22  O   UNL A   1      29.235  31.326  23.662  1.00  0.00    -0.483 OA
ATOM     23  C   UNL A   1      29.895  27.820  22.658  1.00  0.00     0.058 A 
ATOM     24  O   UNL A   1      28.403  29.373  21.708  1.00  0.00    -0.486 OA
ATOM     25  C   UNL A   1      27.998  31.411  22.951  1.00  0.00     0.271 C 
ATOM     26  C   UNL A   1      28.144  30.776  21.582  1.00  0.00     0.271 C 
BRANCH  18  27
ATOM     27  O   UNL A   1      31.308  30.562  25.459  1.00  0.00    -0.493 OA
ATOM     28  C   UNL A   1      32.067  29.904  26.471  1.00  0.00     0.278 C 
ENDBRANCH  18  27
ENDBRANCH  16  17
ENDBRANCH  13  15
ENDBRANCH   8  13
ENDBRANCH   6   7
ENDBRANCH   5   6
ENDBRANCH   3   5
ENDBRANCH   2   3
ENDBRANCH   1   2
BRANCH   1  29
ATOM     29  C   UNL A   1      43.014  21.038  25.894  1.00  0.00     0.202 C 
BRANCH  29  30
ATOM     30  O   UNL A   1      44.346  21.481  26.091  1.00  0.00    -0.374 OA
BRANCH  30  31
ATOM     31  C   UNL A   1      45.134  21.828  24.967  1.00  0.00     0.202 C 
BRANCH  31  32
ATOM     32  C   UNL A   1      45.092  23.251  24.406  1.00  0.00     0.261 C 
BRANCH  32  33
ATOM     33  O   UNL A   1      44.477  24.239  25.197  1.00  0.00    -0.460 OA
BRANCH  33  34
ATOM     34  C   UNL A   1      45.103  25.422  25.245  1.00  0.00     0.338 C 
ATOM     35  O   UNL A   1      46.065  25.818  24.624  1.00  0.00    -0.246 OA
BRANCH  34  36
ATOM     36  C   UNL A   1      44.365  26.132  26.281  1.00  0.00     0.060 A 
ATOM     37  C   UNL A   1      44.551  27.506  26.415  1.00  0.00     0.016 A 
ATOM     38  C   UNL A   1      43.408  25.427  27.019  1.00  0.00     0.016 A 
ATOM     39  C   UNL A   1      43.804  28.184  27.364  1.00  0.00     0.010 A 
ATOM     40  C   UNL A   1      42.649  26.112  27.953  1.00  0.00     0.010 A 
ATOM     41  C   UNL A   1      42.879  27.482  28.153  1.00  0.00    -0.014 A 
BRANCH  41  42
ATOM     42  C   UNL A   1      42.265  28.159  29.305  1.00  0.00     0.031 A 
ATOM     43  C   UNL A   1      42.967  28.082  30.627  1.00  0.00     0.074 A 
ATOM     44  C   UNL A   1      41.126  28.851  29.143  1.00  0.00     0.049 A 
ATOM     45  N   UNL A   1      42.635  28.615  31.770  1.00  0.00    -0.248 NA
ATOM     46  C   UNL A   1      44.212  27.292  30.666  1.00  0.00     0.031 C 
ATOM     47  C   UNL A   1      40.388  28.979  27.887  1.00  0.00     0.029 A 
ATOM     48  N   UNL A   1      40.396  29.577  30.042  1.00  0.00    -0.354 N 
ATOM     49  C   UNL A   1      43.626  28.227  32.663  1.00  0.00     0.074 A 
ATOM     50  C   UNL A   1      44.546  27.376  31.943  1.00  0.00     0.031 C 
ATOM     51  C   UNL A   1      39.308  29.751  28.095  1.00  0.00     0.029 A 
ATOM     52  C   UNL A   1      39.269  30.142  29.501  1.00  0.00     0.049 A 
ATOM     53  H   UNL A   1      40.654  29.684  30.987  1.00  0.00     0.167 HD
ATOM     54  C   UNL A   1      43.758  28.569  33.964  1.00  0.00     0.037 A 
ATOM     55  C   UNL A   1      38.314  30.883  30.092  1.00  0.00     0.037 A 
ATOM     56  C   UNL A   1      42.827  29.417  34.657  1.00  0.00     0.049 A 
ATOM     57  C   UNL A   1      38.462  31.210  31.552  1.00  0.00     0.074 A 
ATOM     58  C   UNL A   1      42.864  29.849  35.969  1.00  0.00     0.029 A 
ATOM     59  N   UNL A   1      41.682  29.954  34.086  1.00  0.00    -0.354 N 
ATOM     60  N   UNL A   1      39.422  30.875  32.382  1.00  0.00    -0.248 NA
ATOM     61  C   UNL A   1      37.399  32.021  32.158  1.00  0.00     0.031 C 
ATOM     62  C   UNL A   1      41.712  30.606  36.206  1.00  0.00     0.029 A 
ATOM     63  C   UNL A   1      40.988  30.694  35.027  1.00  0.00     0.049 A 
ATOM     64  H   UNL A   1      41.404  29.827  33.150  1.00  0.00     0.167 HD
ATOM     65  C   UNL A   1      39.094  31.456  33.600  1.00  0.00     0.074 A 
ATOM     66  C   UNL A   1      37.854  32.177  33.393  1.00  0.00     0.031 C 
ATOM     67  C   UNL A   1      39.755  31.401  34.783  1.00  0.00     0.037 A 
BRANCH  54  68
ATOM     68  C   UNL A   1      44.931  28.006  34.711  1.00  0.00     0.057 A 
ATOM     69  C   UNL A   1      46.148  28.696  34.814  1.00  0.00     0.134 A 
ATOM     70  C   UNL A   1      44.842  26.761  35.343  1.00  0.00     0.134 A 
ATOM     71  F   UNL A   1      46.309  29.884  34.213  1.00  0.00    -0.206 F 
ATOM     72  C   UNL A   1      47.239  28.155  35.497  1.00  0.00     0.040 A 
ATOM     73  C   UNL A   1      45.917  26.223  36.054  1.00  0.00     0.040 A 
ATOM     74  F   UNL A   1      43.709  26.045  35.283  1.00  0.00    -0.206 F 
ATOM     75  C   UNL A   1      47.122  26.919  36.127  1.00  0.00     0.006 A 
ENDBRANCH  54  68
BRANCH  55  76
ATOM     76  C   UNL A   1      37.153  31.363  29.302  1.00  0.00     0.057 A 
ATOM     77  C   UNL A   1      37.127  32.650  28.753  1.00  0.00     0.134 A 
ATOM     78  C   UNL A   1      36.039  30.545  29.075  1.00  0.00     0.134 A 
ATOM     79  F   UNL A   1      38.157  33.487  28.947  1.00  0.00    -0.206 F 
ATOM     80  C   UNL A   1      36.030  33.113  28.024  1.00  0.00     0.040 A 
ATOM     81  C   UNL A   1      34.947  30.984  28.326  1.00  0.00     0.040 A 
ATOM     82  F   UNL A   1      36.005  29.297  29.565  1.00  0.00    -0.206 F 
ATOM     83  C   UNL A   1      34.938  32.276  27.804  1.00  0.00     0.006 A 
ENDBRANCH  55  76
BRANCH  67  84
ATOM     84  C   UNL A   1      39.163  32.168  35.928  1.00  0.00     0.057 A 
ATOM     85  C   UNL A   1      39.486  33.509  36.166  1.00  0.00     0.134 A 
ATOM     86  C   UNL A   1      38.224  31.566  36.775  1.00  0.00     0.134 A 
ATOM     87  F   UNL A   1      40.387  34.139  35.395  1.00  0.00    -0.206 F 
ATOM     88  C   UNL A   1      38.914  34.219  37.222  1.00  0.00     0.040 A 
ATOM     89  C   UNL A   1      37.623  32.274  37.817  1.00  0.00     0.040 A 
ATOM     90  F   UNL A   1      37.862  30.286  36.594  1.00  0.00    -0.206 F 
ATOM     91  C   UNL A   1      37.974  33.602  38.045  1.00  0.00     0.006 A 
ENDBRANCH  67  84
ENDBRANCH  41  42
ENDBRANCH  34  36
ENDBRANCH  33  34
ENDBRANCH  32  33
ENDBRANCH  31  32
ENDBRANCH  30  31
ENDBRANCH  29  30
ENDBRANCH   1  29
TORSDOF 20
ENDMDL
MODEL 2
REMARK VINA RESULT:     -10.7      4.316     10.434
REMARK SMILES COc1cc(/C=C/C(=O)c2ccc(OCC(=O)OCCOCCOC(=O)c3ccc(-c4c5nc(c(-c6c(F)cccc6F)c6ccc([nH]6)c(-c6c(F)cccc6F)c6nc(c(-c7c(F)cccc7F)c7ccc4[nH]7)C=C6)C=C5)cc3)cc2)cc2c1OCCO2
REMARK SMILES IDX 19 1 18 2 16 3 17 4 15 5 14 6 13 7 10 8 11 9 82 10 12 11
REMARK SMILES IDX 81 12 8 13 9 14 7 15 6 16 5 17 3 18 4 19 85 20 84 21 86 22
REMARK SMILES IDX 83 23 89 24 87 25 88 26 2 27 1 28 20 29 21 30 22 31 23 32
REMARK SMILES IDX 24 33 25 34 26 35 27 36 28 37 80 38 29 39 79 40 30 41 31 42
REMARK SMILES IDX 32 43 73 44 33 45 78 46 72 47 74 48 34 49 77 50 71 51 70 52
REMARK SMILES IDX 35 54 61 55 44 56 60 57 45 58 48 59 59 60 75 61 46 62 47 63
REMARK SMILES IDX 58 65 76 66 49 67 36 68 37 69 42 70 38 71 39 72 41 73 43 74
REMARK SMILES IDX 40 75 62 76 63 77 68 78 64 79 65 80 67 81 69 82 66 83 50 84
REMARK SMILES IDX 51 85 56 86 52 87 53 88 55 89 57 90 54 91
REMARK H PARENT 74 53 48 64
REMARK Flexibility Score: inf
ROOT
ATOM      1  C   UNL A   1      33.691  33.665  28.362  1.00  0.00     0.261 C 
ENDROOT
BRANCH   1   2
ATOM      2  O   UNL A   1      34.818  33.115  27.639  1.00  0.00    -0.461 OA
BRANCH   2   3
ATOM      3  C   UNL A   1      35.009  31.772  27.772  1.00  0.00     0.344 C 
ATOM      4  O   UNL A   1      36.097  31.250  28.000  1.00  0.00    -0.248 OA
BRANCH   3   5
ATOM      5  C   UNL A   1      33.748  30.918  27.542  1.00  0.00     0.351 C 
BRANCH   5   6
ATOM      6  O   UNL A   1      33.129  30.750  26.282  1.00  0.00    -0.482 OA
BRANCH   6   7
ATOM      7  C   UNL A   1      32.292  29.697  26.044  1.00  0.00     0.120 A 
ATOM      8  C   UNL A   1      31.084  27.175  25.687  1.00  0.00     0.022 A 
ATOM      9  C   UNL A   1      31.628  27.529  26.927  1.00  0.00     0.016 A 
ATOM     10  C   UNL A   1      31.030  28.133  24.668  1.00  0.00     0.016 A 
ATOM     11  C   UNL A   1      32.227  28.781  27.101  1.00  0.00     0.047 A 
ATOM     12  C   UNL A   1      31.629  29.398  24.850  1.00  0.00     0.047 A 
BRANCH   8  13
ATOM     13  C   UNL A   1      30.555  25.797  25.542  1.00  0.00     0.185 C 
ATOM     14  O   UNL A   1      29.350  25.618  25.716  1.00  0.00    -0.289 OA
BRANCH  13  15
ATOM     15  C   UNL A   1      31.433  24.602  25.323  1.00  0.00     0.053 C 
ATOM     16  C   UNL A   1      31.535  23.472  26.042  1.00  0.00     0.012 C 
BRANCH  16  17
ATOM     17  C   UNL A   1      32.378  22.293  25.714  1.00  0.00    -0.018 A 
ATOM     18  C   UNL A   1      34.566  21.436  24.997  1.00  0.00     0.165 A 
ATOM     19  C   UNL A   1      33.732  22.494  25.390  1.00  0.00     0.058 A 
ATOM     20  C   UNL A   1      34.064  20.133  24.961  1.00  0.00     0.203 A 
ATOM     21  C   UNL A   1      32.729  19.912  25.328  1.00  0.00     0.165 A 
ATOM     22  O   UNL A   1      34.899  19.105  24.600  1.00  0.00    -0.483 OA
ATOM     23  C   UNL A   1      31.890  20.982  25.677  1.00  0.00     0.058 A 
ATOM     24  O   UNL A   1      32.152  18.664  25.364  1.00  0.00    -0.486 OA
ATOM     25  C   UNL A   1      34.171  17.925  24.251  1.00  0.00     0.271 C 
ATOM     26  C   UNL A   1      33.134  17.623  25.315  1.00  0.00     0.271 C 
BRANCH  18  27
ATOM     27  O   UNL A   1      35.869  21.779  24.734  1.00  0.00    -0.493 OA
ATOM     28  C   UNL A   1      36.566  22.307  25.860  1.00  0.00     0.278 C 
ENDBRANCH  18  27
ENDBRANCH  16  17
ENDBRANCH  13  15
ENDBRANCH   8  13
ENDBRANCH   6   7
ENDBRANCH   5   6
ENDBRANCH   3   5
ENDBRANCH   2   3
ENDBRANCH   1   2
BRANCH   1  29
ATOM     29  C   UNL A   1      34.026  34.692  29.453  1.00  0.00     0.202 C 
BRANCH  29  30
ATOM     30  O   UNL A   1      34.874  34.307  30.522  1.00  0.00    -0.374 OA
BRANCH  30  31
ATOM     31  C   UNL A   1      34.402  33.376  31.480  1.00  0.00     0.202 C 
BRANCH  31  32
ATOM     32  C   UNL A   1      35.140  32.053  31.694  1.00  0.00     0.261 C 
BRANCH  32  33
ATOM     33  O   UNL A   1      35.948  31.942  32.840  1.00  0.00    -0.460 OA
BRANCH  33  34
ATOM     34  C   UNL A   1      36.978  32.794  32.915  1.00  0.00     0.338 C 
ATOM     35  O   UNL A   1      37.059  33.867  33.472  1.00  0.00    -0.246 OA
BRANCH  34  36
ATOM     36  C   UNL A   1      37.997  32.136  32.109  1.00  0.00     0.060 A 
ATOM     37  C   UNL A   1      38.878  31.255  32.733  1.00  0.00     0.016 A 
ATOM     38  C   UNL A   1      37.973  32.320  30.723  1.00  0.00     0.016 A 
ATOM     39  C   UNL A   1      39.808  30.589  31.952  1.00  0.00     0.010 A 
ATOM     40  C   UNL A   1      38.891  31.637  29.943  1.00  0.00     0.010 A 
ATOM     41  C   UNL A   1      39.835  30.805  30.565  1.00  0.00    -0.014 A 
BRANCH  41  42
ATOM     42  C   UNL A   1      40.964  30.279  29.782  1.00  0.00     0.031 A 
ATOM     43  C   UNL A   1      42.101  31.204  29.472  1.00  0.00     0.074 A 
ATOM     44  C   UNL A   1      40.967  28.993  29.399  1.00  0.00     0.049 A 
ATOM     45  N   UNL A   1      43.208  30.964  28.824  1.00  0.00    -0.248 NA
ATOM     46  C   UNL A   1      41.972  32.591  29.954  1.00  0.00     0.031 C 
ATOM     47  C   UNL A   1      39.901  28.028  29.669  1.00  0.00     0.029 A 
ATOM     48  N   UNL A   1      41.903  28.278  28.704  1.00  0.00    -0.354 N 
ATOM     49  C   UNL A   1      43.905  32.165  28.820  1.00  0.00     0.074 A 
ATOM     50  C   UNL A   1      43.079  33.145  29.488  1.00  0.00     0.031 C 
ATOM     51  C   UNL A   1      40.250  26.839  29.150  1.00  0.00     0.029 A 
ATOM     52  C   UNL A   1      41.545  26.971  28.490  1.00  0.00     0.049 A 
ATOM     53  H   UNL A   1      42.752  28.665  28.386  1.00  0.00     0.167 HD
ATOM     54  C   UNL A   1      45.134  32.415  28.317  1.00  0.00     0.037 A 
ATOM     55  C   UNL A   1      42.199  26.002  27.824  1.00  0.00     0.037 A 
ATOM     56  C   UNL A   1      45.935  31.422  27.655  1.00  0.00     0.049 A 
ATOM     57  C   UNL A   1      43.544  26.321  27.232  1.00  0.00     0.074 A 
ATOM     58  C   UNL A   1      47.202  31.550  27.120  1.00  0.00     0.029 A 
ATOM     59  N   UNL A   1      45.533  30.112  27.434  1.00  0.00    -0.354 N 
ATOM     60  N   UNL A   1      44.217  27.447  27.267  1.00  0.00    -0.248 NA
ATOM     61  C   UNL A   1      44.223  25.236  26.514  1.00  0.00     0.031 C 
ATOM     62  C   UNL A   1      47.546  30.331  26.528  1.00  0.00     0.029 A 
ATOM     63  C   UNL A   1      46.518  29.426  26.746  1.00  0.00     0.049 A 
ATOM     64  H   UNL A   1      44.674  29.728  27.724  1.00  0.00     0.167 HD
ATOM     65  C   UNL A   1      45.410  27.200  26.601  1.00  0.00     0.074 A 
ATOM     66  C   UNL A   1      45.372  25.811  26.187  1.00  0.00     0.031 C 
ATOM     67  C   UNL A   1      46.445  28.041  26.352  1.00  0.00     0.037 A 
BRANCH  54  68
ATOM     68  C   UNL A   1      45.662  33.814  28.445  1.00  0.00     0.057 A 
ATOM     69  C   UNL A   1      46.480  34.205  29.515  1.00  0.00     0.134 A 
ATOM     70  C   UNL A   1      45.355  34.782  27.482  1.00  0.00     0.134 A 
ATOM     71  F   UNL A   1      46.795  33.334  30.484  1.00  0.00    -0.206 F 
ATOM     72  C   UNL A   1      46.951  35.514  29.633  1.00  0.00     0.040 A 
ATOM     73  C   UNL A   1      45.844  36.086  27.574  1.00  0.00     0.040 A 
ATOM     74  F   UNL A   1      44.575  34.477  26.433  1.00  0.00    -0.206 F 
ATOM     75  C   UNL A   1      46.641  36.457  28.656  1.00  0.00     0.006 A 
ENDBRANCH  54  68
BRANCH  55  76
ATOM     76  C   UNL A   1      41.592  24.654  27.691  1.00  0.00     0.057 A 
ATOM     77  C   UNL A   1      40.571  24.403  26.767  1.00  0.00     0.134 A 
ATOM     78  C   UNL A   1      42.019  23.582  28.484  1.00  0.00     0.134 A 
ATOM     79  F   UNL A   1      40.108  25.392  25.988  1.00  0.00    -0.206 F 
ATOM     80  C   UNL A   1      39.985  23.142  26.649  1.00  0.00     0.040 A 
ATOM     81  C   UNL A   1      41.461  22.309  28.359  1.00  0.00     0.040 A 
ATOM     82  F   UNL A   1      43.001  23.753  29.382  1.00  0.00    -0.206 F 
ATOM     83  C   UNL A   1      40.434  22.089  27.443  1.00  0.00     0.006 A 
ENDBRANCH  55  76
BRANCH  67  84
ATOM     84  C   UNL A   1      47.627  27.467  25.628  1.00  0.00     0.057 A 
ATOM     85  C   UNL A   1      48.696  26.874  26.311  1.00  0.00     0.134 A 
ATOM     86  C   UNL A   1      47.672  27.471  24.229  1.00  0.00     0.134 A 
ATOM     87  F   UNL A   1      48.716  26.849  27.653  1.00  0.00    -0.206 F 
ATOM     88  C   UNL A   1      49.781  26.326  25.627  1.00  0.00     0.040 A 
ATOM     89  C   UNL A   1      48.738  26.900  23.532  1.00  0.00     0.040 A 
ATOM     90  F   UNL A   1      46.674  28.014  23.514  1.00  0.00    -0.206 F 
ATOM     91  C   UNL A   1      49.799  26.331  24.233  1.00  0.00     0.006 A 
ENDBRANCH  67  84
ENDBRANCH  41  42
ENDBRANCH  34  36
ENDBRANCH  33  34
ENDBRANCH  32  33
ENDBRANCH  31  32
ENDBRANCH  30  31
ENDBRANCH  29  30
ENDBRANCH   1  29
TORSDOF 20
ENDMDL
MODEL 3
REMARK VINA RESULT:     -10.5      4.282     10.682
REMARK SMILES COc1cc(/C=C/C(=O)c2ccc(OCC(=O)OCCOCCOC(=O)c3ccc(-c4c5nc(c(-c6c(F)cccc6F)c6ccc([nH]6)c(-c6c(F)cccc6F)c6nc(c(-c7c(F)cccc7F)c7ccc4[nH]7)C=C6)C=C5)cc3)cc2)cc2c1OCCO2
REMARK SMILES IDX 19 1 18 2 16 3 17 4 15 5 14 6 13 7 10 8 11 9 82 10 12 11
REMARK SMILES IDX 81 12 8 13 9 14 7 15 6 16 5 17 3 18 4 19 85 20 84 21 86 22
REMARK SMILES IDX 83 23 89 24 87 25 88 26 2 27 1 28 20 29 21 30 22 31 23 32
REMARK SMILES IDX 24 33 25 34 26 35 27 36 28 37 80 38 29 39 79 40 30 41 31 42
REMARK SMILES IDX 32 43 73 44 33 45 78 46 72 47 74 48 34 49 77 50 71 51 70 52
REMARK SMILES IDX 35 54 61 55 44 56 60 57 45 58 48 59 59 60 75 61 46 62 47 63
REMARK SMILES IDX 58 65 76 66 49 67 36 68 37 69 42 70 38 71 39 72 41 73 43 74
REMARK SMILES IDX 40 75 62 76 63 77 68 78 64 79 65 80 67 81 69 82 66 83 50 84
REMARK SMILES IDX 51 85 56 86 52 87 53 88 55 89 57 90 54 91
REMARK H PARENT 74 53 48 64
REMARK Flexibility Score: inf
ROOT
ATOM      1  C   UNL A   1      32.968  35.699  30.168  1.00  0.00     0.261 C 
ENDROOT
BRANCH   1   2
ATOM      2  O   UNL A   1      33.979  35.161  29.284  1.00  0.00    -0.461 OA
BRANCH   2   3
ATOM      3  C   UNL A   1      33.547  34.233  28.385  1.00  0.00     0.344 C 
ATOM      4  O   UNL A   1      32.396  34.167  27.962  1.00  0.00    -0.248 OA
BRANCH   3   5
ATOM      5  C   UNL A   1      34.609  33.196  27.973  1.00  0.00     0.351 C 
BRANCH   5   6
ATOM      6  O   UNL A   1      34.566  31.833  28.347  1.00  0.00    -0.482 OA
BRANCH   6   7
ATOM      7  C   UNL A   1      33.787  30.940  27.666  1.00  0.00     0.120 A 
ATOM      8  C   UNL A   1      32.698  29.040  25.891  1.00  0.00     0.022 A 
ATOM      9  C   UNL A   1      33.835  28.731  26.647  1.00  0.00     0.016 A 
ATOM     10  C   UNL A   1      32.034  30.250  26.123  1.00  0.00     0.016 A 
ATOM     11  C   UNL A   1      34.373  29.676  27.527  1.00  0.00     0.047 A 
ATOM     12  C   UNL A   1      32.576  31.198  27.018  1.00  0.00     0.047 A 
BRANCH   8  13
ATOM     13  C   UNL A   1      32.239  28.031  24.905  1.00  0.00     0.185 C 
ATOM     14  O   UNL A   1      31.354  28.356  24.115  1.00  0.00    -0.289 OA
BRANCH  13  15
ATOM     15  C   UNL A   1      32.709  26.608  24.912  1.00  0.00     0.053 C 
ATOM     16  C   UNL A   1      33.419  25.936  23.992  1.00  0.00     0.012 C 
BRANCH  16  17
ATOM     17  C   UNL A   1      33.915  24.541  24.107  1.00  0.00    -0.018 A 
ATOM     18  C   UNL A   1      33.389  22.140  24.107  1.00  0.00     0.165 A 
ATOM     19  C   UNL A   1      33.006  23.480  23.936  1.00  0.00     0.058 A 
ATOM     20  C   UNL A   1      34.716  21.832  24.415  1.00  0.00     0.203 A 
ATOM     21  C   UNL A   1      35.642  22.877  24.541  1.00  0.00     0.165 A 
ATOM     22  O   UNL A   1      35.082  20.515  24.552  1.00  0.00    -0.483 OA
ATOM     23  C   UNL A   1      35.241  24.215  24.413  1.00  0.00     0.058 A 
ATOM     24  O   UNL A   1      36.978  22.675  24.803  1.00  0.00    -0.486 OA
ATOM     25  C   UNL A   1      36.337  20.378  25.221  1.00  0.00     0.271 C 
ATOM     26  C   UNL A   1      37.359  21.310  24.599  1.00  0.00     0.271 C 
BRANCH  18  27
ATOM     27  O   UNL A   1      32.403  21.212  23.884  1.00  0.00    -0.493 OA
ATOM     28  C   UNL A   1      32.074  21.038  22.507  1.00  0.00     0.278 C 
ENDBRANCH  18  27
ENDBRANCH  16  17
ENDBRANCH  13  15
ENDBRANCH   8  13
ENDBRANCH   6   7
ENDBRANCH   5   6
ENDBRANCH   3   5
ENDBRANCH   2   3
ENDBRANCH   1   2
BRANCH   1  29
ATOM     29  C   UNL A   1      33.433  36.798  31.136  1.00  0.00     0.202 C 
BRANCH  29  30
ATOM     30  O   UNL A   1      34.156  36.429  32.298  1.00  0.00    -0.374 OA
BRANCH  30  31
ATOM     31  C   UNL A   1      34.362  35.056  32.578  1.00  0.00     0.202 C 
BRANCH  31  32
ATOM     32  C   UNL A   1      35.778  34.519  32.795  1.00  0.00     0.261 C 
BRANCH  32  33
ATOM     33  O   UNL A   1      36.138  33.348  32.104  1.00  0.00    -0.460 OA
BRANCH  33  34
ATOM     34  C   UNL A   1      36.637  32.356  32.852  1.00  0.00     0.338 C 
ATOM     35  O   UNL A   1      36.252  31.916  33.914  1.00  0.00    -0.246 OA
BRANCH  34  36
ATOM     36  C   UNL A   1      37.811  31.943  32.096  1.00  0.00     0.060 A 
ATOM     37  C   UNL A   1      37.888  32.276  30.745  1.00  0.00     0.016 A 
ATOM     38  C   UNL A   1      38.867  31.336  32.783  1.00  0.00     0.016 A 
ATOM     39  C   UNL A   1      39.033  31.931  30.045  1.00  0.00     0.010 A 
ATOM     40  C   UNL A   1      40.018  31.009  32.084  1.00  0.00     0.010 A 
ATOM     41  C   UNL A   1      40.080  31.270  30.706  1.00  0.00    -0.014 A 
BRANCH  41  42
ATOM     42  C   UNL A   1      41.181  30.704  29.911  1.00  0.00     0.031 A 
ATOM     43  C   UNL A   1      42.359  31.581  29.611  1.00  0.00     0.074 A 
ATOM     44  C   UNL A   1      41.125  29.425  29.509  1.00  0.00     0.049 A 
ATOM     45  N   UNL A   1      43.451  31.301  28.955  1.00  0.00    -0.248 NA
ATOM     46  C   UNL A   1      42.294  32.966  30.114  1.00  0.00     0.031 C 
ATOM     47  C   UNL A   1      40.017  28.506  29.769  1.00  0.00     0.029 A 
ATOM     48  N   UNL A   1      42.025  28.679  28.800  1.00  0.00    -0.354 N 
ATOM     49  C   UNL A   1      44.202  32.469  28.967  1.00  0.00     0.074 A 
ATOM     50  C   UNL A   1      43.424  33.475  29.652  1.00  0.00     0.031 C 
ATOM     51  C   UNL A   1      40.310  27.310  29.231  1.00  0.00     0.029 A 
ATOM     52  C   UNL A   1      41.608  27.393  28.569  1.00  0.00     0.049 A 
ATOM     53  H   UNL A   1      42.890  29.032  28.485  1.00  0.00     0.167 HD
ATOM     54  C   UNL A   1      45.440  32.671  28.462  1.00  0.00     0.037 A 
ATOM     55  C   UNL A   1      42.214  26.406  27.885  1.00  0.00     0.037 A 
ATOM     56  C   UNL A   1      46.193  31.652  27.783  1.00  0.00     0.049 A 
ATOM     57  C   UNL A   1      43.570  26.672  27.293  1.00  0.00     0.074 A 
ATOM     58  C   UNL A   1      47.462  31.731  27.244  1.00  0.00     0.029 A 
ATOM     59  N   UNL A   1      45.731  30.365  27.544  1.00  0.00    -0.354 N 
ATOM     60  N   UNL A   1      44.295  27.766  27.342  1.00  0.00    -0.248 NA
ATOM     61  C   UNL A   1      44.198  25.568  26.556  1.00  0.00     0.031 C 
ATOM     62  C   UNL A   1      47.749  30.506  26.633  1.00  0.00     0.029 A 
ATOM     63  C   UNL A   1      46.681  29.645  26.842  1.00  0.00     0.049 A 
ATOM     64  H   UNL A   1      44.856  30.016  27.831  1.00  0.00     0.167 HD
ATOM     65  C   UNL A   1      45.473  27.475  26.668  1.00  0.00     0.074 A 
ATOM     66  C   UNL A   1      45.370  26.096  26.233  1.00  0.00     0.031 C 
ATOM     67  C   UNL A   1      46.544  28.272  26.427  1.00  0.00     0.037 A 
BRANCH  54  68
ATOM     68  C   UNL A   1      46.031  34.042  28.609  1.00  0.00     0.057 A 
ATOM     69  C   UNL A   1      45.869  35.030  27.626  1.00  0.00     0.134 A 
ATOM     70  C   UNL A   1      46.764  34.384  29.750  1.00  0.00     0.134 A 
ATOM     71  F   UNL A   1      45.196  34.762  26.497  1.00  0.00    -0.206 F 
ATOM     72  C   UNL A   1      46.438  36.297  27.765  1.00  0.00     0.040 A 
ATOM     73  C   UNL A   1      47.312  35.657  29.913  1.00  0.00     0.040 A 
ATOM     74  F   UNL A   1      46.960  33.487  30.729  1.00  0.00    -0.206 F 
ATOM     75  C   UNL A   1      47.155  36.617  28.915  1.00  0.00     0.006 A 
ENDBRANCH  54  68
BRANCH  55  76
ATOM     76  C   UNL A   1      41.546  25.089  27.735  1.00  0.00     0.057 A 
ATOM     77  C   UNL A   1      40.526  24.893  26.797  1.00  0.00     0.134 A 
ATOM     78  C   UNL A   1      41.913  23.992  28.524  1.00  0.00     0.134 A 
ATOM     79  F   UNL A   1      40.119  25.908  26.020  1.00  0.00    -0.206 F 
ATOM     80  C   UNL A   1      39.883  23.662  26.663  1.00  0.00     0.040 A 
ATOM     81  C   UNL A   1      41.297  22.748  28.383  1.00  0.00     0.040 A 
ATOM     82  F   UNL A   1      42.891  24.110  29.435  1.00  0.00    -0.206 F 
ATOM     83  C   UNL A   1      40.272  22.583  27.454  1.00  0.00     0.006 A 
ENDBRANCH  55  76
BRANCH  67  84
ATOM     84  C   UNL A   1      47.697  27.655  25.691  1.00  0.00     0.057 A 
ATOM     85  C   UNL A   1      48.765  27.049  26.363  1.00  0.00     0.134 A 
ATOM     86  C   UNL A   1      47.712  27.632  24.291  1.00  0.00     0.134 A 
ATOM     87  F   UNL A   1      48.812  27.049  27.704  1.00  0.00    -0.206 F 
ATOM     88  C   UNL A   1      49.822  26.462  25.667  1.00  0.00     0.040 A 
ATOM     89  C   UNL A   1      48.749  27.022  23.584  1.00  0.00     0.040 A 
ATOM     90  F   UNL A   1      46.713  28.185  23.587  1.00  0.00    -0.206 F 
ATOM     91  C   UNL A   1      49.811  26.441  24.274  1.00  0.00     0.006 A 
ENDBRANCH  67  84
ENDBRANCH  41  42
ENDBRANCH  34  36
ENDBRANCH  33  34
ENDBRANCH  32  33
ENDBRANCH  31  32
ENDBRANCH  30  31
ENDBRANCH  29  30
ENDBRANCH   1  29
TORSDOF 20
ENDMDL
