MODEL 1
REMARK VINA RESULT:     -11.0      0.000      0.000
REMARK SMILES CCOC(=O)C1=NN(c2ccc(C)cc2Cl)[C@@](C)(C(=O)OCCOCCOC(=O)c2ccc(-c3c4nc(c(-c5c(F)cccc5F)c5ccc([nH]5)c(-c5c(F)cccc5F)c5nc(c(-c6c(F)cccc6F)c6ccc3[nH]6)C=C5)C=C4)cc2)C1
REMARK SMILES IDX 23 1 22 2 21 3 19 4 20 5 17 6 6 7 7 8 84 9 8 10 18 11 4 12
REMARK SMILES IDX 5 13 3 14 2 15 1 16 9 17 10 18 15 19 11 20 14 21 16 22 12 23
REMARK SMILES IDX 13 24 24 25 25 26 26 27 27 28 28 29 29 30 30 31 31 32 83 33
REMARK SMILES IDX 32 34 82 35 33 36 34 37 35 38 76 39 36 40 81 41 75 42 77 43
REMARK SMILES IDX 37 44 80 45 74 46 73 47 38 49 64 50 47 51 63 52 48 53 51 54
REMARK SMILES IDX 62 55 78 56 49 57 50 58 61 60 79 61 52 62 39 63 40 64 45 65
REMARK SMILES IDX 41 66 42 67 44 68 46 69 43 70 65 71 66 72 71 73 67 74 68 75
REMARK SMILES IDX 70 76 72 77 69 78 53 79 54 80 59 81 55 82 56 83 58 84 60 85
REMARK SMILES IDX 57 86
REMARK H PARENT 77 48 51 59
REMARK Flexibility Score: inf
ROOT
ATOM      1  C   UNL A   1      31.791  28.934  26.266  1.00  0.00     0.202 C 
ENDROOT
BRANCH   1   2
ATOM      2  C   UNL A   1      31.519  27.746  27.199  1.00  0.00     0.261 C 
BRANCH   2   3
ATOM      3  O   UNL A   1      31.954  26.466  26.699  1.00  0.00    -0.461 OA
BRANCH   3   4
ATOM      4  C   UNL A   1      30.979  25.728  26.103  1.00  0.00     0.334 C 
ATOM      5  O   UNL A   1      29.942  25.388  26.675  1.00  0.00    -0.249 OA
BRANCH   4   6
ATOM      6  C   UNL A   1      31.261  25.285  24.656  1.00  0.00     0.163 C 
ATOM      7  C   UNL A   1      31.519  27.085  23.229  1.00  0.00     0.149 C 
ATOM      8  N   UNL A   1      32.728  26.670  23.414  1.00  0.00    -0.169 NA
ATOM      9  C   UNL A   1      30.433  26.218  23.737  1.00  0.00     0.108 C 
ATOM     10  N   UNL A   1      32.659  25.514  24.158  1.00  0.00    -0.246 N 
ATOM     11  C   UNL A   1      30.703  23.871  24.534  1.00  0.00     0.050 C 
BRANCH   7  12
ATOM     12  C   UNL A   1      31.184  28.369  22.533  1.00  0.00     0.354 C 
ATOM     13  O   UNL A   1      31.974  29.298  22.515  1.00  0.00    -0.245 OA
BRANCH  12  14
ATOM     14  O   UNL A   1      29.937  28.315  22.036  1.00  0.00    -0.461 OA
BRANCH  14  15
ATOM     15  C   UNL A   1      29.156  29.506  22.218  1.00  0.00     0.230 C 
ATOM     16  C   UNL A   1      27.845  29.174  22.907  1.00  0.00     0.049 C 
ENDBRANCH  14  15
ENDBRANCH  12  14
ENDBRANCH   7  12
BRANCH  10  17
ATOM     17  C   UNL A   1      33.821  24.734  24.244  1.00  0.00     0.079 A 
ATOM     18  C   UNL A   1      34.693  24.833  25.344  1.00  0.00     0.030 A 
ATOM     19  C   UNL A   1      34.181  23.724  23.307  1.00  0.00     0.066 A 
ATOM     20  C   UNL A   1      35.846  24.043  25.500  1.00  0.00     0.006 A 
ATOM     21  C   UNL A   1      35.346  22.940  23.454  1.00  0.00     0.026 A 
ATOM     22  Cl  UNL A   1      33.266  23.328  21.885  1.00  0.00    -0.082 Cl
ATOM     23  C   UNL A   1      36.186  23.090  24.552  1.00  0.00    -0.049 A 
ATOM     24  C   UNL A   1      37.427  22.263  24.687  1.00  0.00     0.044 C 
ENDBRANCH  10  17
ENDBRANCH   4   6
ENDBRANCH   3   4
ENDBRANCH   2   3
ENDBRANCH   1   2
BRANCH   1  25
ATOM     25  O   UNL A   1      31.705  30.243  26.817  1.00  0.00    -0.374 OA
BRANCH  25  26
ATOM     26  C   UNL A   1      31.328  31.308  25.944  1.00  0.00     0.202 C 
BRANCH  26  27
ATOM     27  C   UNL A   1      31.429  32.736  26.488  1.00  0.00     0.261 C 
BRANCH  27  28
ATOM     28  O   UNL A   1      32.015  32.774  27.804  1.00  0.00    -0.460 OA
BRANCH  28  29
ATOM     29  C   UNL A   1      32.996  33.693  27.946  1.00  0.00     0.338 C 
ATOM     30  O   UNL A   1      32.870  34.902  28.053  1.00  0.00    -0.246 OA
BRANCH  29  31
ATOM     31  C   UNL A   1      34.303  33.042  28.148  1.00  0.00     0.060 A 
ATOM     32  C   UNL A   1      34.293  31.658  28.368  1.00  0.00     0.016 A 
ATOM     33  C   UNL A   1      35.471  33.782  28.329  1.00  0.00     0.016 A 
ATOM     34  C   UNL A   1      35.429  31.026  28.863  1.00  0.00     0.010 A 
ATOM     35  C   UNL A   1      36.615  33.142  28.826  1.00  0.00     0.010 A 
ATOM     36  C   UNL A   1      36.578  31.775  29.157  1.00  0.00    -0.014 A 
BRANCH  36  37
ATOM     37  C   UNL A   1      37.635  31.140  29.990  1.00  0.00     0.031 A 
ATOM     38  C   UNL A   1      38.606  30.185  29.344  1.00  0.00     0.074 A 
ATOM     39  C   UNL A   1      37.801  31.487  31.278  1.00  0.00     0.049 A 
ATOM     40  N   UNL A   1      39.667  29.608  29.851  1.00  0.00    -0.248 NA
ATOM     41  C   UNL A   1      38.346  29.834  27.939  1.00  0.00     0.031 C 
ATOM     42  C   UNL A   1      36.949  32.416  32.017  1.00  0.00     0.029 A 
ATOM     43  N   UNL A   1      38.756  31.107  32.187  1.00  0.00    -0.354 N 
ATOM     44  C   UNL A   1      40.197  28.825  28.831  1.00  0.00     0.074 A 
ATOM     45  C   UNL A   1      39.319  28.971  27.689  1.00  0.00     0.031 C 
ATOM     46  C   UNL A   1      37.424  32.540  33.268  1.00  0.00     0.029 A 
ATOM     47  C   UNL A   1      38.604  31.689  33.420  1.00  0.00     0.049 A 
ATOM     48  H   UNL A   1      39.482  30.475  31.975  1.00  0.00     0.167 HD
ATOM     49  C   UNL A   1      41.319  28.066  28.836  1.00  0.00     0.037 A 
ATOM     50  C   UNL A   1      39.334  31.554  34.545  1.00  0.00     0.037 A 
ATOM     51  C   UNL A   1      42.202  27.926  29.964  1.00  0.00     0.049 A 
ATOM     52  C   UNL A   1      40.566  30.690  34.535  1.00  0.00     0.074 A 
ATOM     53  C   UNL A   1      43.380  27.204  30.055  1.00  0.00     0.029 A 
ATOM     54  N   UNL A   1      41.999  28.515  31.203  1.00  0.00    -0.354 N 
ATOM     55  N   UNL A   1      41.081  29.992  33.552  1.00  0.00    -0.248 NA
ATOM     56  C   UNL A   1      41.330  30.612  35.789  1.00  0.00     0.031 C 
ATOM     57  C   UNL A   1      43.865  27.318  31.364  1.00  0.00     0.029 A 
ATOM     58  C   UNL A   1      43.017  28.153  32.073  1.00  0.00     0.049 A 
ATOM     59  H   UNL A   1      41.243  29.102  31.432  1.00  0.00     0.167 HD
ATOM     60  C   UNL A   1      42.239  29.415  34.058  1.00  0.00     0.074 A 
ATOM     61  C   UNL A   1      42.358  29.857  35.433  1.00  0.00     0.031 C 
ATOM     62  C   UNL A   1      43.126  28.596  33.439  1.00  0.00     0.037 A 
BRANCH  49  63
ATOM     63  C   UNL A   1      41.638  27.304  27.581  1.00  0.00     0.057 A 
ATOM     64  C   UNL A   1      41.231  25.977  27.392  1.00  0.00     0.134 A 
ATOM     65  C   UNL A   1      42.357  27.912  26.543  1.00  0.00     0.134 A 
ATOM     66  F   UNL A   1      40.550  25.332  28.351  1.00  0.00    -0.206 F 
ATOM     67  C   UNL A   1      41.555  25.272  26.232  1.00  0.00     0.040 A 
ATOM     68  C   UNL A   1      42.664  27.226  25.368  1.00  0.00     0.040 A 
ATOM     69  F   UNL A   1      42.772  29.183  26.656  1.00  0.00    -0.206 F 
ATOM     70  C   UNL A   1      42.271  25.899  25.212  1.00  0.00     0.006 A 
ENDBRANCH  49  63
BRANCH  50  71
ATOM     71  C   UNL A   1      38.920  32.271  35.777  1.00  0.00     0.057 A 
ATOM     72  C   UNL A   1      38.147  31.647  36.761  1.00  0.00     0.134 A 
ATOM     73  C   UNL A   1      39.295  33.602  35.997  1.00  0.00     0.134 A 
ATOM     74  F   UNL A   1      37.740  30.380  36.597  1.00  0.00    -0.206 F 
ATOM     75  C   UNL A   1      37.751  32.323  37.917  1.00  0.00     0.040 A 
ATOM     76  C   UNL A   1      38.926  34.283  37.157  1.00  0.00     0.040 A 
ATOM     77  F   UNL A   1      40.037  34.255  35.090  1.00  0.00    -0.206 F 
ATOM     78  C   UNL A   1      38.147  33.644  38.119  1.00  0.00     0.006 A 
ENDBRANCH  50  71
BRANCH  62  79
ATOM     79  C   UNL A   1      44.320  28.150  34.235  1.00  0.00     0.057 A 
ATOM     80  C   UNL A   1      45.506  28.895  34.277  1.00  0.00     0.134 A 
ATOM     81  C   UNL A   1      44.275  26.967  34.983  1.00  0.00     0.134 A 
ATOM     82  F   UNL A   1      45.619  30.032  33.576  1.00  0.00    -0.206 F 
ATOM     83  C   UNL A   1      46.613  28.463  35.009  1.00  0.00     0.040 A 
ATOM     84  C   UNL A   1      45.366  26.538  35.741  1.00  0.00     0.040 A 
ATOM     85  F   UNL A   1      43.168  26.210  34.996  1.00  0.00    -0.206 F 
ATOM     86  C   UNL A   1      46.543  27.283  35.748  1.00  0.00     0.006 A 
ENDBRANCH  62  79
ENDBRANCH  36  37
ENDBRANCH  29  31
ENDBRANCH  28  29
ENDBRANCH  27  28
ENDBRANCH  26  27
ENDBRANCH  25  26
ENDBRANCH   1  25
TORSDOF 18
ENDMDL
MODEL 2
REMARK VINA RESULT:     -10.7      4.327      8.283
REMARK SMILES CCOC(=O)C1=NN(c2ccc(C)cc2Cl)[C@@](C)(C(=O)OCCOCCOC(=O)c2ccc(-c3c4nc(c(-c5c(F)cccc5F)c5ccc([nH]5)c(-c5c(F)cccc5F)c5nc(c(-c6c(F)cccc6F)c6ccc3[nH]6)C=C5)C=C4)cc2)C1
REMARK SMILES IDX 23 1 22 2 21 3 19 4 20 5 17 6 6 7 7 8 84 9 8 10 18 11 4 12
REMARK SMILES IDX 5 13 3 14 2 15 1 16 9 17 10 18 15 19 11 20 14 21 16 22 12 23
REMARK SMILES IDX 13 24 24 25 25 26 26 27 27 28 28 29 29 30 30 31 31 32 83 33
REMARK SMILES IDX 32 34 82 35 33 36 34 37 35 38 76 39 36 40 81 41 75 42 77 43
REMARK SMILES IDX 37 44 80 45 74 46 73 47 38 49 64 50 47 51 63 52 48 53 51 54
REMARK SMILES IDX 62 55 78 56 49 57 50 58 61 60 79 61 52 62 39 63 40 64 45 65
REMARK SMILES IDX 41 66 42 67 44 68 46 69 43 70 65 71 66 72 71 73 67 74 68 75
REMARK SMILES IDX 70 76 72 77 69 78 53 79 54 80 59 81 55 82 56 83 58 84 60 85
REMARK SMILES IDX 57 86
REMARK H PARENT 77 48 51 59
REMARK Flexibility Score: inf
ROOT
ATOM      1  C   UNL A   1      36.664  22.339  23.654  1.00  0.00     0.202 C 
ENDROOT
BRANCH   1   2
ATOM      2  C   UNL A   1      35.726  23.519  23.363  1.00  0.00     0.261 C 
BRANCH   2   3
ATOM      3  O   UNL A   1      34.506  23.173  22.677  1.00  0.00    -0.461 OA
BRANCH   3   4
ATOM      4  C   UNL A   1      33.592  24.178  22.602  1.00  0.00     0.334 C 
ATOM      5  O   UNL A   1      33.691  25.126  21.821  1.00  0.00    -0.249 OA
BRANCH   4   6
ATOM      6  C   UNL A   1      32.420  24.097  23.596  1.00  0.00     0.163 C 
ATOM      7  C   UNL A   1      32.697  22.392  25.132  1.00  0.00     0.149 C 
ATOM      8  N   UNL A   1      32.978  23.457  25.808  1.00  0.00    -0.169 NA
ATOM      9  C   UNL A   1      32.106  22.593  23.791  1.00  0.00     0.108 C 
ATOM     10  N   UNL A   1      32.717  24.539  25.000  1.00  0.00    -0.246 N 
ATOM     11  C   UNL A   1      31.232  24.750  22.898  1.00  0.00     0.050 C 
BRANCH   7  12
ATOM     12  C   UNL A   1      32.932  21.003  25.642  1.00  0.00     0.354 C 
ATOM     13  O   UNL A   1      33.945  20.725  26.261  1.00  0.00    -0.245 OA
BRANCH  12  14
ATOM     14  O   UNL A   1      31.928  20.194  25.265  1.00  0.00    -0.461 OA
BRANCH  14  15
ATOM     15  C   UNL A   1      32.331  18.890  24.819  1.00  0.00     0.230 C 
ATOM     16  C   UNL A   1      32.609  18.908  23.327  1.00  0.00     0.049 C 
ENDBRANCH  14  15
ENDBRANCH  12  14
ENDBRANCH   7  12
BRANCH  10  17
ATOM     17  C   UNL A   1      32.679  25.802  25.609  1.00  0.00     0.079 A 
ATOM     18  C   UNL A   1      33.823  26.618  25.681  1.00  0.00     0.030 A 
ATOM     19  C   UNL A   1      31.497  26.412  26.118  1.00  0.00     0.066 A 
ATOM     20  C   UNL A   1      33.828  27.908  26.241  1.00  0.00     0.006 A 
ATOM     21  C   UNL A   1      31.503  27.702  26.695  1.00  0.00     0.026 A 
ATOM     22  Cl  UNL A   1      29.926  25.676  26.110  1.00  0.00    -0.082 Cl
ATOM     23  C   UNL A   1      32.666  28.462  26.758  1.00  0.00    -0.049 A 
ATOM     24  C   UNL A   1      32.661  29.821  27.386  1.00  0.00     0.044 C 
ENDBRANCH  10  17
ENDBRANCH   4   6
ENDBRANCH   3   4
ENDBRANCH   2   3
ENDBRANCH   1   2
BRANCH   1  25
ATOM     25  O   UNL A   1      36.780  21.902  25.003  1.00  0.00    -0.374 OA
BRANCH  25  26
ATOM     26  C   UNL A   1      37.722  20.867  25.288  1.00  0.00     0.202 C 
BRANCH  26  27
ATOM     27  C   UNL A   1      39.121  21.292  25.740  1.00  0.00     0.261 C 
BRANCH  27  28
ATOM     28  O   UNL A   1      39.809  20.235  26.439  1.00  0.00    -0.460 OA
BRANCH  28  29
ATOM     29  C   UNL A   1      41.110  20.102  26.096  1.00  0.00     0.338 C 
ATOM     30  O   UNL A   1      41.596  19.282  25.334  1.00  0.00    -0.246 OA
BRANCH  29  31
ATOM     31  C   UNL A   1      41.911  21.221  26.623  1.00  0.00     0.060 A 
ATOM     32  C   UNL A   1      41.935  21.382  28.014  1.00  0.00     0.016 A 
ATOM     33  C   UNL A   1      42.445  22.200  25.784  1.00  0.00     0.016 A 
ATOM     34  C   UNL A   1      42.404  22.569  28.568  1.00  0.00     0.010 A 
ATOM     35  C   UNL A   1      42.920  23.394  26.345  1.00  0.00     0.010 A 
ATOM     36  C   UNL A   1      42.840  23.609  27.733  1.00  0.00    -0.014 A 
BRANCH  36  37
ATOM     37  C   UNL A   1      43.009  24.962  28.328  1.00  0.00     0.031 A 
ATOM     38  C   UNL A   1      44.394  25.445  28.677  1.00  0.00     0.074 A 
ATOM     39  C   UNL A   1      41.962  25.794  28.460  1.00  0.00     0.049 A 
ATOM     40  N   UNL A   1      44.783  26.623  29.097  1.00  0.00    -0.248 NA
ATOM     41  C   UNL A   1      45.486  24.471  28.529  1.00  0.00     0.031 C 
ATOM     42  C   UNL A   1      40.576  25.462  28.139  1.00  0.00     0.029 A 
ATOM     43  N   UNL A   1      41.909  27.098  28.885  1.00  0.00    -0.354 N 
ATOM     44  C   UNL A   1      46.160  26.529  29.268  1.00  0.00     0.074 A 
ATOM     45  C   UNL A   1      46.533  25.169  28.942  1.00  0.00     0.031 C 
ATOM     46  C   UNL A   1      39.806  26.539  28.374  1.00  0.00     0.029 A 
ATOM     47  C   UNL A   1      40.644  27.629  28.872  1.00  0.00     0.049 A 
ATOM     48  H   UNL A   1      42.703  27.604  29.173  1.00  0.00     0.167 HD
ATOM     49  C   UNL A   1      47.039  27.489  29.645  1.00  0.00     0.037 A 
ATOM     50  C   UNL A   1      40.208  28.856  29.221  1.00  0.00     0.037 A 
ATOM     51  C   UNL A   1      46.676  28.847  29.959  1.00  0.00     0.049 A 
ATOM     52  C   UNL A   1      41.198  29.902  29.656  1.00  0.00     0.074 A 
ATOM     53  C   UNL A   1      47.499  29.899  30.321  1.00  0.00     0.029 A 
ATOM     54  N   UNL A   1      45.379  29.338  29.955  1.00  0.00    -0.354 N 
ATOM     55  N   UNL A   1      42.501  29.814  29.770  1.00  0.00    -0.248 NA
ATOM     56  C   UNL A   1      40.656  31.227  29.994  1.00  0.00     0.031 C 
ATOM     57  C   UNL A   1      46.695  31.015  30.582  1.00  0.00     0.029 A 
ATOM     58  C   UNL A   1      45.376  30.672  30.332  1.00  0.00     0.049 A 
ATOM     59  H   UNL A   1      44.578  28.816  29.721  1.00  0.00     0.167 HD
ATOM     60  C   UNL A   1      42.937  31.073  30.165  1.00  0.00     0.074 A 
ATOM     61  C   UNL A   1      41.759  31.912  30.257  1.00  0.00     0.031 C 
ATOM     62  C   UNL A   1      44.199  31.498  30.423  1.00  0.00     0.037 A 
BRANCH  49  63
ATOM     63  C   UNL A   1      48.482  27.090  29.765  1.00  0.00     0.057 A 
ATOM     64  C   UNL A   1      49.006  26.540  30.942  1.00  0.00     0.134 A 
ATOM     65  C   UNL A   1      49.357  27.252  28.683  1.00  0.00     0.134 A 
ATOM     66  F   UNL A   1      48.226  26.369  32.020  1.00  0.00    -0.206 F 
ATOM     67  C   UNL A   1      50.355  26.197  31.050  1.00  0.00     0.040 A 
ATOM     68  C   UNL A   1      50.701  26.887  28.770  1.00  0.00     0.040 A 
ATOM     69  F   UNL A   1      48.919  27.767  27.524  1.00  0.00    -0.206 F 
ATOM     70  C   UNL A   1      51.207  26.366  29.958  1.00  0.00     0.006 A 
ENDBRANCH  49  63
BRANCH  50  71
ATOM     71  C   UNL A   1      38.758  29.164  29.157  1.00  0.00     0.057 A 
ATOM     72  C   UNL A   1      37.938  29.056  30.284  1.00  0.00     0.134 A 
ATOM     73  C   UNL A   1      38.160  29.578  27.960  1.00  0.00     0.134 A 
ATOM     74  F   UNL A   1      38.448  28.644  31.454  1.00  0.00    -0.206 F 
ATOM     75  C   UNL A   1      36.571  29.338  30.223  1.00  0.00     0.040 A 
ATOM     76  C   UNL A   1      36.801  29.885  27.889  1.00  0.00     0.040 A 
ATOM     77  F   UNL A   1      38.895  29.701  26.844  1.00  0.00    -0.206 F 
ATOM     78  C   UNL A   1      36.002  29.761  29.023  1.00  0.00     0.006 A 
ENDBRANCH  50  71
BRANCH  62  79
ATOM     79  C   UNL A   1      44.374  32.941  30.800  1.00  0.00     0.057 A 
ATOM     80  C   UNL A   1      44.552  33.945  29.840  1.00  0.00     0.134 A 
ATOM     81  C   UNL A   1      44.346  33.335  32.145  1.00  0.00     0.134 A 
ATOM     82  F   UNL A   1      44.600  33.636  28.535  1.00  0.00    -0.206 F 
ATOM     83  C   UNL A   1      44.728  35.281  30.204  1.00  0.00     0.040 A 
ATOM     84  C   UNL A   1      44.493  34.670  32.520  1.00  0.00     0.040 A 
ATOM     85  F   UNL A   1      44.169  32.427  33.117  1.00  0.00    -0.206 F 
ATOM     86  C   UNL A   1      44.694  35.648  31.548  1.00  0.00     0.006 A 
ENDBRANCH  62  79
ENDBRANCH  36  37
ENDBRANCH  29  31
ENDBRANCH  28  29
ENDBRANCH  27  28
ENDBRANCH  26  27
ENDBRANCH  25  26
ENDBRANCH   1  25
TORSDOF 18
ENDMDL
MODEL 3
REMARK VINA RESULT:     -10.5      4.294      8.938
REMARK SMILES CCOC(=O)C1=NN(c2ccc(C)cc2Cl)[C@@](C)(C(=O)OCCOCCOC(=O)c2ccc(-c3c4nc(c(-c5c(F)cccc5F)c5ccc([nH]5)c(-c5c(F)cccc5F)c5nc(c(-c6c(F)cccc6F)c6ccc3[nH]6)C=C5)C=C4)cc2)C1
REMARK SMILES IDX 23 1 22 2 21 3 19 4 20 5 17 6 6 7 7 8 84 9 8 10 18 11 4 12
REMARK SMILES IDX 5 13 3 14 2 15 1 16 9 17 10 18 15 19 11 20 14 21 16 22 12 23
REMARK SMILES IDX 13 24 24 25 25 26 26 27 27 28 28 29 29 30 30 31 31 32 83 33
REMARK SMILES IDX 32 34 82 35 33 36 34 37 35 38 76 39 36 40 81 41 75 42 77 43
REMARK SMILES IDX 37 44 80 45 74 46 73 47 38 49 64 50 47 51 63 52 48 53 51 54
REMARK SMILES IDX 62 55 78 56 49 57 50 58 61 60 79 61 52 62 39 63 40 64 45 65
REMARK SMILES IDX 41 66 42 67 44 68 46 69 43 70 65 71 66 72 71 73 67 74 68 75
REMARK SMILES IDX 70 76 72 77 69 78 53 79 54 80 59 81 55 82 56 83 58 84 60 85
REMARK SMILES IDX 57 86
REMARK H PARENT 77 48 51 59
REMARK Flexibility Score: inf
ROOT
ATOM      1  C   UNL A   1      35.487  22.598  25.589  1.00  0.00     0.202 C 
ENDROOT
BRANCH   1   2
ATOM      2  C   UNL A   1      34.811  23.463  26.662  1.00  0.00     0.261 C 
BRANCH   2   3
ATOM      3  O   UNL A   1      33.565  24.068  26.261  1.00  0.00    -0.461 OA
BRANCH   3   4
ATOM      4  C   UNL A   1      32.457  23.335  26.556  1.00  0.00     0.334 C 
ATOM      5  O   UNL A   1      32.137  23.024  27.705  1.00  0.00    -0.249 OA
BRANCH   4   6
ATOM      6  C   UNL A   1      31.623  22.862  25.352  1.00  0.00     0.163 C 
ATOM      7  C   UNL A   1      32.258  23.903  23.389  1.00  0.00     0.149 C 
ATOM      8  N   UNL A   1      32.772  22.722  23.284  1.00  0.00    -0.169 NA
ATOM      9  C   UNL A   1      31.311  24.120  24.505  1.00  0.00     0.108 C 
ATOM     10  N   UNL A   1      32.336  21.986  24.362  1.00  0.00    -0.246 N 
ATOM     11  C   UNL A   1      30.314  22.334  25.930  1.00  0.00     0.050 C 
BRANCH   7  12
ATOM     12  C   UNL A   1      32.568  25.025  22.446  1.00  0.00     0.354 C 
ATOM     13  O   UNL A   1      33.280  24.848  21.472  1.00  0.00    -0.245 OA
BRANCH  12  14
ATOM     14  O   UNL A   1      32.007  26.166  22.881  1.00  0.00    -0.461 OA
BRANCH  14  15
ATOM     15  C   UNL A   1      32.911  27.272  23.029  1.00  0.00     0.230 C 
ATOM     16  C   UNL A   1      33.640  27.181  24.357  1.00  0.00     0.049 C 
ENDBRANCH  14  15
ENDBRANCH  12  14
ENDBRANCH   7  12
BRANCH  10  17
ATOM     17  C   UNL A   1      32.535  20.598  24.316  1.00  0.00     0.079 A 
ATOM     18  C   UNL A   1      32.903  19.869  25.462  1.00  0.00     0.030 A 
ATOM     19  C   UNL A   1      32.301  19.792  23.166  1.00  0.00     0.066 A 
ATOM     20  C   UNL A   1      33.071  18.474  25.478  1.00  0.00     0.006 A 
ATOM     21  C   UNL A   1      32.484  18.391  23.176  1.00  0.00     0.026 A 
ATOM     22  Cl  UNL A   1      31.778  20.400  21.626  1.00  0.00    -0.082 Cl
ATOM     23  C   UNL A   1      32.867  17.721  24.332  1.00  0.00    -0.049 A 
ATOM     24  C   UNL A   1      33.073  16.237  24.326  1.00  0.00     0.044 C 
ENDBRANCH  10  17
ENDBRANCH   4   6
ENDBRANCH   3   4
ENDBRANCH   2   3
ENDBRANCH   1   2
BRANCH   1  25
ATOM     25  O   UNL A   1      36.095  21.381  26.004  1.00  0.00    -0.374 OA
BRANCH  25  26
ATOM     26  C   UNL A   1      36.394  20.410  25.000  1.00  0.00     0.202 C 
BRANCH  26  27
ATOM     27  C   UNL A   1      37.800  19.805  25.002  1.00  0.00     0.261 C 
BRANCH  27  28
ATOM     28  O   UNL A   1      38.824  20.812  25.113  1.00  0.00    -0.460 OA
BRANCH  28  29
ATOM     29  C   UNL A   1      39.695  20.605  26.126  1.00  0.00     0.338 C 
ATOM     30  O   UNL A   1      40.301  19.578  26.385  1.00  0.00    -0.246 OA
BRANCH  29  31
ATOM     31  C   UNL A   1      39.999  21.866  26.826  1.00  0.00     0.060 A 
ATOM     32  C   UNL A   1      39.290  23.003  26.418  1.00  0.00     0.016 A 
ATOM     33  C   UNL A   1      41.083  21.979  27.697  1.00  0.00     0.016 A 
ATOM     34  C   UNL A   1      39.724  24.268  26.804  1.00  0.00     0.010 A 
ATOM     35  C   UNL A   1      41.517  23.254  28.087  1.00  0.00     0.010 A 
ATOM     36  C   UNL A   1      40.879  24.405  27.588  1.00  0.00    -0.014 A 
BRANCH  36  37
ATOM     37  C   UNL A   1      41.498  25.753  27.695  1.00  0.00     0.031 A 
ATOM     38  C   UNL A   1      40.760  26.847  28.423  1.00  0.00     0.074 A 
ATOM     39  C   UNL A   1      42.745  25.978  27.245  1.00  0.00     0.049 A 
ATOM     40  N   UNL A   1      41.158  28.056  28.731  1.00  0.00    -0.248 NA
ATOM     41  C   UNL A   1      39.392  26.535  28.864  1.00  0.00     0.031 C 
ATOM     42  C   UNL A   1      43.578  25.002  26.545  1.00  0.00     0.029 A 
ATOM     43  N   UNL A   1      43.533  27.098  27.328  1.00  0.00    -0.354 N 
ATOM     44  C   UNL A   1      40.090  28.649  29.397  1.00  0.00     0.074 A 
ATOM     45  C   UNL A   1      39.015  27.680  29.413  1.00  0.00     0.031 C 
ATOM     46  C   UNL A   1      44.765  25.565  26.266  1.00  0.00     0.029 A 
ATOM     47  C   UNL A   1      44.771  26.943  26.756  1.00  0.00     0.049 A 
ATOM     48  H   UNL A   1      43.238  27.935  27.755  1.00  0.00     0.167 HD
ATOM     49  C   UNL A   1      40.013  29.880  29.958  1.00  0.00     0.037 A 
ATOM     50  C   UNL A   1      45.795  27.812  26.642  1.00  0.00     0.037 A 
ATOM     51  C   UNL A   1      41.083  30.844  29.955  1.00  0.00     0.049 A 
ATOM     52  C   UNL A   1      45.683  29.181  27.254  1.00  0.00     0.074 A 
ATOM     53  C   UNL A   1      41.110  32.105  30.525  1.00  0.00     0.029 A 
ATOM     54  N   UNL A   1      42.314  30.655  29.344  1.00  0.00    -0.354 N 
ATOM     55  N   UNL A   1      44.685  29.713  27.919  1.00  0.00    -0.248 NA
ATOM     56  C   UNL A   1      46.849  30.066  27.116  1.00  0.00     0.031 C 
ATOM     57  C   UNL A   1      42.341  32.698  30.217  1.00  0.00     0.029 A 
ATOM     58  C   UNL A   1      43.100  31.786  29.502  1.00  0.00     0.049 A 
ATOM     59  H   UNL A   1      42.588  29.838  28.868  1.00  0.00     0.167 HD
ATOM     60  C   UNL A   1      45.111  30.979  28.301  1.00  0.00     0.074 A 
ATOM     61  C   UNL A   1      46.464  31.131  27.804  1.00  0.00     0.031 C 
ATOM     62  C   UNL A   1      44.444  31.929  29.003  1.00  0.00     0.037 A 
BRANCH  49  63
ATOM     63  C   UNL A   1      38.710  30.262  30.600  1.00  0.00     0.057 A 
ATOM     64  C   UNL A   1      37.699  30.928  29.895  1.00  0.00     0.134 A 
ATOM     65  C   UNL A   1      38.461  29.950  31.943  1.00  0.00     0.134 A 
ATOM     66  F   UNL A   1      37.878  31.266  28.609  1.00  0.00    -0.206 F 
ATOM     67  C   UNL A   1      36.503  31.300  30.510  1.00  0.00     0.040 A 
ATOM     68  C   UNL A   1      37.258  30.293  32.562  1.00  0.00     0.040 A 
ATOM     69  F   UNL A   1      39.384  29.307  32.676  1.00  0.00    -0.206 F 
ATOM     70  C   UNL A   1      36.278  30.977  31.848  1.00  0.00     0.006 A 
ENDBRANCH  49  63
BRANCH  50  71
ATOM     71  C   UNL A   1      47.027  27.401  25.924  1.00  0.00     0.057 A 
ATOM     72  C   UNL A   1      48.122  26.857  26.603  1.00  0.00     0.134 A 
ATOM     73  C   UNL A   1      47.133  27.542  24.534  1.00  0.00     0.134 A 
ATOM     74  F   UNL A   1      48.088  26.717  27.936  1.00  0.00    -0.206 F 
ATOM     75  C   UNL A   1      49.285  26.478  25.929  1.00  0.00     0.040 A 
ATOM     76  C   UNL A   1      48.279  27.146  23.845  1.00  0.00     0.040 A 
ATOM     77  F   UNL A   1      46.116  28.056  23.826  1.00  0.00    -0.206 F 
ATOM     78  C   UNL A   1      49.362  26.616  24.544  1.00  0.00     0.006 A 
ENDBRANCH  50  71
BRANCH  62  79
ATOM     79  C   UNL A   1      45.178  33.205  29.302  1.00  0.00     0.057 A 
ATOM     80  C   UNL A   1      45.968  33.356  30.449  1.00  0.00     0.134 A 
ATOM     81  C   UNL A   1      45.108  34.291  28.420  1.00  0.00     0.134 A 
ATOM     82  F   UNL A   1      46.070  32.360  31.341  1.00  0.00    -0.206 F 
ATOM     83  C   UNL A   1      46.635  34.552  30.723  1.00  0.00     0.040 A 
ATOM     84  C   UNL A   1      45.791  35.481  28.669  1.00  0.00     0.040 A 
ATOM     85  F   UNL A   1      44.378  34.210  27.297  1.00  0.00    -0.206 F 
ATOM     86  C   UNL A   1      46.551  35.618  29.828  1.00  0.00     0.006 A 
ENDBRANCH  62  79
ENDBRANCH  36  37
ENDBRANCH  29  31
ENDBRANCH  28  29
ENDBRANCH  27  28
ENDBRANCH  26  27
ENDBRANCH  25  26
ENDBRANCH   1  25
TORSDOF 18
ENDMDL
