MODEL 1
REMARK VINA RESULT:     -10.3      0.000      0.000
REMARK SMILES CC[C@H](C)CN(CC)C(=O)Nc1ccc(C(=O)OCCOCCOC(=O)c2ccc(-c3c4nc(c(-c5c(F)cccc5F)c5ccc([nH]5)c(-c5c(F)cccc5F)c5nc(c(-c6c(F)cccc6F)c6ccc3[nH]6)C=C5)C=C4)cc2)cc1Cl
REMARK SMILES IDX 19 1 18 2 16 3 17 4 15 5 12 6 13 7 82 8 14 9 81 10 83 11
REMARK SMILES IDX 11 12 9 13 10 14 6 16 5 17 3 18 4 19 2 20 1 21 7 22 8 23
REMARK SMILES IDX 20 24 21 25 22 26 23 27 24 28 25 29 26 30 27 31 28 32 80 33
REMARK SMILES IDX 29 34 79 35 30 36 31 37 32 38 73 39 33 40 78 41 72 42 74 43
REMARK SMILES IDX 34 44 77 45 71 46 70 47 35 49 61 50 44 51 60 52 45 53 48 54
REMARK SMILES IDX 59 55 75 56 46 57 47 58 58 60 76 61 49 62 36 63 37 64 42 65
REMARK SMILES IDX 38 66 39 67 41 68 43 69 40 70 62 71 63 72 68 73 64 74 65 75
REMARK SMILES IDX 67 76 69 77 66 78 50 79 51 80 56 81 52 82 53 83 55 84 57 85
REMARK SMILES IDX 54 86
REMARK H PARENT 11 15 74 48 48 59
REMARK Flexibility Score: inf
ROOT
ATOM      1  C   UNL A   1      43.798  18.868  25.402  1.00  0.00     0.261 C 
ENDROOT
BRANCH   1   2
ATOM      2  O   UNL A   1      42.409  19.206  25.310  1.00  0.00    -0.460 OA
BRANCH   2   3
ATOM      3  C   UNL A   1      41.814  19.488  26.491  1.00  0.00     0.338 C 
ATOM      4  O   UNL A   1      42.249  19.243  27.605  1.00  0.00    -0.246 OA
BRANCH   3   5
ATOM      5  C   UNL A   1      40.533  20.205  26.270  1.00  0.00     0.061 A 
ATOM      6  C   UNL A   1      38.277  21.551  25.400  1.00  0.00     0.061 A 
ATOM      7  C   UNL A   1      38.371  20.175  25.184  1.00  0.00     0.028 A 
ATOM      8  C   UNL A   1      39.173  22.193  26.265  1.00  0.00     0.065 A 
ATOM      9  C   UNL A   1      39.517  19.508  25.604  1.00  0.00     0.018 A 
ATOM     10  C   UNL A   1      40.320  21.527  26.685  1.00  0.00     0.038 A 
ATOM     11  Cl  UNL A   1      38.867  23.788  26.856  1.00  0.00    -0.082 Cl
BRANCH   6  12
ATOM     12  N   UNL A   1      37.360  22.247  24.616  1.00  0.00    -0.306 N 
ATOM     13  C   UNL A   1      36.054  21.989  24.331  1.00  0.00     0.321 C 
ATOM     14  O   UNL A   1      35.592  22.621  23.373  1.00  0.00    -0.248 OA
ATOM     15  H   UNL A   1      37.717  23.064  24.198  1.00  0.00     0.171 HD
BRANCH  13  16
ATOM     16  N   UNL A   1      35.240  21.230  25.160  1.00  0.00    -0.325 N 
BRANCH  16  17
ATOM     17  C   UNL A   1      34.815  19.925  24.633  1.00  0.00     0.124 C 
BRANCH  17  18
ATOM     18  C   UNL A   1      33.274  19.731  24.694  1.00  0.00     0.005 C 
ATOM     19  C   UNL A   1      32.556  20.638  23.690  1.00  0.00     0.009 C 
BRANCH  18  20
ATOM     20  C   UNL A   1      32.938  18.243  24.470  1.00  0.00     0.002 C 
ATOM     21  C   UNL A   1      32.596  17.481  25.744  1.00  0.00     0.004 C 
ENDBRANCH  18  20
ENDBRANCH  17  18
ENDBRANCH  16  17
BRANCH  16  22
ATOM     22  C   UNL A   1      34.610  21.574  26.445  1.00  0.00     0.118 C 
ATOM     23  C   UNL A   1      34.791  23.043  26.815  1.00  0.00     0.027 C 
ENDBRANCH  16  22
ENDBRANCH  13  16
ENDBRANCH   6  12
ENDBRANCH   3   5
ENDBRANCH   2   3
ENDBRANCH   1   2
BRANCH   1  24
ATOM     24  C   UNL A   1      44.678  20.058  25.016  1.00  0.00     0.202 C 
BRANCH  24  25
ATOM     25  O   UNL A   1      44.160  20.985  24.063  1.00  0.00    -0.374 OA
BRANCH  25  26
ATOM     26  C   UNL A   1      44.495  22.364  24.203  1.00  0.00     0.202 C 
BRANCH  26  27
ATOM     27  C   UNL A   1      43.401  23.344  24.647  1.00  0.00     0.261 C 
BRANCH  27  28
ATOM     28  O   UNL A   1      43.867  24.695  24.794  1.00  0.00    -0.460 OA
BRANCH  28  29
ATOM     29  C   UNL A   1      44.665  24.895  25.872  1.00  0.00     0.338 C 
ATOM     30  O   UNL A   1      45.853  24.648  25.974  1.00  0.00    -0.246 OA
BRANCH  29  31
ATOM     31  C   UNL A   1      43.925  25.649  26.900  1.00  0.00     0.060 A 
ATOM     32  C   UNL A   1      44.247  27.001  27.076  1.00  0.00     0.016 A 
ATOM     33  C   UNL A   1      42.975  25.029  27.713  1.00  0.00     0.016 A 
ATOM     34  C   UNL A   1      43.630  27.737  28.083  1.00  0.00     0.010 A 
ATOM     35  C   UNL A   1      42.367  25.767  28.732  1.00  0.00     0.010 A 
ATOM     36  C   UNL A   1      42.703  27.118  28.932  1.00  0.00    -0.014 A 
BRANCH  36  37
ATOM     37  C   UNL A   1      42.139  27.859  30.084  1.00  0.00     0.031 A 
ATOM     38  C   UNL A   1      40.911  28.699  29.893  1.00  0.00     0.074 A 
ATOM     39  C   UNL A   1      42.729  27.782  31.289  1.00  0.00     0.049 A 
ATOM     40  N   UNL A   1      40.301  29.479  30.748  1.00  0.00    -0.248 NA
ATOM     41  C   UNL A   1      40.290  28.654  28.562  1.00  0.00     0.031 C 
ATOM     42  C   UNL A   1      43.896  26.963  31.606  1.00  0.00     0.029 A 
ATOM     43  N   UNL A   1      42.428  28.415  32.468  1.00  0.00    -0.354 N 
ATOM     44  C   UNL A   1      39.226  30.025  30.057  1.00  0.00     0.074 A 
ATOM     45  C   UNL A   1      39.287  29.508  28.706  1.00  0.00     0.031 C 
ATOM     46  C   UNL A   1      44.220  27.150  32.896  1.00  0.00     0.029 A 
ATOM     47  C   UNL A   1      43.309  28.132  33.481  1.00  0.00     0.049 A 
ATOM     48  H   UNL A   1      41.655  29.014  32.577  1.00  0.00     0.167 HD
ATOM     49  C   UNL A   1      38.276  30.876  30.511  1.00  0.00     0.037 A 
ATOM     50  C   UNL A   1      43.389  28.632  34.729  1.00  0.00     0.037 A 
ATOM     51  C   UNL A   1      38.231  31.397  31.853  1.00  0.00     0.049 A 
ATOM     52  C   UNL A   1      42.392  29.664  35.175  1.00  0.00     0.074 A 
ATOM     53  C   UNL A   1      37.289  32.235  32.424  1.00  0.00     0.029 A 
ATOM     54  N   UNL A   1      39.183  31.143  32.830  1.00  0.00    -0.354 N 
ATOM     55  N   UNL A   1      41.360  30.150  34.529  1.00  0.00    -0.248 NA
ATOM     56  C   UNL A   1      42.577  30.227  36.520  1.00  0.00     0.031 C 
ATOM     57  C   UNL A   1      37.705  32.538  33.725  1.00  0.00     0.029 A 
ATOM     58  C   UNL A   1      38.878  31.848  33.984  1.00  0.00     0.049 A 
ATOM     59  H   UNL A   1      39.961  30.551  32.720  1.00  0.00     0.167 HD
ATOM     60  C   UNL A   1      40.765  31.063  35.391  1.00  0.00     0.074 A 
ATOM     61  C   UNL A   1      41.543  31.051  36.612  1.00  0.00     0.031 C 
ATOM     62  C   UNL A   1      39.671  31.840  35.188  1.00  0.00     0.037 A 
BRANCH  49  63
ATOM     63  C   UNL A   1      37.231  31.324  29.530  1.00  0.00     0.057 A 
ATOM     64  C   UNL A   1      37.302  32.564  28.882  1.00  0.00     0.134 A 
ATOM     65  C   UNL A   1      36.139  30.501  29.230  1.00  0.00     0.134 A 
ATOM     66  F   UNL A   1      38.315  33.406  29.134  1.00  0.00    -0.206 F 
ATOM     67  C   UNL A   1      36.305  32.984  27.997  1.00  0.00     0.040 A 
ATOM     68  C   UNL A   1      35.151  30.897  28.327  1.00  0.00     0.040 A 
ATOM     69  F   UNL A   1      36.011  29.298  29.810  1.00  0.00    -0.206 F 
ATOM     70  C   UNL A   1      35.228  32.146  27.715  1.00  0.00     0.006 A 
ENDBRANCH  49  63
BRANCH  50  71
ATOM     71  C   UNL A   1      44.467  28.170  35.637  1.00  0.00     0.057 A 
ATOM     72  C   UNL A   1      45.686  28.851  35.712  1.00  0.00     0.134 A 
ATOM     73  C   UNL A   1      44.301  27.050  36.461  1.00  0.00     0.134 A 
ATOM     74  F   UNL A   1      45.912  29.917  34.930  1.00  0.00    -0.206 F 
ATOM     75  C   UNL A   1      46.703  28.436  36.572  1.00  0.00     0.040 A 
ATOM     76  C   UNL A   1      45.300  26.636  37.343  1.00  0.00     0.040 A 
ATOM     77  F   UNL A   1      43.154  26.355  36.435  1.00  0.00    -0.206 F 
ATOM     78  C   UNL A   1      46.507  27.330  37.397  1.00  0.00     0.006 A 
ENDBRANCH  50  71
BRANCH  62  79
ATOM     79  C   UNL A   1      39.251  32.742  36.313  1.00  0.00     0.057 A 
ATOM     80  C   UNL A   1      38.333  32.324  37.286  1.00  0.00     0.134 A 
ATOM     81  C   UNL A   1      39.804  34.020  36.452  1.00  0.00     0.134 A 
ATOM     82  F   UNL A   1      37.755  31.117  37.200  1.00  0.00    -0.206 F 
ATOM     83  C   UNL A   1      37.969  33.154  38.347  1.00  0.00     0.040 A 
ATOM     84  C   UNL A   1      39.468  34.849  37.525  1.00  0.00     0.040 A 
ATOM     85  F   UNL A   1      40.694  34.479  35.560  1.00  0.00    -0.206 F 
ATOM     86  C   UNL A   1      38.544  34.417  38.473  1.00  0.00     0.006 A 
ENDBRANCH  62  79
ENDBRANCH  36  37
ENDBRANCH  29  31
ENDBRANCH  28  29
ENDBRANCH  27  28
ENDBRANCH  26  27
ENDBRANCH  25  26
ENDBRANCH  24  25
ENDBRANCH   1  24
TORSDOF 20
ENDMDL
MODEL 2
REMARK VINA RESULT:     -10.1      1.904      3.122
REMARK SMILES CC[C@H](C)CN(CC)C(=O)Nc1ccc(C(=O)OCCOCCOC(=O)c2ccc(-c3c4nc(c(-c5c(F)cccc5F)c5ccc([nH]5)c(-c5c(F)cccc5F)c5nc(c(-c6c(F)cccc6F)c6ccc3[nH]6)C=C5)C=C4)cc2)cc1Cl
REMARK SMILES IDX 19 1 18 2 16 3 17 4 15 5 12 6 13 7 82 8 14 9 81 10 83 11
REMARK SMILES IDX 11 12 9 13 10 14 6 16 5 17 3 18 4 19 2 20 1 21 7 22 8 23
REMARK SMILES IDX 20 24 21 25 22 26 23 27 24 28 25 29 26 30 27 31 28 32 80 33
REMARK SMILES IDX 29 34 79 35 30 36 31 37 32 38 73 39 33 40 78 41 72 42 74 43
REMARK SMILES IDX 34 44 77 45 71 46 70 47 35 49 61 50 44 51 60 52 45 53 48 54
REMARK SMILES IDX 59 55 75 56 46 57 47 58 58 60 76 61 49 62 36 63 37 64 42 65
REMARK SMILES IDX 38 66 39 67 41 68 43 69 40 70 62 71 63 72 68 73 64 74 65 75
REMARK SMILES IDX 67 76 69 77 66 78 50 79 51 80 56 81 52 82 53 83 55 84 57 85
REMARK SMILES IDX 54 86
REMARK H PARENT 11 15 74 48 48 59
REMARK Flexibility Score: inf
ROOT
ATOM      1  C   UNL A   1      40.595  21.331  26.724  1.00  0.00     0.261 C 
ENDROOT
BRANCH   1   2
ATOM      2  O   UNL A   1      39.485  21.597  25.859  1.00  0.00    -0.460 OA
BRANCH   2   3
ATOM      3  C   UNL A   1      38.794  22.723  26.151  1.00  0.00     0.338 C 
ATOM      4  O   UNL A   1      39.240  23.746  26.647  1.00  0.00    -0.246 OA
BRANCH   3   5
ATOM      5  C   UNL A   1      37.375  22.585  25.738  1.00  0.00     0.061 A 
ATOM      6  C   UNL A   1      34.631  22.402  25.429  1.00  0.00     0.061 A 
ATOM      7  C   UNL A   1      35.215  23.662  25.569  1.00  0.00     0.028 A 
ATOM      8  C   UNL A   1      35.429  21.277  25.186  1.00  0.00     0.065 A 
ATOM      9  C   UNL A   1      36.592  23.747  25.746  1.00  0.00     0.018 A 
ATOM     10  C   UNL A   1      36.807  21.360  25.364  1.00  0.00     0.038 A 
ATOM     11  Cl  UNL A   1      34.744  19.791  24.632  1.00  0.00    -0.082 Cl
BRANCH   6  12
ATOM     12  N   UNL A   1      33.265  22.314  25.683  1.00  0.00    -0.306 N 
ATOM     13  C   UNL A   1      32.211  22.979  25.135  1.00  0.00     0.321 C 
ATOM     14  O   UNL A   1      31.153  22.900  25.771  1.00  0.00    -0.248 OA
ATOM     15  H   UNL A   1      33.020  21.659  26.376  1.00  0.00     0.171 HD
BRANCH  13  16
ATOM     16  N   UNL A   1      32.254  23.539  23.865  1.00  0.00    -0.325 N 
BRANCH  16  17
ATOM     17  C   UNL A   1      31.871  24.956  23.769  1.00  0.00     0.124 C 
BRANCH  17  18
ATOM     18  C   UNL A   1      33.093  25.910  23.865  1.00  0.00     0.005 C 
ATOM     19  C   UNL A   1      33.600  26.312  22.477  1.00  0.00     0.009 C 
BRANCH  18  20
ATOM     20  C   UNL A   1      32.716  27.137  24.719  1.00  0.00     0.002 C 
ATOM     21  C   UNL A   1      31.482  26.938  25.589  1.00  0.00     0.004 C 
ENDBRANCH  18  20
ENDBRANCH  17  18
ENDBRANCH  16  17
BRANCH  16  22
ATOM     22  C   UNL A   1      32.495  22.909  22.557  1.00  0.00     0.118 C 
ATOM     23  C   UNL A   1      32.072  21.444  22.524  1.00  0.00     0.027 C 
ENDBRANCH  16  22
ENDBRANCH  13  16
ENDBRANCH   6  12
ENDBRANCH   3   5
ENDBRANCH   2   3
ENDBRANCH   1   2
BRANCH   1  24
ATOM     24  C   UNL A   1      41.454  20.190  26.178  1.00  0.00     0.202 C 
BRANCH  24  25
ATOM     25  O   UNL A   1      42.649  20.534  25.479  1.00  0.00    -0.374 OA
BRANCH  25  26
ATOM     26  C   UNL A   1      43.294  21.764  25.800  1.00  0.00     0.202 C 
BRANCH  26  27
ATOM     27  C   UNL A   1      43.791  22.654  24.652  1.00  0.00     0.261 C 
BRANCH  27  28
ATOM     28  O   UNL A   1      43.255  23.987  24.688  1.00  0.00    -0.460 OA
BRANCH  28  29
ATOM     29  C   UNL A   1      44.091  24.909  25.228  1.00  0.00     0.338 C 
ATOM     30  O   UNL A   1      45.189  25.245  24.823  1.00  0.00    -0.246 OA
BRANCH  29  31
ATOM     31  C   UNL A   1      43.402  25.618  26.321  1.00  0.00     0.060 A 
ATOM     32  C   UNL A   1      43.614  26.998  26.439  1.00  0.00     0.016 A 
ATOM     33  C   UNL A   1      42.610  24.936  27.246  1.00  0.00     0.016 A 
ATOM     34  C   UNL A   1      43.045  27.701  27.498  1.00  0.00     0.010 A 
ATOM     35  C   UNL A   1      42.053  25.641  28.315  1.00  0.00     0.010 A 
ATOM     36  C   UNL A   1      42.281  27.022  28.455  1.00  0.00    -0.014 A 
BRANCH  36  37
ATOM     37  C   UNL A   1      41.781  27.738  29.652  1.00  0.00     0.031 A 
ATOM     38  C   UNL A   1      40.571  28.616  29.536  1.00  0.00     0.074 A 
ATOM     39  C   UNL A   1      42.413  27.604  30.830  1.00  0.00     0.049 A 
ATOM     40  N   UNL A   1      40.015  29.383  30.439  1.00  0.00    -0.248 NA
ATOM     41  C   UNL A   1      39.899  28.634  28.228  1.00  0.00     0.031 C 
ATOM     42  C   UNL A   1      43.568  26.744  31.075  1.00  0.00     0.029 A 
ATOM     43  N   UNL A   1      42.174  28.204  32.040  1.00  0.00    -0.354 N 
ATOM     44  C   UNL A   1      38.931  29.981  29.808  1.00  0.00     0.074 A 
ATOM     45  C   UNL A   1      38.927  29.508  28.439  1.00  0.00     0.031 C 
ATOM     46  C   UNL A   1      43.945  26.878  32.357  1.00  0.00     0.029 A 
ATOM     47  C   UNL A   1      43.084  27.864  33.009  1.00  0.00     0.049 A 
ATOM     48  H   UNL A   1      41.422  28.820  32.198  1.00  0.00     0.167 HD
ATOM     49  C   UNL A   1      38.022  30.841  30.326  1.00  0.00     0.037 A 
ATOM     50  C   UNL A   1      43.225  28.318  34.268  1.00  0.00     0.037 A 
ATOM     51  C   UNL A   1      38.042  31.316  31.685  1.00  0.00     0.049 A 
ATOM     52  C   UNL A   1      42.274  29.361  34.787  1.00  0.00     0.074 A 
ATOM     53  C   UNL A   1      37.146  32.160  32.319  1.00  0.00     0.029 A 
ATOM     54  N   UNL A   1      39.022  31.004  32.616  1.00  0.00    -0.354 N 
ATOM     55  N   UNL A   1      41.232  29.896  34.197  1.00  0.00    -0.248 NA
ATOM     56  C   UNL A   1      42.525  29.872  36.141  1.00  0.00     0.031 C 
ATOM     57  C   UNL A   1      37.618  32.407  33.613  1.00  0.00     0.029 A 
ATOM     58  C   UNL A   1      38.780  31.677  33.804  1.00  0.00     0.049 A 
ATOM     59  H   UNL A   1      39.779  30.396  32.457  1.00  0.00     0.167 HD
ATOM     60  C   UNL A   1      40.696  30.795  35.110  1.00  0.00     0.074 A 
ATOM     61  C   UNL A   1      41.519  30.720  36.300  1.00  0.00     0.031 C 
ATOM     62  C   UNL A   1      39.617  31.607  34.975  1.00  0.00     0.037 A 
BRANCH  49  63
ATOM     63  C   UNL A   1      36.955  31.350  29.401  1.00  0.00     0.057 A 
ATOM     64  C   UNL A   1      35.853  30.566  29.034  1.00  0.00     0.134 A 
ATOM     65  C   UNL A   1      37.031  32.644  28.871  1.00  0.00     0.134 A 
ATOM     66  F   UNL A   1      35.726  29.314  29.496  1.00  0.00    -0.206 F 
ATOM     67  C   UNL A   1      34.884  31.039  28.145  1.00  0.00     0.040 A 
ATOM     68  C   UNL A   1      36.055  33.137  28.004  1.00  0.00     0.040 A 
ATOM     69  F   UNL A   1      38.056  33.451  29.184  1.00  0.00    -0.206 F 
ATOM     70  C   UNL A   1      34.982  32.330  27.631  1.00  0.00     0.006 A 
ENDBRANCH  49  63
BRANCH  50  71
ATOM     71  C   UNL A   1      44.322  27.797  35.119  1.00  0.00     0.057 A 
ATOM     72  C   UNL A   1      45.578  28.413  35.131  1.00  0.00     0.134 A 
ATOM     73  C   UNL A   1      44.140  26.684  35.949  1.00  0.00     0.134 A 
ATOM     74  F   UNL A   1      45.819  29.469  34.340  1.00  0.00    -0.206 F 
ATOM     75  C   UNL A   1      46.615  27.942  35.937  1.00  0.00     0.040 A 
ATOM     76  C   UNL A   1      45.161  26.215  36.778  1.00  0.00     0.040 A 
ATOM     77  F   UNL A   1      42.959  26.050  35.982  1.00  0.00    -0.206 F 
ATOM     78  C   UNL A   1      46.404  26.844  36.770  1.00  0.00     0.006 A 
ENDBRANCH  50  71
BRANCH  62  79
ATOM     79  C   UNL A   1      39.265  32.481  36.145  1.00  0.00     0.057 A 
ATOM     80  C   UNL A   1      39.805  33.765  36.292  1.00  0.00     0.134 A 
ATOM     81  C   UNL A   1      38.341  32.054  37.106  1.00  0.00     0.134 A 
ATOM     82  F   UNL A   1      40.708  34.227  35.413  1.00  0.00    -0.206 F 
ATOM     83  C   UNL A   1      39.450  34.586  37.363  1.00  0.00     0.040 A 
ATOM     84  C   UNL A   1      37.958  32.877  38.168  1.00  0.00     0.040 A 
ATOM     85  F   UNL A   1      37.780  30.838  37.021  1.00  0.00    -0.206 F 
ATOM     86  C   UNL A   1      38.518  34.145  38.300  1.00  0.00     0.006 A 
ENDBRANCH  62  79
ENDBRANCH  36  37
ENDBRANCH  29  31
ENDBRANCH  28  29
ENDBRANCH  27  28
ENDBRANCH  26  27
ENDBRANCH  25  26
ENDBRANCH  24  25
ENDBRANCH   1  24
TORSDOF 20
ENDMDL
MODEL 3
REMARK VINA RESULT:     -10.1      4.640      9.683
REMARK SMILES CC[C@H](C)CN(CC)C(=O)Nc1ccc(C(=O)OCCOCCOC(=O)c2ccc(-c3c4nc(c(-c5c(F)cccc5F)c5ccc([nH]5)c(-c5c(F)cccc5F)c5nc(c(-c6c(F)cccc6F)c6ccc3[nH]6)C=C5)C=C4)cc2)cc1Cl
REMARK SMILES IDX 19 1 18 2 16 3 17 4 15 5 12 6 13 7 82 8 14 9 81 10 83 11
REMARK SMILES IDX 11 12 9 13 10 14 6 16 5 17 3 18 4 19 2 20 1 21 7 22 8 23
REMARK SMILES IDX 20 24 21 25 22 26 23 27 24 28 25 29 26 30 27 31 28 32 80 33
REMARK SMILES IDX 29 34 79 35 30 36 31 37 32 38 73 39 33 40 78 41 72 42 74 43
REMARK SMILES IDX 34 44 77 45 71 46 70 47 35 49 61 50 44 51 60 52 45 53 48 54
REMARK SMILES IDX 59 55 75 56 46 57 47 58 58 60 76 61 49 62 36 63 37 64 42 65
REMARK SMILES IDX 38 66 39 67 41 68 43 69 40 70 62 71 63 72 68 73 64 74 65 75
REMARK SMILES IDX 67 76 69 77 66 78 50 79 51 80 56 81 52 82 53 83 55 84 57 85
REMARK SMILES IDX 54 86
REMARK H PARENT 11 15 74 48 48 59
REMARK Flexibility Score: inf
ROOT
ATOM      1  C   UNL A   1      30.482  27.861  23.993  1.00  0.00     0.261 C 
ENDROOT
BRANCH   1   2
ATOM      2  O   UNL A   1      31.352  26.780  24.348  1.00  0.00    -0.460 OA
BRANCH   2   3
ATOM      3  C   UNL A   1      31.026  26.142  25.495  1.00  0.00     0.338 C 
ATOM      4  O   UNL A   1      30.722  26.660  26.558  1.00  0.00    -0.246 OA
BRANCH   3   5
ATOM      5  C   UNL A   1      31.033  24.672  25.293  1.00  0.00     0.061 A 
ATOM      6  C   UNL A   1      31.393  21.928  25.245  1.00  0.00     0.061 A 
ATOM      7  C   UNL A   1      30.684  22.501  26.303  1.00  0.00     0.028 A 
ATOM      8  C   UNL A   1      31.688  22.683  24.102  1.00  0.00     0.065 A 
ATOM      9  C   UNL A   1      30.525  23.882  26.333  1.00  0.00     0.018 A 
ATOM     10  C   UNL A   1      31.530  24.065  24.132  1.00  0.00     0.038 A 
ATOM     11  Cl  UNL A   1      32.210  21.930  22.637  1.00  0.00    -0.082 Cl
BRANCH   6  12
ATOM     12  N   UNL A   1      31.898  20.647  25.450  1.00  0.00    -0.306 N 
ATOM     13  C   UNL A   1      33.179  20.191  25.497  1.00  0.00     0.321 C 
ATOM     14  O   UNL A   1      33.303  18.964  25.398  1.00  0.00    -0.248 OA
ATOM     15  H   UNL A   1      31.211  19.954  25.585  1.00  0.00     0.171 HD
BRANCH  13  16
ATOM     16  N   UNL A   1      34.255  21.004  25.827  1.00  0.00    -0.325 N 
BRANCH  16  17
ATOM     17  C   UNL A   1      35.246  21.230  24.764  1.00  0.00     0.124 C 
BRANCH  17  18
ATOM     18  C   UNL A   1      36.656  21.565  25.327  1.00  0.00     0.005 C 
ATOM     19  C   UNL A   1      37.690  20.516  24.908  1.00  0.00     0.009 C 
BRANCH  18  20
ATOM     20  C   UNL A   1      37.059  22.984  24.880  1.00  0.00     0.002 C 
ATOM     21  C   UNL A   1      37.943  23.726  25.874  1.00  0.00     0.004 C 
ENDBRANCH  18  20
ENDBRANCH  17  18
ENDBRANCH  16  17
BRANCH  16  22
ATOM     22  C   UNL A   1      34.646  21.581  27.123  1.00  0.00     0.118 C 
ATOM     23  C   UNL A   1      34.114  22.997  27.320  1.00  0.00     0.027 C 
ENDBRANCH  16  22
ENDBRANCH  13  16
ENDBRANCH   6  12
ENDBRANCH   3   5
ENDBRANCH   2   3
ENDBRANCH   1   2
BRANCH   1  24
ATOM     24  C   UNL A   1      31.163  29.211  24.222  1.00  0.00     0.202 C 
BRANCH  24  25
ATOM     25  O   UNL A   1      32.574  29.286  24.020  1.00  0.00    -0.374 OA
BRANCH  25  26
ATOM     26  C   UNL A   1      33.436  28.889  25.083  1.00  0.00     0.202 C 
BRANCH  26  27
ATOM     27  C   UNL A   1      33.312  29.605  26.435  1.00  0.00     0.261 C 
BRANCH  27  28
ATOM     28  O   UNL A   1      34.314  29.211  27.385  1.00  0.00    -0.460 OA
BRANCH  28  29
ATOM     29  C   UNL A   1      34.825  30.235  28.114  1.00  0.00     0.338 C 
ATOM     30  O   UNL A   1      34.228  31.194  28.568  1.00  0.00    -0.246 OA
BRANCH  29  31
ATOM     31  C   UNL A   1      36.228  29.944  28.457  1.00  0.00     0.060 A 
ATOM     32  C   UNL A   1      37.189  30.081  27.447  1.00  0.00     0.016 A 
ATOM     33  C   UNL A   1      36.588  29.491  29.728  1.00  0.00     0.016 A 
ATOM     34  C   UNL A   1      38.517  29.748  27.700  1.00  0.00     0.010 A 
ATOM     35  C   UNL A   1      37.918  29.144  29.974  1.00  0.00     0.010 A 
ATOM     36  C   UNL A   1      38.884  29.254  28.958  1.00  0.00    -0.014 A 
BRANCH  36  37
ATOM     37  C   UNL A   1      40.266  28.777  29.195  1.00  0.00     0.031 A 
ATOM     38  C   UNL A   1      41.257  29.683  29.865  1.00  0.00     0.074 A 
ATOM     39  C   UNL A   1      40.629  27.543  28.806  1.00  0.00     0.049 A 
ATOM     40  N   UNL A   1      42.529  29.488  30.100  1.00  0.00    -0.248 NA
ATOM     41  C   UNL A   1      40.745  30.981  30.329  1.00  0.00     0.031 C 
ATOM     42  C   UNL A   1      39.744  26.558  28.190  1.00  0.00     0.029 A 
ATOM     43  N   UNL A   1      41.847  26.915  28.865  1.00  0.00    -0.354 N 
ATOM     44  C   UNL A   1      42.974  30.641  30.734  1.00  0.00     0.074 A 
ATOM     45  C   UNL A   1      41.841  31.540  30.820  1.00  0.00     0.031 C 
ATOM     46  C   UNL A   1      40.450  25.449  27.917  1.00  0.00     0.029 A 
ATOM     47  C   UNL A   1      41.844  25.664  28.301  1.00  0.00     0.049 A 
ATOM     48  H   UNL A   1      42.646  27.322  29.271  1.00  0.00     0.167 HD
ATOM     49  C   UNL A   1      44.213  30.922  31.205  1.00  0.00     0.037 A 
ATOM     50  C   UNL A   1      42.857  24.802  28.093  1.00  0.00     0.037 A 
ATOM     51  C   UNL A   1      45.337  30.027  31.104  1.00  0.00     0.049 A 
ATOM     52  C   UNL A   1      44.248  25.181  28.519  1.00  0.00     0.074 A 
ATOM     53  C   UNL A   1      46.625  30.201  31.582  1.00  0.00     0.029 A 
ATOM     54  N   UNL A   1      45.312  28.798  30.462  1.00  0.00    -0.354 N 
ATOM     55  N   UNL A   1      44.656  26.257  29.147  1.00  0.00    -0.248 NA
ATOM     56  C   UNL A   1      45.323  24.232  28.195  1.00  0.00     0.031 C 
ATOM     57  C   UNL A   1      47.394  29.104  31.174  1.00  0.00     0.029 A 
ATOM     58  C   UNL A   1      46.573  28.223  30.488  1.00  0.00     0.049 A 
ATOM     59  H   UNL A   1      44.517  28.393  30.047  1.00  0.00     0.167 HD
ATOM     60  C   UNL A   1      46.027  26.110  29.308  1.00  0.00     0.074 A 
ATOM     61  C   UNL A   1      46.380  24.832  28.724  1.00  0.00     0.031 C 
ATOM     62  C   UNL A   1      46.915  26.957  29.888  1.00  0.00     0.037 A 
BRANCH  49  63
ATOM     63  C   UNL A   1      44.418  32.268  31.837  1.00  0.00     0.057 A 
ATOM     64  C   UNL A   1      44.233  32.482  33.209  1.00  0.00     0.134 A 
ATOM     65  C   UNL A   1      44.808  33.366  31.059  1.00  0.00     0.134 A 
ATOM     66  F   UNL A   1      43.848  31.476  34.007  1.00  0.00    -0.206 F 
ATOM     67  C   UNL A   1      44.394  33.747  33.778  1.00  0.00     0.040 A 
ATOM     68  C   UNL A   1      44.999  34.629  31.621  1.00  0.00     0.040 A 
ATOM     69  F   UNL A   1      45.009  33.231  29.739  1.00  0.00    -0.206 F 
ATOM     70  C   UNL A   1      44.782  34.825  32.984  1.00  0.00     0.006 A 
ENDBRANCH  49  63
BRANCH  50  71
ATOM     71  C   UNL A   1      42.591  23.501  27.433  1.00  0.00     0.057 A 
ATOM     72  C   UNL A   1      42.752  23.347  26.052  1.00  0.00     0.134 A 
ATOM     73  C   UNL A   1      42.185  22.378  28.165  1.00  0.00     0.134 A 
ATOM     74  F   UNL A   1      43.116  24.393  25.296  1.00  0.00    -0.206 F 
ATOM     75  C   UNL A   1      42.518  22.126  25.420  1.00  0.00     0.040 A 
ATOM     76  C   UNL A   1      41.969  21.144  27.550  1.00  0.00     0.040 A 
ATOM     77  F   UNL A   1      42.014  22.461  29.492  1.00  0.00    -0.206 F 
ATOM     78  C   UNL A   1      42.134  21.016  26.173  1.00  0.00     0.006 A 
ENDBRANCH  50  71
BRANCH  62  79
ATOM     79  C   UNL A   1      48.353  26.529  29.920  1.00  0.00     0.057 A 
ATOM     80  C   UNL A   1      49.250  26.889  28.906  1.00  0.00     0.134 A 
ATOM     81  C   UNL A   1      48.858  25.791  30.998  1.00  0.00     0.134 A 
ATOM     82  F   UNL A   1      48.827  27.581  27.838  1.00  0.00    -0.206 F 
ATOM     83  C   UNL A   1      50.594  26.515  28.956  1.00  0.00     0.040 A 
ATOM     84  C   UNL A   1      50.206  25.435  31.072  1.00  0.00     0.040 A 
ATOM     85  F   UNL A   1      48.055  25.421  32.007  1.00  0.00    -0.206 F 
ATOM     86  C   UNL A   1      51.077  25.793  30.046  1.00  0.00     0.006 A 
ENDBRANCH  62  79
ENDBRANCH  36  37
ENDBRANCH  29  31
ENDBRANCH  28  29
ENDBRANCH  27  28
ENDBRANCH  26  27
ENDBRANCH  25  26
ENDBRANCH  24  25
ENDBRANCH   1  24
TORSDOF 20
ENDMDL
