MODEL 1
REMARK VINA RESULT:     -11.5      0.000      0.000
REMARK SMILES CC(=O)N1CC2(CC[NH+](C(=O)COCc3ccccc3)CC2)C[C@H]1C(=O)OCCOCCOC(=O)c1ccc(-c2c3nc(c(-c4c(F)cccc4F)c4ccc([nH]4)c(-c4c(F)cccc4F)c4nc(c(-c5c(F)cccc5F)c5ccc2[nH]5)C=C4)C=C3)cc1
REMARK SMILES IDX 28 1 27 2 25 3 26 4 24 5 4 6 5 7 6 8 23 9 7 10 22 11 8 12
REMARK SMILES IDX 21 13 9 14 2 16 1 17 3 18 10 19 11 20 12 21 13 22 14 23
REMARK SMILES IDX 15 24 16 25 20 26 17 27 19 28 18 29 29 30 30 31 31 32 32 33
REMARK SMILES IDX 33 34 34 35 35 36 36 37 37 38 89 39 38 40 88 41 39 42 40 43
REMARK SMILES IDX 41 44 82 45 42 46 87 47 81 48 83 49 43 50 86 51 80 52 79 53
REMARK SMILES IDX 44 55 70 56 53 57 69 58 54 59 57 60 68 61 84 62 55 63 56 64
REMARK SMILES IDX 67 66 85 67 58 68 45 69 46 70 51 71 47 72 48 73 50 74 52 75
REMARK SMILES IDX 49 76 71 77 72 78 77 79 73 80 74 81 76 82 78 83 75 84 59 85
REMARK SMILES IDX 60 86 65 87 61 88 62 89 64 90 66 91 63 92
REMARK H PARENT 9 15 83 54 57 65
REMARK Flexibility Score: inf
ROOT
ATOM      1  C   UNL A   1      34.325  31.302  27.692  1.00  0.00     0.261 C 
ENDROOT
BRANCH   1   2
ATOM      2  O   UNL A   1      33.052  30.741  27.331  1.00  0.00    -0.462 OA
BRANCH   2   3
ATOM      3  C   UNL A   1      33.108  29.720  26.431  1.00  0.00     0.328 C 
ATOM      4  O   UNL A   1      34.132  29.353  25.861  1.00  0.00    -0.250 OA
BRANCH   3   5
ATOM      5  C   UNL A   1      31.733  29.127  26.093  1.00  0.00     0.195 C 
ATOM      6  N   UNL A   1      31.402  28.749  24.722  1.00  0.00    -0.329 N 
ATOM      7  C   UNL A   1      31.847  27.405  24.431  1.00  0.00     0.128 C 
ATOM      8  C   UNL A   1      31.879  26.691  25.797  1.00  0.00     0.001 C 
ATOM      9  C   UNL A   1      31.583  27.804  26.839  1.00  0.00     0.046 C 
ATOM     10  C   UNL A   1      33.261  26.040  26.045  1.00  0.00     0.071 C 
ATOM     11  C   UNL A   1      30.764  25.619  25.873  1.00  0.00     0.071 C 
ATOM     12  C   UNL A   1      33.483  24.816  25.151  1.00  0.00     0.270 C 
ATOM     13  C   UNL A   1      31.062  24.412  24.988  1.00  0.00     0.270 C 
ATOM     14  N   UNL A   1      32.374  23.884  25.331  1.00  0.00    -0.270 N 
ATOM     15  H   UNL A   1      32.702  23.720  24.417  1.00  0.00     0.356 HD
BRANCH   6  16
ATOM     16  C   UNL A   1      30.622  29.550  23.918  1.00  0.00     0.220 C 
ATOM     17  C   UNL A   1      30.397  29.079  22.501  1.00  0.00     0.114 C 
ATOM     18  O   UNL A   1      30.084  30.574  24.333  1.00  0.00    -0.275 OA
ENDBRANCH   6  16
BRANCH  14  19
ATOM     19  C   UNL A   1      32.450  22.658  25.976  1.00  0.00     0.337 C 
ATOM     20  O   UNL A   1      31.662  22.337  26.868  1.00  0.00    -0.228 OA
BRANCH  19  21
ATOM     21  C   UNL A   1      33.572  21.697  25.565  1.00  0.00     0.305 C 
BRANCH  21  22
ATOM     22  O   UNL A   1      33.435  20.989  24.341  1.00  0.00    -0.363 OA
BRANCH  22  23
ATOM     23  C   UNL A   1      32.375  20.027  24.333  1.00  0.00     0.196 C 
BRANCH  23  24
ATOM     24  C   UNL A   1      32.817  18.584  24.426  1.00  0.00    -0.022 A 
ATOM     25  C   UNL A   1      33.417  17.912  23.352  1.00  0.00     0.006 A 
ATOM     26  C   UNL A   1      32.583  17.875  25.614  1.00  0.00     0.006 A 
ATOM     27  C   UNL A   1      33.839  16.588  23.486  1.00  0.00     0.000 A 
ATOM     28  C   UNL A   1      32.983  16.544  25.739  1.00  0.00     0.000 A 
ATOM     29  C   UNL A   1      33.624  15.906  24.680  1.00  0.00     0.000 A 
ENDBRANCH  23  24
ENDBRANCH  22  23
ENDBRANCH  21  22
ENDBRANCH  19  21
ENDBRANCH  14  19
ENDBRANCH   3   5
ENDBRANCH   2   3
ENDBRANCH   1   2
BRANCH   1  30
ATOM     30  C   UNL A   1      34.186  32.712  28.272  1.00  0.00     0.202 C 
BRANCH  30  31
ATOM     31  O   UNL A   1      33.921  32.812  29.668  1.00  0.00    -0.374 OA
BRANCH  31  32
ATOM     32  C   UNL A   1      34.609  33.825  30.405  1.00  0.00     0.202 C 
BRANCH  32  33
ATOM     33  C   UNL A   1      34.859  33.555  31.896  1.00  0.00     0.261 C 
BRANCH  33  34
ATOM     34  O   UNL A   1      35.095  32.164  32.191  1.00  0.00    -0.460 OA
BRANCH  34  35
ATOM     35  C   UNL A   1      36.224  31.926  32.904  1.00  0.00     0.338 C 
ATOM     36  O   UNL A   1      36.410  32.137  34.094  1.00  0.00    -0.246 OA
BRANCH  35  37
ATOM     37  C   UNL A   1      37.213  31.202  32.085  1.00  0.00     0.060 A 
ATOM     38  C   UNL A   1      38.293  30.608  32.752  1.00  0.00     0.016 A 
ATOM     39  C   UNL A   1      37.156  31.202  30.690  1.00  0.00     0.016 A 
ATOM     40  C   UNL A   1      39.346  30.058  32.026  1.00  0.00     0.010 A 
ATOM     41  C   UNL A   1      38.220  30.658  29.961  1.00  0.00     0.010 A 
ATOM     42  C   UNL A   1      39.338  30.120  30.626  1.00  0.00    -0.014 A 
BRANCH  42  43
ATOM     43  C   UNL A   1      40.565  29.760  29.876  1.00  0.00     0.031 A 
ATOM     44  C   UNL A   1      40.687  28.377  29.295  1.00  0.00     0.074 A 
ATOM     45  C   UNL A   1      41.543  30.661  29.681  1.00  0.00     0.049 A 
ATOM     46  N   UNL A   1      41.669  27.849  28.609  1.00  0.00    -0.248 NA
ATOM     47  C   UNL A   1      39.551  27.469  29.518  1.00  0.00     0.031 C 
ATOM     48  C   UNL A   1      41.529  32.039  30.169  1.00  0.00     0.029 A 
ATOM     49  N   UNL A   1      42.741  30.546  29.024  1.00  0.00    -0.354 N 
ATOM     50  C   UNL A   1      41.271  26.549  28.321  1.00  0.00     0.074 A 
ATOM     51  C   UNL A   1      39.974  26.358  28.933  1.00  0.00     0.031 C 
ATOM     52  C   UNL A   1      42.675  32.640  29.805  1.00  0.00     0.029 A 
ATOM     53  C   UNL A   1      43.509  31.682  29.079  1.00  0.00     0.049 A 
ATOM     54  H   UNL A   1      43.024  29.726  28.557  1.00  0.00     0.167 HD
ATOM     55  C   UNL A   1      41.922  25.603  27.603  1.00  0.00     0.037 A 
ATOM     56  C   UNL A   1      44.750  31.918  28.612  1.00  0.00     0.037 A 
ATOM     57  C   UNL A   1      43.211  25.792  26.992  1.00  0.00     0.049 A 
ATOM     58  C   UNL A   1      45.477  30.834  27.862  1.00  0.00     0.074 A 
ATOM     59  C   UNL A   1      43.942  24.903  26.223  1.00  0.00     0.029 A 
ATOM     60  N   UNL A   1      43.967  26.951  27.089  1.00  0.00    -0.354 N 
ATOM     61  N   UNL A   1      45.077  29.621  27.566  1.00  0.00    -0.248 NA
ATOM     62  C   UNL A   1      46.827  31.155  27.376  1.00  0.00     0.031 C 
ATOM     63  C   UNL A   1      45.159  25.508  25.891  1.00  0.00     0.029 A 
ATOM     64  C   UNL A   1      45.167  26.791  26.416  1.00  0.00     0.049 A 
ATOM     65  H   UNL A   1      43.691  27.767  27.565  1.00  0.00     0.167 HD
ATOM     66  C   UNL A   1      46.113  29.043  26.843  1.00  0.00     0.074 A 
ATOM     67  C   UNL A   1      47.155  30.042  26.733  1.00  0.00     0.031 C 
ATOM     68  C   UNL A   1      46.194  27.796  26.317  1.00  0.00     0.037 A 
BRANCH  55  69
ATOM     69  C   UNL A   1      41.254  24.267  27.461  1.00  0.00     0.057 A 
ATOM     70  C   UNL A   1      40.168  24.072  26.599  1.00  0.00     0.134 A 
ATOM     71  C   UNL A   1      41.716  23.159  28.181  1.00  0.00     0.134 A 
ATOM     72  F   UNL A   1      39.668  25.097  25.891  1.00  0.00    -0.206 F 
ATOM     73  C   UNL A   1      39.547  22.827  26.477  1.00  0.00     0.040 A 
ATOM     74  C   UNL A   1      41.119  21.904  28.051  1.00  0.00     0.040 A 
ATOM     75  F   UNL A   1      42.755  23.277  29.021  1.00  0.00    -0.206 F 
ATOM     76  C   UNL A   1      40.028  21.737  27.202  1.00  0.00     0.006 A 
ENDBRANCH  55  69
BRANCH  56  77
ATOM     77  C   UNL A   1      45.390  33.234  28.852  1.00  0.00     0.057 A 
ATOM     78  C   UNL A   1      45.210  34.304  27.970  1.00  0.00     0.134 A 
ATOM     79  C   UNL A   1      46.206  33.448  29.969  1.00  0.00     0.134 A 
ATOM     80  F   UNL A   1      44.457  34.153  26.870  1.00  0.00    -0.206 F 
ATOM     81  C   UNL A   1      45.826  35.539  28.184  1.00  0.00     0.040 A 
ATOM     82  C   UNL A   1      46.810  34.682  30.208  1.00  0.00     0.040 A 
ATOM     83  F   UNL A   1      46.416  32.460  30.852  1.00  0.00    -0.206 F 
ATOM     84  C   UNL A   1      46.625  35.731  29.310  1.00  0.00     0.006 A 
ENDBRANCH  56  77
BRANCH  68  85
ATOM     85  C   UNL A   1      47.440  27.451  25.556  1.00  0.00     0.057 A 
ATOM     86  C   UNL A   1      48.562  26.900  26.188  1.00  0.00     0.134 A 
ATOM     87  C   UNL A   1      47.504  27.635  24.169  1.00  0.00     0.134 A 
ATOM     88  F   UNL A   1      48.569  26.710  27.516  1.00  0.00    -0.206 F 
ATOM     89  C   UNL A   1      49.710  26.562  25.470  1.00  0.00     0.040 A 
ATOM     90  C   UNL A   1      48.638  27.280  23.437  1.00  0.00     0.040 A 
ATOM     91  F   UNL A   1      46.461  28.151  23.501  1.00  0.00    -0.206 F 
ATOM     92  C   UNL A   1      49.748  26.747  24.089  1.00  0.00     0.006 A 
ENDBRANCH  68  85
ENDBRANCH  42  43
ENDBRANCH  35  37
ENDBRANCH  34  35
ENDBRANCH  33  34
ENDBRANCH  32  33
ENDBRANCH  31  32
ENDBRANCH  30  31
ENDBRANCH   1  30
TORSDOF 20
ENDMDL
MODEL 2
REMARK VINA RESULT:     -11.4      1.088      2.172
REMARK SMILES CC(=O)N1CC2(CC[NH+](C(=O)COCc3ccccc3)CC2)C[C@H]1C(=O)OCCOCCOC(=O)c1ccc(-c2c3nc(c(-c4c(F)cccc4F)c4ccc([nH]4)c(-c4c(F)cccc4F)c4nc(c(-c5c(F)cccc5F)c5ccc2[nH]5)C=C4)C=C3)cc1
REMARK SMILES IDX 28 1 27 2 25 3 26 4 24 5 4 6 5 7 6 8 23 9 7 10 22 11 8 12
REMARK SMILES IDX 21 13 9 14 2 16 1 17 3 18 10 19 11 20 12 21 13 22 14 23
REMARK SMILES IDX 15 24 16 25 20 26 17 27 19 28 18 29 29 30 30 31 31 32 32 33
REMARK SMILES IDX 33 34 34 35 35 36 36 37 37 38 89 39 38 40 88 41 39 42 40 43
REMARK SMILES IDX 41 44 82 45 42 46 87 47 81 48 83 49 43 50 86 51 80 52 79 53
REMARK SMILES IDX 44 55 70 56 53 57 69 58 54 59 57 60 68 61 84 62 55 63 56 64
REMARK SMILES IDX 67 66 85 67 58 68 45 69 46 70 51 71 47 72 48 73 50 74 52 75
REMARK SMILES IDX 49 76 71 77 72 78 77 79 73 80 74 81 76 82 78 83 75 84 59 85
REMARK SMILES IDX 60 86 65 87 61 88 62 89 64 90 66 91 63 92
REMARK H PARENT 9 15 83 54 57 65
REMARK Flexibility Score: inf
ROOT
ATOM      1  C   UNL A   1      34.351  30.905  27.691  1.00  0.00     0.261 C 
ENDROOT
BRANCH   1   2
ATOM      2  O   UNL A   1      33.104  30.800  26.984  1.00  0.00    -0.462 OA
BRANCH   2   3
ATOM      3  C   UNL A   1      33.027  29.762  26.105  1.00  0.00     0.328 C 
ATOM      4  O   UNL A   1      33.977  29.330  25.458  1.00  0.00    -0.250 OA
BRANCH   3   5
ATOM      5  C   UNL A   1      31.599  29.240  25.899  1.00  0.00     0.195 C 
ATOM      6  N   UNL A   1      31.168  28.743  24.596  1.00  0.00    -0.329 N 
ATOM      7  C   UNL A   1      31.504  27.346  24.436  1.00  0.00     0.128 C 
ATOM      8  C   UNL A   1      31.560  26.782  25.870  1.00  0.00     0.001 C 
ATOM      9  C   UNL A   1      31.398  28.020  26.794  1.00  0.00     0.046 C 
ATOM     10  C   UNL A   1      32.906  26.061  26.124  1.00  0.00     0.071 C 
ATOM     11  C   UNL A   1      30.380  25.810  26.116  1.00  0.00     0.071 C 
ATOM     12  C   UNL A   1      32.994  24.735  25.362  1.00  0.00     0.270 C 
ATOM     13  C   UNL A   1      30.546  24.496  25.357  1.00  0.00     0.270 C 
ATOM     14  N   UNL A   1      31.835  23.913  25.696  1.00  0.00    -0.270 N 
ATOM     15  H   UNL A   1      32.101  23.627  24.792  1.00  0.00     0.356 HD
BRANCH   6  16
ATOM     16  C   UNL A   1      30.403  29.508  23.745  1.00  0.00     0.220 C 
ATOM     17  C   UNL A   1      30.076  28.909  22.398  1.00  0.00     0.114 C 
ATOM     18  O   UNL A   1      29.954  30.605  24.070  1.00  0.00    -0.275 OA
ENDBRANCH   6  16
BRANCH  14  19
ATOM     19  C   UNL A   1      31.862  22.761  26.469  1.00  0.00     0.337 C 
ATOM     20  O   UNL A   1      31.968  22.798  27.696  1.00  0.00    -0.228 OA
BRANCH  19  21
ATOM     21  C   UNL A   1      31.779  21.409  25.749  1.00  0.00     0.305 C 
BRANCH  21  22
ATOM     22  O   UNL A   1      32.427  21.277  24.493  1.00  0.00    -0.363 OA
BRANCH  22  23
ATOM     23  C   UNL A   1      33.756  20.751  24.566  1.00  0.00     0.196 C 
BRANCH  23  24
ATOM     24  C   UNL A   1      34.846  21.782  24.746  1.00  0.00    -0.022 A 
ATOM     25  C   UNL A   1      35.430  22.048  25.991  1.00  0.00     0.006 A 
ATOM     26  C   UNL A   1      35.264  22.532  23.636  1.00  0.00     0.006 A 
ATOM     27  C   UNL A   1      36.455  22.987  26.112  1.00  0.00     0.000 A 
ATOM     28  C   UNL A   1      36.273  23.489  23.762  1.00  0.00     0.000 A 
ATOM     29  C   UNL A   1      36.878  23.705  24.997  1.00  0.00     0.000 A 
ENDBRANCH  23  24
ENDBRANCH  22  23
ENDBRANCH  21  22
ENDBRANCH  19  21
ENDBRANCH  14  19
ENDBRANCH   3   5
ENDBRANCH   2   3
ENDBRANCH   1   2
BRANCH   1  30
ATOM     30  C   UNL A   1      34.640  32.343  28.131  1.00  0.00     0.202 C 
BRANCH  30  31
ATOM     31  O   UNL A   1      34.017  32.787  29.333  1.00  0.00    -0.374 OA
BRANCH  31  32
ATOM     32  C   UNL A   1      34.715  33.749  30.128  1.00  0.00     0.202 C 
BRANCH  32  33
ATOM     33  C   UNL A   1      34.934  33.404  31.607  1.00  0.00     0.261 C 
BRANCH  33  34
ATOM     34  O   UNL A   1      35.192  32.003  31.834  1.00  0.00    -0.460 OA
BRANCH  34  35
ATOM     35  C   UNL A   1      36.293  31.749  32.582  1.00  0.00     0.338 C 
ATOM     36  O   UNL A   1      36.441  31.947  33.780  1.00  0.00    -0.246 OA
BRANCH  35  37
ATOM     37  C   UNL A   1      37.305  31.026  31.790  1.00  0.00     0.060 A 
ATOM     38  C   UNL A   1      38.374  30.443  32.485  1.00  0.00     0.016 A 
ATOM     39  C   UNL A   1      37.278  31.014  30.394  1.00  0.00     0.016 A 
ATOM     40  C   UNL A   1      39.446  29.895  31.786  1.00  0.00     0.010 A 
ATOM     41  C   UNL A   1      38.360  30.472  29.693  1.00  0.00     0.010 A 
ATOM     42  C   UNL A   1      39.467  29.946  30.386  1.00  0.00    -0.014 A 
BRANCH  42  43
ATOM     43  C   UNL A   1      40.712  29.588  29.665  1.00  0.00     0.031 A 
ATOM     44  C   UNL A   1      40.875  28.188  29.137  1.00  0.00     0.074 A 
ATOM     45  C   UNL A   1      41.671  30.505  29.449  1.00  0.00     0.049 A 
ATOM     46  N   UNL A   1      41.878  27.659  28.484  1.00  0.00    -0.248 NA
ATOM     47  C   UNL A   1      39.758  27.262  29.380  1.00  0.00     0.031 C 
ATOM     48  C   UNL A   1      41.618  31.900  29.884  1.00  0.00     0.029 A 
ATOM     49  N   UNL A   1      42.880  30.394  28.811  1.00  0.00    -0.354 N 
ATOM     50  C   UNL A   1      41.515  26.340  28.240  1.00  0.00     0.074 A 
ATOM     51  C   UNL A   1      40.216  26.141  28.843  1.00  0.00     0.031 C 
ATOM     52  C   UNL A   1      42.754  32.514  29.512  1.00  0.00     0.029 A 
ATOM     53  C   UNL A   1      43.620  31.551  28.834  1.00  0.00     0.049 A 
ATOM     54  H   UNL A   1      43.189  29.565  28.379  1.00  0.00     0.167 HD
ATOM     55  C   UNL A   1      42.199  25.384  27.566  1.00  0.00     0.037 A 
ATOM     56  C   UNL A   1      44.861  31.799  28.373  1.00  0.00     0.037 A 
ATOM     57  C   UNL A   1      43.491  25.582  26.965  1.00  0.00     0.049 A 
ATOM     58  C   UNL A   1      45.624  30.706  27.673  1.00  0.00     0.074 A 
ATOM     59  C   UNL A   1      44.253  24.682  26.239  1.00  0.00     0.029 A 
ATOM     60  N   UNL A   1      44.217  26.761  27.028  1.00  0.00    -0.354 N 
ATOM     61  N   UNL A   1      45.257  29.474  27.418  1.00  0.00    -0.248 NA
ATOM     62  C   UNL A   1      46.972  31.041  27.192  1.00  0.00     0.031 C 
ATOM     63  C   UNL A   1      45.459  25.304  25.900  1.00  0.00     0.029 A 
ATOM     64  C   UNL A   1      45.429  26.605  26.376  1.00  0.00     0.049 A 
ATOM     65  H   UNL A   1      43.916  27.587  27.470  1.00  0.00     0.167 HD
ATOM     66  C   UNL A   1      46.316  28.894  26.730  1.00  0.00     0.074 A 
ATOM     67  C   UNL A   1      47.335  29.914  26.596  1.00  0.00     0.031 C 
ATOM     68  C   UNL A   1      46.434  27.631  26.252  1.00  0.00     0.037 A 
BRANCH  55  69
ATOM     69  C   UNL A   1      41.565  24.028  27.466  1.00  0.00     0.057 A 
ATOM     70  C   UNL A   1      40.530  23.761  26.560  1.00  0.00     0.134 A 
ATOM     71  C   UNL A   1      42.008  22.973  28.273  1.00  0.00     0.134 A 
ATOM     72  F   UNL A   1      40.051  24.733  25.769  1.00  0.00    -0.206 F 
ATOM     73  C   UNL A   1      39.941  22.498  26.478  1.00  0.00     0.040 A 
ATOM     74  C   UNL A   1      41.442  21.699  28.183  1.00  0.00     0.040 A 
ATOM     75  F   UNL A   1      42.997  23.160  29.159  1.00  0.00    -0.206 F 
ATOM     76  C   UNL A   1      40.402  21.461  27.289  1.00  0.00     0.006 A 
ENDBRANCH  55  69
BRANCH  56  77
ATOM     77  C   UNL A   1      45.467  33.138  28.572  1.00  0.00     0.057 A 
ATOM     78  C   UNL A   1      46.199  33.443  29.724  1.00  0.00     0.134 A 
ATOM     79  C   UNL A   1      45.319  34.148  27.613  1.00  0.00     0.134 A 
ATOM     80  F   UNL A   1      46.355  32.524  30.688  1.00  0.00    -0.206 F 
ATOM     81  C   UNL A   1      46.755  34.709  29.922  1.00  0.00     0.040 A 
ATOM     82  C   UNL A   1      45.888  35.409  27.787  1.00  0.00     0.040 A 
ATOM     83  F   UNL A   1      44.629  33.915  26.487  1.00  0.00    -0.206 F 
ATOM     84  C   UNL A   1      46.604  35.694  28.948  1.00  0.00     0.006 A 
ENDBRANCH  56  77
BRANCH  68  85
ATOM     85  C   UNL A   1      47.698  27.288  25.520  1.00  0.00     0.057 A 
ATOM     86  C   UNL A   1      47.814  27.447  24.134  1.00  0.00     0.134 A 
ATOM     87  C   UNL A   1      48.825  26.832  26.216  1.00  0.00     0.134 A 
ATOM     88  F   UNL A   1      46.767  27.869  23.408  1.00  0.00    -0.206 F 
ATOM     89  C   UNL A   1      49.000  27.147  23.463  1.00  0.00     0.040 A 
ATOM     90  C   UNL A   1      50.023  26.550  25.559  1.00  0.00     0.040 A 
ATOM     91  F   UNL A   1      48.783  26.666  27.547  1.00  0.00    -0.206 F 
ATOM     92  C   UNL A   1      50.112  26.702  24.177  1.00  0.00     0.006 A 
ENDBRANCH  68  85
ENDBRANCH  42  43
ENDBRANCH  35  37
ENDBRANCH  34  35
ENDBRANCH  33  34
ENDBRANCH  32  33
ENDBRANCH  31  32
ENDBRANCH  30  31
ENDBRANCH   1  30
TORSDOF 20
ENDMDL
MODEL 3
REMARK VINA RESULT:     -11.0      1.672      6.412
REMARK SMILES CC(=O)N1CC2(CC[NH+](C(=O)COCc3ccccc3)CC2)C[C@H]1C(=O)OCCOCCOC(=O)c1ccc(-c2c3nc(c(-c4c(F)cccc4F)c4ccc([nH]4)c(-c4c(F)cccc4F)c4nc(c(-c5c(F)cccc5F)c5ccc2[nH]5)C=C4)C=C3)cc1
REMARK SMILES IDX 28 1 27 2 25 3 26 4 24 5 4 6 5 7 6 8 23 9 7 10 22 11 8 12
REMARK SMILES IDX 21 13 9 14 2 16 1 17 3 18 10 19 11 20 12 21 13 22 14 23
REMARK SMILES IDX 15 24 16 25 20 26 17 27 19 28 18 29 29 30 30 31 31 32 32 33
REMARK SMILES IDX 33 34 34 35 35 36 36 37 37 38 89 39 38 40 88 41 39 42 40 43
REMARK SMILES IDX 41 44 82 45 42 46 87 47 81 48 83 49 43 50 86 51 80 52 79 53
REMARK SMILES IDX 44 55 70 56 53 57 69 58 54 59 57 60 68 61 84 62 55 63 56 64
REMARK SMILES IDX 67 66 85 67 58 68 45 69 46 70 51 71 47 72 48 73 50 74 52 75
REMARK SMILES IDX 49 76 71 77 72 78 77 79 73 80 74 81 76 82 78 83 75 84 59 85
REMARK SMILES IDX 60 86 65 87 61 88 62 89 64 90 66 91 63 92
REMARK H PARENT 9 15 83 54 57 65
REMARK Flexibility Score: inf
ROOT
ATOM      1  C   UNL A   1      34.117  29.647  26.818  1.00  0.00     0.261 C 
ENDROOT
BRANCH   1   2
ATOM      2  O   UNL A   1      32.903  30.025  26.147  1.00  0.00    -0.462 OA
BRANCH   2   3
ATOM      3  C   UNL A   1      32.683  29.393  24.961  1.00  0.00     0.328 C 
ATOM      4  O   UNL A   1      33.453  29.425  24.005  1.00  0.00    -0.250 OA
BRANCH   3   5
ATOM      5  C   UNL A   1      31.306  28.719  24.873  1.00  0.00     0.195 C 
ATOM      6  N   UNL A   1      30.877  28.060  23.643  1.00  0.00    -0.329 N 
ATOM      7  C   UNL A   1      31.344  26.693  23.597  1.00  0.00     0.128 C 
ATOM      8  C   UNL A   1      31.513  26.278  25.072  1.00  0.00     0.001 C 
ATOM      9  C   UNL A   1      31.265  27.577  25.885  1.00  0.00     0.046 C 
ATOM     10  C   UNL A   1      32.933  25.717  25.325  1.00  0.00     0.071 C 
ATOM     11  C   UNL A   1      30.446  25.225  25.463  1.00  0.00     0.071 C 
ATOM     12  C   UNL A   1      33.123  24.338  24.685  1.00  0.00     0.270 C 
ATOM     13  C   UNL A   1      30.713  23.866  24.822  1.00  0.00     0.270 C 
ATOM     14  N   UNL A   1      32.066  23.444  25.149  1.00  0.00    -0.270 N 
ATOM     15  H   UNL A   1      32.324  23.100  24.264  1.00  0.00     0.356 HD
BRANCH   6  16
ATOM     16  C   UNL A   1      30.006  28.662  22.764  1.00  0.00     0.220 C 
ATOM     17  C   UNL A   1      28.534  28.417  22.987  1.00  0.00     0.114 C 
ATOM     18  O   UNL A   1      30.389  29.411  21.867  1.00  0.00    -0.275 OA
ENDBRANCH   6  16
BRANCH  14  19
ATOM     19  C   UNL A   1      32.238  22.380  26.023  1.00  0.00     0.337 C 
ATOM     20  O   UNL A   1      32.410  22.546  27.232  1.00  0.00    -0.228 OA
BRANCH  19  21
ATOM     21  C   UNL A   1      32.235  20.962  25.439  1.00  0.00     0.305 C 
BRANCH  21  22
ATOM     22  O   UNL A   1      33.122  20.675  24.368  1.00  0.00    -0.363 OA
BRANCH  22  23
ATOM     23  C   UNL A   1      34.456  20.357  24.776  1.00  0.00     0.196 C 
BRANCH  23  24
ATOM     24  C   UNL A   1      35.413  21.527  24.816  1.00  0.00    -0.022 A 
ATOM     25  C   UNL A   1      35.859  22.171  23.655  1.00  0.00     0.006 A 
ATOM     26  C   UNL A   1      35.907  21.960  26.056  1.00  0.00     0.006 A 
ATOM     27  C   UNL A   1      36.719  23.267  23.734  1.00  0.00     0.000 A 
ATOM     28  C   UNL A   1      36.787  23.042  26.132  1.00  0.00     0.000 A 
ATOM     29  C   UNL A   1      37.180  23.703  24.972  1.00  0.00     0.000 A 
ENDBRANCH  23  24
ENDBRANCH  22  23
ENDBRANCH  21  22
ENDBRANCH  19  21
ENDBRANCH  14  19
ENDBRANCH   3   5
ENDBRANCH   2   3
ENDBRANCH   1   2
BRANCH   1  30
ATOM     30  C   UNL A   1      34.708  30.805  27.626  1.00  0.00     0.202 C 
BRANCH  30  31
ATOM     31  O   UNL A   1      33.839  31.893  27.926  1.00  0.00    -0.374 OA
BRANCH  31  32
ATOM     32  C   UNL A   1      34.431  33.119  28.361  1.00  0.00     0.202 C 
BRANCH  32  33
ATOM     33  C   UNL A   1      34.813  33.222  29.844  1.00  0.00     0.261 C 
BRANCH  33  34
ATOM     34  O   UNL A   1      36.191  32.884  30.102  1.00  0.00    -0.460 OA
BRANCH  34  35
ATOM     35  C   UNL A   1      36.363  31.810  30.911  1.00  0.00     0.338 C 
ATOM     36  O   UNL A   1      35.667  31.473  31.859  1.00  0.00    -0.246 OA
BRANCH  35  37
ATOM     37  C   UNL A   1      37.452  30.951  30.411  1.00  0.00     0.060 A 
ATOM     38  C   UNL A   1      38.245  30.294  31.363  1.00  0.00     0.016 A 
ATOM     39  C   UNL A   1      37.770  30.879  29.054  1.00  0.00     0.016 A 
ATOM     40  C   UNL A   1      39.389  29.607  30.964  1.00  0.00     0.010 A 
ATOM     41  C   UNL A   1      38.925  30.197  28.656  1.00  0.00     0.010 A 
ATOM     42  C   UNL A   1      39.761  29.592  29.614  1.00  0.00    -0.014 A 
BRANCH  42  43
ATOM     43  C   UNL A   1      41.098  29.075  29.235  1.00  0.00     0.031 A 
ATOM     44  C   UNL A   1      42.280  30.005  29.277  1.00  0.00     0.074 A 
ATOM     45  C   UNL A   1      41.267  27.786  28.893  1.00  0.00     0.049 A 
ATOM     46  N   UNL A   1      43.534  29.768  28.985  1.00  0.00    -0.248 NA
ATOM     47  C   UNL A   1      42.012  31.387  29.705  1.00  0.00     0.031 C 
ATOM     48  C   UNL A   1      40.207  26.781  28.843  1.00  0.00     0.029 A 
ATOM     49  N   UNL A   1      42.397  27.106  28.519  1.00  0.00    -0.354 N 
ATOM     50  C   UNL A   1      44.202  30.969  29.191  1.00  0.00     0.074 A 
ATOM     51  C   UNL A   1      43.212  31.939  29.601  1.00  0.00     0.031 C 
ATOM     52  C   UNL A   1      40.736  25.612  28.444  1.00  0.00     0.029 A 
ATOM     53  C   UNL A   1      42.165  25.793  28.192  1.00  0.00     0.049 A 
ATOM     54  H   UNL A   1      43.290  27.519  28.487  1.00  0.00     0.167 HD
ATOM     55  C   UNL A   1      45.524  31.236  29.060  1.00  0.00     0.037 A 
ATOM     56  C   UNL A   1      43.006  24.850  27.727  1.00  0.00     0.037 A 
ATOM     57  C   UNL A   1      46.510  30.270  28.654  1.00  0.00     0.049 A 
ATOM     58  C   UNL A   1      44.462  25.183  27.539  1.00  0.00     0.074 A 
ATOM     59  C   UNL A   1      47.878  30.437  28.517  1.00  0.00     0.029 A 
ATOM     60  N   UNL A   1      46.232  28.956  28.311  1.00  0.00    -0.354 N 
ATOM     61  N   UNL A   1      45.089  26.311  27.770  1.00  0.00    -0.248 NA
ATOM     62  C   UNL A   1      45.328  24.110  27.030  1.00  0.00     0.031 C 
ATOM     63  C   UNL A   1      48.421  29.236  28.048  1.00  0.00     0.029 A 
ATOM     64  C   UNL A   1      47.398  28.307  27.937  1.00  0.00     0.049 A 
ATOM     65  H   UNL A   1      45.338  28.544  28.330  1.00  0.00     0.167 HD
ATOM     66  C   UNL A   1      46.422  26.079  27.456  1.00  0.00     0.074 A 
ATOM     67  C   UNL A   1      46.517  24.698  27.031  1.00  0.00     0.031 C 
ATOM     68  C   UNL A   1      47.475  26.932  27.516  1.00  0.00     0.037 A 
BRANCH  55  69
ATOM     69  C   UNL A   1      45.972  32.640  29.339  1.00  0.00     0.057 A 
ATOM     70  C   UNL A   1      46.382  33.045  30.616  1.00  0.00     0.134 A 
ATOM     71  C   UNL A   1      46.011  33.592  28.314  1.00  0.00     0.134 A 
ATOM     72  F   UNL A   1      46.354  32.183  31.645  1.00  0.00    -0.206 F 
ATOM     73  C   UNL A   1      46.792  34.356  30.869  1.00  0.00     0.040 A 
ATOM     74  C   UNL A   1      46.441  34.900  28.549  1.00  0.00     0.040 A 
ATOM     75  F   UNL A   1      45.635  33.269  27.068  1.00  0.00    -0.206 F 
ATOM     76  C   UNL A   1      46.827  35.286  29.831  1.00  0.00     0.006 A 
ENDBRANCH  55  69
BRANCH  56  77
ATOM     77  C   UNL A   1      42.489  23.501  27.393  1.00  0.00     0.057 A 
ATOM     78  C   UNL A   1      42.259  22.542  28.386  1.00  0.00     0.134 A 
ATOM     79  C   UNL A   1      42.220  23.137  26.068  1.00  0.00     0.134 A 
ATOM     80  F   UNL A   1      42.520  22.825  29.670  1.00  0.00    -0.206 F 
ATOM     81  C   UNL A   1      41.790  21.265  28.073  1.00  0.00     0.040 A 
ATOM     82  C   UNL A   1      41.729  21.872  25.743  1.00  0.00     0.040 A 
ATOM     83  F   UNL A   1      42.419  24.013  25.073  1.00  0.00    -0.206 F 
ATOM     84  C   UNL A   1      41.517  20.930  26.747  1.00  0.00     0.006 A 
ENDBRANCH  56  77
BRANCH  68  85
ATOM     85  C   UNL A   1      48.821  26.390  27.134  1.00  0.00     0.057 A 
ATOM     86  C   UNL A   1      49.322  26.509  25.832  1.00  0.00     0.134 A 
ATOM     87  C   UNL A   1      49.641  25.778  28.091  1.00  0.00     0.134 A 
ATOM     88  F   UNL A   1      48.581  27.075  24.867  1.00  0.00    -0.206 F 
ATOM     89  C   UNL A   1      50.584  26.021  25.490  1.00  0.00     0.040 A 
ATOM     90  C   UNL A   1      50.914  25.307  27.766  1.00  0.00     0.040 A 
ATOM     91  F   UNL A   1      49.224  25.640  29.358  1.00  0.00    -0.206 F 
ATOM     92  C   UNL A   1      51.387  25.423  26.461  1.00  0.00     0.006 A 
ENDBRANCH  68  85
ENDBRANCH  42  43
ENDBRANCH  35  37
ENDBRANCH  34  35
ENDBRANCH  33  34
ENDBRANCH  32  33
ENDBRANCH  31  32
ENDBRANCH  30  31
ENDBRANCH   1  30
TORSDOF 20
ENDMDL
