MODEL 1
REMARK VINA RESULT:     -11.3      0.000      0.000
REMARK SMILES CN1C(=O)/C(=C\c2ccc(OCC(=O)OCCOCCOC(=O)c3ccc(-c4c5nc(c(-c6c(F)cccc6F)c6ccc([nH]6)c(-c6c(F)cccc6F)c6nc(c(-c7c(F)cccc7F)c7ccc4[nH]7)C=C6)C=C5)cc3)cc2)C(O)=NC1=S
REMARK SMILES IDX 17 1 16 2 15 3 13 4 14 5 12 6 11 7 10 8 7 9 8 10 79 11 9 12
REMARK SMILES IDX 78 13 6 14 1 15 2 16 3 17 83 18 4 19 5 20 82 21 84 22 80 23
REMARK SMILES IDX 81 24 18 26 19 27 20 28 21 29 22 30 23 31 24 32 25 33 77 34
REMARK SMILES IDX 26 35 76 36 27 37 28 38 29 39 70 40 30 41 75 42 69 43 71 44
REMARK SMILES IDX 31 45 74 46 68 47 67 48 32 50 58 51 41 52 57 53 42 54 45 55
REMARK SMILES IDX 56 56 72 57 43 58 44 59 55 61 73 62 46 63 33 64 34 65 39 66
REMARK SMILES IDX 35 67 36 68 38 69 40 70 37 71 59 72 60 73 65 74 61 75 62 76
REMARK SMILES IDX 64 77 66 78 63 79 47 80 48 81 53 82 49 83 50 84 52 85 54 86
REMARK SMILES IDX 51 87
REMARK H PARENT 81 25 71 49 45 60
REMARK Flexibility Score: inf
ROOT
ATOM      1  C   UNL A   1      42.155  21.450  26.853  1.00  0.00     0.202 C 
ENDROOT
BRANCH   1   2
ATOM      2  C   UNL A   1      40.671  21.341  27.215  1.00  0.00     0.261 C 
BRANCH   2   3
ATOM      3  O   UNL A   1      39.777  21.422  26.081  1.00  0.00    -0.461 OA
BRANCH   3   4
ATOM      4  C   UNL A   1      39.274  20.231  25.646  1.00  0.00     0.344 C 
ATOM      5  O   UNL A   1      39.888  19.167  25.671  1.00  0.00    -0.248 OA
BRANCH   4   6
ATOM      6  C   UNL A   1      37.867  20.323  25.048  1.00  0.00     0.351 C 
BRANCH   6   7
ATOM      7  O   UNL A   1      36.957  21.312  25.482  1.00  0.00    -0.482 OA
BRANCH   7   8
ATOM      8  C   UNL A   1      36.012  21.807  24.632  1.00  0.00     0.120 A 
ATOM      9  C   UNL A   1      34.312  23.248  22.890  1.00  0.00    -0.024 A 
ATOM     10  C   UNL A   1      35.699  23.327  22.750  1.00  0.00     0.012 A 
ATOM     11  C   UNL A   1      33.782  22.369  23.845  1.00  0.00     0.012 A 
ATOM     12  C   UNL A   1      36.537  22.610  23.612  1.00  0.00     0.047 A 
ATOM     13  C   UNL A   1      34.628  21.647  24.711  1.00  0.00     0.047 A 
BRANCH   9  14
ATOM     14  C   UNL A   1      33.424  24.043  22.026  1.00  0.00     0.027 C 
ATOM     15  C   UNL A   1      31.834  27.187  25.283  1.00  0.00     0.156 C 
ATOM     16  N   UNL A   1      31.903  26.785  23.879  1.00  0.00    -0.286 N 
ATOM     17  C   UNL A   1      33.013  25.997  23.558  1.00  0.00     0.265 C 
ATOM     18  C   UNL A   1      30.962  27.207  22.929  1.00  0.00     0.205 C 
ATOM     19  O   UNL A   1      34.030  25.928  24.243  1.00  0.00    -0.268 OA
ATOM     20  C   UNL A   1      32.880  25.254  22.280  1.00  0.00     0.103 C 
ATOM     21  N   UNL A   1      31.112  26.800  21.627  1.00  0.00    -0.184 NA
ATOM     22  S   UNL A   1      29.660  28.236  23.280  1.00  0.00    -0.038 S 
ATOM     23  C   UNL A   1      31.977  25.905  21.330  1.00  0.00     0.226 C 
BRANCH  23  24
ATOM     24  O   UNL A   1      32.105  25.578  20.033  1.00  0.00    -0.493 OA
ATOM     25  H   UNL A   1      31.921  24.704  19.750  1.00  0.00     0.295 HD
ENDBRANCH  23  24
ENDBRANCH   9  14
ENDBRANCH   7   8
ENDBRANCH   6   7
ENDBRANCH   4   6
ENDBRANCH   3   4
ENDBRANCH   2   3
ENDBRANCH   1   2
BRANCH   1  26
ATOM     26  O   UNL A   1      42.490  21.681  25.488  1.00  0.00    -0.374 OA
BRANCH  26  27
ATOM     27  C   UNL A   1      43.859  21.644  25.128  1.00  0.00     0.202 C 
BRANCH  27  28
ATOM     28  C   UNL A   1      44.459  22.844  24.393  1.00  0.00     0.261 C 
BRANCH  28  29
ATOM     29  O   UNL A   1      43.778  24.087  24.487  1.00  0.00    -0.460 OA
BRANCH  29  30
ATOM     30  C   UNL A   1      44.517  25.055  25.073  1.00  0.00     0.338 C 
ATOM     31  O   UNL A   1      45.589  25.497  24.697  1.00  0.00    -0.246 OA
BRANCH  30  32
ATOM     32  C   UNL A   1      43.767  25.642  26.193  1.00  0.00     0.060 A 
ATOM     33  C   UNL A   1      44.132  26.937  26.566  1.00  0.00     0.016 A 
ATOM     34  C   UNL A   1      42.761  24.950  26.878  1.00  0.00     0.016 A 
ATOM     35  C   UNL A   1      43.502  27.544  27.641  1.00  0.00     0.010 A 
ATOM     36  C   UNL A   1      42.121  25.566  27.957  1.00  0.00     0.010 A 
ATOM     37  C   UNL A   1      42.503  26.859  28.347  1.00  0.00    -0.014 A 
BRANCH  37  38
ATOM     38  C   UNL A   1      41.906  27.535  29.516  1.00  0.00     0.031 A 
ATOM     39  C   UNL A   1      42.587  27.454  30.846  1.00  0.00     0.074 A 
ATOM     40  C   UNL A   1      40.826  28.313  29.329  1.00  0.00     0.049 A 
ATOM     41  N   UNL A   1      42.324  28.108  31.947  1.00  0.00    -0.248 NA
ATOM     42  C   UNL A   1      43.721  26.523  30.950  1.00  0.00     0.031 C 
ATOM     43  C   UNL A   1      40.111  28.467  28.061  1.00  0.00     0.029 A 
ATOM     44  N   UNL A   1      40.163  29.143  30.193  1.00  0.00    -0.354 N 
ATOM     45  C   UNL A   1      43.268  27.683  32.870  1.00  0.00     0.074 A 
ATOM     46  C   UNL A   1      44.087  26.685  32.214  1.00  0.00     0.031 C 
ATOM     47  C   UNL A   1      39.122  29.359  28.224  1.00  0.00     0.029 A 
ATOM     48  C   UNL A   1      39.126  29.824  29.607  1.00  0.00     0.049 A 
ATOM     49  H   UNL A   1      40.408  29.241  31.142  1.00  0.00     0.167 HD
ATOM     50  C   UNL A   1      43.440  28.101  34.146  1.00  0.00     0.037 A 
ATOM     51  C   UNL A   1      38.281  30.730  30.133  1.00  0.00     0.037 A 
ATOM     52  C   UNL A   1      42.607  29.085  34.786  1.00  0.00     0.049 A 
ATOM     53  C   UNL A   1      38.468  31.145  31.564  1.00  0.00     0.074 A 
ATOM     54  C   UNL A   1      42.689  29.583  36.074  1.00  0.00     0.029 A 
ATOM     55  N   UNL A   1      41.530  29.715  34.180  1.00  0.00    -0.354 N 
ATOM     56  N   UNL A   1      39.385  30.762  32.420  1.00  0.00    -0.248 NA
ATOM     57  C   UNL A   1      37.512  32.121  32.101  1.00  0.00     0.031 C 
ATOM     58  C   UNL A   1      41.636  30.487  36.258  1.00  0.00     0.029 A 
ATOM     59  C   UNL A   1      40.922  30.581  35.073  1.00  0.00     0.049 A 
ATOM     60  H   UNL A   1      41.239  29.569  33.250  1.00  0.00     0.167 HD
ATOM     61  C   UNL A   1      39.125  31.457  33.592  1.00  0.00     0.074 A 
ATOM     62  C   UNL A   1      37.976  32.302  33.329  1.00  0.00     0.031 C 
ATOM     63  C   UNL A   1      39.774  31.401  34.782  1.00  0.00     0.037 A 
BRANCH  50  64
ATOM     64  C   UNL A   1      44.555  27.475  34.929  1.00  0.00     0.057 A 
ATOM     65  C   UNL A   1      45.841  28.028  34.953  1.00  0.00     0.134 A 
ATOM     66  C   UNL A   1      44.338  26.312  35.678  1.00  0.00     0.134 A 
ATOM     67  F   UNL A   1      46.120  29.133  34.244  1.00  0.00    -0.206 F 
ATOM     68  C   UNL A   1      46.878  27.435  35.676  1.00  0.00     0.040 A 
ATOM     69  C   UNL A   1      45.360  25.720  36.421  1.00  0.00     0.040 A 
ATOM     70  F   UNL A   1      43.128  25.731  35.698  1.00  0.00    -0.206 F 
ATOM     71  C   UNL A   1      46.637  26.279  36.417  1.00  0.00     0.006 A 
ENDBRANCH  50  64
BRANCH  51  72
ATOM     72  C   UNL A   1      37.196  31.299  29.296  1.00  0.00     0.057 A 
ATOM     73  C   UNL A   1      36.032  30.576  29.016  1.00  0.00     0.134 A 
ATOM     74  C   UNL A   1      37.296  32.593  28.767  1.00  0.00     0.134 A 
ATOM     75  F   UNL A   1      35.885  29.327  29.479  1.00  0.00    -0.206 F 
ATOM     76  C   UNL A   1      35.009  31.114  28.231  1.00  0.00     0.040 A 
ATOM     77  C   UNL A   1      36.272  33.152  28.002  1.00  0.00     0.040 A 
ATOM     78  F   UNL A   1      38.384  33.339  29.006  1.00  0.00    -0.206 F 
ATOM     79  C   UNL A   1      35.125  32.409  27.728  1.00  0.00     0.006 A 
ENDBRANCH  51  72
BRANCH  63  80
ATOM     80  C   UNL A   1      39.250  32.279  35.877  1.00  0.00     0.057 A 
ATOM     81  C   UNL A   1      39.702  33.594  36.042  1.00  0.00     0.134 A 
ATOM     82  C   UNL A   1      38.259  31.817  36.753  1.00  0.00     0.134 A 
ATOM     83  F   UNL A   1      40.660  34.089  35.243  1.00  0.00    -0.206 F 
ATOM     84  C   UNL A   1      39.203  34.413  37.056  1.00  0.00     0.040 A 
ATOM     85  C   UNL A   1      37.736  32.633  37.756  1.00  0.00     0.040 A 
ATOM     86  F   UNL A   1      37.779  30.568  36.641  1.00  0.00    -0.206 F 
ATOM     87  C   UNL A   1      38.212  33.934  37.912  1.00  0.00     0.006 A 
ENDBRANCH  63  80
ENDBRANCH  37  38
ENDBRANCH  30  32
ENDBRANCH  29  30
ENDBRANCH  28  29
ENDBRANCH  27  28
ENDBRANCH  26  27
ENDBRANCH   1  26
TORSDOF 18
ENDMDL
MODEL 2
REMARK VINA RESULT:     -11.1      4.981     10.416
REMARK SMILES CN1C(=O)/C(=C\c2ccc(OCC(=O)OCCOCCOC(=O)c3ccc(-c4c5nc(c(-c6c(F)cccc6F)c6ccc([nH]6)c(-c6c(F)cccc6F)c6nc(c(-c7c(F)cccc7F)c7ccc4[nH]7)C=C6)C=C5)cc3)cc2)C(O)=NC1=S
REMARK SMILES IDX 17 1 16 2 15 3 13 4 14 5 12 6 11 7 10 8 7 9 8 10 79 11 9 12
REMARK SMILES IDX 78 13 6 14 1 15 2 16 3 17 83 18 4 19 5 20 82 21 84 22 80 23
REMARK SMILES IDX 81 24 18 26 19 27 20 28 21 29 22 30 23 31 24 32 25 33 77 34
REMARK SMILES IDX 26 35 76 36 27 37 28 38 29 39 70 40 30 41 75 42 69 43 71 44
REMARK SMILES IDX 31 45 74 46 68 47 67 48 32 50 58 51 41 52 57 53 42 54 45 55
REMARK SMILES IDX 56 56 72 57 43 58 44 59 55 61 73 62 46 63 33 64 34 65 39 66
REMARK SMILES IDX 35 67 36 68 38 69 40 70 37 71 59 72 60 73 65 74 61 75 62 76
REMARK SMILES IDX 64 77 66 78 63 79 47 80 48 81 53 82 49 83 50 84 52 85 54 86
REMARK SMILES IDX 51 87
REMARK H PARENT 81 25 71 49 45 60
REMARK Flexibility Score: inf
ROOT
ATOM      1  C   UNL A   1      32.911  35.949  31.066  1.00  0.00     0.202 C 
ENDROOT
BRANCH   1   2
ATOM      2  C   UNL A   1      33.201  35.548  29.616  1.00  0.00     0.261 C 
BRANCH   2   3
ATOM      3  O   UNL A   1      33.299  34.120  29.406  1.00  0.00    -0.461 OA
BRANCH   3   4
ATOM      4  C   UNL A   1      34.516  33.673  28.982  1.00  0.00     0.344 C 
ATOM      5  O   UNL A   1      35.590  34.177  29.301  1.00  0.00    -0.248 OA
BRANCH   4   6
ATOM      6  C   UNL A   1      34.449  32.500  28.000  1.00  0.00     0.351 C 
BRANCH   6   7
ATOM      7  O   UNL A   1      33.406  31.549  28.075  1.00  0.00    -0.482 OA
BRANCH   7   8
ATOM      8  C   UNL A   1      33.306  30.554  27.147  1.00  0.00     0.120 A 
ATOM      9  C   UNL A   1      33.580  28.550  25.171  1.00  0.00    -0.024 A 
ATOM     10  C   UNL A   1      34.487  28.628  26.230  1.00  0.00     0.012 A 
ATOM     11  C   UNL A   1      32.482  29.420  25.162  1.00  0.00     0.012 A 
ATOM     12  C   UNL A   1      34.346  29.620  27.207  1.00  0.00     0.047 A 
ATOM     13  C   UNL A   1      32.340  30.417  26.148  1.00  0.00     0.047 A 
BRANCH   9  14
ATOM     14  C   UNL A   1      33.753  27.547  24.108  1.00  0.00     0.027 C 
ATOM     15  C   UNL A   1      32.695  23.602  26.626  1.00  0.00     0.156 C 
ATOM     16  N   UNL A   1      32.976  24.202  25.323  1.00  0.00    -0.286 N 
ATOM     17  C   UNL A   1      32.688  25.569  25.243  1.00  0.00     0.265 C 
ATOM     18  C   UNL A   1      33.439  23.451  24.233  1.00  0.00     0.205 C 
ATOM     19  O   UNL A   1      31.945  26.163  26.019  1.00  0.00    -0.268 OA
ATOM     20  C   UNL A   1      33.341  26.259  24.102  1.00  0.00     0.103 C 
ATOM     21  N   UNL A   1      33.658  24.089  23.038  1.00  0.00    -0.184 NA
ATOM     22  S   UNL A   1      33.708  21.777  24.285  1.00  0.00    -0.038 S 
ATOM     23  C   UNL A   1      33.624  25.367  22.978  1.00  0.00     0.226 C 
BRANCH  23  24
ATOM     24  O   UNL A   1      33.806  25.932  21.772  1.00  0.00    -0.493 OA
ATOM     25  H   UNL A   1      34.227  25.450  21.087  1.00  0.00     0.295 HD
ENDBRANCH  23  24
ENDBRANCH   9  14
ENDBRANCH   7   8
ENDBRANCH   6   7
ENDBRANCH   4   6
ENDBRANCH   3   4
ENDBRANCH   2   3
ENDBRANCH   1   2
BRANCH   1  26
ATOM     26  O   UNL A   1      32.934  34.925  32.056  1.00  0.00    -0.374 OA
BRANCH  26  27
ATOM     27  C   UNL A   1      34.194  34.531  32.570  1.00  0.00     0.202 C 
BRANCH  27  28
ATOM     28  C   UNL A   1      34.410  33.063  32.940  1.00  0.00     0.261 C 
BRANCH  28  29
ATOM     29  O   UNL A   1      35.500  32.380  32.337  1.00  0.00    -0.460 OA
BRANCH  29  30
ATOM     30  C   UNL A   1      36.546  32.204  33.176  1.00  0.00     0.338 C 
ATOM     31  O   UNL A   1      36.533  32.249  34.393  1.00  0.00    -0.246 OA
BRANCH  30  32
ATOM     32  C   UNL A   1      37.729  31.787  32.410  1.00  0.00     0.060 A 
ATOM     33  C   UNL A   1      37.685  32.020  31.034  1.00  0.00     0.016 A 
ATOM     34  C   UNL A   1      38.836  31.165  33.001  1.00  0.00     0.016 A 
ATOM     35  C   UNL A   1      38.744  31.617  30.236  1.00  0.00     0.010 A 
ATOM     36  C   UNL A   1      39.906  30.765  32.197  1.00  0.00     0.010 A 
ATOM     37  C   UNL A   1      39.853  30.979  30.811  1.00  0.00    -0.014 A 
BRANCH  37  38
ATOM     38  C   UNL A   1      40.925  30.523  29.905  1.00  0.00     0.031 A 
ATOM     39  C   UNL A   1      42.084  31.427  29.614  1.00  0.00     0.074 A 
ATOM     40  C   UNL A   1      40.898  29.256  29.458  1.00  0.00     0.049 A 
ATOM     41  N   UNL A   1      43.200  31.158  28.989  1.00  0.00    -0.248 NA
ATOM     42  C   UNL A   1      41.977  32.811  30.100  1.00  0.00     0.031 C 
ATOM     43  C   UNL A   1      39.818  28.300  29.712  1.00  0.00     0.029 A 
ATOM     44  N   UNL A   1      41.813  28.545  28.729  1.00  0.00    -0.354 N 
ATOM     45  C   UNL A   1      43.938  32.332  29.020  1.00  0.00     0.074 A 
ATOM     46  C   UNL A   1      43.127  33.328  29.690  1.00  0.00     0.031 C 
ATOM     47  C   UNL A   1      40.146  27.118  29.167  1.00  0.00     0.029 A 
ATOM     48  C   UNL A   1      41.446  27.241  28.516  1.00  0.00     0.049 A 
ATOM     49  H   UNL A   1      42.653  28.934  28.392  1.00  0.00     0.167 HD
ATOM     50  C   UNL A   1      45.185  32.551  28.542  1.00  0.00     0.037 A 
ATOM     51  C   UNL A   1      42.097  26.254  27.872  1.00  0.00     0.037 A 
ATOM     52  C   UNL A   1      45.971  31.552  27.866  1.00  0.00     0.049 A 
ATOM     53  C   UNL A   1      43.463  26.536  27.314  1.00  0.00     0.074 A 
ATOM     54  C   UNL A   1      47.245  31.664  27.340  1.00  0.00     0.029 A 
ATOM     55  N   UNL A   1      45.546  30.255  27.618  1.00  0.00    -0.354 N 
ATOM     56  N   UNL A   1      44.167  27.641  27.378  1.00  0.00    -0.248 NA
ATOM     57  C   UNL A   1      44.127  25.437  26.604  1.00  0.00     0.031 C 
ATOM     58  C   UNL A   1      47.575  30.443  26.738  1.00  0.00     0.029 A 
ATOM     59  C   UNL A   1      46.522  29.560  26.924  1.00  0.00     0.049 A 
ATOM     60  H   UNL A   1      44.678  29.882  27.894  1.00  0.00     0.167 HD
ATOM     61  C   UNL A   1      45.362  27.368  26.726  1.00  0.00     0.074 A 
ATOM     62  C   UNL A   1      45.294  25.986  26.295  1.00  0.00     0.031 C 
ATOM     63  C   UNL A   1      46.420  28.187  26.501  1.00  0.00     0.037 A 
BRANCH  50  64
ATOM     64  C   UNL A   1      45.756  33.927  28.717  1.00  0.00     0.057 A 
ATOM     65  C   UNL A   1      45.521  34.946  27.786  1.00  0.00     0.134 A 
ATOM     66  C   UNL A   1      46.540  34.239  29.834  1.00  0.00     0.134 A 
ATOM     67  F   UNL A   1      44.792  34.708  26.686  1.00  0.00    -0.206 F 
ATOM     68  C   UNL A   1      46.064  36.223  27.949  1.00  0.00     0.040 A 
ATOM     69  C   UNL A   1      47.072  35.517  30.019  1.00  0.00     0.040 A 
ATOM     70  F   UNL A   1      46.803  33.308  30.764  1.00  0.00    -0.206 F 
ATOM     71  C   UNL A   1      46.839  36.511  29.071  1.00  0.00     0.006 A 
ENDBRANCH  50  64
BRANCH  51  72
ATOM     72  C   UNL A   1      41.463  24.921  27.733  1.00  0.00     0.057 A 
ATOM     73  C   UNL A   1      40.441  24.690  26.805  1.00  0.00     0.134 A 
ATOM     74  C   UNL A   1      41.878  23.838  28.519  1.00  0.00     0.134 A 
ATOM     75  F   UNL A   1      39.989  25.689  26.035  1.00  0.00    -0.206 F 
ATOM     76  C   UNL A   1      39.848  23.432  26.672  1.00  0.00     0.040 A 
ATOM     77  C   UNL A   1      41.310  22.571  28.379  1.00  0.00     0.040 A 
ATOM     78  F   UNL A   1      42.857  23.994  29.421  1.00  0.00    -0.206 F 
ATOM     79  C   UNL A   1      40.287  22.367  27.456  1.00  0.00     0.006 A 
ENDBRANCH  51  72
BRANCH  63  80
ATOM     80  C   UNL A   1      47.580  27.599  25.757  1.00  0.00     0.057 A 
ATOM     81  C   UNL A   1      48.653  27.001  26.428  1.00  0.00     0.134 A 
ATOM     82  C   UNL A   1      47.606  27.601  24.356  1.00  0.00     0.134 A 
ATOM     83  F   UNL A   1      48.691  26.980  27.769  1.00  0.00    -0.206 F 
ATOM     84  C   UNL A   1      49.726  26.444  25.731  1.00  0.00     0.040 A 
ATOM     85  C   UNL A   1      48.663  27.027  23.649  1.00  0.00     0.040 A 
ATOM     86  F   UNL A   1      46.603  28.152  23.656  1.00  0.00    -0.206 F 
ATOM     87  C   UNL A   1      49.729  26.451  24.337  1.00  0.00     0.006 A 
ENDBRANCH  63  80
ENDBRANCH  37  38
ENDBRANCH  30  32
ENDBRANCH  29  30
ENDBRANCH  28  29
ENDBRANCH  27  28
ENDBRANCH  26  27
ENDBRANCH   1  26
TORSDOF 18
ENDMDL
MODEL 3
REMARK VINA RESULT:     -11.0      3.922      9.792
REMARK SMILES CN1C(=O)/C(=C\c2ccc(OCC(=O)OCCOCCOC(=O)c3ccc(-c4c5nc(c(-c6c(F)cccc6F)c6ccc([nH]6)c(-c6c(F)cccc6F)c6nc(c(-c7c(F)cccc7F)c7ccc4[nH]7)C=C6)C=C5)cc3)cc2)C(O)=NC1=S
REMARK SMILES IDX 17 1 16 2 15 3 13 4 14 5 12 6 11 7 10 8 7 9 8 10 79 11 9 12
REMARK SMILES IDX 78 13 6 14 1 15 2 16 3 17 83 18 4 19 5 20 82 21 84 22 80 23
REMARK SMILES IDX 81 24 18 26 19 27 20 28 21 29 22 30 23 31 24 32 25 33 77 34
REMARK SMILES IDX 26 35 76 36 27 37 28 38 29 39 70 40 30 41 75 42 69 43 71 44
REMARK SMILES IDX 31 45 74 46 68 47 67 48 32 50 58 51 41 52 57 53 42 54 45 55
REMARK SMILES IDX 56 56 72 57 43 58 44 59 55 61 73 62 46 63 33 64 34 65 39 66
REMARK SMILES IDX 35 67 36 68 38 69 40 70 37 71 59 72 60 73 65 74 61 75 62 76
REMARK SMILES IDX 64 77 66 78 63 79 47 80 48 81 53 82 49 83 50 84 52 85 54 86
REMARK SMILES IDX 51 87
REMARK H PARENT 81 25 71 49 45 60
REMARK Flexibility Score: inf
ROOT
ATOM      1  C   UNL A   1      35.114  33.925  29.322  1.00  0.00     0.202 C 
ENDROOT
BRANCH   1   2
ATOM      2  C   UNL A   1      35.915  33.015  28.385  1.00  0.00     0.261 C 
BRANCH   2   3
ATOM      3  O   UNL A   1      35.124  32.393  27.346  1.00  0.00    -0.461 OA
BRANCH   3   4
ATOM      4  C   UNL A   1      34.568  31.192  27.673  1.00  0.00     0.344 C 
ATOM      5  O   UNL A   1      35.173  30.271  28.218  1.00  0.00    -0.248 OA
BRANCH   4   6
ATOM      6  C   UNL A   1      33.105  31.038  27.246  1.00  0.00     0.351 C 
BRANCH   6   7
ATOM      7  O   UNL A   1      32.769  30.461  26.001  1.00  0.00    -0.482 OA
BRANCH   7   8
ATOM      8  C   UNL A   1      32.083  29.284  25.945  1.00  0.00     0.120 A 
ATOM      9  C   UNL A   1      30.988  26.684  26.156  1.00  0.00    -0.024 A 
ATOM     10  C   UNL A   1      31.365  27.388  27.301  1.00  0.00     0.012 A 
ATOM     11  C   UNL A   1      31.074  27.328  24.913  1.00  0.00     0.012 A 
ATOM     12  C   UNL A   1      31.904  28.675  27.193  1.00  0.00     0.047 A 
ATOM     13  C   UNL A   1      31.615  28.625  24.807  1.00  0.00     0.047 A 
BRANCH   9  14
ATOM     14  C   UNL A   1      30.474  25.309  26.255  1.00  0.00     0.027 C 
ATOM     15  C   UNL A   1      34.224  22.976  24.380  1.00  0.00     0.156 C 
ATOM     16  N   UNL A   1      32.937  22.902  25.067  1.00  0.00    -0.286 N 
ATOM     17  C   UNL A   1      32.604  24.049  25.796  1.00  0.00     0.265 C 
ATOM     18  C   UNL A   1      32.136  21.751  25.042  1.00  0.00     0.205 C 
ATOM     19  O   UNL A   1      33.416  24.898  26.153  1.00  0.00    -0.268 OA
ATOM     20  C   UNL A   1      31.164  24.152  26.140  1.00  0.00     0.103 C 
ATOM     21  N   UNL A   1      30.949  21.758  25.732  1.00  0.00    -0.184 NA
ATOM     22  S   UNL A   1      32.563  20.319  24.239  1.00  0.00    -0.038 S 
ATOM     23  C   UNL A   1      30.500  22.850  26.224  1.00  0.00     0.226 C 
BRANCH  23  24
ATOM     24  O   UNL A   1      29.355  22.785  26.924  1.00  0.00    -0.493 OA
ATOM     25  H   UNL A   1      28.531  22.787  26.476  1.00  0.00     0.295 HD
ENDBRANCH  23  24
ENDBRANCH   9  14
ENDBRANCH   7   8
ENDBRANCH   6   7
ENDBRANCH   4   6
ENDBRANCH   3   4
ENDBRANCH   2   3
ENDBRANCH   1   2
BRANCH   1  26
ATOM     26  O   UNL A   1      34.411  35.020  28.743  1.00  0.00    -0.374 OA
BRANCH  26  27
ATOM     27  C   UNL A   1      33.131  35.332  29.263  1.00  0.00     0.202 C 
BRANCH  27  28
ATOM     28  C   UNL A   1      32.922  36.691  29.933  1.00  0.00     0.261 C 
BRANCH  28  29
ATOM     29  O   UNL A   1      33.338  36.836  31.283  1.00  0.00    -0.460 OA
BRANCH  29  30
ATOM     30  C   UNL A   1      32.811  35.902  32.105  1.00  0.00     0.338 C 
ATOM     31  O   UNL A   1      31.631  35.672  32.303  1.00  0.00    -0.246 OA
BRANCH  30  32
ATOM     32  C   UNL A   1      33.885  35.057  32.648  1.00  0.00     0.060 A 
ATOM     33  C   UNL A   1      35.173  35.597  32.607  1.00  0.00     0.016 A 
ATOM     34  C   UNL A   1      33.658  33.773  33.156  1.00  0.00     0.016 A 
ATOM     35  C   UNL A   1      36.246  34.847  33.060  1.00  0.00     0.010 A 
ATOM     36  C   UNL A   1      34.740  33.019  33.620  1.00  0.00     0.010 A 
ATOM     37  C   UNL A   1      36.036  33.552  33.558  1.00  0.00    -0.014 A 
BRANCH  37  38
ATOM     38  C   UNL A   1      37.223  32.780  33.976  1.00  0.00     0.031 A 
ATOM     39  C   UNL A   1      37.824  31.780  33.038  1.00  0.00     0.074 A 
ATOM     40  C   UNL A   1      37.813  33.085  35.144  1.00  0.00     0.049 A 
ATOM     41  N   UNL A   1      38.952  31.128  33.142  1.00  0.00    -0.248 NA
ATOM     42  C   UNL A   1      37.060  31.480  31.817  1.00  0.00     0.031 C 
ATOM     43  C   UNL A   1      37.308  34.063  36.110  1.00  0.00     0.029 A 
ATOM     44  N   UNL A   1      38.978  32.631  35.703  1.00  0.00    -0.354 N 
ATOM     45  C   UNL A   1      39.044  30.354  31.994  1.00  0.00     0.074 A 
ATOM     46  C   UNL A   1      37.839  30.586  31.225  1.00  0.00     0.031 C 
ATOM     47  C   UNL A   1      38.173  34.153  37.132  1.00  0.00     0.029 A 
ATOM     48  C   UNL A   1      39.279  33.230  36.899  1.00  0.00     0.049 A 
ATOM     49  H   UNL A   1      39.543  31.941  35.285  1.00  0.00     0.167 HD
ATOM     50  C   UNL A   1      40.053  29.536  31.615  1.00  0.00     0.037 A 
ATOM     51  C   UNL A   1      40.339  33.056  37.710  1.00  0.00     0.037 A 
ATOM     52  C   UNL A   1      41.239  29.307  32.399  1.00  0.00     0.049 A 
ATOM     53  C   UNL A   1      41.425  32.109  37.284  1.00  0.00     0.074 A 
ATOM     54  C   UNL A   1      42.323  28.498  32.112  1.00  0.00     0.029 A 
ATOM     55  N   UNL A   1      41.486  29.889  33.634  1.00  0.00    -0.354 N 
ATOM     56  N   UNL A   1      41.519  31.406  36.181  1.00  0.00    -0.248 NA
ATOM     57  C   UNL A   1      42.552  31.935  38.209  1.00  0.00     0.031 C 
ATOM     58  C   UNL A   1      43.210  28.561  33.194  1.00  0.00     0.029 A 
ATOM     59  C   UNL A   1      42.696  29.440  34.136  1.00  0.00     0.049 A 
ATOM     60  H   UNL A   1      40.891  30.528  34.087  1.00  0.00     0.167 HD
ATOM     61  C   UNL A   1      42.719  30.716  36.271  1.00  0.00     0.074 A 
ATOM     62  C   UNL A   1      43.328  31.102  37.529  1.00  0.00     0.031 C 
ATOM     63  C   UNL A   1      43.269  29.837  35.396  1.00  0.00     0.037 A 
BRANCH  50  64
ATOM     64  C   UNL A   1      39.899  28.816  30.308  1.00  0.00     0.057 A 
ATOM     65  C   UNL A   1      40.394  29.347  29.110  1.00  0.00     0.134 A 
ATOM     66  C   UNL A   1      39.257  27.573  30.247  1.00  0.00     0.134 A 
ATOM     67  F   UNL A   1      41.005  30.541  29.096  1.00  0.00    -0.206 F 
ATOM     68  C   UNL A   1      40.238  28.676  27.895  1.00  0.00     0.040 A 
ATOM     69  C   UNL A   1      39.113  26.883  29.042  1.00  0.00     0.040 A 
ATOM     70  F   UNL A   1      38.760  27.008  31.359  1.00  0.00    -0.206 F 
ATOM     71  C   UNL A   1      39.599  27.438  27.861  1.00  0.00     0.006 A 
ENDBRANCH  50  64
BRANCH  51  72
ATOM     72  C   UNL A   1      40.417  33.798  38.992  1.00  0.00     0.057 A 
ATOM     73  C   UNL A   1      41.106  35.011  39.094  1.00  0.00     0.134 A 
ATOM     74  C   UNL A   1      39.786  33.314  40.146  1.00  0.00     0.134 A 
ATOM     75  F   UNL A   1      41.743  35.518  38.029  1.00  0.00    -0.206 F 
ATOM     76  C   UNL A   1      41.175  35.712  40.300  1.00  0.00     0.040 A 
ATOM     77  C   UNL A   1      39.828  34.016  41.351  1.00  0.00     0.040 A 
ATOM     78  F   UNL A   1      39.104  32.161  40.111  1.00  0.00    -0.206 F 
ATOM     79  C   UNL A   1      40.528  35.218  41.432  1.00  0.00     0.006 A 
ENDBRANCH  51  72
BRANCH  63  80
ATOM     80  C   UNL A   1      44.592  29.245  35.778  1.00  0.00     0.057 A 
ATOM     81  C   UNL A   1      45.799  29.861  35.428  1.00  0.00     0.134 A 
ATOM     82  C   UNL A   1      44.656  28.066  36.531  1.00  0.00     0.134 A 
ATOM     83  F   UNL A   1      45.802  30.986  34.695  1.00  0.00    -0.206 F 
ATOM     84  C   UNL A   1      47.028  29.313  35.796  1.00  0.00     0.040 A 
ATOM     85  C   UNL A   1      45.878  27.520  36.923  1.00  0.00     0.040 A 
ATOM     86  F   UNL A   1      43.533  27.433  36.903  1.00  0.00    -0.206 F 
ATOM     87  C   UNL A   1      47.069  28.141  36.551  1.00  0.00     0.006 A 
ENDBRANCH  63  80
ENDBRANCH  37  38
ENDBRANCH  30  32
ENDBRANCH  29  30
ENDBRANCH  28  29
ENDBRANCH  27  28
ENDBRANCH  26  27
ENDBRANCH   1  26
TORSDOF 18
ENDMDL
