MODEL 1
REMARK VINA RESULT:     -11.5      0.000      0.000
REMARK SMILES CN(C)Nc1ncnc(Nc2ccc(C(=O)OCCOCCOC(=O)c3ccc(-c4c5nc(c(-c6c(F)cccc6F)c6ccc([nH]6)c(-c6c(F)cccc6F)c6nc(c(-c7c(F)cccc7F)c7ccc4[nH]7)C=C6)C=C5)cc3)cc2)c1[N+](=O)[O-]
REMARK SMILES IDX 19 1 18 2 17 3 15 4 16 5 14 6 11 7 12 8 81 9 13 10 80 11
REMARK SMILES IDX 10 12 9 14 5 15 6 16 82 17 7 18 8 19 4 20 2 22 1 23 3 24
REMARK SMILES IDX 83 25 84 26 85 27 20 28 21 29 22 30 23 31 24 32 25 33 26 34
REMARK SMILES IDX 27 35 79 36 28 37 78 38 29 39 30 40 31 41 72 42 32 43 77 44
REMARK SMILES IDX 71 45 73 46 33 47 76 48 70 49 69 50 34 52 60 53 43 54 59 55
REMARK SMILES IDX 44 56 47 57 58 58 74 59 45 60 46 61 57 63 75 64 48 65 35 66
REMARK SMILES IDX 36 67 41 68 37 69 38 70 40 71 42 72 39 73 61 74 62 75 67 76
REMARK SMILES IDX 63 77 64 78 66 79 68 80 65 81 49 82 50 83 55 84 51 85 52 86
REMARK SMILES IDX 54 87 56 88 53 89
REMARK H PARENT 10 13 4 21 73 51 47 62
REMARK Flexibility Score: inf
ROOT
ATOM      1  C   UNL A   1      40.760  21.164  27.414  1.00  0.00     0.202 C 
ENDROOT
BRANCH   1   2
ATOM      2  C   UNL A   1      39.970  20.834  26.146  1.00  0.00     0.261 C 
BRANCH   2   3
ATOM      3  O   UNL A   1      38.856  21.725  25.981  1.00  0.00    -0.460 OA
BRANCH   3   4
ATOM      4  C   UNL A   1      37.907  21.278  25.125  1.00  0.00     0.338 C 
ATOM      5  O   UNL A   1      37.798  20.147  24.675  1.00  0.00    -0.246 OA
BRANCH   4   6
ATOM      6  C   UNL A   1      36.889  22.323  24.892  1.00  0.00     0.060 A 
ATOM      7  C   UNL A   1      34.791  24.168  24.704  1.00  0.00     0.040 A 
ATOM      8  C   UNL A   1      35.595  24.134  25.847  1.00  0.00     0.027 A 
ATOM      9  C   UNL A   1      35.116  23.336  23.619  1.00  0.00     0.027 A 
ATOM     10  C   UNL A   1      36.628  23.206  25.947  1.00  0.00     0.018 A 
ATOM     11  C   UNL A   1      36.170  22.422  23.701  1.00  0.00     0.018 A 
BRANCH   7  12
ATOM     12  N   UNL A   1      33.564  24.856  24.762  1.00  0.00    -0.334 N 
ATOM     13  H   UNL A   1      32.771  24.350  25.055  1.00  0.00     0.168 HD
BRANCH  12  14
ATOM     14  C   UNL A   1      33.388  26.216  24.431  1.00  0.00     0.215 A 
ATOM     15  C   UNL A   1      32.587  27.987  23.070  1.00  0.00     0.225 A 
ATOM     16  N   UNL A   1      32.944  28.890  24.008  1.00  0.00    -0.212 NA
ATOM     17  C   UNL A   1      32.877  26.645  23.218  1.00  0.00     0.354 A 
ATOM     18  C   UNL A   1      33.495  28.415  25.122  1.00  0.00     0.227 A 
ATOM     19  N   UNL A   1      33.691  27.124  25.388  1.00  0.00    -0.212 NA
BRANCH  15  20
ATOM     20  N   UNL A   1      31.813  28.561  22.059  1.00  0.00    -0.298 N 
ATOM     21  H   UNL A   1      32.296  28.961  21.299  1.00  0.00     0.184 HD
BRANCH  20  22
ATOM     22  N   UNL A   1      30.390  28.621  22.027  1.00  0.00    -0.228 NA
ATOM     23  C   UNL A   1      29.746  27.687  22.966  1.00  0.00     0.130 C 
ATOM     24  C   UNL A   1      30.019  29.989  22.445  1.00  0.00     0.130 C 
ENDBRANCH  20  22
ENDBRANCH  15  20
BRANCH  17  25
ATOM     25  N   UNL A   1      32.825  25.756  22.092  1.00  0.00     0.070 N 
ATOM     26  O   UNL A   1      32.220  24.683  22.238  1.00  0.00    -0.258 OA
ATOM     27  O   UNL A   1      33.494  26.054  21.094  1.00  0.00    -0.258 OA
ENDBRANCH  17  25
ENDBRANCH  12  14
ENDBRANCH   7  12
ENDBRANCH   4   6
ENDBRANCH   3   4
ENDBRANCH   2   3
ENDBRANCH   1   2
BRANCH   1  28
ATOM     28  O   UNL A   1      42.157  20.872  27.382  1.00  0.00    -0.374 OA
BRANCH  28  29
ATOM     29  C   UNL A   1      42.704  20.456  26.129  1.00  0.00     0.202 C 
BRANCH  29  30
ATOM     30  C   UNL A   1      43.633  21.456  25.430  1.00  0.00     0.261 C 
BRANCH  30  31
ATOM     31  O   UNL A   1      42.919  22.627  24.992  1.00  0.00    -0.460 OA
BRANCH  31  32
ATOM     32  C   UNL A   1      43.637  23.772  25.002  1.00  0.00     0.338 C 
ATOM     33  O   UNL A   1      44.589  24.060  24.289  1.00  0.00    -0.246 OA
BRANCH  32  34
ATOM     34  C   UNL A   1      42.998  24.755  25.897  1.00  0.00     0.060 A 
ATOM     35  C   UNL A   1      43.586  26.023  25.995  1.00  0.00     0.016 A 
ATOM     36  C   UNL A   1      41.887  24.427  26.676  1.00  0.00     0.016 A 
ATOM     37  C   UNL A   1      43.094  26.954  26.908  1.00  0.00     0.010 A 
ATOM     38  C   UNL A   1      41.401  25.358  27.599  1.00  0.00     0.010 A 
ATOM     39  C   UNL A   1      42.023  26.612  27.742  1.00  0.00    -0.014 A 
BRANCH  39  40
ATOM     40  C   UNL A   1      41.645  27.509  28.862  1.00  0.00     0.031 A 
ATOM     41  C   UNL A   1      42.400  27.411  30.159  1.00  0.00     0.074 A 
ATOM     42  C   UNL A   1      40.644  28.397  28.725  1.00  0.00     0.049 A 
ATOM     43  N   UNL A   1      42.193  28.038  31.288  1.00  0.00    -0.248 NA
ATOM     44  C   UNL A   1      43.538  26.477  30.188  1.00  0.00     0.031 C 
ATOM     45  C   UNL A   1      39.860  28.607  27.511  1.00  0.00     0.029 A 
ATOM     46  N   UNL A   1      40.108  29.279  29.631  1.00  0.00    -0.354 N 
ATOM     47  C   UNL A   1      43.158  27.561  32.166  1.00  0.00     0.074 A 
ATOM     48  C   UNL A   1      43.944  26.584  31.446  1.00  0.00     0.031 C 
ATOM     49  C   UNL A   1      38.922  29.540  27.754  1.00  0.00     0.029 A 
ATOM     50  C   UNL A   1      39.022  29.968  29.149  1.00  0.00     0.049 A 
ATOM     51  H   UNL A   1      40.466  29.404  30.540  1.00  0.00     0.167 HD
ATOM     52  C   UNL A   1      43.370  27.911  33.457  1.00  0.00     0.037 A 
ATOM     53  C   UNL A   1      38.187  30.822  29.772  1.00  0.00     0.037 A 
ATOM     54  C   UNL A   1      42.603  28.900  34.164  1.00  0.00     0.049 A 
ATOM     55  C   UNL A   1      38.421  31.159  31.222  1.00  0.00     0.074 A 
ATOM     56  C   UNL A   1      42.780  29.362  35.458  1.00  0.00     0.029 A 
ATOM     57  N   UNL A   1      41.514  29.577  33.642  1.00  0.00    -0.354 N 
ATOM     58  N   UNL A   1      39.366  30.739  32.028  1.00  0.00    -0.248 NA
ATOM     59  C   UNL A   1      37.472  32.091  31.850  1.00  0.00     0.031 C 
ATOM     60  C   UNL A   1      41.764  30.281  35.736  1.00  0.00     0.029 A 
ATOM     61  C   UNL A   1      40.987  30.428  34.598  1.00  0.00     0.049 A 
ATOM     62  H   UNL A   1      41.164  29.467  32.729  1.00  0.00     0.167 HD
ATOM     63  C   UNL A   1      39.144  31.378  33.243  1.00  0.00     0.074 A 
ATOM     64  C   UNL A   1      37.982  32.222  33.065  1.00  0.00     0.031 C 
ATOM     65  C   UNL A   1      39.841  31.277  34.401  1.00  0.00     0.037 A 
BRANCH  52  66
ATOM     66  C   UNL A   1      44.460  27.204  34.205  1.00  0.00     0.057 A 
ATOM     67  C   UNL A   1      45.752  27.732  34.306  1.00  0.00     0.134 A 
ATOM     68  C   UNL A   1      44.187  26.017  34.897  1.00  0.00     0.134 A 
ATOM     69  F   UNL A   1      46.079  28.859  33.658  1.00  0.00    -0.206 F 
ATOM     70  C   UNL A   1      46.739  27.098  35.065  1.00  0.00     0.040 A 
ATOM     71  C   UNL A   1      45.159  25.387  35.675  1.00  0.00     0.040 A 
ATOM     72  F   UNL A   1      42.967  25.462  34.844  1.00  0.00    -0.206 F 
ATOM     73  C   UNL A   1      46.440  25.928  35.760  1.00  0.00     0.006 A 
ENDBRANCH  52  66
BRANCH  53  74
ATOM     74  C   UNL A   1      37.025  31.397  29.049  1.00  0.00     0.057 A 
ATOM     75  C   UNL A   1      37.029  32.722  28.598  1.00  0.00     0.134 A 
ATOM     76  C   UNL A   1      35.859  30.650  28.839  1.00  0.00     0.134 A 
ATOM     77  F   UNL A   1      38.107  33.497  28.793  1.00  0.00    -0.206 F 
ATOM     78  C   UNL A   1      35.909  33.292  27.992  1.00  0.00     0.040 A 
ATOM     79  C   UNL A   1      34.741  31.199  28.210  1.00  0.00     0.040 A 
ATOM     80  F   UNL A   1      35.789  29.374  29.247  1.00  0.00    -0.206 F 
ATOM     81  C   UNL A   1      34.760  32.528  27.794  1.00  0.00     0.006 A 
ENDBRANCH  53  74
BRANCH  65  82
ATOM     82  C   UNL A   1      39.396  32.128  35.554  1.00  0.00     0.057 A 
ATOM     83  C   UNL A   1      39.848  33.442  35.721  1.00  0.00     0.134 A 
ATOM     84  C   UNL A   1      38.461  31.640  36.477  1.00  0.00     0.134 A 
ATOM     85  F   UNL A   1      40.752  33.962  34.878  1.00  0.00    -0.206 F 
ATOM     86  C   UNL A   1      39.401  34.236  36.779  1.00  0.00     0.040 A 
ATOM     87  C   UNL A   1      37.987  32.434  37.522  1.00  0.00     0.040 A 
ATOM     88  F   UNL A   1      37.981  30.393  36.366  1.00  0.00    -0.206 F 
ATOM     89  C   UNL A   1      38.462  33.734  37.678  1.00  0.00     0.006 A 
ENDBRANCH  65  82
ENDBRANCH  39  40
ENDBRANCH  32  34
ENDBRANCH  31  32
ENDBRANCH  30  31
ENDBRANCH  29  30
ENDBRANCH  28  29
ENDBRANCH   1  28
TORSDOF 19
ENDMDL
MODEL 2
REMARK VINA RESULT:     -10.8      4.804      9.946
REMARK SMILES CN(C)Nc1ncnc(Nc2ccc(C(=O)OCCOCCOC(=O)c3ccc(-c4c5nc(c(-c6c(F)cccc6F)c6ccc([nH]6)c(-c6c(F)cccc6F)c6nc(c(-c7c(F)cccc7F)c7ccc4[nH]7)C=C6)C=C5)cc3)cc2)c1[N+](=O)[O-]
REMARK SMILES IDX 19 1 18 2 17 3 15 4 16 5 14 6 11 7 12 8 81 9 13 10 80 11
REMARK SMILES IDX 10 12 9 14 5 15 6 16 82 17 7 18 8 19 4 20 2 22 1 23 3 24
REMARK SMILES IDX 83 25 84 26 85 27 20 28 21 29 22 30 23 31 24 32 25 33 26 34
REMARK SMILES IDX 27 35 79 36 28 37 78 38 29 39 30 40 31 41 72 42 32 43 77 44
REMARK SMILES IDX 71 45 73 46 33 47 76 48 70 49 69 50 34 52 60 53 43 54 59 55
REMARK SMILES IDX 44 56 47 57 58 58 74 59 45 60 46 61 57 63 75 64 48 65 35 66
REMARK SMILES IDX 36 67 41 68 37 69 38 70 40 71 42 72 39 73 61 74 62 75 67 76
REMARK SMILES IDX 63 77 64 78 66 79 68 80 65 81 49 82 50 83 55 84 51 85 52 86
REMARK SMILES IDX 54 87 56 88 53 89
REMARK H PARENT 10 13 4 21 73 51 47 62
REMARK Flexibility Score: inf
ROOT
ATOM      1  C   UNL A   1      34.513  32.906  28.391  1.00  0.00     0.202 C 
ENDROOT
BRANCH   1   2
ATOM      2  C   UNL A   1      33.154  32.697  27.717  1.00  0.00     0.261 C 
BRANCH   2   3
ATOM      3  O   UNL A   1      32.994  31.337  27.284  1.00  0.00    -0.460 OA
BRANCH   3   4
ATOM      4  C   UNL A   1      31.836  31.095  26.627  1.00  0.00     0.338 C 
ATOM      5  O   UNL A   1      31.032  31.925  26.226  1.00  0.00    -0.246 OA
BRANCH   4   6
ATOM      6  C   UNL A   1      31.713  29.657  26.311  1.00  0.00     0.060 A 
ATOM      7  C   UNL A   1      31.169  27.001  25.612  1.00  0.00     0.040 A 
ATOM      8  C   UNL A   1      31.191  27.994  24.629  1.00  0.00     0.027 A 
ATOM      9  C   UNL A   1      31.521  27.340  26.930  1.00  0.00     0.027 A 
ATOM     10  C   UNL A   1      31.446  29.317  24.979  1.00  0.00     0.018 A 
ATOM     11  C   UNL A   1      31.807  28.661  27.283  1.00  0.00     0.018 A 
BRANCH   7  12
ATOM     12  N   UNL A   1      30.579  25.760  25.304  1.00  0.00    -0.334 N 
ATOM     13  H   UNL A   1      29.625  25.642  25.518  1.00  0.00     0.168 HD
BRANCH  12  14
ATOM     14  C   UNL A   1      31.256  24.673  24.713  1.00  0.00     0.215 A 
ATOM     15  C   UNL A   1      31.985  22.416  24.620  1.00  0.00     0.225 A 
ATOM     16  N   UNL A   1      32.437  22.598  23.361  1.00  0.00    -0.212 NA
ATOM     17  C   UNL A   1      31.465  23.464  25.355  1.00  0.00     0.354 A 
ATOM     18  C   UNL A   1      32.269  23.805  22.830  1.00  0.00     0.227 A 
ATOM     19  N   UNL A   1      31.664  24.828  23.432  1.00  0.00    -0.212 NA
BRANCH  15  20
ATOM     20  N   UNL A   1      31.996  21.070  24.991  1.00  0.00    -0.298 N 
ATOM     21  H   UNL A   1      31.161  20.700  25.359  1.00  0.00     0.184 HD
BRANCH  20  22
ATOM     22  N   UNL A   1      33.106  20.183  24.887  1.00  0.00    -0.228 NA
ATOM     23  C   UNL A   1      34.300  20.655  25.609  1.00  0.00     0.130 C 
ATOM     24  C   UNL A   1      32.688  18.912  25.513  1.00  0.00     0.130 C 
ENDBRANCH  20  22
ENDBRANCH  15  20
BRANCH  17  25
ATOM     25  N   UNL A   1      31.320  23.359  26.779  1.00  0.00     0.070 N 
ATOM     26  O   UNL A   1      30.241  23.722  27.273  1.00  0.00    -0.258 OA
ATOM     27  O   UNL A   1      32.320  23.039  27.436  1.00  0.00    -0.258 OA
ENDBRANCH  17  25
ENDBRANCH  12  14
ENDBRANCH   7  12
ENDBRANCH   4   6
ENDBRANCH   3   4
ENDBRANCH   2   3
ENDBRANCH   1   2
BRANCH   1  28
ATOM     28  O   UNL A   1      34.715  34.171  29.022  1.00  0.00    -0.374 OA
BRANCH  28  29
ATOM     29  C   UNL A   1      33.989  34.420  30.228  1.00  0.00     0.202 C 
BRANCH  29  30
ATOM     30  C   UNL A   1      34.725  34.116  31.538  1.00  0.00     0.261 C 
BRANCH  30  31
ATOM     31  O   UNL A   1      34.776  32.701  31.801  1.00  0.00    -0.460 OA
BRANCH  31  32
ATOM     32  C   UNL A   1      35.750  32.313  32.655  1.00  0.00     0.338 C 
ATOM     33  O   UNL A   1      35.758  32.424  33.874  1.00  0.00    -0.246 OA
BRANCH  32  34
ATOM     34  C   UNL A   1      36.774  31.542  31.927  1.00  0.00     0.060 A 
ATOM     35  C   UNL A   1      37.703  30.817  32.685  1.00  0.00     0.016 A 
ATOM     36  C   UNL A   1      36.871  31.579  30.534  1.00  0.00     0.016 A 
ATOM     37  C   UNL A   1      38.760  30.162  32.058  1.00  0.00     0.010 A 
ATOM     38  C   UNL A   1      37.939  30.930  29.906  1.00  0.00     0.010 A 
ATOM     39  C   UNL A   1      38.906  30.248  30.668  1.00  0.00    -0.014 A 
BRANCH  39  40
ATOM     40  C   UNL A   1      40.145  29.747  30.024  1.00  0.00     0.031 A 
ATOM     41  C   UNL A   1      41.291  30.699  29.814  1.00  0.00     0.074 A 
ATOM     42  C   UNL A   1      40.249  28.465  29.632  1.00  0.00     0.049 A 
ATOM     43  N   UNL A   1      42.433  30.500  29.207  1.00  0.00    -0.248 NA
ATOM     44  C   UNL A   1      41.125  32.057  30.356  1.00  0.00     0.031 C 
ATOM     45  C   UNL A   1      39.221  27.441  29.808  1.00  0.00     0.029 A 
ATOM     46  N   UNL A   1      41.270  27.811  28.988  1.00  0.00    -0.354 N 
ATOM     47  C   UNL A   1      43.111  31.711  29.276  1.00  0.00     0.074 A 
ATOM     48  C   UNL A   1      42.251  32.642  29.972  1.00  0.00     0.031 C 
ATOM     49  C   UNL A   1      39.653  26.292  29.259  1.00  0.00     0.029 A 
ATOM     50  C   UNL A   1      40.972  26.509  28.667  1.00  0.00     0.049 A 
ATOM     51  H   UNL A   1      42.132  28.235  28.773  1.00  0.00     0.167 HD
ATOM     52  C   UNL A   1      44.343  32.015  28.803  1.00  0.00     0.037 A 
ATOM     53  C   UNL A   1      41.672  25.607  27.951  1.00  0.00     0.037 A 
ATOM     54  C   UNL A   1      45.207  31.081  28.134  1.00  0.00     0.049 A 
ATOM     55  C   UNL A   1      43.021  25.988  27.400  1.00  0.00     0.074 A 
ATOM     56  C   UNL A   1      46.495  31.282  27.669  1.00  0.00     0.029 A 
ATOM     57  N   UNL A   1      44.871  29.772  27.830  1.00  0.00    -0.354 N 
ATOM     58  N   UNL A   1      43.673  27.120  27.514  1.00  0.00    -0.248 NA
ATOM     59  C   UNL A   1      43.734  24.964  26.620  1.00  0.00     0.031 C 
ATOM     60  C   UNL A   1      46.920  30.110  27.037  1.00  0.00     0.029 A 
ATOM     61  C   UNL A   1      45.915  29.164  27.154  1.00  0.00     0.049 A 
ATOM     62  H   UNL A   1      44.017  29.340  28.058  1.00  0.00     0.167 HD
ATOM     63  C   UNL A   1      44.881  26.933  26.850  1.00  0.00     0.074 A 
ATOM     64  C   UNL A   1      44.876  25.577  26.346  1.00  0.00     0.031 C 
ATOM     65  C   UNL A   1      45.903  27.806  26.675  1.00  0.00     0.037 A 
BRANCH  52  66
ATOM     66  C   UNL A   1      44.829  33.423  28.968  1.00  0.00     0.057 A 
ATOM     67  C   UNL A   1      45.656  33.803  30.032  1.00  0.00     0.134 A 
ATOM     68  C   UNL A   1      44.527  34.392  28.003  1.00  0.00     0.134 A 
ATOM     69  F   UNL A   1      45.972  32.924  30.994  1.00  0.00    -0.206 F 
ATOM     70  C   UNL A   1      46.158  35.102  30.135  1.00  0.00     0.040 A 
ATOM     71  C   UNL A   1      45.041  35.687  28.083  1.00  0.00     0.040 A 
ATOM     72  F   UNL A   1      43.743  34.091  26.956  1.00  0.00    -0.206 F 
ATOM     73  C   UNL A   1      45.860  36.045  29.153  1.00  0.00     0.006 A 
ENDBRANCH  52  66
BRANCH  53  74
ATOM     74  C   UNL A   1      41.104  24.263  27.676  1.00  0.00     0.057 A 
ATOM     75  C   UNL A   1      41.565  23.125  28.347  1.00  0.00     0.134 A 
ATOM     76  C   UNL A   1      40.122  24.078  26.695  1.00  0.00     0.134 A 
ATOM     77  F   UNL A   1      42.523  23.234  29.281  1.00  0.00    -0.206 F 
ATOM     78  C   UNL A   1      41.093  21.850  28.034  1.00  0.00     0.040 A 
ATOM     79  C   UNL A   1      39.621  22.812  26.390  1.00  0.00     0.040 A 
ATOM     80  F   UNL A   1      39.637  25.128  26.015  1.00  0.00    -0.206 F 
ATOM     81  C   UNL A   1      40.115  21.691  27.053  1.00  0.00     0.006 A 
ENDBRANCH  53  74
BRANCH  65  82
ATOM     82  C   UNL A   1      47.119  27.313  25.947  1.00  0.00     0.057 A 
ATOM     83  C   UNL A   1      48.175  26.682  26.614  1.00  0.00     0.134 A 
ATOM     84  C   UNL A   1      47.205  27.424  24.553  1.00  0.00     0.134 A 
ATOM     85  F   UNL A   1      48.157  26.555  27.949  1.00  0.00    -0.206 F 
ATOM     86  C   UNL A   1      49.286  26.196  25.921  1.00  0.00     0.040 A 
ATOM     87  C   UNL A   1      48.298  26.919  23.848  1.00  0.00     0.040 A 
ATOM     88  F   UNL A   1      46.221  28.009  23.854  1.00  0.00    -0.206 F 
ATOM     89  C   UNL A   1      49.345  26.307  24.534  1.00  0.00     0.006 A 
ENDBRANCH  65  82
ENDBRANCH  39  40
ENDBRANCH  32  34
ENDBRANCH  31  32
ENDBRANCH  30  31
ENDBRANCH  29  30
ENDBRANCH  28  29
ENDBRANCH   1  28
TORSDOF 19
ENDMDL
MODEL 3
REMARK VINA RESULT:     -10.8      1.033      1.912
REMARK SMILES CN(C)Nc1ncnc(Nc2ccc(C(=O)OCCOCCOC(=O)c3ccc(-c4c5nc(c(-c6c(F)cccc6F)c6ccc([nH]6)c(-c6c(F)cccc6F)c6nc(c(-c7c(F)cccc7F)c7ccc4[nH]7)C=C6)C=C5)cc3)cc2)c1[N+](=O)[O-]
REMARK SMILES IDX 19 1 18 2 17 3 15 4 16 5 14 6 11 7 12 8 81 9 13 10 80 11
REMARK SMILES IDX 10 12 9 14 5 15 6 16 82 17 7 18 8 19 4 20 2 22 1 23 3 24
REMARK SMILES IDX 83 25 84 26 85 27 20 28 21 29 22 30 23 31 24 32 25 33 26 34
REMARK SMILES IDX 27 35 79 36 28 37 78 38 29 39 30 40 31 41 72 42 32 43 77 44
REMARK SMILES IDX 71 45 73 46 33 47 76 48 70 49 69 50 34 52 60 53 43 54 59 55
REMARK SMILES IDX 44 56 47 57 58 58 74 59 45 60 46 61 57 63 75 64 48 65 35 66
REMARK SMILES IDX 36 67 41 68 37 69 38 70 40 71 42 72 39 73 61 74 62 75 67 76
REMARK SMILES IDX 63 77 64 78 66 79 68 80 65 81 49 82 50 83 55 84 51 85 52 86
REMARK SMILES IDX 54 87 56 88 53 89
REMARK H PARENT 10 13 4 21 73 51 47 62
REMARK Flexibility Score: inf
ROOT
ATOM      1  C   UNL A   1      40.635  21.390  27.308  1.00  0.00     0.202 C 
ENDROOT
BRANCH   1   2
ATOM      2  C   UNL A   1      39.918  21.415  25.956  1.00  0.00     0.261 C 
BRANCH   2   3
ATOM      3  O   UNL A   1      38.528  21.740  26.112  1.00  0.00    -0.460 OA
BRANCH   3   4
ATOM      4  C   UNL A   1      37.689  20.961  25.390  1.00  0.00     0.338 C 
ATOM      5  O   UNL A   1      37.911  19.832  24.974  1.00  0.00    -0.246 OA
BRANCH   4   6
ATOM      6  C   UNL A   1      36.363  21.601  25.270  1.00  0.00     0.060 A 
ATOM      7  C   UNL A   1      33.843  22.695  24.734  1.00  0.00     0.040 A 
ATOM      8  C   UNL A   1      34.015  21.309  24.755  1.00  0.00     0.027 A 
ATOM      9  C   UNL A   1      34.925  23.521  25.084  1.00  0.00     0.027 A 
ATOM     10  C   UNL A   1      35.272  20.765  25.006  1.00  0.00     0.018 A 
ATOM     11  C   UNL A   1      36.182  22.981  25.366  1.00  0.00     0.018 A 
BRANCH   7  12
ATOM     12  N   UNL A   1      32.675  23.221  24.148  1.00  0.00    -0.334 N 
ATOM     13  H   UNL A   1      31.847  22.692  24.227  1.00  0.00     0.168 HD
BRANCH  12  14
ATOM     14  C   UNL A   1      32.605  24.448  23.456  1.00  0.00     0.215 A 
ATOM     15  C   UNL A   1      32.410  26.809  23.326  1.00  0.00     0.225 A 
ATOM     16  N   UNL A   1      32.683  26.775  22.005  1.00  0.00    -0.212 NA
ATOM     17  C   UNL A   1      32.279  25.649  24.063  1.00  0.00     0.354 A 
ATOM     18  C   UNL A   1      32.917  25.580  21.469  1.00  0.00     0.227 A 
ATOM     19  N   UNL A   1      32.931  24.430  22.142  1.00  0.00    -0.212 NA
BRANCH  15  20
ATOM     20  N   UNL A   1      32.415  28.113  23.828  1.00  0.00    -0.298 N 
ATOM     21  H   UNL A   1      33.215  28.397  24.328  1.00  0.00     0.184 HD
BRANCH  20  22
ATOM     22  N   UNL A   1      31.368  29.069  23.683  1.00  0.00    -0.228 NA
ATOM     23  C   UNL A   1      30.053  28.458  23.426  1.00  0.00     0.130 C 
ATOM     24  C   UNL A   1      31.275  29.786  24.971  1.00  0.00     0.130 C 
ENDBRANCH  20  22
ENDBRANCH  15  20
BRANCH  17  25
ATOM     25  N   UNL A   1      31.650  25.667  25.353  1.00  0.00     0.070 N 
ATOM     26  O   UNL A   1      32.187  26.346  26.242  1.00  0.00    -0.258 OA
ATOM     27  O   UNL A   1      30.692  24.904  25.536  1.00  0.00    -0.258 OA
ENDBRANCH  17  25
ENDBRANCH  12  14
ENDBRANCH   7  12
ENDBRANCH   4   6
ENDBRANCH   3   4
ENDBRANCH   2   3
ENDBRANCH   1   2
BRANCH   1  28
ATOM     28  O   UNL A   1      42.054  21.233  27.267  1.00  0.00    -0.374 OA
BRANCH  28  29
ATOM     29  C   UNL A   1      42.624  20.804  26.028  1.00  0.00     0.202 C 
BRANCH  29  30
ATOM     30  C   UNL A   1      43.585  21.787  25.349  1.00  0.00     0.261 C 
BRANCH  30  31
ATOM     31  O   UNL A   1      42.919  23.008  24.975  1.00  0.00    -0.460 OA
BRANCH  31  32
ATOM     32  C   UNL A   1      43.662  24.129  25.107  1.00  0.00     0.338 C 
ATOM     33  O   UNL A   1      44.673  24.429  24.486  1.00  0.00    -0.246 OA
BRANCH  32  34
ATOM     34  C   UNL A   1      42.980  25.078  26.008  1.00  0.00     0.060 A 
ATOM     35  C   UNL A   1      43.517  26.367  26.120  1.00  0.00     0.016 A 
ATOM     36  C   UNL A   1      41.880  24.698  26.779  1.00  0.00     0.016 A 
ATOM     37  C   UNL A   1      42.985  27.269  27.038  1.00  0.00     0.010 A 
ATOM     38  C   UNL A   1      41.354  25.601  27.708  1.00  0.00     0.010 A 
ATOM     39  C   UNL A   1      41.925  26.878  27.865  1.00  0.00    -0.014 A 
BRANCH  39  40
ATOM     40  C   UNL A   1      41.507  27.749  28.991  1.00  0.00     0.031 A 
ATOM     41  C   UNL A   1      42.246  27.653  30.298  1.00  0.00     0.074 A 
ATOM     42  C   UNL A   1      40.485  28.611  28.852  1.00  0.00     0.049 A 
ATOM     43  N   UNL A   1      42.006  28.258  31.432  1.00  0.00    -0.248 NA
ATOM     44  C   UNL A   1      43.408  26.749  30.331  1.00  0.00     0.031 C 
ATOM     45  C   UNL A   1      39.712  28.818  27.629  1.00  0.00     0.029 A 
ATOM     46  N   UNL A   1      39.912  29.466  29.761  1.00  0.00    -0.354 N 
ATOM     47  C   UNL A   1      42.971  27.795  32.318  1.00  0.00     0.074 A 
ATOM     48  C   UNL A   1      43.793  26.850  31.596  1.00  0.00     0.031 C 
ATOM     49  C   UNL A   1      38.746  29.722  27.871  1.00  0.00     0.029 A 
ATOM     50  C   UNL A   1      38.815  30.133  29.273  1.00  0.00     0.049 A 
ATOM     51  H   UNL A   1      40.254  29.588  30.677  1.00  0.00     0.167 HD
ATOM     52  C   UNL A   1      43.154  28.133  33.616  1.00  0.00     0.037 A 
ATOM     53  C   UNL A   1      37.949  30.956  29.895  1.00  0.00     0.037 A 
ATOM     54  C   UNL A   1      42.352  29.092  34.325  1.00  0.00     0.049 A 
ATOM     55  C   UNL A   1      38.153  31.279  31.352  1.00  0.00     0.074 A 
ATOM     56  C   UNL A   1      42.497  29.539  35.627  1.00  0.00     0.029 A 
ATOM     57  N   UNL A   1      41.252  29.746  33.796  1.00  0.00    -0.354 N 
ATOM     58  N   UNL A   1      39.097  30.873  32.166  1.00  0.00    -0.248 NA
ATOM     59  C   UNL A   1      37.170  32.176  31.979  1.00  0.00     0.031 C 
ATOM     60  C   UNL A   1      41.454  30.428  35.902  1.00  0.00     0.029 A 
ATOM     61  C   UNL A   1      40.689  30.570  34.756  1.00  0.00     0.049 A 
ATOM     62  H   UNL A   1      40.919  29.639  32.876  1.00  0.00     0.167 HD
ATOM     63  C   UNL A   1      38.841  31.489  33.386  1.00  0.00     0.074 A 
ATOM     64  C   UNL A   1      37.659  32.304  33.203  1.00  0.00     0.031 C 
ATOM     65  C   UNL A   1      39.523  31.390  34.553  1.00  0.00     0.037 A 
BRANCH  52  66
ATOM     66  C   UNL A   1      44.252  27.445  34.370  1.00  0.00     0.057 A 
ATOM     67  C   UNL A   1      45.530  28.004  34.494  1.00  0.00     0.134 A 
ATOM     68  C   UNL A   1      44.001  26.244  35.045  1.00  0.00     0.134 A 
ATOM     69  F   UNL A   1      45.836  29.146  33.863  1.00  0.00    -0.206 F 
ATOM     70  C   UNL A   1      46.522  27.386  35.258  1.00  0.00     0.040 A 
ATOM     71  C   UNL A   1      44.978  25.629  35.829  1.00  0.00     0.040 A 
ATOM     72  F   UNL A   1      42.795  25.659  34.970  1.00  0.00    -0.206 F 
ATOM     73  C   UNL A   1      46.244  26.201  35.937  1.00  0.00     0.006 A 
ENDBRANCH  52  66
BRANCH  53  74
ATOM     74  C   UNL A   1      36.782  31.510  29.163  1.00  0.00     0.057 A 
ATOM     75  C   UNL A   1      35.676  30.715  28.843  1.00  0.00     0.134 A 
ATOM     76  C   UNL A   1      36.770  32.838  28.716  1.00  0.00     0.134 A 
ATOM     77  F   UNL A   1      35.640  29.427  29.221  1.00  0.00    -0.206 F 
ATOM     78  C   UNL A   1      34.614  31.208  28.084  1.00  0.00     0.040 A 
ATOM     79  C   UNL A   1      35.703  33.353  27.979  1.00  0.00     0.040 A 
ATOM     80  F   UNL A   1      37.799  33.654  28.989  1.00  0.00    -0.206 F 
ATOM     81  C   UNL A   1      34.625  32.533  27.652  1.00  0.00     0.006 A 
ENDBRANCH  53  74
BRANCH  65  82
ATOM     82  C   UNL A   1      39.039  32.213  35.711  1.00  0.00     0.057 A 
ATOM     83  C   UNL A   1      38.208  31.678  36.702  1.00  0.00     0.134 A 
ATOM     84  C   UNL A   1      39.456  33.542  35.860  1.00  0.00     0.134 A 
ATOM     85  F   UNL A   1      37.765  30.416  36.610  1.00  0.00    -0.206 F 
ATOM     86  C   UNL A   1      37.793  32.443  37.793  1.00  0.00     0.040 A 
ATOM     87  C   UNL A   1      39.068  34.308  36.960  1.00  0.00     0.040 A 
ATOM     88  F   UNL A   1      40.261  34.110  34.951  1.00  0.00    -0.206 F 
ATOM     89  C   UNL A   1      38.230  33.760  37.928  1.00  0.00     0.006 A 
ENDBRANCH  65  82
ENDBRANCH  39  40
ENDBRANCH  32  34
ENDBRANCH  31  32
ENDBRANCH  30  31
ENDBRANCH  29  30
ENDBRANCH  28  29
ENDBRANCH   1  28
TORSDOF 19
ENDMDL
