MODEL 1
REMARK VINA RESULT:     -10.8      0.000      0.000
REMARK SMILES O=C(OCCOCCOC(=O)c1cn(C[C@@H]2CCS(=O)(=O)C2)c(=O)[nH]c1=O)c1ccc(-c2c3nc(c(-c4c(F)cccc4F)c4ccc([nH]4)c(-c4c(F)cccc4F)c4nc(c(-c5c(F)cccc5F)c5ccc2[nH]5)C=C4)C=C3)cc1
REMARK SMILES IDX 6 1 5 2 4 3 3 4 2 5 1 6 28 7 29 8 81 9 30 10 80 11 31 12
REMARK SMILES IDX 32 13 33 14 74 15 34 16 79 17 73 18 75 19 35 20 78 21 72 22
REMARK SMILES IDX 71 23 36 25 62 26 45 27 61 28 46 29 49 30 60 31 76 32 47 33
REMARK SMILES IDX 48 34 59 36 77 37 50 38 37 39 38 40 43 41 39 42 40 43 42 44
REMARK SMILES IDX 44 45 41 46 63 47 64 48 69 49 65 50 66 51 68 52 70 53 67 54
REMARK SMILES IDX 51 55 52 56 57 57 53 58 54 59 56 60 58 61 55 62 7 63 8 64
REMARK SMILES IDX 9 65 10 66 11 67 12 68 13 69 26 70 14 71 25 72 27 73 23 74
REMARK SMILES IDX 24 76 15 77 16 78 17 79 22 80 18 81 19 82 20 83 21 84
REMARK H PARENT 75 24 49 35 25 75
REMARK Flexibility Score: inf
ROOT
ATOM      1  O   UNL A   1      31.491  30.761  25.765  1.00  0.00    -0.374 OA
ENDROOT
BRANCH   1   2
ATOM      2  C   UNL A   1      31.298  31.773  26.753  1.00  0.00     0.202 C 
BRANCH   2   3
ATOM      3  C   UNL A   1      32.182  33.004  26.558  1.00  0.00     0.261 C 
BRANCH   3   4
ATOM      4  O   UNL A   1      32.026  33.930  27.640  1.00  0.00    -0.460 OA
BRANCH   4   5
ATOM      5  C   UNL A   1      32.971  34.536  28.390  1.00  0.00     0.338 C 
ATOM      6  O   UNL A   1      32.785  35.721  28.673  1.00  0.00    -0.246 OA
BRANCH   5   7
ATOM      7  C   UNL A   1      34.245  33.905  28.886  1.00  0.00     0.060 A 
ATOM      8  C   UNL A   1      34.091  32.737  29.661  1.00  0.00     0.016 A 
ATOM      9  C   UNL A   1      35.545  34.392  28.724  1.00  0.00     0.016 A 
ATOM     10  C   UNL A   1      35.181  32.114  30.278  1.00  0.00     0.010 A 
ATOM     11  C   UNL A   1      36.638  33.783  29.340  1.00  0.00     0.010 A 
ATOM     12  C   UNL A   1      36.459  32.651  30.130  1.00  0.00    -0.014 A 
BRANCH  12  13
ATOM     13  C   UNL A   1      37.648  32.020  30.724  1.00  0.00     0.031 A 
ATOM     14  C   UNL A   1      38.350  30.904  30.013  1.00  0.00     0.074 A 
ATOM     15  C   UNL A   1      37.981  32.378  31.976  1.00  0.00     0.049 A 
ATOM     16  N   UNL A   1      39.388  30.209  30.398  1.00  0.00    -0.248 NA
ATOM     17  C   UNL A   1      37.804  30.501  28.707  1.00  0.00     0.031 C 
ATOM     18  C   UNL A   1      37.283  33.392  32.771  1.00  0.00     0.029 A 
ATOM     19  N   UNL A   1      38.951  31.901  32.813  1.00  0.00    -0.354 N 
ATOM     20  C   UNL A   1      39.630  29.295  29.380  1.00  0.00     0.074 A 
ATOM     21  C   UNL A   1      38.607  29.496  28.377  1.00  0.00     0.031 C 
ATOM     22  C   UNL A   1      37.831  33.439  33.995  1.00  0.00     0.029 A 
ATOM     23  C   UNL A   1      38.909  32.460  34.066  1.00  0.00     0.049 A 
ATOM     24  H   UNL A   1      39.614  31.224  32.544  1.00  0.00     0.167 HD
ATOM     25  C   UNL A   1      40.627  28.382  29.300  1.00  0.00     0.037 A 
ATOM     26  C   UNL A   1      39.658  32.197  35.151  1.00  0.00     0.037 A 
ATOM     27  C   UNL A   1      41.614  28.190  30.331  1.00  0.00     0.049 A 
ATOM     28  C   UNL A   1      40.758  31.182  35.031  1.00  0.00     0.074 A 
ATOM     29  C   UNL A   1      42.729  27.371  30.322  1.00  0.00     0.029 A 
ATOM     30  N   UNL A   1      41.583  28.810  31.573  1.00  0.00    -0.354 N 
ATOM     31  N   UNL A   1      41.081  30.434  34.004  1.00  0.00    -0.248 NA
ATOM     32  C   UNL A   1      41.612  30.991  36.210  1.00  0.00     0.031 C 
ATOM     33  C   UNL A   1      43.344  27.458  31.576  1.00  0.00     0.029 A 
ATOM     34  C   UNL A   1      42.639  28.367  32.350  1.00  0.00     0.049 A 
ATOM     35  H   UNL A   1      40.908  29.469  31.858  1.00  0.00     0.167 HD
ATOM     36  C   UNL A   1      42.194  29.707  34.398  1.00  0.00     0.074 A 
ATOM     37  C   UNL A   1      42.494  30.113  35.757  1.00  0.00     0.031 C 
ATOM     38  C   UNL A   1      42.909  28.792  33.700  1.00  0.00     0.037 A 
BRANCH  25  39
ATOM     39  C   UNL A   1      40.708  27.530  28.067  1.00  0.00     0.057 A 
ATOM     40  C   UNL A   1      40.111  26.264  28.025  1.00  0.00     0.134 A 
ATOM     41  C   UNL A   1      41.443  27.931  26.943  1.00  0.00     0.134 A 
ATOM     42  F   UNL A   1      39.401  25.811  29.069  1.00  0.00    -0.206 F 
ATOM     43  C   UNL A   1      40.249  25.425  26.916  1.00  0.00     0.040 A 
ATOM     44  C   UNL A   1      41.570  27.110  25.819  1.00  0.00     0.040 A 
ATOM     45  F   UNL A   1      42.038  29.134  26.912  1.00  0.00    -0.206 F 
ATOM     46  C   UNL A   1      40.979  25.849  25.808  1.00  0.00     0.006 A 
ENDBRANCH  25  39
BRANCH  26  47
ATOM     47  C   UNL A   1      39.417  32.933  36.413  1.00  0.00     0.057 A 
ATOM     48  C   UNL A   1      40.058  34.147  36.686  1.00  0.00     0.134 A 
ATOM     49  C   UNL A   1      38.548  32.427  37.386  1.00  0.00     0.134 A 
ATOM     50  F   UNL A   1      40.916  34.674  35.800  1.00  0.00    -0.206 F 
ATOM     51  C   UNL A   1      39.842  34.833  37.882  1.00  0.00     0.040 A 
ATOM     52  C   UNL A   1      38.306  33.114  38.577  1.00  0.00     0.040 A 
ATOM     53  F   UNL A   1      37.900  31.271  37.178  1.00  0.00    -0.206 F 
ATOM     54  C   UNL A   1      38.957  34.320  38.828  1.00  0.00     0.006 A 
ENDBRANCH  26  47
BRANCH  38  55
ATOM     55  C   UNL A   1      44.099  28.198  34.393  1.00  0.00     0.057 A 
ATOM     56  C   UNL A   1      45.349  28.823  34.317  1.00  0.00     0.134 A 
ATOM     57  C   UNL A   1      44.009  27.002  35.113  1.00  0.00     0.134 A 
ATOM     58  F   UNL A   1      45.499  29.969  33.635  1.00  0.00    -0.206 F 
ATOM     59  C   UNL A   1      46.473  28.277  34.935  1.00  0.00     0.040 A 
ATOM     60  C   UNL A   1      45.121  26.458  35.757  1.00  0.00     0.040 A 
ATOM     61  F   UNL A   1      42.834  26.367  35.235  1.00  0.00    -0.206 F 
ATOM     62  C   UNL A   1      46.358  27.093  35.664  1.00  0.00     0.006 A 
ENDBRANCH  38  55
ENDBRANCH  12  13
ENDBRANCH   5   7
ENDBRANCH   4   5
ENDBRANCH   3   4
ENDBRANCH   2   3
ENDBRANCH   1   2
BRANCH   1  63
ATOM     63  C   UNL A   1      32.458  29.758  26.085  1.00  0.00     0.202 C 
BRANCH  63  64
ATOM     64  C   UNL A   1      33.180  29.295  24.818  1.00  0.00     0.261 C 
BRANCH  64  65
ATOM     65  O   UNL A   1      33.636  27.947  25.015  1.00  0.00    -0.459 OA
BRANCH  65  66
ATOM     66  C   UNL A   1      32.891  26.977  24.410  1.00  0.00     0.345 C 
ATOM     67  O   UNL A   1      32.540  26.965  23.243  1.00  0.00    -0.246 OA
BRANCH  66  68
ATOM     68  C   UNL A   1      32.742  25.868  25.370  1.00  0.00     0.141 A 
ATOM     69  C   UNL A   1      33.574  24.817  25.319  1.00  0.00     0.112 A 
ATOM     70  C   UNL A   1      31.643  25.826  26.355  1.00  0.00     0.268 A 
ATOM     71  N   UNL A   1      33.416  23.700  26.119  1.00  0.00    -0.299 N 
ATOM     72  N   UNL A   1      31.460  24.625  26.988  1.00  0.00    -0.273 N 
ATOM     73  O   UNL A   1      30.868  26.753  26.558  1.00  0.00    -0.268 OA
ATOM     74  C   UNL A   1      32.285  23.538  26.914  1.00  0.00     0.328 A 
ATOM     75  H   UNL A   1      30.657  24.537  27.550  1.00  0.00     0.175 HD
ATOM     76  O   UNL A   1      32.041  22.525  27.563  1.00  0.00    -0.248 OA
BRANCH  71  77
ATOM     77  C   UNL A   1      34.420  22.643  26.085  1.00  0.00     0.131 C 
BRANCH  77  78
ATOM     78  C   UNL A   1      34.511  21.846  24.765  1.00  0.00     0.025 C 
ATOM     79  C   UNL A   1      33.269  21.914  23.858  1.00  0.00     0.022 C 
ATOM     80  C   UNL A   1      34.847  20.360  24.927  1.00  0.00     0.142 C 
ATOM     81  C   UNL A   1      32.302  20.799  24.234  1.00  0.00     0.137 C 
ATOM     82  S   UNL A   1      33.311  19.454  24.814  1.00  0.00     0.150 S 
ATOM     83  O   UNL A   1      32.884  19.091  26.149  1.00  0.00    -0.229 OA
ATOM     84  O   UNL A   1      33.436  18.475  23.756  1.00  0.00    -0.229 OA
ENDBRANCH  77  78
ENDBRANCH  71  77
ENDBRANCH  66  68
ENDBRANCH  65  66
ENDBRANCH  64  65
ENDBRANCH  63  64
ENDBRANCH   1  63
TORSDOF 16
ENDMDL
MODEL 2
REMARK VINA RESULT:     -10.7      4.302      9.405
REMARK SMILES O=C(OCCOCCOC(=O)c1cn(C[C@@H]2CCS(=O)(=O)C2)c(=O)[nH]c1=O)c1ccc(-c2c3nc(c(-c4c(F)cccc4F)c4ccc([nH]4)c(-c4c(F)cccc4F)c4nc(c(-c5c(F)cccc5F)c5ccc2[nH]5)C=C4)C=C3)cc1
REMARK SMILES IDX 6 1 5 2 4 3 3 4 2 5 1 6 28 7 29 8 81 9 30 10 80 11 31 12
REMARK SMILES IDX 32 13 33 14 74 15 34 16 79 17 73 18 75 19 35 20 78 21 72 22
REMARK SMILES IDX 71 23 36 25 62 26 45 27 61 28 46 29 49 30 60 31 76 32 47 33
REMARK SMILES IDX 48 34 59 36 77 37 50 38 37 39 38 40 43 41 39 42 40 43 42 44
REMARK SMILES IDX 44 45 41 46 63 47 64 48 69 49 65 50 66 51 68 52 70 53 67 54
REMARK SMILES IDX 51 55 52 56 57 57 53 58 54 59 56 60 58 61 55 62 7 63 8 64
REMARK SMILES IDX 9 65 10 66 11 67 12 68 13 69 26 70 14 71 25 72 27 73 23 74
REMARK SMILES IDX 24 76 15 77 16 78 17 79 22 80 18 81 19 82 20 83 21 84
REMARK H PARENT 75 24 49 35 25 75
REMARK Flexibility Score: inf
ROOT
ATOM      1  O   UNL A   1      38.450  21.563  25.003  1.00  0.00    -0.374 OA
ENDROOT
BRANCH   1   2
ATOM      2  C   UNL A   1      37.847  20.271  24.944  1.00  0.00     0.202 C 
BRANCH   2   3
ATOM      3  C   UNL A   1      38.619  19.194  25.707  1.00  0.00     0.261 C 
BRANCH   3   4
ATOM      4  O   UNL A   1      39.982  19.127  25.269  1.00  0.00    -0.460 OA
BRANCH   4   5
ATOM      5  C   UNL A   1      41.110  19.471  25.927  1.00  0.00     0.338 C 
ATOM      6  O   UNL A   1      41.986  18.609  26.022  1.00  0.00    -0.246 OA
BRANCH   5   7
ATOM      7  C   UNL A   1      41.381  20.800  26.580  1.00  0.00     0.060 A 
ATOM      8  C   UNL A   1      41.875  21.812  25.732  1.00  0.00     0.016 A 
ATOM      9  C   UNL A   1      41.269  21.109  27.939  1.00  0.00     0.016 A 
ATOM     10  C   UNL A   1      42.275  23.058  26.228  1.00  0.00     0.010 A 
ATOM     11  C   UNL A   1      41.670  22.344  28.445  1.00  0.00     0.010 A 
ATOM     12  C   UNL A   1      42.188  23.317  27.595  1.00  0.00    -0.014 A 
BRANCH  12  13
ATOM     13  C   UNL A   1      42.559  24.620  28.170  1.00  0.00     0.031 A 
ATOM     14  C   UNL A   1      41.529  25.693  28.345  1.00  0.00     0.074 A 
ATOM     15  C   UNL A   1      43.865  24.853  28.387  1.00  0.00     0.049 A 
ATOM     16  N   UNL A   1      41.680  26.909  28.802  1.00  0.00    -0.248 NA
ATOM     17  C   UNL A   1      40.153  25.367  27.936  1.00  0.00     0.031 C 
ATOM     18  C   UNL A   1      44.940  23.887  28.148  1.00  0.00     0.029 A 
ATOM     19  N   UNL A   1      44.513  25.982  28.807  1.00  0.00    -0.354 N 
ATOM     20  C   UNL A   1      40.419  27.491  28.749  1.00  0.00     0.074 A 
ATOM     21  C   UNL A   1      39.522  26.509  28.179  1.00  0.00     0.031 C 
ATOM     22  C   UNL A   1      46.119  24.476  28.397  1.00  0.00     0.029 A 
ATOM     23  C   UNL A   1      45.879  25.855  28.807  1.00  0.00     0.049 A 
ATOM     24  H   UNL A   1      44.045  26.804  29.082  1.00  0.00     0.167 HD
ATOM     25  C   UNL A   1      40.057  28.732  29.152  1.00  0.00     0.037 A 
ATOM     26  C   UNL A   1      46.827  26.762  29.098  1.00  0.00     0.037 A 
ATOM     27  C   UNL A   1      40.983  29.695  29.691  1.00  0.00     0.049 A 
ATOM     28  C   UNL A   1      46.396  28.129  29.546  1.00  0.00     0.074 A 
ATOM     29  C   UNL A   1      40.721  30.943  30.226  1.00  0.00     0.029 A 
ATOM     30  N   UNL A   1      42.360  29.522  29.732  1.00  0.00    -0.354 N 
ATOM     31  N   UNL A   1      45.184  28.619  29.645  1.00  0.00    -0.248 NA
ATOM     32  C   UNL A   1      47.459  29.060  29.943  1.00  0.00     0.031 C 
ATOM     33  C   UNL A   1      41.944  31.545  30.546  1.00  0.00     0.029 A 
ATOM     34  C   UNL A   1      42.964  30.653  30.253  1.00  0.00     0.049 A 
ATOM     35  H   UNL A   1      42.836  28.712  29.435  1.00  0.00     0.167 HD
ATOM     36  C   UNL A   1      45.333  29.903  30.147  1.00  0.00     0.074 A 
ATOM     37  C   UNL A   1      46.755  30.110  30.339  1.00  0.00     0.031 C 
ATOM     38  C   UNL A   1      44.383  30.827  30.431  1.00  0.00     0.037 A 
BRANCH  25  39
ATOM     39  C   UNL A   1      38.611  29.120  29.036  1.00  0.00     0.057 A 
ATOM     40  C   UNL A   1      38.096  29.628  27.837  1.00  0.00     0.134 A 
ATOM     41  C   UNL A   1      37.744  29.062  30.135  1.00  0.00     0.134 A 
ATOM     42  F   UNL A   1      38.872  29.722  26.747  1.00  0.00    -0.206 F 
ATOM     43  C   UNL A   1      36.775  30.072  27.737  1.00  0.00     0.040 A 
ATOM     44  C   UNL A   1      36.414  29.482  30.042  1.00  0.00     0.040 A 
ATOM     45  F   UNL A   1      38.169  28.582  31.314  1.00  0.00    -0.206 F 
ATOM     46  C   UNL A   1      35.929  29.997  28.842  1.00  0.00     0.006 A 
ENDBRANCH  25  39
BRANCH  26  47
ATOM     47  C   UNL A   1      48.259  26.390  29.016  1.00  0.00     0.057 A 
ATOM     48  C   UNL A   1      48.922  25.792  30.094  1.00  0.00     0.134 A 
ATOM     49  C   UNL A   1      49.002  26.640  27.858  1.00  0.00     0.134 A 
ATOM     50  F   UNL A   1      48.268  25.543  31.239  1.00  0.00    -0.206 F 
ATOM     51  C   UNL A   1      50.274  25.454  30.022  1.00  0.00     0.040 A 
ATOM     52  C   UNL A   1      50.349  26.287  27.764  1.00  0.00     0.040 A 
ATOM     53  F   UNL A   1      48.418  27.204  26.790  1.00  0.00    -0.206 F 
ATOM     54  C   UNL A   1      50.989  25.694  28.851  1.00  0.00     0.006 A 
ENDBRANCH  26  47
BRANCH  38  55
ATOM     55  C   UNL A   1      44.860  32.126  31.006  1.00  0.00     0.057 A 
ATOM     56  C   UNL A   1      45.165  33.204  30.167  1.00  0.00     0.134 A 
ATOM     57  C   UNL A   1      45.036  32.299  32.384  1.00  0.00     0.134 A 
ATOM     58  F   UNL A   1      45.022  33.096  28.837  1.00  0.00    -0.206 F 
ATOM     59  C   UNL A   1      45.630  34.414  30.680  1.00  0.00     0.040 A 
ATOM     60  C   UNL A   1      45.478  33.514  32.911  1.00  0.00     0.040 A 
ATOM     61  F   UNL A   1      44.745  31.308  33.238  1.00  0.00    -0.206 F 
ATOM     62  C   UNL A   1      45.782  34.573  32.057  1.00  0.00     0.006 A 
ENDBRANCH  38  55
ENDBRANCH  12  13
ENDBRANCH   5   7
ENDBRANCH   4   5
ENDBRANCH   3   4
ENDBRANCH   2   3
ENDBRANCH   1   2
BRANCH   1  63
ATOM     63  C   UNL A   1      38.030  22.395  26.087  1.00  0.00     0.202 C 
BRANCH  63  64
ATOM     64  C   UNL A   1      37.034  23.446  25.594  1.00  0.00     0.261 C 
BRANCH  64  65
ATOM     65  O   UNL A   1      35.703  23.000  25.901  1.00  0.00    -0.459 OA
BRANCH  65  66
ATOM     66  C   UNL A   1      34.859  22.883  24.835  1.00  0.00     0.345 C 
ATOM     67  O   UNL A   1      35.178  22.594  23.696  1.00  0.00    -0.246 OA
BRANCH  66  68
ATOM     68  C   UNL A   1      33.480  22.992  25.347  1.00  0.00     0.141 A 
ATOM     69  C   UNL A   1      32.806  24.146  25.225  1.00  0.00     0.112 A 
ATOM     70  C   UNL A   1      32.823  21.888  26.073  1.00  0.00     0.268 A 
ATOM     71  N   UNL A   1      31.555  24.341  25.781  1.00  0.00    -0.299 N 
ATOM     72  N   UNL A   1      31.666  22.214  26.727  1.00  0.00    -0.273 N 
ATOM     73  O   UNL A   1      33.296  20.762  26.181  1.00  0.00    -0.268 OA
ATOM     74  C   UNL A   1      30.991  23.399  26.636  1.00  0.00     0.328 A 
ATOM     75  H   UNL A   1      31.282  21.529  27.321  1.00  0.00     0.175 HD
ATOM     76  O   UNL A   1      29.935  23.562  27.239  1.00  0.00    -0.248 OA
BRANCH  71  77
ATOM     77  C   UNL A   1      30.837  25.583  25.518  1.00  0.00     0.131 C 
BRANCH  77  78
ATOM     78  C   UNL A   1      30.295  25.753  24.081  1.00  0.00     0.025 C 
ATOM     79  C   UNL A   1      31.359  25.832  22.972  1.00  0.00     0.022 C 
ATOM     80  C   UNL A   1      29.367  26.955  23.876  1.00  0.00     0.142 C 
ATOM     81  C   UNL A   1      31.780  27.283  22.773  1.00  0.00     0.137 C 
ATOM     82  S   UNL A   1      30.346  28.263  23.152  1.00  0.00     0.150 S 
ATOM     83  O   UNL A   1      30.691  29.215  24.188  1.00  0.00    -0.229 OA
ATOM     84  O   UNL A   1      29.719  28.669  21.914  1.00  0.00    -0.229 OA
ENDBRANCH  77  78
ENDBRANCH  71  77
ENDBRANCH  66  68
ENDBRANCH  65  66
ENDBRANCH  64  65
ENDBRANCH  63  64
ENDBRANCH   1  63
TORSDOF 16
ENDMDL
MODEL 3
REMARK VINA RESULT:     -10.7      4.301      8.980
REMARK SMILES O=C(OCCOCCOC(=O)c1cn(C[C@@H]2CCS(=O)(=O)C2)c(=O)[nH]c1=O)c1ccc(-c2c3nc(c(-c4c(F)cccc4F)c4ccc([nH]4)c(-c4c(F)cccc4F)c4nc(c(-c5c(F)cccc5F)c5ccc2[nH]5)C=C4)C=C3)cc1
REMARK SMILES IDX 6 1 5 2 4 3 3 4 2 5 1 6 28 7 29 8 81 9 30 10 80 11 31 12
REMARK SMILES IDX 32 13 33 14 74 15 34 16 79 17 73 18 75 19 35 20 78 21 72 22
REMARK SMILES IDX 71 23 36 25 62 26 45 27 61 28 46 29 49 30 60 31 76 32 47 33
REMARK SMILES IDX 48 34 59 36 77 37 50 38 37 39 38 40 43 41 39 42 40 43 42 44
REMARK SMILES IDX 44 45 41 46 63 47 64 48 69 49 65 50 66 51 68 52 70 53 67 54
REMARK SMILES IDX 51 55 52 56 57 57 53 58 54 59 56 60 58 61 55 62 7 63 8 64
REMARK SMILES IDX 9 65 10 66 11 67 12 68 13 69 26 70 14 71 25 72 27 73 23 74
REMARK SMILES IDX 24 76 15 77 16 78 17 79 22 80 18 81 19 82 20 83 21 84
REMARK H PARENT 75 24 49 35 25 75
REMARK Flexibility Score: inf
ROOT
ATOM      1  O   UNL A   1      37.579  22.078  24.906  1.00  0.00    -0.374 OA
ENDROOT
BRANCH   1   2
ATOM      2  C   UNL A   1      38.318  21.158  25.709  1.00  0.00     0.202 C 
BRANCH   2   3
ATOM      3  C   UNL A   1      38.719  19.880  24.973  1.00  0.00     0.261 C 
BRANCH   3   4
ATOM      4  O   UNL A   1      39.707  19.148  25.709  1.00  0.00    -0.460 OA
BRANCH   4   5
ATOM      5  C   UNL A   1      40.996  19.463  25.959  1.00  0.00     0.338 C 
ATOM      6  O   UNL A   1      41.831  18.573  25.790  1.00  0.00    -0.246 OA
BRANCH   5   7
ATOM      7  C   UNL A   1      41.500  20.792  26.455  1.00  0.00     0.060 A 
ATOM      8  C   UNL A   1      41.346  21.031  27.835  1.00  0.00     0.016 A 
ATOM      9  C   UNL A   1      42.029  21.832  25.686  1.00  0.00     0.016 A 
ATOM     10  C   UNL A   1      41.666  22.266  28.410  1.00  0.00     0.010 A 
ATOM     11  C   UNL A   1      42.346  23.069  26.245  1.00  0.00     0.010 A 
ATOM     12  C   UNL A   1      42.153  23.296  27.605  1.00  0.00    -0.014 A 
BRANCH  12  13
ATOM     13  C   UNL A   1      42.541  24.604  28.157  1.00  0.00     0.031 A 
ATOM     14  C   UNL A   1      41.520  25.684  28.338  1.00  0.00     0.074 A 
ATOM     15  C   UNL A   1      43.852  24.833  28.346  1.00  0.00     0.049 A 
ATOM     16  N   UNL A   1      41.685  26.905  28.776  1.00  0.00    -0.248 NA
ATOM     17  C   UNL A   1      40.135  25.360  27.960  1.00  0.00     0.031 C 
ATOM     18  C   UNL A   1      44.918  23.859  28.098  1.00  0.00     0.029 A 
ATOM     19  N   UNL A   1      44.514  25.964  28.739  1.00  0.00    -0.354 N 
ATOM     20  C   UNL A   1      40.427  27.492  28.740  1.00  0.00     0.074 A 
ATOM     21  C   UNL A   1      39.514  26.508  28.200  1.00  0.00     0.031 C 
ATOM     22  C   UNL A   1      46.105  24.445  28.317  1.00  0.00     0.029 A 
ATOM     23  C   UNL A   1      45.878  25.830  28.714  1.00  0.00     0.049 A 
ATOM     24  H   UNL A   1      44.055  26.791  29.013  1.00  0.00     0.167 HD
ATOM     25  C   UNL A   1      40.078  28.740  29.135  1.00  0.00     0.037 A 
ATOM     26  C   UNL A   1      46.837  26.736  28.977  1.00  0.00     0.037 A 
ATOM     27  C   UNL A   1      41.019  29.705  29.644  1.00  0.00     0.049 A 
ATOM     28  C   UNL A   1      46.420  28.110  29.415  1.00  0.00     0.074 A 
ATOM     29  C   UNL A   1      40.774  30.961  30.169  1.00  0.00     0.029 A 
ATOM     30  N   UNL A   1      42.395  29.525  29.661  1.00  0.00    -0.354 N 
ATOM     31  N   UNL A   1      45.213  28.608  29.532  1.00  0.00    -0.248 NA
ATOM     32  C   UNL A   1      47.495  29.040  29.781  1.00  0.00     0.031 C 
ATOM     33  C   UNL A   1      42.005  31.560  30.458  1.00  0.00     0.029 A 
ATOM     34  C   UNL A   1      43.015  30.659  30.157  1.00  0.00     0.049 A 
ATOM     35  H   UNL A   1      42.862  28.710  29.365  1.00  0.00     0.167 HD
ATOM     36  C   UNL A   1      45.378  29.896  30.015  1.00  0.00     0.074 A 
ATOM     37  C   UNL A   1      46.804  30.099  30.177  1.00  0.00     0.031 C 
ATOM     38  C   UNL A   1      44.438  30.828  30.305  1.00  0.00     0.037 A 
BRANCH  25  39
ATOM     39  C   UNL A   1      38.632  29.134  29.042  1.00  0.00     0.057 A 
ATOM     40  C   UNL A   1      38.100  29.644  27.851  1.00  0.00     0.134 A 
ATOM     41  C   UNL A   1      37.782  29.079  30.154  1.00  0.00     0.134 A 
ATOM     42  F   UNL A   1      38.860  29.734  26.749  1.00  0.00    -0.206 F 
ATOM     43  C   UNL A   1      36.780  30.093  27.772  1.00  0.00     0.040 A 
ATOM     44  C   UNL A   1      36.453  29.505  30.082  1.00  0.00     0.040 A 
ATOM     45  F   UNL A   1      38.224  28.598  31.326  1.00  0.00    -0.206 F 
ATOM     46  C   UNL A   1      35.951  30.022  28.890  1.00  0.00     0.006 A 
ENDBRANCH  25  39
BRANCH  26  47
ATOM     47  C   UNL A   1      48.265  26.355  28.871  1.00  0.00     0.057 A 
ATOM     48  C   UNL A   1      48.950  25.784  29.950  1.00  0.00     0.134 A 
ATOM     49  C   UNL A   1      48.982  26.572  27.691  1.00  0.00     0.134 A 
ATOM     50  F   UNL A   1      48.321  25.567  31.115  1.00  0.00    -0.206 F 
ATOM     51  C   UNL A   1      50.299  25.438  29.856  1.00  0.00     0.040 A 
ATOM     52  C   UNL A   1      50.326  26.211  27.575  1.00  0.00     0.040 A 
ATOM     53  F   UNL A   1      48.376  27.110  26.622  1.00  0.00    -0.206 F 
ATOM     54  C   UNL A   1      50.988  25.644  28.663  1.00  0.00     0.006 A 
ENDBRANCH  26  47
BRANCH  38  55
ATOM     55  C   UNL A   1      44.932  32.132  30.855  1.00  0.00     0.057 A 
ATOM     56  C   UNL A   1      45.236  33.195  29.997  1.00  0.00     0.134 A 
ATOM     57  C   UNL A   1      45.125  32.325  32.228  1.00  0.00     0.134 A 
ATOM     58  F   UNL A   1      45.078  33.068  28.670  1.00  0.00    -0.206 F 
ATOM     59  C   UNL A   1      45.717  34.409  30.486  1.00  0.00     0.040 A 
ATOM     60  C   UNL A   1      45.582  33.544  32.731  1.00  0.00     0.040 A 
ATOM     61  F   UNL A   1      44.834  31.349  33.101  1.00  0.00    -0.206 F 
ATOM     62  C   UNL A   1      45.885  34.587  31.858  1.00  0.00     0.006 A 
ENDBRANCH  38  55
ENDBRANCH  12  13
ENDBRANCH   5   7
ENDBRANCH   4   5
ENDBRANCH   3   4
ENDBRANCH   2   3
ENDBRANCH   1   2
BRANCH   1  63
ATOM     63  C   UNL A   1      36.394  22.609  25.503  1.00  0.00     0.202 C 
BRANCH  63  64
ATOM     64  C   UNL A   1      35.911  23.834  24.723  1.00  0.00     0.261 C 
BRANCH  64  65
ATOM     65  O   UNL A   1      35.196  24.698  25.621  1.00  0.00    -0.459 OA
BRANCH  65  66
ATOM     66  C   UNL A   1      34.026  25.210  25.139  1.00  0.00     0.345 C 
ATOM     67  O   UNL A   1      33.917  26.106  24.322  1.00  0.00    -0.246 OA
BRANCH  66  68
ATOM     68  C   UNL A   1      32.929  24.366  25.649  1.00  0.00     0.141 A 
ATOM     69  C   UNL A   1      32.850  23.076  25.291  1.00  0.00     0.112 A 
ATOM     70  C   UNL A   1      31.847  24.911  26.493  1.00  0.00     0.268 A 
ATOM     71  N   UNL A   1      31.787  22.266  25.647  1.00  0.00    -0.299 N 
ATOM     72  N   UNL A   1      30.760  24.097  26.662  1.00  0.00    -0.273 N 
ATOM     73  O   UNL A   1      31.844  26.046  26.955  1.00  0.00    -0.268 OA
ATOM     74  C   UNL A   1      30.659  22.792  26.270  1.00  0.00     0.328 A 
ATOM     75  H   UNL A   1      29.977  24.488  27.111  1.00  0.00     0.175 HD
ATOM     76  O   UNL A   1      29.645  22.144  26.516  1.00  0.00    -0.248 OA
BRANCH  71  77
ATOM     77  C   UNL A   1      31.820  20.847  25.313  1.00  0.00     0.131 C 
BRANCH  77  78
ATOM     78  C   UNL A   1      32.912  20.421  24.306  1.00  0.00     0.025 C 
ATOM     79  C   UNL A   1      32.404  19.937  22.936  1.00  0.00     0.022 C 
ATOM     80  C   UNL A   1      33.876  19.343  24.815  1.00  0.00     0.142 C 
ATOM     81  C   UNL A   1      32.145  18.436  22.990  1.00  0.00     0.137 C 
ATOM     82  S   UNL A   1      33.322  17.780  24.150  1.00  0.00     0.150 S 
ATOM     83  O   UNL A   1      32.609  17.060  25.184  1.00  0.00    -0.229 OA
ATOM     84  O   UNL A   1      34.417  17.184  23.416  1.00  0.00    -0.229 OA
ENDBRANCH  77  78
ENDBRANCH  71  77
ENDBRANCH  66  68
ENDBRANCH  65  66
ENDBRANCH  64  65
ENDBRANCH  63  64
ENDBRANCH   1  63
TORSDOF 16
ENDMDL
