MODEL 1
REMARK VINA RESULT:     -10.4      0.000      0.000
REMARK SMILES CC(C)N(CC(=O)OCCOCCOC(=O)c1ccc(-c2c3nc(c(-c4c(F)cccc4F)c4ccc([nH]4)c(-c4c(F)cccc4F)c4nc(c(-c5c(F)cccc5F)c5ccc2[nH]5)C=C4)C=C3)cc1)C(=O)NC1C(C)(C)C1(C)C
REMARK SMILES IDX 10 1 9 2 8 3 6 4 7 5 5 6 4 7 2 8 1 9 3 10 71 11 72 12 73 13
REMARK SMILES IDX 74 15 75 16 78 17 76 18 77 19 79 20 80 21 11 22 12 23 13 24
REMARK SMILES IDX 14 25 15 26 16 27 17 28 18 29 70 30 19 31 69 32 20 33 21 34
REMARK SMILES IDX 22 35 63 36 23 37 68 38 62 39 64 40 24 41 67 42 61 43 60 44
REMARK SMILES IDX 25 46 51 47 34 48 50 49 35 50 38 51 49 52 65 53 36 54 37 55
REMARK SMILES IDX 48 57 66 58 39 59 26 60 27 61 32 62 28 63 29 64 31 65 33 66
REMARK SMILES IDX 30 67 52 68 53 69 58 70 54 71 55 72 57 73 59 74 56 75 40 76
REMARK SMILES IDX 41 77 46 78 42 79 43 80 45 81 47 82 44 83
REMARK H PARENT 73 14 64 45 38 56
REMARK Flexibility Score: inf
ROOT
ATOM      1  C   UNL A   1      32.066  29.054  26.434  1.00  0.00     0.202 C 
ENDROOT
BRANCH   1   2
ATOM      2  C   UNL A   1      33.087  28.358  25.523  1.00  0.00     0.261 C 
BRANCH   2   3
ATOM      3  O   UNL A   1      33.904  27.344  26.136  1.00  0.00    -0.462 OA
BRANCH   3   4
ATOM      4  C   UNL A   1      33.858  26.179  25.437  1.00  0.00     0.325 C 
ATOM      5  O   UNL A   1      33.964  26.153  24.215  1.00  0.00    -0.250 OA
BRANCH   4   6
ATOM      6  C   UNL A   1      33.421  24.958  26.232  1.00  0.00     0.244 C 
BRANCH   6   7
ATOM      7  N   UNL A   1      32.086  24.396  26.148  1.00  0.00    -0.311 N 
BRANCH   7   8
ATOM      8  C   UNL A   1      31.178  25.060  25.170  1.00  0.00     0.081 C 
ATOM      9  C   UNL A   1      30.631  24.172  24.036  1.00  0.00     0.031 C 
ATOM     10  C   UNL A   1      30.049  25.820  25.858  1.00  0.00     0.031 C 
ENDBRANCH   7   8
BRANCH   7  11
ATOM     11  C   UNL A   1      31.725  23.192  26.666  1.00  0.00     0.318 C 
ATOM     12  O   UNL A   1      30.723  23.075  27.383  1.00  0.00    -0.249 OA
ATOM     13  N   UNL A   1      32.346  22.021  26.429  1.00  0.00    -0.334 N 
ATOM     14  H   UNL A   1      31.734  21.301  26.704  1.00  0.00     0.165 HD
BRANCH  13  15
ATOM     15  C   UNL A   1      33.539  21.406  25.937  1.00  0.00     0.096 C 
ATOM     16  C   UNL A   1      33.376  20.625  24.627  1.00  0.00    -0.007 C 
ATOM     17  C   UNL A   1      34.593  21.515  24.838  1.00  0.00    -0.007 C 
ATOM     18  C   UNL A   1      33.596  19.134  24.569  1.00  0.00     0.014 C 
ATOM     19  C   UNL A   1      32.284  21.083  23.671  1.00  0.00     0.014 C 
ATOM     20  C   UNL A   1      34.811  22.538  23.746  1.00  0.00     0.014 C 
ATOM     21  C   UNL A   1      35.937  20.888  25.244  1.00  0.00     0.014 C 
ENDBRANCH  13  15
ENDBRANCH   7  11
ENDBRANCH   6   7
ENDBRANCH   4   6
ENDBRANCH   3   4
ENDBRANCH   2   3
ENDBRANCH   1   2
BRANCH   1  22
ATOM     22  O   UNL A   1      32.293  30.342  26.978  1.00  0.00    -0.374 OA
BRANCH  22  23
ATOM     23  C   UNL A   1      31.649  31.475  26.411  1.00  0.00     0.202 C 
BRANCH  23  24
ATOM     24  C   UNL A   1      31.681  32.861  27.073  1.00  0.00     0.261 C 
BRANCH  24  25
ATOM     25  O   UNL A   1      32.966  33.485  27.046  1.00  0.00    -0.460 OA
BRANCH  25  26
ATOM     26  C   UNL A   1      33.382  33.982  28.233  1.00  0.00     0.338 C 
ATOM     27  O   UNL A   1      32.780  34.723  28.993  1.00  0.00    -0.246 OA
BRANCH  26  28
ATOM     28  C   UNL A   1      34.601  33.256  28.613  1.00  0.00     0.060 A 
ATOM     29  C   UNL A   1      34.451  31.937  29.066  1.00  0.00     0.016 A 
ATOM     30  C   UNL A   1      35.860  33.842  28.492  1.00  0.00     0.016 A 
ATOM     31  C   UNL A   1      35.568  31.187  29.389  1.00  0.00     0.010 A 
ATOM     32  C   UNL A   1      36.980  33.108  28.872  1.00  0.00     0.010 A 
ATOM     33  C   UNL A   1      36.827  31.790  29.338  1.00  0.00    -0.014 A 
BRANCH  33  34
ATOM     34  C   UNL A   1      37.946  31.102  29.999  1.00  0.00     0.031 A 
ATOM     35  C   UNL A   1      38.191  31.409  31.445  1.00  0.00     0.074 A 
ATOM     36  C   UNL A   1      38.671  30.191  29.334  1.00  0.00     0.049 A 
ATOM     37  N   UNL A   1      39.118  30.955  32.243  1.00  0.00    -0.248 NA
ATOM     38  C   UNL A   1      37.259  32.359  32.077  1.00  0.00     0.031 C 
ATOM     39  C   UNL A   1      38.456  29.791  27.944  1.00  0.00     0.029 A 
ATOM     40  N   UNL A   1      39.741  29.443  29.743  1.00  0.00    -0.354 N 
ATOM     41  C   UNL A   1      38.886  31.569  33.466  1.00  0.00     0.074 A 
ATOM     42  C   UNL A   1      37.750  32.445  33.303  1.00  0.00     0.031 C 
ATOM     43  C   UNL A   1      39.387  28.882  27.606  1.00  0.00     0.029 A 
ATOM     44  C   UNL A   1      40.276  28.668  28.745  1.00  0.00     0.049 A 
ATOM     45  H   UNL A   1      40.091  29.458  30.663  1.00  0.00     0.167 HD
ATOM     46  C   UNL A   1      39.568  31.407  34.623  1.00  0.00     0.037 A 
ATOM     47  C   UNL A   1      41.383  27.904  28.755  1.00  0.00     0.037 A 
ATOM     48  C   UNL A   1      40.705  30.538  34.752  1.00  0.00     0.049 A 
ATOM     49  C   UNL A   1      42.176  27.804  30.031  1.00  0.00     0.074 A 
ATOM     50  C   UNL A   1      41.471  30.280  35.873  1.00  0.00     0.029 A 
ATOM     51  N   UNL A   1      41.247  29.795  33.712  1.00  0.00    -0.354 N 
ATOM     52  N   UNL A   1      41.943  28.365  31.195  1.00  0.00    -0.248 NA
ATOM     53  C   UNL A   1      43.382  26.967  29.999  1.00  0.00     0.031 C 
ATOM     54  C   UNL A   1      42.516  29.431  35.495  1.00  0.00     0.029 A 
ATOM     55  C   UNL A   1      42.363  29.107  34.154  1.00  0.00     0.049 A 
ATOM     56  H   UNL A   1      40.891  29.762  32.795  1.00  0.00     0.167 HD
ATOM     57  C   UNL A   1      42.958  27.935  32.039  1.00  0.00     0.074 A 
ATOM     58  C   UNL A   1      43.798  27.050  31.255  1.00  0.00     0.031 C 
ATOM     59  C   UNL A   1      43.179  28.238  33.342  1.00  0.00     0.037 A 
BRANCH  46  60
ATOM     60  C   UNL A   1      39.130  32.225  35.801  1.00  0.00     0.057 A 
ATOM     61  C   UNL A   1      39.598  33.527  36.024  1.00  0.00     0.134 A 
ATOM     62  C   UNL A   1      38.228  31.698  36.733  1.00  0.00     0.134 A 
ATOM     63  F   UNL A   1      40.483  34.085  35.183  1.00  0.00    -0.206 F 
ATOM     64  C   UNL A   1      39.206  34.263  37.145  1.00  0.00     0.040 A 
ATOM     65  C   UNL A   1      37.806  32.434  37.840  1.00  0.00     0.040 A 
ATOM     66  F   UNL A   1      37.744  30.455  36.584  1.00  0.00    -0.206 F 
ATOM     67  C   UNL A   1      38.301  33.718  38.052  1.00  0.00     0.006 A 
ENDBRANCH  46  60
BRANCH  47  68
ATOM     68  C   UNL A   1      41.815  27.213  27.515  1.00  0.00     0.057 A 
ATOM     69  C   UNL A   1      42.583  27.863  26.543  1.00  0.00     0.134 A 
ATOM     70  C   UNL A   1      41.474  25.874  27.276  1.00  0.00     0.134 A 
ATOM     71  F   UNL A   1      42.927  29.149  26.705  1.00  0.00    -0.206 F 
ATOM     72  C   UNL A   1      42.985  27.214  25.375  1.00  0.00     0.040 A 
ATOM     73  C   UNL A   1      41.892  25.205  26.125  1.00  0.00     0.040 A 
ATOM     74  F   UNL A   1      40.745  25.190  28.171  1.00  0.00    -0.206 F 
ATOM     75  C   UNL A   1      42.645  25.878  25.166  1.00  0.00     0.006 A 
ENDBRANCH  47  68
BRANCH  59  76
ATOM     76  C   UNL A   1      44.363  27.593  34.003  1.00  0.00     0.057 A 
ATOM     77  C   UNL A   1      44.282  26.325  34.590  1.00  0.00     0.134 A 
ATOM     78  C   UNL A   1      45.613  28.227  33.997  1.00  0.00     0.134 A 
ATOM     79  F   UNL A   1      43.111  25.671  34.638  1.00  0.00    -0.206 F 
ATOM     80  C   UNL A   1      45.398  25.718  35.168  1.00  0.00     0.040 A 
ATOM     81  C   UNL A   1      46.741  27.618  34.544  1.00  0.00     0.040 A 
ATOM     82  F   UNL A   1      45.761  29.439  33.439  1.00  0.00    -0.206 F 
ATOM     83  C   UNL A   1      46.634  26.362  35.137  1.00  0.00     0.006 A 
ENDBRANCH  59  76
ENDBRANCH  33  34
ENDBRANCH  26  28
ENDBRANCH  25  26
ENDBRANCH  24  25
ENDBRANCH  23  24
ENDBRANCH  22  23
ENDBRANCH   1  22
TORSDOF 18
ENDMDL
MODEL 2
REMARK VINA RESULT:     -10.3      4.494      8.681
REMARK SMILES CC(C)N(CC(=O)OCCOCCOC(=O)c1ccc(-c2c3nc(c(-c4c(F)cccc4F)c4ccc([nH]4)c(-c4c(F)cccc4F)c4nc(c(-c5c(F)cccc5F)c5ccc2[nH]5)C=C4)C=C3)cc1)C(=O)NC1C(C)(C)C1(C)C
REMARK SMILES IDX 10 1 9 2 8 3 6 4 7 5 5 6 4 7 2 8 1 9 3 10 71 11 72 12 73 13
REMARK SMILES IDX 74 15 75 16 78 17 76 18 77 19 79 20 80 21 11 22 12 23 13 24
REMARK SMILES IDX 14 25 15 26 16 27 17 28 18 29 70 30 19 31 69 32 20 33 21 34
REMARK SMILES IDX 22 35 63 36 23 37 68 38 62 39 64 40 24 41 67 42 61 43 60 44
REMARK SMILES IDX 25 46 51 47 34 48 50 49 35 50 38 51 49 52 65 53 36 54 37 55
REMARK SMILES IDX 48 57 66 58 39 59 26 60 27 61 32 62 28 63 29 64 31 65 33 66
REMARK SMILES IDX 30 67 52 68 53 69 58 70 54 71 55 72 57 73 59 74 56 75 40 76
REMARK SMILES IDX 41 77 46 78 42 79 43 80 45 81 47 82 44 83
REMARK H PARENT 73 14 64 45 38 56
REMARK Flexibility Score: inf
ROOT
ATOM      1  C   UNL A   1      36.454  20.980  25.349  1.00  0.00     0.202 C 
ENDROOT
BRANCH   1   2
ATOM      2  C   UNL A   1      35.053  21.116  24.735  1.00  0.00     0.261 C 
BRANCH   2   3
ATOM      3  O   UNL A   1      34.042  20.227  25.247  1.00  0.00    -0.462 OA
BRANCH   3   4
ATOM      4  C   UNL A   1      32.917  20.905  25.596  1.00  0.00     0.325 C 
ATOM      5  O   UNL A   1      31.797  20.476  25.341  1.00  0.00    -0.250 OA
BRANCH   4   6
ATOM      6  C   UNL A   1      33.140  22.327  26.090  1.00  0.00     0.244 C 
BRANCH   6   7
ATOM      7  N   UNL A   1      32.408  23.468  25.570  1.00  0.00    -0.311 N 
BRANCH   7   8
ATOM      8  C   UNL A   1      32.070  23.400  24.120  1.00  0.00     0.081 C 
ATOM      9  C   UNL A   1      30.692  23.956  23.714  1.00  0.00     0.031 C 
ATOM     10  C   UNL A   1      33.173  23.984  23.245  1.00  0.00     0.031 C 
ENDBRANCH   7   8
BRANCH   7  11
ATOM     11  C   UNL A   1      31.797  24.405  26.342  1.00  0.00     0.318 C 
ATOM     12  O   UNL A   1      31.026  24.083  27.255  1.00  0.00    -0.249 OA
ATOM     13  N   UNL A   1      31.987  25.735  26.254  1.00  0.00    -0.334 N 
ATOM     14  H   UNL A   1      31.637  26.139  27.081  1.00  0.00     0.165 HD
BRANCH  13  15
ATOM     15  C   UNL A   1      32.494  26.796  25.441  1.00  0.00     0.096 C 
ATOM     16  C   UNL A   1      31.938  28.188  25.766  1.00  0.00    -0.007 C 
ATOM     17  C   UNL A   1      33.421  28.009  25.474  1.00  0.00    -0.007 C 
ATOM     18  C   UNL A   1      31.111  28.956  24.765  1.00  0.00     0.014 C 
ATOM     19  C   UNL A   1      31.494  28.447  27.199  1.00  0.00     0.014 C 
ATOM     20  C   UNL A   1      34.336  28.552  26.548  1.00  0.00     0.014 C 
ATOM     21  C   UNL A   1      33.974  28.367  24.085  1.00  0.00     0.014 C 
ENDBRANCH  13  15
ENDBRANCH   7  11
ENDBRANCH   6   7
ENDBRANCH   4   6
ENDBRANCH   3   4
ENDBRANCH   2   3
ENDBRANCH   1   2
BRANCH   1  22
ATOM     22  O   UNL A   1      37.563  20.510  24.605  1.00  0.00    -0.374 OA
BRANCH  22  23
ATOM     23  C   UNL A   1      38.304  19.390  25.067  1.00  0.00     0.202 C 
BRANCH  23  24
ATOM     24  C   UNL A   1      39.533  19.532  25.979  1.00  0.00     0.261 C 
BRANCH  24  25
ATOM     25  O   UNL A   1      40.771  19.227  25.333  1.00  0.00    -0.460 OA
BRANCH  25  26
ATOM     26  C   UNL A   1      41.847  19.199  26.152  1.00  0.00     0.338 C 
ATOM     27  O   UNL A   1      42.614  18.272  26.358  1.00  0.00    -0.246 OA
BRANCH  26  28
ATOM     28  C   UNL A   1      42.124  20.581  26.564  1.00  0.00     0.060 A 
ATOM     29  C   UNL A   1      42.206  21.551  25.554  1.00  0.00     0.016 A 
ATOM     30  C   UNL A   1      42.262  20.922  27.909  1.00  0.00     0.016 A 
ATOM     31  C   UNL A   1      42.413  22.878  25.887  1.00  0.00     0.010 A 
ATOM     32  C   UNL A   1      42.528  22.247  28.240  1.00  0.00     0.010 A 
ATOM     33  C   UNL A   1      42.623  23.216  27.226  1.00  0.00    -0.014 A 
BRANCH  33  34
ATOM     34  C   UNL A   1      43.173  24.548  27.520  1.00  0.00     0.031 A 
ATOM     35  C   UNL A   1      42.212  25.614  27.950  1.00  0.00     0.074 A 
ATOM     36  C   UNL A   1      44.494  24.767  27.459  1.00  0.00     0.049 A 
ATOM     37  N   UNL A   1      42.439  26.865  28.244  1.00  0.00    -0.248 NA
ATOM     38  C   UNL A   1      40.799  25.211  28.065  1.00  0.00     0.031 C 
ATOM     39  C   UNL A   1      45.501  23.765  27.110  1.00  0.00     0.029 A 
ATOM     40  N   UNL A   1      45.213  25.908  27.686  1.00  0.00    -0.354 N 
ATOM     41  C   UNL A   1      41.200  27.399  28.570  1.00  0.00     0.074 A 
ATOM     42  C   UNL A   1      40.221  26.348  28.416  1.00  0.00     0.031 C 
ATOM     43  C   UNL A   1      46.713  24.346  27.122  1.00  0.00     0.029 A 
ATOM     44  C   UNL A   1      46.556  25.762  27.445  1.00  0.00     0.049 A 
ATOM     45  H   UNL A   1      44.807  26.751  27.992  1.00  0.00     0.167 HD
ATOM     46  C   UNL A   1      40.913  28.660  28.966  1.00  0.00     0.037 A 
ATOM     47  C   UNL A   1      47.533  26.687  27.454  1.00  0.00     0.037 A 
ATOM     48  C   UNL A   1      41.908  29.689  29.098  1.00  0.00     0.049 A 
ATOM     49  C   UNL A   1      47.178  28.104  27.817  1.00  0.00     0.074 A 
ATOM     50  C   UNL A   1      41.744  31.001  29.502  1.00  0.00     0.029 A 
ATOM     51  N   UNL A   1      43.255  29.520  28.810  1.00  0.00    -0.354 N 
ATOM     52  N   UNL A   1      46.010  28.604  28.150  1.00  0.00    -0.248 NA
ATOM     53  C   UNL A   1      48.270  29.085  27.807  1.00  0.00     0.031 C 
ATOM     54  C   UNL A   1      42.982  31.642  29.396  1.00  0.00     0.029 A 
ATOM     55  C   UNL A   1      43.930  30.714  28.990  1.00  0.00     0.049 A 
ATOM     56  H   UNL A   1      43.670  28.676  28.520  1.00  0.00     0.167 HD
ATOM     57  C   UNL A   1      46.229  29.950  28.409  1.00  0.00     0.074 A 
ATOM     58  C   UNL A   1      47.646  30.184  28.212  1.00  0.00     0.031 C 
ATOM     59  C   UNL A   1      45.343  30.910  28.778  1.00  0.00     0.037 A 
BRANCH  46  60
ATOM     60  C   UNL A   1      39.474  28.991  29.225  1.00  0.00     0.057 A 
ATOM     61  C   UNL A   1      38.615  29.439  28.212  1.00  0.00     0.134 A 
ATOM     62  C   UNL A   1      38.939  28.865  30.513  1.00  0.00     0.134 A 
ATOM     63  F   UNL A   1      39.068  29.605  26.960  1.00  0.00    -0.206 F 
ATOM     64  C   UNL A   1      37.285  29.775  28.477  1.00  0.00     0.040 A 
ATOM     65  C   UNL A   1      37.605  29.169  30.784  1.00  0.00     0.040 A 
ATOM     66  F   UNL A   1      39.707  28.447  31.531  1.00  0.00    -0.206 F 
ATOM     67  C   UNL A   1      36.775  29.632  29.766  1.00  0.00     0.006 A 
ENDBRANCH  46  60
BRANCH  47  68
ATOM     68  C   UNL A   1      48.916  26.305  27.077  1.00  0.00     0.057 A 
ATOM     69  C   UNL A   1      49.344  26.324  25.746  1.00  0.00     0.134 A 
ATOM     70  C   UNL A   1      49.850  25.916  28.048  1.00  0.00     0.134 A 
ATOM     71  F   UNL A   1      48.493  26.669  24.768  1.00  0.00    -0.206 F 
ATOM     72  C   UNL A   1      50.644  25.959  25.391  1.00  0.00     0.040 A 
ATOM     73  C   UNL A   1      51.160  25.575  27.710  1.00  0.00     0.040 A 
ATOM     74  F   UNL A   1      49.506  25.882  29.344  1.00  0.00    -0.206 F 
ATOM     75  C   UNL A   1      51.559  25.590  26.375  1.00  0.00     0.006 A 
ENDBRANCH  47  68
BRANCH  59  76
ATOM     76  C   UNL A   1      45.888  32.289  29.010  1.00  0.00     0.057 A 
ATOM     77  C   UNL A   1      45.914  33.255  27.996  1.00  0.00     0.134 A 
ATOM     78  C   UNL A   1      46.337  32.671  30.281  1.00  0.00     0.134 A 
ATOM     79  F   UNL A   1      45.508  32.948  26.754  1.00  0.00    -0.206 F 
ATOM     80  C   UNL A   1      46.388  34.546  28.233  1.00  0.00     0.040 A 
ATOM     81  C   UNL A   1      46.785  33.967  30.537  1.00  0.00     0.040 A 
ATOM     82  F   UNL A   1      46.328  31.797  31.299  1.00  0.00    -0.206 F 
ATOM     83  C   UNL A   1      46.816  34.907  29.509  1.00  0.00     0.006 A 
ENDBRANCH  59  76
ENDBRANCH  33  34
ENDBRANCH  26  28
ENDBRANCH  25  26
ENDBRANCH  24  25
ENDBRANCH  23  24
ENDBRANCH  22  23
ENDBRANCH   1  22
TORSDOF 18
ENDMDL
MODEL 3
REMARK VINA RESULT:     -10.1      3.720      5.899
REMARK SMILES CC(C)N(CC(=O)OCCOCCOC(=O)c1ccc(-c2c3nc(c(-c4c(F)cccc4F)c4ccc([nH]4)c(-c4c(F)cccc4F)c4nc(c(-c5c(F)cccc5F)c5ccc2[nH]5)C=C4)C=C3)cc1)C(=O)NC1C(C)(C)C1(C)C
REMARK SMILES IDX 10 1 9 2 8 3 6 4 7 5 5 6 4 7 2 8 1 9 3 10 71 11 72 12 73 13
REMARK SMILES IDX 74 15 75 16 78 17 76 18 77 19 79 20 80 21 11 22 12 23 13 24
REMARK SMILES IDX 14 25 15 26 16 27 17 28 18 29 70 30 19 31 69 32 20 33 21 34
REMARK SMILES IDX 22 35 63 36 23 37 68 38 62 39 64 40 24 41 67 42 61 43 60 44
REMARK SMILES IDX 25 46 51 47 34 48 50 49 35 50 38 51 49 52 65 53 36 54 37 55
REMARK SMILES IDX 48 57 66 58 39 59 26 60 27 61 32 62 28 63 29 64 31 65 33 66
REMARK SMILES IDX 30 67 52 68 53 69 58 70 54 71 55 72 57 73 59 74 56 75 40 76
REMARK SMILES IDX 41 77 46 78 42 79 43 80 45 81 47 82 44 83
REMARK H PARENT 73 14 64 45 38 56
REMARK Flexibility Score: inf
ROOT
ATOM      1  C   UNL A   1      33.355  32.057  27.665  1.00  0.00     0.202 C 
ENDROOT
BRANCH   1   2
ATOM      2  C   UNL A   1      33.838  30.623  27.404  1.00  0.00     0.261 C 
BRANCH   2   3
ATOM      3  O   UNL A   1      33.287  29.964  26.249  1.00  0.00    -0.462 OA
BRANCH   3   4
ATOM      4  C   UNL A   1      32.761  28.753  26.574  1.00  0.00     0.325 C 
ATOM      5  O   UNL A   1      32.202  28.556  27.647  1.00  0.00    -0.250 OA
BRANCH   4   6
ATOM      6  C   UNL A   1      33.129  27.611  25.638  1.00  0.00     0.244 C 
BRANCH   6   7
ATOM      7  N   UNL A   1      32.202  26.553  25.279  1.00  0.00    -0.311 N 
BRANCH   7   8
ATOM      8  C   UNL A   1      31.604  26.665  23.919  1.00  0.00     0.081 C 
ATOM      9  C   UNL A   1      30.658  27.859  23.687  1.00  0.00     0.031 C 
ATOM     10  C   UNL A   1      32.656  26.583  22.819  1.00  0.00     0.031 C 
ENDBRANCH   7   8
BRANCH   7  11
ATOM     11  C   UNL A   1      32.075  25.381  25.957  1.00  0.00     0.318 C 
ATOM     12  O   UNL A   1      31.261  25.259  26.881  1.00  0.00    -0.249 OA
ATOM     13  N   UNL A   1      32.743  24.245  25.686  1.00  0.00    -0.334 N 
ATOM     14  H   UNL A   1      32.274  23.510  26.143  1.00  0.00     0.165 HD
BRANCH  13  15
ATOM     15  C   UNL A   1      33.861  23.677  24.998  1.00  0.00     0.096 C 
ATOM     16  C   UNL A   1      33.777  22.165  24.755  1.00  0.00    -0.007 C 
ATOM     17  C   UNL A   1      34.284  23.087  23.655  1.00  0.00    -0.007 C 
ATOM     18  C   UNL A   1      34.761  21.212  25.385  1.00  0.00     0.014 C 
ATOM     19  C   UNL A   1      32.389  21.554  24.624  1.00  0.00     0.014 C 
ATOM     20  C   UNL A   1      33.553  22.945  22.339  1.00  0.00     0.014 C 
ATOM     21  C   UNL A   1      35.795  23.216  23.403  1.00  0.00     0.014 C 
ENDBRANCH  13  15
ENDBRANCH   7  11
ENDBRANCH   6   7
ENDBRANCH   4   6
ENDBRANCH   3   4
ENDBRANCH   2   3
ENDBRANCH   1   2
BRANCH   1  22
ATOM     22  O   UNL A   1      34.237  33.091  28.063  1.00  0.00    -0.374 OA
BRANCH  22  23
ATOM     23  C   UNL A   1      33.880  33.956  29.132  1.00  0.00     0.202 C 
BRANCH  23  24
ATOM     24  C   UNL A   1      34.407  33.762  30.562  1.00  0.00     0.261 C 
BRANCH  24  25
ATOM     25  O   UNL A   1      34.587  32.394  30.932  1.00  0.00    -0.460 OA
BRANCH  25  26
ATOM     26  C   UNL A   1      35.529  32.180  31.879  1.00  0.00     0.338 C 
ATOM     27  O   UNL A   1      35.438  32.349  33.085  1.00  0.00    -0.246 OA
BRANCH  26  28
ATOM     28  C   UNL A   1      36.625  31.432  31.251  1.00  0.00     0.060 A 
ATOM     29  C   UNL A   1      37.653  30.971  32.086  1.00  0.00     0.016 A 
ATOM     30  C   UNL A   1      36.624  31.159  29.884  1.00  0.00     0.016 A 
ATOM     31  C   UNL A   1      38.685  30.216  31.557  1.00  0.00     0.010 A 
ATOM     32  C   UNL A   1      37.692  30.450  29.341  1.00  0.00     0.010 A 
ATOM     33  C   UNL A   1      38.729  29.999  30.177  1.00  0.00    -0.014 A 
BRANCH  33  34
ATOM     34  C   UNL A   1      39.986  29.501  29.599  1.00  0.00     0.031 A 
ATOM     35  C   UNL A   1      41.129  30.463  29.495  1.00  0.00     0.074 A 
ATOM     36  C   UNL A   1      40.105  28.214  29.241  1.00  0.00     0.049 A 
ATOM     37  N   UNL A   1      42.325  30.278  29.008  1.00  0.00    -0.248 NA
ATOM     38  C   UNL A   1      40.889  31.821  30.013  1.00  0.00     0.031 C 
ATOM     39  C   UNL A   1      39.058  27.201  29.369  1.00  0.00     0.029 A 
ATOM     40  N   UNL A   1      41.163  27.545  28.690  1.00  0.00    -0.354 N 
ATOM     41  C   UNL A   1      42.977  31.495  29.153  1.00  0.00     0.074 A 
ATOM     42  C   UNL A   1      42.040  32.419  29.750  1.00  0.00     0.031 C 
ATOM     43  C   UNL A   1      39.522  26.036  28.884  1.00  0.00     0.029 A 
ATOM     44  C   UNL A   1      40.879  26.237  28.383  1.00  0.00     0.049 A 
ATOM     45  H   UNL A   1      42.041  27.959  28.529  1.00  0.00     0.167 HD
ATOM     46  C   UNL A   1      44.249  31.806  28.817  1.00  0.00     0.037 A 
ATOM     47  C   UNL A   1      41.630  25.327  27.738  1.00  0.00     0.037 A 
ATOM     48  C   UNL A   1      45.155  30.869  28.211  1.00  0.00     0.049 A 
ATOM     49  C   UNL A   1      43.015  25.720  27.297  1.00  0.00     0.074 A 
ATOM     50  C   UNL A   1      46.471  31.061  27.836  1.00  0.00     0.029 A 
ATOM     51  N   UNL A   1      44.825  29.562  27.878  1.00  0.00    -0.354 N 
ATOM     52  N   UNL A   1      43.640  26.864  27.457  1.00  0.00    -0.248 NA
ATOM     53  C   UNL A   1      43.800  24.701  26.589  1.00  0.00     0.031 C 
ATOM     54  C   UNL A   1      46.917  29.889  27.217  1.00  0.00     0.029 A 
ATOM     55  C   UNL A   1      45.901  28.945  27.266  1.00  0.00     0.049 A 
ATOM     56  H   UNL A   1      43.955  29.136  28.052  1.00  0.00     0.167 HD
ATOM     57  C   UNL A   1      44.896  26.698  26.890  1.00  0.00     0.074 A 
ATOM     58  C   UNL A   1      44.950  25.335  26.398  1.00  0.00     0.031 C 
ATOM     59  C   UNL A   1      45.916  27.586  26.783  1.00  0.00     0.037 A 
BRANCH  46  60
ATOM     60  C   UNL A   1      44.698  33.218  29.048  1.00  0.00     0.057 A 
ATOM     61  C   UNL A   1      44.502  34.231  28.100  1.00  0.00     0.134 A 
ATOM     62  C   UNL A   1      45.343  33.569  30.241  1.00  0.00     0.134 A 
ATOM     63  F   UNL A   1      43.912  33.959  26.926  1.00  0.00    -0.206 F 
ATOM     64  C   UNL A   1      44.956  35.534  28.318  1.00  0.00     0.040 A 
ATOM     65  C   UNL A   1      45.774  34.874  30.482  1.00  0.00     0.040 A 
ATOM     66  F   UNL A   1      45.567  32.648  31.190  1.00  0.00    -0.206 F 
ATOM     67  C   UNL A   1      45.588  35.859  29.516  1.00  0.00     0.006 A 
ENDBRANCH  46  60
BRANCH  47  68
ATOM     68  C   UNL A   1      41.074  23.983  27.446  1.00  0.00     0.057 A 
ATOM     69  C   UNL A   1      40.106  23.790  26.455  1.00  0.00     0.134 A 
ATOM     70  C   UNL A   1      41.506  22.851  28.152  1.00  0.00     0.134 A 
ATOM     71  F   UNL A   1      39.638  24.835  25.757  1.00  0.00    -0.206 F 
ATOM     72  C   UNL A   1      39.579  22.526  26.184  1.00  0.00     0.040 A 
ATOM     73  C   UNL A   1      41.008  21.578  27.872  1.00  0.00     0.040 A 
ATOM     74  F   UNL A   1      42.437  22.965  29.111  1.00  0.00    -0.206 F 
ATOM     75  C   UNL A   1      40.035  21.414  26.889  1.00  0.00     0.006 A 
ENDBRANCH  47  68
BRANCH  59  76
ATOM     76  C   UNL A   1      47.177  27.103  26.129  1.00  0.00     0.057 A 
ATOM     77  C   UNL A   1      47.415  27.279  24.760  1.00  0.00     0.134 A 
ATOM     78  C   UNL A   1      48.190  26.506  26.892  1.00  0.00     0.134 A 
ATOM     79  F   UNL A   1      46.481  27.834  23.973  1.00  0.00    -0.206 F 
ATOM     80  C   UNL A   1      48.608  26.860  24.169  1.00  0.00     0.040 A 
ATOM     81  C   UNL A   1      49.398  26.111  26.319  1.00  0.00     0.040 A 
ATOM     82  F   UNL A   1      48.030  26.319  28.211  1.00  0.00    -0.206 F 
ATOM     83  C   UNL A   1      49.607  26.282  24.951  1.00  0.00     0.006 A 
ENDBRANCH  59  76
ENDBRANCH  33  34
ENDBRANCH  26  28
ENDBRANCH  25  26
ENDBRANCH  24  25
ENDBRANCH  23  24
ENDBRANCH  22  23
ENDBRANCH   1  22
TORSDOF 18
ENDMDL
