MODEL 1
REMARK VINA RESULT:     -11.9      0.000      0.000
REMARK SMILES Cc1ccc(C(=O)c2cccc(C)c2C(=O)OCCOCCOC(=O)c2ccc(-c3c4nc(c(-c5c(F)cccc5F)c5ccc([nH]5)c(-c5c(F)cccc5F)c5nc(c(-c6c(F)cccc6F)c6ccc3[nH]6)C=C5)C=C4)cc2)c(C)c1
REMARK SMILES IDX 20 1 19 2 18 3 17 4 15 5 16 6 14 7 8 8 9 9 10 10 12 11 11 12
REMARK SMILES IDX 13 13 6 14 7 15 5 16 1 17 2 18 3 19 82 20 4 21 80 22 81 23
REMARK SMILES IDX 21 24 22 25 23 26 24 27 25 28 26 29 27 30 79 31 28 32 78 33
REMARK SMILES IDX 29 34 30 35 31 36 72 37 32 38 77 39 71 40 73 41 33 42 76 43
REMARK SMILES IDX 70 44 69 45 34 47 60 48 43 49 59 50 44 51 47 52 58 53 74 54
REMARK SMILES IDX 45 55 46 56 57 58 75 59 48 60 35 61 36 62 41 63 37 64 38 65
REMARK SMILES IDX 40 66 42 67 39 68 61 69 62 70 67 71 63 72 64 73 66 74 68 75
REMARK SMILES IDX 65 76 49 77 50 78 55 79 51 80 52 81 54 82 56 83 53 84
REMARK H PARENT 73 46 47 57
REMARK Flexibility Score: inf
ROOT
ATOM      1  O   UNL A   1      33.194  29.448  27.361  1.00  0.00    -0.374 OA
ENDROOT
BRANCH   1   2
ATOM      2  C   UNL A   1      31.790  29.273  27.282  1.00  0.00     0.202 C 
BRANCH   2   3
ATOM      3  C   UNL A   1      31.531  27.797  27.404  1.00  0.00     0.261 C 
BRANCH   3   4
ATOM      4  O   UNL A   1      32.348  26.980  26.527  1.00  0.00    -0.460 OA
BRANCH   4   5
ATOM      5  C   UNL A   1      32.007  25.739  26.156  1.00  0.00     0.339 C 
ATOM      6  O   UNL A   1      31.555  24.901  26.922  1.00  0.00    -0.246 OA
BRANCH   5   7
ATOM      7  C   UNL A   1      32.313  25.512  24.700  1.00  0.00     0.074 A 
ATOM      8  C   UNL A   1      31.478  25.953  23.621  1.00  0.00     0.037 A 
ATOM      9  C   UNL A   1      31.869  25.651  22.302  1.00  0.00     0.013 A 
ATOM     10  C   UNL A   1      33.003  24.888  22.034  1.00  0.00     0.001 A 
ATOM     11  C   UNL A   1      33.496  24.758  24.405  1.00  0.00    -0.036 A 
ATOM     12  C   UNL A   1      33.806  24.444  23.073  1.00  0.00     0.004 A 
ATOM     13  C   UNL A   1      34.460  24.239  25.454  1.00  0.00     0.045 C 
BRANCH   8  14
ATOM     14  C   UNL A   1      30.075  26.499  23.758  1.00  0.00     0.194 C 
ATOM     15  O   UNL A   1      29.110  25.730  23.771  1.00  0.00    -0.289 OA
BRANCH  14  16
ATOM     16  C   UNL A   1      29.659  27.875  23.399  1.00  0.00     0.025 A 
ATOM     17  C   UNL A   1      27.559  31.638  23.286  1.00  0.00     0.044 C 
ATOM     18  C   UNL A   1      28.297  30.333  23.268  1.00  0.00    -0.051 A 
ATOM     19  C   UNL A   1      27.597  29.143  23.105  1.00  0.00     0.004 A 
ATOM     20  C   UNL A   1      29.686  30.290  23.470  1.00  0.00     0.007 A 
ATOM     21  C   UNL A   1      28.272  27.933  23.169  1.00  0.00     0.013 A 
ATOM     22  C   UNL A   1      30.392  29.066  23.552  1.00  0.00    -0.040 A 
ATOM     23  C   UNL A   1      31.868  29.157  23.811  1.00  0.00     0.045 C 
ENDBRANCH  14  16
ENDBRANCH   8  14
ENDBRANCH   5   7
ENDBRANCH   4   5
ENDBRANCH   3   4
ENDBRANCH   2   3
ENDBRANCH   1   2
BRANCH   1  24
ATOM     24  C   UNL A   1      33.682  30.691  26.902  1.00  0.00     0.202 C 
BRANCH  24  25
ATOM     25  C   UNL A   1      34.006  31.644  28.059  1.00  0.00     0.261 C 
BRANCH  25  26
ATOM     26  O   UNL A   1      35.021  31.062  28.905  1.00  0.00    -0.460 OA
BRANCH  26  27
ATOM     27  C   UNL A   1      36.309  31.351  28.568  1.00  0.00     0.338 C 
ATOM     28  O   UNL A   1      36.698  32.417  28.117  1.00  0.00    -0.246 OA
BRANCH  27  29
ATOM     29  C   UNL A   1      37.133  30.108  28.589  1.00  0.00     0.060 A 
ATOM     30  C   UNL A   1      37.119  29.279  29.728  1.00  0.00     0.016 A 
ATOM     31  C   UNL A   1      38.142  29.962  27.638  1.00  0.00     0.016 A 
ATOM     32  C   UNL A   1      38.202  28.431  29.989  1.00  0.00     0.010 A 
ATOM     33  C   UNL A   1      39.256  29.215  27.959  1.00  0.00     0.010 A 
ATOM     34  C   UNL A   1      39.311  28.475  29.149  1.00  0.00    -0.014 A 
BRANCH  34  35
ATOM     35  C   UNL A   1      40.617  27.880  29.435  1.00  0.00     0.031 A 
ATOM     36  C   UNL A   1      40.961  26.581  28.847  1.00  0.00     0.074 A 
ATOM     37  C   UNL A   1      41.590  28.594  30.040  1.00  0.00     0.049 A 
ATOM     38  N   UNL A   1      41.983  25.885  29.207  1.00  0.00    -0.248 NA
ATOM     39  C   UNL A   1      40.114  25.897  27.876  1.00  0.00     0.031 C 
ATOM     40  C   UNL A   1      43.042  28.457  29.939  1.00  0.00     0.029 A 
ATOM     41  N   UNL A   1      41.428  29.630  30.951  1.00  0.00    -0.354 N 
ATOM     42  C   UNL A   1      42.126  24.879  28.287  1.00  0.00     0.074 A 
ATOM     43  C   UNL A   1      40.841  24.804  27.641  1.00  0.00     0.031 C 
ATOM     44  C   UNL A   1      43.621  29.196  30.904  1.00  0.00     0.029 A 
ATOM     45  C   UNL A   1      42.556  29.678  31.771  1.00  0.00     0.049 A 
ATOM     46  H   UNL A   1      40.648  30.229  31.009  1.00  0.00     0.167 HD
ATOM     47  C   UNL A   1      43.373  24.373  28.078  1.00  0.00     0.037 A 
ATOM     48  C   UNL A   1      42.412  29.518  33.113  1.00  0.00     0.037 A 
ATOM     49  C   UNL A   1      44.329  24.893  29.082  1.00  0.00     0.049 A 
ATOM     50  C   UNL A   1      43.137  28.274  33.550  1.00  0.00     0.074 A 
ATOM     51  C   UNL A   1      45.409  25.760  29.042  1.00  0.00     0.029 A 
ATOM     52  N   UNL A   1      44.047  24.727  30.437  1.00  0.00    -0.354 N 
ATOM     53  N   UNL A   1      43.661  27.425  32.711  1.00  0.00    -0.248 NA
ATOM     54  C   UNL A   1      43.293  27.853  34.933  1.00  0.00     0.031 C 
ATOM     55  C   UNL A   1      45.763  26.103  30.387  1.00  0.00     0.029 A 
ATOM     56  C   UNL A   1      44.920  25.425  31.252  1.00  0.00     0.049 A 
ATOM     57  H   UNL A   1      43.307  24.172  30.777  1.00  0.00     0.167 HD
ATOM     58  C   UNL A   1      44.185  26.366  33.373  1.00  0.00     0.074 A 
ATOM     59  C   UNL A   1      43.901  26.663  34.771  1.00  0.00     0.031 C 
ATOM     60  C   UNL A   1      44.781  25.334  32.708  1.00  0.00     0.037 A 
BRANCH  47  61
ATOM     61  C   UNL A   1      43.793  23.575  26.846  1.00  0.00     0.057 A 
ATOM     62  C   UNL A   1      44.475  24.217  25.792  1.00  0.00     0.134 A 
ATOM     63  C   UNL A   1      43.511  22.217  26.578  1.00  0.00     0.134 A 
ATOM     64  F   UNL A   1      44.847  25.501  25.874  1.00  0.00    -0.206 F 
ATOM     65  C   UNL A   1      44.807  23.578  24.584  1.00  0.00     0.040 A 
ATOM     66  C   UNL A   1      43.860  21.561  25.388  1.00  0.00     0.040 A 
ATOM     67  F   UNL A   1      42.862  21.420  27.424  1.00  0.00    -0.206 F 
ATOM     68  C   UNL A   1      44.500  22.245  24.375  1.00  0.00     0.006 A 
ENDBRANCH  47  61
BRANCH  48  69
ATOM     69  C   UNL A   1      41.087  30.015  33.615  1.00  0.00     0.057 A 
ATOM     70  C   UNL A   1      40.909  31.390  33.874  1.00  0.00     0.134 A 
ATOM     71  C   UNL A   1      39.915  29.274  33.439  1.00  0.00     0.134 A 
ATOM     72  F   UNL A   1      41.966  32.193  34.032  1.00  0.00    -0.206 F 
ATOM     73  C   UNL A   1      39.655  32.012  33.864  1.00  0.00     0.040 A 
ATOM     74  C   UNL A   1      38.650  29.887  33.421  1.00  0.00     0.040 A 
ATOM     75  F   UNL A   1      39.976  27.963  33.165  1.00  0.00    -0.206 F 
ATOM     76  C   UNL A   1      38.520  31.264  33.594  1.00  0.00     0.006 A 
ENDBRANCH  48  69
BRANCH  60  77
ATOM     77  C   UNL A   1      45.221  24.103  33.432  1.00  0.00     0.057 A 
ATOM     78  C   UNL A   1      46.509  23.952  33.961  1.00  0.00     0.134 A 
ATOM     79  C   UNL A   1      44.346  23.020  33.630  1.00  0.00     0.134 A 
ATOM     80  F   UNL A   1      47.471  24.852  33.710  1.00  0.00    -0.206 F 
ATOM     81  C   UNL A   1      46.851  22.869  34.774  1.00  0.00     0.040 A 
ATOM     82  C   UNL A   1      44.696  21.903  34.386  1.00  0.00     0.040 A 
ATOM     83  F   UNL A   1      43.101  23.010  33.134  1.00  0.00    -0.206 F 
ATOM     84  C   UNL A   1      45.938  21.846  34.999  1.00  0.00     0.006 A 
ENDBRANCH  60  77
ENDBRANCH  34  35
ENDBRANCH  27  29
ENDBRANCH  26  27
ENDBRANCH  25  26
ENDBRANCH  24  25
ENDBRANCH   1  24
TORSDOF 16
ENDMDL
MODEL 2
REMARK VINA RESULT:     -11.8      4.035      8.769
REMARK SMILES Cc1ccc(C(=O)c2cccc(C)c2C(=O)OCCOCCOC(=O)c2ccc(-c3c4nc(c(-c5c(F)cccc5F)c5ccc([nH]5)c(-c5c(F)cccc5F)c5nc(c(-c6c(F)cccc6F)c6ccc3[nH]6)C=C5)C=C4)cc2)c(C)c1
REMARK SMILES IDX 20 1 19 2 18 3 17 4 15 5 16 6 14 7 8 8 9 9 10 10 12 11 11 12
REMARK SMILES IDX 13 13 6 14 7 15 5 16 1 17 2 18 3 19 82 20 4 21 80 22 81 23
REMARK SMILES IDX 21 24 22 25 23 26 24 27 25 28 26 29 27 30 79 31 28 32 78 33
REMARK SMILES IDX 29 34 30 35 31 36 72 37 32 38 77 39 71 40 73 41 33 42 76 43
REMARK SMILES IDX 70 44 69 45 34 47 60 48 43 49 59 50 44 51 47 52 58 53 74 54
REMARK SMILES IDX 45 55 46 56 57 58 75 59 48 60 35 61 36 62 41 63 37 64 38 65
REMARK SMILES IDX 40 66 42 67 39 68 61 69 62 70 67 71 63 72 64 73 66 74 68 75
REMARK SMILES IDX 65 76 49 77 50 78 55 79 51 80 52 81 54 82 56 83 53 84
REMARK H PARENT 73 46 47 57
REMARK Flexibility Score: inf
ROOT
ATOM      1  O   UNL A   1      37.531  23.117  25.706  1.00  0.00    -0.374 OA
ENDROOT
BRANCH   1   2
ATOM      2  C   UNL A   1      36.158  23.270  25.391  1.00  0.00     0.202 C 
BRANCH   2   3
ATOM      3  C   UNL A   1      35.385  22.819  26.599  1.00  0.00     0.261 C 
BRANCH   3   4
ATOM      4  O   UNL A   1      34.208  23.619  26.880  1.00  0.00    -0.460 OA
BRANCH   4   5
ATOM      5  C   UNL A   1      32.970  23.110  26.921  1.00  0.00     0.339 C 
ATOM      6  O   UNL A   1      32.502  22.538  27.894  1.00  0.00    -0.246 OA
BRANCH   5   7
ATOM      7  C   UNL A   1      32.274  23.286  25.598  1.00  0.00     0.074 A 
ATOM      8  C   UNL A   1      31.593  24.483  25.198  1.00  0.00     0.037 A 
ATOM      9  C   UNL A   1      30.959  24.507  23.940  1.00  0.00     0.013 A 
ATOM     10  C   UNL A   1      30.929  23.383  23.117  1.00  0.00     0.001 A 
ATOM     11  C   UNL A   1      32.264  22.151  24.724  1.00  0.00    -0.036 A 
ATOM     12  C   UNL A   1      31.571  22.218  23.506  1.00  0.00     0.004 A 
ATOM     13  C   UNL A   1      32.948  20.833  25.030  1.00  0.00     0.045 C 
BRANCH   8  14
ATOM     14  C   UNL A   1      31.264  25.653  26.097  1.00  0.00     0.194 C 
ATOM     15  O   UNL A   1      30.128  25.777  26.562  1.00  0.00    -0.289 OA
BRANCH  14  16
ATOM     16  C   UNL A   1      31.994  26.943  26.116  1.00  0.00     0.025 A 
ATOM     17  C   UNL A   1      34.052  30.482  27.463  1.00  0.00     0.044 C 
ATOM     18  C   UNL A   1      33.314  29.281  26.952  1.00  0.00    -0.051 A 
ATOM     19  C   UNL A   1      32.038  28.998  27.426  1.00  0.00     0.004 A 
ATOM     20  C   UNL A   1      33.916  28.404  26.037  1.00  0.00     0.007 A 
ATOM     21  C   UNL A   1      31.390  27.845  27.011  1.00  0.00     0.013 A 
ATOM     22  C   UNL A   1      33.279  27.215  25.611  1.00  0.00    -0.040 A 
ATOM     23  C   UNL A   1      34.047  26.342  24.660  1.00  0.00     0.045 C 
ENDBRANCH  14  16
ENDBRANCH   8  14
ENDBRANCH   5   7
ENDBRANCH   4   5
ENDBRANCH   3   4
ENDBRANCH   2   3
ENDBRANCH   1   2
BRANCH   1  24
ATOM     24  C   UNL A   1      38.075  21.838  25.464  1.00  0.00     0.202 C 
BRANCH  24  25
ATOM     25  C   UNL A   1      39.465  21.675  26.091  1.00  0.00     0.261 C 
BRANCH  25  26
ATOM     26  O   UNL A   1      39.673  22.693  27.095  1.00  0.00    -0.460 OA
BRANCH  26  27
ATOM     27  C   UNL A   1      40.675  23.579  26.840  1.00  0.00     0.338 C 
ATOM     28  O   UNL A   1      41.842  23.285  26.632  1.00  0.00    -0.246 OA
BRANCH  27  29
ATOM     29  C   UNL A   1      40.204  24.971  27.099  1.00  0.00     0.060 A 
ATOM     30  C   UNL A   1      40.649  26.024  26.277  1.00  0.00     0.016 A 
ATOM     31  C   UNL A   1      39.609  25.254  28.328  1.00  0.00     0.016 A 
ATOM     32  C   UNL A   1      40.651  27.337  26.762  1.00  0.00     0.010 A 
ATOM     33  C   UNL A   1      39.722  26.528  28.843  1.00  0.00     0.010 A 
ATOM     34  C   UNL A   1      40.274  27.569  28.082  1.00  0.00    -0.014 A 
BRANCH  34  35
ATOM     35  C   UNL A   1      40.489  28.813  28.820  1.00  0.00     0.031 A 
ATOM     36  C   UNL A   1      39.385  29.769  28.959  1.00  0.00     0.074 A 
ATOM     37  C   UNL A   1      41.603  29.000  29.560  1.00  0.00     0.049 A 
ATOM     38  N   UNL A   1      39.534  30.970  29.397  1.00  0.00    -0.248 NA
ATOM     39  C   UNL A   1      38.027  29.488  28.505  1.00  0.00     0.031 C 
ATOM     40  C   UNL A   1      41.799  29.826  30.751  1.00  0.00     0.029 A 
ATOM     41  N   UNL A   1      42.863  28.462  29.332  1.00  0.00    -0.354 N 
ATOM     42  C   UNL A   1      38.279  31.472  29.624  1.00  0.00     0.074 A 
ATOM     43  C   UNL A   1      37.411  30.618  28.856  1.00  0.00     0.031 C 
ATOM     44  C   UNL A   1      43.117  29.923  31.007  1.00  0.00     0.029 A 
ATOM     45  C   UNL A   1      43.817  29.322  29.880  1.00  0.00     0.049 A 
ATOM     46  H   UNL A   1      43.052  27.618  28.861  1.00  0.00     0.167 HD
ATOM     47  C   UNL A   1      38.135  32.434  30.578  1.00  0.00     0.037 A 
ATOM     48  C   UNL A   1      44.762  29.871  29.072  1.00  0.00     0.037 A 
ATOM     49  C   UNL A   1      39.455  32.910  31.052  1.00  0.00     0.049 A 
ATOM     50  C   UNL A   1      44.596  31.366  29.053  1.00  0.00     0.074 A 
ATOM     51  C   UNL A   1      40.166  32.794  32.236  1.00  0.00     0.029 A 
ATOM     52  N   UNL A   1      40.373  33.397  30.123  1.00  0.00    -0.354 N 
ATOM     53  N   UNL A   1      43.585  31.977  29.604  1.00  0.00    -0.248 NA
ATOM     54  C   UNL A   1      45.503  32.288  28.386  1.00  0.00     0.031 C 
ATOM     55  C   UNL A   1      41.512  33.219  31.997  1.00  0.00     0.029 A 
ATOM     56  C   UNL A   1      41.621  33.621  30.677  1.00  0.00     0.049 A 
ATOM     57  H   UNL A   1      40.157  33.562  29.177  1.00  0.00     0.167 HD
ATOM     58  C   UNL A   1      43.653  33.310  29.374  1.00  0.00     0.074 A 
ATOM     59  C   UNL A   1      44.862  33.457  28.573  1.00  0.00     0.031 C 
ATOM     60  C   UNL A   1      42.696  34.164  29.842  1.00  0.00     0.037 A 
BRANCH  47  61
ATOM     61  C   UNL A   1      36.814  32.804  31.248  1.00  0.00     0.057 A 
ATOM     62  C   UNL A   1      35.922  33.685  30.604  1.00  0.00     0.134 A 
ATOM     63  C   UNL A   1      36.374  32.411  32.532  1.00  0.00     0.134 A 
ATOM     64  F   UNL A   1      36.158  34.147  29.369  1.00  0.00    -0.206 F 
ATOM     65  C   UNL A   1      34.735  34.153  31.195  1.00  0.00     0.040 A 
ATOM     66  C   UNL A   1      35.180  32.850  33.123  1.00  0.00     0.040 A 
ATOM     67  F   UNL A   1      37.064  31.596  33.328  1.00  0.00    -0.206 F 
ATOM     68  C   UNL A   1      34.358  33.737  32.461  1.00  0.00     0.006 A 
ENDBRANCH  47  61
BRANCH  48  69
ATOM     69  C   UNL A   1      45.115  28.985  27.912  1.00  0.00     0.057 A 
ATOM     70  C   UNL A   1      46.012  27.914  28.099  1.00  0.00     0.134 A 
ATOM     71  C   UNL A   1      44.297  28.902  26.782  1.00  0.00     0.134 A 
ATOM     72  F   UNL A   1      46.821  27.884  29.164  1.00  0.00    -0.206 F 
ATOM     73  C   UNL A   1      46.034  26.784  27.274  1.00  0.00     0.040 A 
ATOM     74  C   UNL A   1      44.304  27.771  25.948  1.00  0.00     0.040 A 
ATOM     75  F   UNL A   1      43.394  29.859  26.526  1.00  0.00    -0.206 F 
ATOM     76  C   UNL A   1      45.145  26.691  26.214  1.00  0.00     0.006 A 
ENDBRANCH  48  69
BRANCH  60  77
ATOM     77  C   UNL A   1      42.698  35.608  29.457  1.00  0.00     0.057 A 
ATOM     78  C   UNL A   1      43.477  36.568  30.114  1.00  0.00     0.134 A 
ATOM     79  C   UNL A   1      41.911  36.080  28.392  1.00  0.00     0.134 A 
ATOM     80  F   UNL A   1      44.153  36.265  31.232  1.00  0.00    -0.206 F 
ATOM     81  C   UNL A   1      43.592  37.877  29.639  1.00  0.00     0.040 A 
ATOM     82  C   UNL A   1      41.967  37.400  27.947  1.00  0.00     0.040 A 
ATOM     83  F   UNL A   1      41.082  35.280  27.708  1.00  0.00    -0.206 F 
ATOM     84  C   UNL A   1      42.844  38.292  28.544  1.00  0.00     0.006 A 
ENDBRANCH  60  77
ENDBRANCH  34  35
ENDBRANCH  27  29
ENDBRANCH  26  27
ENDBRANCH  25  26
ENDBRANCH  24  25
ENDBRANCH   1  24
TORSDOF 16
ENDMDL
MODEL 3
REMARK VINA RESULT:     -11.7      3.504      8.242
REMARK SMILES Cc1ccc(C(=O)c2cccc(C)c2C(=O)OCCOCCOC(=O)c2ccc(-c3c4nc(c(-c5c(F)cccc5F)c5ccc([nH]5)c(-c5c(F)cccc5F)c5nc(c(-c6c(F)cccc6F)c6ccc3[nH]6)C=C5)C=C4)cc2)c(C)c1
REMARK SMILES IDX 20 1 19 2 18 3 17 4 15 5 16 6 14 7 8 8 9 9 10 10 12 11 11 12
REMARK SMILES IDX 13 13 6 14 7 15 5 16 1 17 2 18 3 19 82 20 4 21 80 22 81 23
REMARK SMILES IDX 21 24 22 25 23 26 24 27 25 28 26 29 27 30 79 31 28 32 78 33
REMARK SMILES IDX 29 34 30 35 31 36 72 37 32 38 77 39 71 40 73 41 33 42 76 43
REMARK SMILES IDX 70 44 69 45 34 47 60 48 43 49 59 50 44 51 47 52 58 53 74 54
REMARK SMILES IDX 45 55 46 56 57 58 75 59 48 60 35 61 36 62 41 63 37 64 38 65
REMARK SMILES IDX 40 66 42 67 39 68 61 69 62 70 67 71 63 72 64 73 66 74 68 75
REMARK SMILES IDX 65 76 49 77 50 78 55 79 51 80 52 81 54 82 56 83 53 84
REMARK H PARENT 73 46 47 57
REMARK Flexibility Score: inf
ROOT
ATOM      1  O   UNL A   1      35.892  22.209  26.172  1.00  0.00    -0.374 OA
ENDROOT
BRANCH   1   2
ATOM      2  C   UNL A   1      35.920  23.600  25.903  1.00  0.00     0.202 C 
BRANCH   2   3
ATOM      3  C   UNL A   1      34.530  24.116  26.150  1.00  0.00     0.261 C 
BRANCH   3   4
ATOM      4  O   UNL A   1      33.701  23.225  26.938  1.00  0.00    -0.460 OA
BRANCH   4   5
ATOM      5  C   UNL A   1      32.428  22.945  26.628  1.00  0.00     0.339 C 
ATOM      6  O   UNL A   1      31.510  22.972  27.435  1.00  0.00    -0.246 OA
BRANCH   5   7
ATOM      7  C   UNL A   1      32.305  22.542  25.184  1.00  0.00     0.074 A 
ATOM      8  C   UNL A   1      31.843  23.411  24.139  1.00  0.00     0.037 A 
ATOM      9  C   UNL A   1      31.750  22.898  22.831  1.00  0.00     0.013 A 
ATOM     10  C   UNL A   1      32.034  21.564  22.548  1.00  0.00     0.001 A 
ATOM     11  C   UNL A   1      32.627  21.181  24.869  1.00  0.00    -0.036 A 
ATOM     12  C   UNL A   1      32.464  20.714  23.556  1.00  0.00     0.004 A 
ATOM     13  C   UNL A   1      33.126  20.168  25.880  1.00  0.00     0.045 C 
BRANCH   8  14
ATOM     14  C   UNL A   1      31.200  24.764  24.339  1.00  0.00     0.194 C 
ATOM     15  O   UNL A   1      30.129  25.028  23.786  1.00  0.00    -0.289 OA
BRANCH  14  16
ATOM     16  C   UNL A   1      31.920  25.999  24.729  1.00  0.00     0.025 A 
ATOM     17  C   UNL A   1      34.316  28.851  26.898  1.00  0.00     0.044 C 
ATOM     18  C   UNL A   1      33.449  27.902  26.126  1.00  0.00    -0.051 A 
ATOM     19  C   UNL A   1      32.357  27.302  26.742  1.00  0.00     0.004 A 
ATOM     20  C   UNL A   1      33.758  27.566  24.798  1.00  0.00     0.007 A 
ATOM     21  C   UNL A   1      31.605  26.366  26.050  1.00  0.00     0.013 A 
ATOM     22  C   UNL A   1      33.012  26.603  24.078  1.00  0.00    -0.040 A 
ATOM     23  C   UNL A   1      33.470  26.306  22.679  1.00  0.00     0.045 C 
ENDBRANCH  14  16
ENDBRANCH   8  14
ENDBRANCH   5   7
ENDBRANCH   4   5
ENDBRANCH   3   4
ENDBRANCH   2   3
ENDBRANCH   1   2
BRANCH   1  24
ATOM     24  C   UNL A   1      36.822  21.428  25.453  1.00  0.00     0.202 C 
BRANCH  24  25
ATOM     25  C   UNL A   1      38.163  22.151  25.273  1.00  0.00     0.261 C 
BRANCH  25  26
ATOM     26  O   UNL A   1      38.960  22.011  26.469  1.00  0.00    -0.460 OA
BRANCH  26  27
ATOM     27  C   UNL A   1      40.102  22.754  26.509  1.00  0.00     0.338 C 
ATOM     28  O   UNL A   1      41.236  22.304  26.521  1.00  0.00    -0.246 OA
BRANCH  27  29
ATOM     29  C   UNL A   1      39.772  24.181  26.791  1.00  0.00     0.060 A 
ATOM     30  C   UNL A   1      40.461  25.205  26.113  1.00  0.00     0.016 A 
ATOM     31  C   UNL A   1      39.039  24.481  27.939  1.00  0.00     0.016 A 
ATOM     32  C   UNL A   1      40.553  26.482  26.681  1.00  0.00     0.010 A 
ATOM     33  C   UNL A   1      39.230  25.703  28.549  1.00  0.00     0.010 A 
ATOM     34  C   UNL A   1      40.014  26.697  27.947  1.00  0.00    -0.014 A 
BRANCH  34  35
ATOM     35  C   UNL A   1      40.268  27.865  28.789  1.00  0.00     0.031 A 
ATOM     36  C   UNL A   1      39.332  28.995  28.756  1.00  0.00     0.074 A 
ATOM     37  C   UNL A   1      41.212  27.836  29.754  1.00  0.00     0.049 A 
ATOM     38  N   UNL A   1      39.581  30.140  29.289  1.00  0.00    -0.248 NA
ATOM     39  C   UNL A   1      38.076  28.967  28.014  1.00  0.00     0.031 C 
ATOM     40  C   UNL A   1      41.281  28.583  31.009  1.00  0.00     0.029 A 
ATOM     41  N   UNL A   1      42.385  27.092  29.758  1.00  0.00    -0.354 N 
ATOM     42  C   UNL A   1      38.406  30.847  29.283  1.00  0.00     0.074 A 
ATOM     43  C   UNL A   1      37.594  30.178  28.300  1.00  0.00     0.031 C 
ATOM     44  C   UNL A   1      42.511  28.442  31.537  1.00  0.00     0.029 A 
ATOM     45  C   UNL A   1      43.328  27.757  30.544  1.00  0.00     0.049 A 
ATOM     46  H   UNL A   1      42.529  26.241  29.285  1.00  0.00     0.167 HD
ATOM     47  C   UNL A   1      38.221  31.794  30.245  1.00  0.00     0.037 A 
ATOM     48  C   UNL A   1      44.501  28.154  29.986  1.00  0.00     0.037 A 
ATOM     49  C   UNL A   1      39.469  32.020  31.010  1.00  0.00     0.049 A 
ATOM     50  C   UNL A   1      44.593  29.655  30.026  1.00  0.00     0.074 A 
ATOM     51  C   UNL A   1      39.880  31.751  32.306  1.00  0.00     0.029 A 
ATOM     52  N   UNL A   1      40.633  32.363  30.324  1.00  0.00    -0.354 N 
ATOM     53  N   UNL A   1      43.601  30.419  30.393  1.00  0.00    -0.248 NA
ATOM     54  C   UNL A   1      45.760  30.422  29.621  1.00  0.00     0.031 C 
ATOM     55  C   UNL A   1      41.297  31.941  32.378  1.00  0.00     0.029 A 
ATOM     56  C   UNL A   1      41.752  32.352  31.137  1.00  0.00     0.049 A 
ATOM     57  H   UNL A   1      40.654  32.589  29.366  1.00  0.00     0.167 HD
ATOM     58  C   UNL A   1      43.936  31.725  30.266  1.00  0.00     0.074 A 
ATOM     59  C   UNL A   1      45.296  31.680  29.743  1.00  0.00     0.031 C 
ATOM     60  C   UNL A   1      43.055  32.720  30.578  1.00  0.00     0.037 A 
BRANCH  47  61
ATOM     61  C   UNL A   1      36.867  32.371  30.648  1.00  0.00     0.057 A 
ATOM     62  C   UNL A   1      36.305  33.431  29.907  1.00  0.00     0.134 A 
ATOM     63  C   UNL A   1      36.091  32.009  31.772  1.00  0.00     0.134 A 
ATOM     64  F   UNL A   1      36.887  33.896  28.794  1.00  0.00    -0.206 F 
ATOM     65  C   UNL A   1      35.113  34.082  30.271  1.00  0.00     0.040 A 
ATOM     66  C   UNL A   1      34.887  32.634  32.132  1.00  0.00     0.040 A 
ATOM     67  F   UNL A   1      36.436  31.045  32.624  1.00  0.00    -0.206 F 
ATOM     68  C   UNL A   1      34.397  33.686  31.388  1.00  0.00     0.006 A 
ENDBRANCH  47  61
BRANCH  48  69
ATOM     69  C   UNL A   1      44.944  27.251  28.871  1.00  0.00     0.057 A 
ATOM     70  C   UNL A   1      45.543  26.011  29.173  1.00  0.00     0.134 A 
ATOM     71  C   UNL A   1      44.424  27.376  27.580  1.00  0.00     0.134 A 
ATOM     72  F   UNL A   1      46.048  25.779  30.389  1.00  0.00    -0.206 F 
ATOM     73  C   UNL A   1      45.541  24.927  28.286  1.00  0.00     0.040 A 
ATOM     74  C   UNL A   1      44.410  26.295  26.682  1.00  0.00     0.040 A 
ATOM     75  F   UNL A   1      43.813  28.508  27.201  1.00  0.00    -0.206 F 
ATOM     76  C   UNL A   1      44.934  25.055  27.047  1.00  0.00     0.006 A 
ENDBRANCH  48  69
BRANCH  60  77
ATOM     77  C   UNL A   1      43.378  34.152  30.293  1.00  0.00     0.057 A 
ATOM     78  C   UNL A   1      43.441  34.673  28.995  1.00  0.00     0.134 A 
ATOM     79  C   UNL A   1      43.629  35.064  31.333  1.00  0.00     0.134 A 
ATOM     80  F   UNL A   1      43.364  33.871  27.922  1.00  0.00    -0.206 F 
ATOM     81  C   UNL A   1      43.581  36.041  28.754  1.00  0.00     0.040 A 
ATOM     82  C   UNL A   1      43.834  36.423  31.104  1.00  0.00     0.040 A 
ATOM     83  F   UNL A   1      43.650  34.690  32.620  1.00  0.00    -0.206 F 
ATOM     84  C   UNL A   1      43.765  36.923  29.813  1.00  0.00     0.006 A 
ENDBRANCH  60  77
ENDBRANCH  34  35
ENDBRANCH  27  29
ENDBRANCH  26  27
ENDBRANCH  25  26
ENDBRANCH  24  25
ENDBRANCH   1  24
TORSDOF 16
ENDMDL
