MODEL 1
REMARK VINA RESULT:     -11.2      0.000      0.000
REMARK SMILES Cc1ccc(-n2cnnn2)cc1OCC(=O)OCCOCCOC(=O)c1ccc(-c2c3nc(c(-c4c(F)cccc4F)c4ccc([nH]4)c(-c4c(F)cccc4F)c4nc(c(-c5c(F)cccc5F)c5ccc2[nH]5)C=C4)C=C3)cc1
REMARK SMILES IDX 19 1 18 2 17 3 15 4 16 5 14 6 13 7 12 8 1 9 2 10 3 11 4 12
REMARK SMILES IDX 11 13 5 14 6 15 7 16 10 17 8 18 9 19 20 20 21 21 22 22 23 23
REMARK SMILES IDX 24 24 25 25 26 26 27 27 79 28 28 29 78 30 29 31 30 32 31 33
REMARK SMILES IDX 72 34 32 35 77 36 71 37 73 38 33 39 76 40 70 41 69 42 34 44
REMARK SMILES IDX 60 45 43 46 59 47 44 48 47 49 58 50 74 51 45 52 46 53 57 55
REMARK SMILES IDX 75 56 48 57 35 58 36 59 41 60 37 61 38 62 40 63 42 64 39 65
REMARK SMILES IDX 61 66 62 67 67 68 63 69 64 70 66 71 68 72 65 73 49 74 50 75
REMARK SMILES IDX 55 76 51 77 52 78 54 79 56 80 53 81
REMARK H PARENT 73 43 47 54
REMARK Flexibility Score: inf
ROOT
ATOM      1  C   UNL A   1      40.742  19.490  26.152  1.00  0.00     0.202 C 
ENDROOT
BRANCH   1   2
ATOM      2  C   UNL A   1      40.417  20.956  26.197  1.00  0.00     0.261 C 
BRANCH   2   3
ATOM      3  O   UNL A   1      39.055  21.239  25.847  1.00  0.00    -0.461 OA
BRANCH   3   4
ATOM      4  C   UNL A   1      38.617  22.508  26.100  1.00  0.00     0.344 C 
ATOM      5  O   UNL A   1      39.135  23.309  26.863  1.00  0.00    -0.248 OA
BRANCH   4   6
ATOM      6  C   UNL A   1      37.323  22.809  25.354  1.00  0.00     0.351 C 
BRANCH   6   7
ATOM      7  O   UNL A   1      36.136  22.130  25.716  1.00  0.00    -0.482 OA
BRANCH   7   8
ATOM      8  C   UNL A   1      34.939  22.779  25.593  1.00  0.00     0.125 A 
ATOM      9  C   UNL A   1      33.901  22.183  27.879  1.00  0.00     0.048 C 
ATOM     10  C   UNL A   1      33.878  22.806  26.511  1.00  0.00    -0.009 A 
ATOM     11  C   UNL A   1      32.680  23.442  26.125  1.00  0.00     0.009 A 
ATOM     12  C   UNL A   1      32.561  24.103  24.899  1.00  0.00     0.029 A 
ATOM     13  C   UNL A   1      34.805  23.409  24.342  1.00  0.00     0.075 A 
ATOM     14  C   UNL A   1      33.630  24.088  24.004  1.00  0.00     0.072 A 
BRANCH  14  15
ATOM     15  N   UNL A   1      33.512  24.753  22.768  1.00  0.00    -0.200 N 
ATOM     16  C   UNL A   1      33.586  26.095  22.496  1.00  0.00     0.252 A 
ATOM     17  N   UNL A   1      33.306  24.099  21.602  1.00  0.00    -0.040 NA
ATOM     18  N   UNL A   1      33.397  26.287  21.211  1.00  0.00    -0.117 NA
ATOM     19  N   UNL A   1      33.210  25.040  20.673  1.00  0.00    -0.024 NA
ENDBRANCH  14  15
ENDBRANCH   7   8
ENDBRANCH   6   7
ENDBRANCH   4   6
ENDBRANCH   3   4
ENDBRANCH   2   3
ENDBRANCH   1   2
BRANCH   1  20
ATOM     20  O   UNL A   1      41.887  19.434  25.309  1.00  0.00    -0.374 OA
BRANCH  20  21
ATOM     21  C   UNL A   1      43.060  18.942  25.907  1.00  0.00     0.202 C 
BRANCH  21  22
ATOM     22  C   UNL A   1      44.277  19.054  24.998  1.00  0.00     0.261 C 
BRANCH  22  23
ATOM     23  O   UNL A   1      44.277  20.327  24.323  1.00  0.00    -0.460 OA
BRANCH  23  24
ATOM     24  C   UNL A   1      45.049  21.275  24.912  1.00  0.00     0.338 C 
ATOM     25  O   UNL A   1      46.203  21.096  25.306  1.00  0.00    -0.246 OA
BRANCH  24  26
ATOM     26  C   UNL A   1      44.227  22.460  25.279  1.00  0.00     0.060 A 
ATOM     27  C   UNL A   1      44.417  23.667  24.587  1.00  0.00     0.016 A 
ATOM     28  C   UNL A   1      43.597  22.463  26.521  1.00  0.00     0.016 A 
ATOM     29  C   UNL A   1      44.151  24.885  25.225  1.00  0.00     0.010 A 
ATOM     30  C   UNL A   1      43.506  23.661  27.199  1.00  0.00     0.010 A 
ATOM     31  C   UNL A   1      43.789  24.881  26.571  1.00  0.00    -0.014 A 
BRANCH  31  32
ATOM     32  C   UNL A   1      43.673  26.070  27.419  1.00  0.00     0.031 A 
ATOM     33  C   UNL A   1      42.333  26.696  27.556  1.00  0.00     0.074 A 
ATOM     34  C   UNL A   1      44.695  26.518  28.191  1.00  0.00     0.049 A 
ATOM     35  N   UNL A   1      42.153  27.913  27.933  1.00  0.00    -0.248 NA
ATOM     36  C   UNL A   1      41.069  26.018  27.268  1.00  0.00     0.031 C 
ATOM     37  C   UNL A   1      44.650  27.474  29.302  1.00  0.00     0.029 A 
ATOM     38  N   UNL A   1      46.064  26.213  28.132  1.00  0.00    -0.354 N 
ATOM     39  C   UNL A   1      40.823  28.075  28.235  1.00  0.00     0.074 A 
ATOM     40  C   UNL A   1      40.175  26.885  27.751  1.00  0.00     0.031 C 
ATOM     41  C   UNL A   1      45.894  27.929  29.549  1.00  0.00     0.029 A 
ATOM     42  C   UNL A   1      46.770  27.352  28.541  1.00  0.00     0.049 A 
ATOM     43  H   UNL A   1      46.457  25.354  27.853  1.00  0.00     0.167 HD
ATOM     44  C   UNL A   1      40.448  29.151  28.981  1.00  0.00     0.037 A 
ATOM     45  C   UNL A   1      47.644  27.977  27.711  1.00  0.00     0.037 A 
ATOM     46  C   UNL A   1      41.616  29.973  29.308  1.00  0.00     0.049 A 
ATOM     47  C   UNL A   1      47.130  29.363  27.472  1.00  0.00     0.074 A 
ATOM     48  C   UNL A   1      42.419  30.048  30.436  1.00  0.00     0.029 A 
ATOM     49  N   UNL A   1      42.340  30.570  28.276  1.00  0.00    -0.354 N 
ATOM     50  N   UNL A   1      45.870  29.667  27.625  1.00  0.00    -0.248 NA
ATOM     51  C   UNL A   1      47.957  30.523  27.166  1.00  0.00     0.031 C 
ATOM     52  C   UNL A   1      43.656  30.635  30.057  1.00  0.00     0.029 A 
ATOM     53  C   UNL A   1      43.604  30.935  28.704  1.00  0.00     0.049 A 
ATOM     54  H   UNL A   1      41.997  30.714  27.366  1.00  0.00     0.167 HD
ATOM     55  C   UNL A   1      45.719  31.014  27.556  1.00  0.00     0.074 A 
ATOM     56  C   UNL A   1      47.041  31.509  27.212  1.00  0.00     0.031 C 
ATOM     57  C   UNL A   1      44.529  31.622  27.811  1.00  0.00     0.037 A 
BRANCH  44  58
ATOM     58  C   UNL A   1      39.090  29.295  29.627  1.00  0.00     0.057 A 
ATOM     59  C   UNL A   1      37.970  29.701  28.878  1.00  0.00     0.134 A 
ATOM     60  C   UNL A   1      38.821  29.059  30.989  1.00  0.00     0.134 A 
ATOM     61  F   UNL A   1      38.039  29.896  27.555  1.00  0.00    -0.206 F 
ATOM     62  C   UNL A   1      36.710  29.933  29.448  1.00  0.00     0.040 A 
ATOM     63  C   UNL A   1      37.579  29.337  31.583  1.00  0.00     0.040 A 
ATOM     64  F   UNL A   1      39.729  28.497  31.796  1.00  0.00    -0.206 F 
ATOM     65  C   UNL A   1      36.517  29.781  30.811  1.00  0.00     0.006 A 
ENDBRANCH  44  58
BRANCH  45  66
ATOM     66  C   UNL A   1      48.312  27.028  26.772  1.00  0.00     0.057 A 
ATOM     67  C   UNL A   1      47.817  26.967  25.449  1.00  0.00     0.134 A 
ATOM     68  C   UNL A   1      49.619  26.575  26.964  1.00  0.00     0.134 A 
ATOM     69  F   UNL A   1      46.575  27.400  25.177  1.00  0.00    -0.206 F 
ATOM     70  C   UNL A   1      48.622  26.607  24.360  1.00  0.00     0.040 A 
ATOM     71  C   UNL A   1      50.434  26.207  25.878  1.00  0.00     0.040 A 
ATOM     72  F   UNL A   1      50.178  26.605  28.181  1.00  0.00    -0.206 F 
ATOM     73  C   UNL A   1      49.953  26.269  24.571  1.00  0.00     0.006 A 
ENDBRANCH  45  66
BRANCH  57  74
ATOM     74  C   UNL A   1      44.173  32.976  27.286  1.00  0.00     0.057 A 
ATOM     75  C   UNL A   1      43.943  33.223  25.925  1.00  0.00     0.134 A 
ATOM     76  C   UNL A   1      43.841  34.025  28.165  1.00  0.00     0.134 A 
ATOM     77  F   UNL A   1      44.109  32.270  24.997  1.00  0.00    -0.206 F 
ATOM     78  C   UNL A   1      43.469  34.451  25.463  1.00  0.00     0.040 A 
ATOM     79  C   UNL A   1      43.304  35.231  27.721  1.00  0.00     0.040 A 
ATOM     80  F   UNL A   1      43.982  33.909  29.495  1.00  0.00    -0.206 F 
ATOM     81  C   UNL A   1      43.131  35.453  26.362  1.00  0.00     0.006 A 
ENDBRANCH  57  74
ENDBRANCH  31  32
ENDBRANCH  24  26
ENDBRANCH  23  24
ENDBRANCH  22  23
ENDBRANCH  21  22
ENDBRANCH  20  21
ENDBRANCH   1  20
TORSDOF 17
ENDMDL
MODEL 2
REMARK VINA RESULT:     -10.6      5.283     10.813
REMARK SMILES Cc1ccc(-n2cnnn2)cc1OCC(=O)OCCOCCOC(=O)c1ccc(-c2c3nc(c(-c4c(F)cccc4F)c4ccc([nH]4)c(-c4c(F)cccc4F)c4nc(c(-c5c(F)cccc5F)c5ccc2[nH]5)C=C4)C=C3)cc1
REMARK SMILES IDX 19 1 18 2 17 3 15 4 16 5 14 6 13 7 12 8 1 9 2 10 3 11 4 12
REMARK SMILES IDX 11 13 5 14 6 15 7 16 10 17 8 18 9 19 20 20 21 21 22 22 23 23
REMARK SMILES IDX 24 24 25 25 26 26 27 27 79 28 28 29 78 30 29 31 30 32 31 33
REMARK SMILES IDX 72 34 32 35 77 36 71 37 73 38 33 39 76 40 70 41 69 42 34 44
REMARK SMILES IDX 60 45 43 46 59 47 44 48 47 49 58 50 74 51 45 52 46 53 57 55
REMARK SMILES IDX 75 56 48 57 35 58 36 59 41 60 37 61 38 62 40 63 42 64 39 65
REMARK SMILES IDX 61 66 62 67 67 68 63 69 64 70 66 71 68 72 65 73 49 74 50 75
REMARK SMILES IDX 55 76 51 77 52 78 54 79 56 80 53 81
REMARK H PARENT 73 43 47 54
REMARK Flexibility Score: inf
ROOT
ATOM      1  C   UNL A   1      33.088  33.798  28.026  1.00  0.00     0.202 C 
ENDROOT
BRANCH   1   2
ATOM      2  C   UNL A   1      34.210  32.829  27.783  1.00  0.00     0.261 C 
BRANCH   2   3
ATOM      3  O   UNL A   1      33.943  31.520  28.304  1.00  0.00    -0.461 OA
BRANCH   3   4
ATOM      4  C   UNL A   1      34.001  30.490  27.408  1.00  0.00     0.344 C 
ATOM      5  O   UNL A   1      34.945  29.732  27.245  1.00  0.00    -0.248 OA
BRANCH   4   6
ATOM      6  C   UNL A   1      32.743  30.425  26.552  1.00  0.00     0.351 C 
BRANCH   6   7
ATOM      7  O   UNL A   1      31.753  29.458  26.840  1.00  0.00    -0.482 OA
BRANCH   7   8
ATOM      8  C   UNL A   1      31.574  28.415  25.974  1.00  0.00     0.125 A 
ATOM      9  C   UNL A   1      30.619  29.708  23.954  1.00  0.00     0.048 C 
ATOM     10  C   UNL A   1      31.031  28.458  24.680  1.00  0.00    -0.009 A 
ATOM     11  C   UNL A   1      30.826  27.236  24.005  1.00  0.00     0.009 A 
ATOM     12  C   UNL A   1      31.221  26.015  24.558  1.00  0.00     0.029 A 
ATOM     13  C   UNL A   1      31.933  27.182  26.548  1.00  0.00     0.075 A 
ATOM     14  C   UNL A   1      31.779  25.989  25.836  1.00  0.00     0.072 A 
BRANCH  14  15
ATOM     15  N   UNL A   1      32.179  24.759  26.395  1.00  0.00    -0.200 N 
ATOM     16  C   UNL A   1      33.348  24.066  26.219  1.00  0.00     0.252 A 
ATOM     17  N   UNL A   1      31.400  24.060  27.252  1.00  0.00    -0.040 NA
ATOM     18  N   UNL A   1      33.299  22.951  26.909  1.00  0.00    -0.117 NA
ATOM     19  N   UNL A   1      32.077  22.955  27.533  1.00  0.00    -0.024 NA
ENDBRANCH  14  15
ENDBRANCH   7   8
ENDBRANCH   6   7
ENDBRANCH   4   6
ENDBRANCH   3   4
ENDBRANCH   2   3
ENDBRANCH   1   2
BRANCH   1  20
ATOM     20  O   UNL A   1      33.762  34.994  28.402  1.00  0.00    -0.374 OA
BRANCH  20  21
ATOM     21  C   UNL A   1      32.983  35.943  29.086  1.00  0.00     0.202 C 
BRANCH  21  22
ATOM     22  C   UNL A   1      32.920  35.684  30.585  1.00  0.00     0.261 C 
BRANCH  22  23
ATOM     23  O   UNL A   1      34.230  35.357  31.088  1.00  0.00    -0.460 OA
BRANCH  23  24
ATOM     24  C   UNL A   1      34.256  34.307  31.946  1.00  0.00     0.338 C 
ATOM     25  O   UNL A   1      33.842  34.338  33.107  1.00  0.00    -0.246 OA
BRANCH  24  26
ATOM     26  C   UNL A   1      35.106  33.213  31.403  1.00  0.00     0.060 A 
ATOM     27  C   UNL A   1      35.213  32.008  32.118  1.00  0.00     0.016 A 
ATOM     28  C   UNL A   1      36.060  33.538  30.442  1.00  0.00     0.016 A 
ATOM     29  C   UNL A   1      36.374  31.233  32.005  1.00  0.00     0.010 A 
ATOM     30  C   UNL A   1      37.265  32.866  30.472  1.00  0.00     0.010 A 
ATOM     31  C   UNL A   1      37.443  31.718  31.255  1.00  0.00    -0.014 A 
BRANCH  31  32
ATOM     32  C   UNL A   1      38.781  31.122  31.205  1.00  0.00     0.031 A 
ATOM     33  C   UNL A   1      38.979  29.933  30.337  1.00  0.00     0.074 A 
ATOM     34  C   UNL A   1      39.859  31.700  31.793  1.00  0.00     0.049 A 
ATOM     35  N   UNL A   1      39.951  29.102  30.483  1.00  0.00    -0.248 NA
ATOM     36  C   UNL A   1      38.095  29.558  29.233  1.00  0.00     0.031 C 
ATOM     37  C   UNL A   1      41.281  31.411  31.578  1.00  0.00     0.029 A 
ATOM     38  N   UNL A   1      39.916  32.707  32.770  1.00  0.00    -0.354 N 
ATOM     39  C   UNL A   1      40.009  28.312  29.360  1.00  0.00     0.074 A 
ATOM     40  C   UNL A   1      38.798  28.593  28.634  1.00  0.00     0.031 C 
ATOM     41  C   UNL A   1      41.998  31.918  32.602  1.00  0.00     0.029 A 
ATOM     42  C   UNL A   1      41.050  32.469  33.558  1.00  0.00     0.049 A 
ATOM     43  H   UNL A   1      39.276  33.446  32.881  1.00  0.00     0.167 HD
ATOM     44  C   UNL A   1      41.146  27.604  29.117  1.00  0.00     0.037 A 
ATOM     45  C   UNL A   1      40.946  32.230  34.890  1.00  0.00     0.037 A 
ATOM     46  C   UNL A   1      42.125  27.835  30.182  1.00  0.00     0.049 A 
ATOM     47  C   UNL A   1      41.465  30.849  35.145  1.00  0.00     0.074 A 
ATOM     48  C   UNL A   1      43.219  28.682  30.278  1.00  0.00     0.029 A 
ATOM     49  N   UNL A   1      41.816  27.451  31.486  1.00  0.00    -0.354 N 
ATOM     50  N   UNL A   1      41.504  29.942  34.206  1.00  0.00    -0.248 NA
ATOM     51  C   UNL A   1      42.076  30.398  36.389  1.00  0.00     0.031 C 
ATOM     52  C   UNL A   1      43.520  28.855  31.656  1.00  0.00     0.029 A 
ATOM     53  C   UNL A   1      42.625  28.102  32.400  1.00  0.00     0.049 A 
ATOM     54  H   UNL A   1      41.115  26.803  31.725  1.00  0.00     0.167 HD
ATOM     55  C   UNL A   1      42.208  28.868  34.645  1.00  0.00     0.074 A 
ATOM     56  C   UNL A   1      42.501  29.171  36.035  1.00  0.00     0.031 C 
ATOM     57  C   UNL A   1      42.519  27.826  33.827  1.00  0.00     0.037 A 
BRANCH  44  58
ATOM     58  C   UNL A   1      41.457  26.940  27.796  1.00  0.00     0.057 A 
ATOM     59  C   UNL A   1      41.494  25.537  27.681  1.00  0.00     0.134 A 
ATOM     60  C   UNL A   1      41.740  27.626  26.600  1.00  0.00     0.134 A 
ATOM     61  F   UNL A   1      41.177  24.737  28.706  1.00  0.00    -0.206 F 
ATOM     62  C   UNL A   1      41.861  24.875  26.501  1.00  0.00     0.040 A 
ATOM     63  C   UNL A   1      42.162  26.978  25.427  1.00  0.00     0.040 A 
ATOM     64  F   UNL A   1      41.571  28.949  26.494  1.00  0.00    -0.206 F 
ATOM     65  C   UNL A   1      42.227  25.595  25.376  1.00  0.00     0.006 A 
ENDBRANCH  44  58
BRANCH  45  66
ATOM     66  C   UNL A   1      39.792  32.947  35.507  1.00  0.00     0.057 A 
ATOM     67  C   UNL A   1      38.629  32.192  35.781  1.00  0.00     0.134 A 
ATOM     68  C   UNL A   1      39.943  34.134  36.228  1.00  0.00     0.134 A 
ATOM     69  F   UNL A   1      38.417  31.030  35.141  1.00  0.00    -0.206 F 
ATOM     70  C   UNL A   1      37.739  32.527  36.811  1.00  0.00     0.040 A 
ATOM     71  C   UNL A   1      39.054  34.481  37.261  1.00  0.00     0.040 A 
ATOM     72  F   UNL A   1      41.019  34.910  36.046  1.00  0.00    -0.206 F 
ATOM     73  C   UNL A   1      37.978  33.655  37.587  1.00  0.00     0.006 A 
ENDBRANCH  45  66
BRANCH  57  74
ATOM     74  C   UNL A   1      42.828  26.453  34.334  1.00  0.00     0.057 A 
ATOM     75  C   UNL A   1      41.936  25.724  35.133  1.00  0.00     0.134 A 
ATOM     76  C   UNL A   1      43.943  25.741  33.852  1.00  0.00     0.134 A 
ATOM     77  F   UNL A   1      40.779  26.249  35.561  1.00  0.00    -0.206 F 
ATOM     78  C   UNL A   1      42.167  24.392  35.478  1.00  0.00     0.040 A 
ATOM     79  C   UNL A   1      44.149  24.393  34.135  1.00  0.00     0.040 A 
ATOM     80  F   UNL A   1      44.857  26.311  33.051  1.00  0.00    -0.206 F 
ATOM     81  C   UNL A   1      43.267  23.717  34.965  1.00  0.00     0.006 A 
ENDBRANCH  57  74
ENDBRANCH  31  32
ENDBRANCH  24  26
ENDBRANCH  23  24
ENDBRANCH  22  23
ENDBRANCH  21  22
ENDBRANCH  20  21
ENDBRANCH   1  20
TORSDOF 17
ENDMDL
MODEL 3
REMARK VINA RESULT:     -10.6      5.377     10.771
REMARK SMILES Cc1ccc(-n2cnnn2)cc1OCC(=O)OCCOCCOC(=O)c1ccc(-c2c3nc(c(-c4c(F)cccc4F)c4ccc([nH]4)c(-c4c(F)cccc4F)c4nc(c(-c5c(F)cccc5F)c5ccc2[nH]5)C=C4)C=C3)cc1
REMARK SMILES IDX 19 1 18 2 17 3 15 4 16 5 14 6 13 7 12 8 1 9 2 10 3 11 4 12
REMARK SMILES IDX 11 13 5 14 6 15 7 16 10 17 8 18 9 19 20 20 21 21 22 22 23 23
REMARK SMILES IDX 24 24 25 25 26 26 27 27 79 28 28 29 78 30 29 31 30 32 31 33
REMARK SMILES IDX 72 34 32 35 77 36 71 37 73 38 33 39 76 40 70 41 69 42 34 44
REMARK SMILES IDX 60 45 43 46 59 47 44 48 47 49 58 50 74 51 45 52 46 53 57 55
REMARK SMILES IDX 75 56 48 57 35 58 36 59 41 60 37 61 38 62 40 63 42 64 39 65
REMARK SMILES IDX 61 66 62 67 67 68 63 69 64 70 66 71 68 72 65 73 49 74 50 75
REMARK SMILES IDX 55 76 51 77 52 78 54 79 56 80 53 81
REMARK H PARENT 73 43 47 54
REMARK Flexibility Score: inf
ROOT
ATOM      1  C   UNL A   1      33.146  33.764  28.236  1.00  0.00     0.202 C 
ENDROOT
BRANCH   1   2
ATOM      2  C   UNL A   1      34.309  32.856  27.952  1.00  0.00     0.261 C 
BRANCH   2   3
ATOM      3  O   UNL A   1      34.121  31.529  28.462  1.00  0.00    -0.461 OA
BRANCH   3   4
ATOM      4  C   UNL A   1      34.109  30.522  27.538  1.00  0.00     0.344 C 
ATOM      5  O   UNL A   1      35.090  29.960  27.075  1.00  0.00    -0.248 OA
BRANCH   4   6
ATOM      6  C   UNL A   1      32.692  30.210  27.073  1.00  0.00     0.351 C 
BRANCH   6   7
ATOM      7  O   UNL A   1      32.293  28.863  26.913  1.00  0.00    -0.482 OA
BRANCH   7   8
ATOM      8  C   UNL A   1      32.109  28.372  25.650  1.00  0.00     0.125 A 
ATOM      9  C   UNL A   1      33.778  26.405  25.718  1.00  0.00     0.048 C 
ATOM     10  C   UNL A   1      32.776  27.298  25.041  1.00  0.00    -0.009 A 
ATOM     11  C   UNL A   1      32.514  27.038  23.680  1.00  0.00     0.009 A 
ATOM     12  C   UNL A   1      31.561  27.768  22.963  1.00  0.00     0.029 A 
ATOM     13  C   UNL A   1      31.181  29.133  24.917  1.00  0.00     0.075 A 
ATOM     14  C   UNL A   1      30.890  28.820  23.585  1.00  0.00     0.072 A 
BRANCH  14  15
ATOM     15  N   UNL A   1      29.930  29.556  22.864  1.00  0.00    -0.200 N 
ATOM     16  C   UNL A   1      28.822  30.219  23.325  1.00  0.00     0.252 A 
ATOM     17  N   UNL A   1      29.992  29.722  21.524  1.00  0.00    -0.040 NA
ATOM     18  N   UNL A   1      28.186  30.755  22.310  1.00  0.00    -0.117 NA
ATOM     19  N   UNL A   1      28.916  30.425  21.198  1.00  0.00    -0.024 NA
ENDBRANCH  14  15
ENDBRANCH   7   8
ENDBRANCH   6   7
ENDBRANCH   4   6
ENDBRANCH   3   4
ENDBRANCH   2   3
ENDBRANCH   1   2
BRANCH   1  20
ATOM     20  O   UNL A   1      33.769  34.988  28.611  1.00  0.00    -0.374 OA
BRANCH  20  21
ATOM     21  C   UNL A   1      32.964  35.885  29.333  1.00  0.00     0.202 C 
BRANCH  21  22
ATOM     22  C   UNL A   1      33.051  35.675  30.839  1.00  0.00     0.261 C 
BRANCH  22  23
ATOM     23  O   UNL A   1      34.390  35.292  31.209  1.00  0.00    -0.460 OA
BRANCH  23  24
ATOM     24  C   UNL A   1      34.457  34.238  32.061  1.00  0.00     0.338 C 
ATOM     25  O   UNL A   1      34.054  34.249  33.226  1.00  0.00    -0.246 OA
BRANCH  24  26
ATOM     26  C   UNL A   1      35.335  33.174  31.503  1.00  0.00     0.060 A 
ATOM     27  C   UNL A   1      35.442  31.948  32.180  1.00  0.00     0.016 A 
ATOM     28  C   UNL A   1      36.306  33.543  30.576  1.00  0.00     0.016 A 
ATOM     29  C   UNL A   1      36.616  31.193  32.070  1.00  0.00     0.010 A 
ATOM     30  C   UNL A   1      37.519  32.887  30.612  1.00  0.00     0.010 A 
ATOM     31  C   UNL A   1      37.696  31.717  31.361  1.00  0.00    -0.014 A 
BRANCH  31  32
ATOM     32  C   UNL A   1      39.043  31.141  31.324  1.00  0.00     0.031 A 
ATOM     33  C   UNL A   1      39.274  29.974  30.435  1.00  0.00     0.074 A 
ATOM     34  C   UNL A   1      40.101  31.721  31.944  1.00  0.00     0.049 A 
ATOM     35  N   UNL A   1      40.255  29.154  30.580  1.00  0.00    -0.248 NA
ATOM     36  C   UNL A   1      38.416  29.610  29.306  1.00  0.00     0.031 C 
ATOM     37  C   UNL A   1      41.531  31.457  31.749  1.00  0.00     0.029 A 
ATOM     38  N   UNL A   1      40.126  32.707  32.943  1.00  0.00    -0.354 N 
ATOM     39  C   UNL A   1      40.345  28.389  29.443  1.00  0.00     0.074 A 
ATOM     40  C   UNL A   1      39.144  28.668  28.700  1.00  0.00     0.031 C 
ATOM     41  C   UNL A   1      42.222  31.952  32.797  1.00  0.00     0.029 A 
ATOM     42  C   UNL A   1      41.249  32.469  33.746  1.00  0.00     0.049 A 
ATOM     43  H   UNL A   1      39.473  33.435  33.057  1.00  0.00     0.167 HD
ATOM     44  C   UNL A   1      41.497  27.703  29.206  1.00  0.00     0.037 A 
ATOM     45  C   UNL A   1      41.124  32.199  35.071  1.00  0.00     0.037 A 
ATOM     46  C   UNL A   1      42.452  27.924  30.293  1.00  0.00     0.049 A 
ATOM     47  C   UNL A   1      41.658  30.821  35.306  1.00  0.00     0.074 A 
ATOM     48  C   UNL A   1      43.532  28.785  30.428  1.00  0.00     0.029 A 
ATOM     49  N   UNL A   1      42.125  27.508  31.584  1.00  0.00    -0.354 N 
ATOM     50  N   UNL A   1      41.727  29.935  34.349  1.00  0.00    -0.248 NA
ATOM     51  C   UNL A   1      42.253  30.352  36.552  1.00  0.00     0.031 C 
ATOM     52  C   UNL A   1      43.805  28.932  31.814  1.00  0.00     0.029 A 
ATOM     53  C   UNL A   1      42.908  28.150  32.525  1.00  0.00     0.049 A 
ATOM     54  H   UNL A   1      41.430  26.845  31.796  1.00  0.00     0.167 HD
ATOM     55  C   UNL A   1      42.439  28.862  34.778  1.00  0.00     0.074 A 
ATOM     56  C   UNL A   1      42.702  29.139  36.180  1.00  0.00     0.031 C 
ATOM     57  C   UNL A   1      42.780  27.842  33.944  1.00  0.00     0.037 A 
BRANCH  44  58
ATOM     58  C   UNL A   1      41.841  27.071  27.877  1.00  0.00     0.057 A 
ATOM     59  C   UNL A   1      42.200  27.862  26.769  1.00  0.00     0.134 A 
ATOM     60  C   UNL A   1      41.829  25.687  27.620  1.00  0.00     0.134 A 
ATOM     61  F   UNL A   1      42.331  29.191  26.864  1.00  0.00    -0.206 F 
ATOM     62  C   UNL A   1      42.444  27.330  25.495  1.00  0.00     0.040 A 
ATOM     63  C   UNL A   1      42.018  25.145  26.338  1.00  0.00     0.040 A 
ATOM     64  F   UNL A   1      41.687  24.792  28.605  1.00  0.00    -0.206 F 
ATOM     65  C   UNL A   1      42.323  25.969  25.267  1.00  0.00     0.006 A 
ENDBRANCH  44  58
BRANCH  45  66
ATOM     66  C   UNL A   1      39.948  32.887  35.682  1.00  0.00     0.057 A 
ATOM     67  C   UNL A   1      38.788  32.112  35.909  1.00  0.00     0.134 A 
ATOM     68  C   UNL A   1      40.069  34.056  36.438  1.00  0.00     0.134 A 
ATOM     69  F   UNL A   1      38.604  30.966  35.234  1.00  0.00    -0.206 F 
ATOM     70  C   UNL A   1      37.872  32.409  36.928  1.00  0.00     0.040 A 
ATOM     71  C   UNL A   1      39.154  34.365  37.460  1.00  0.00     0.040 A 
ATOM     72  F   UNL A   1      41.141  34.848  36.300  1.00  0.00    -0.206 F 
ATOM     73  C   UNL A   1      38.081  33.517  37.739  1.00  0.00     0.006 A 
ENDBRANCH  45  66
BRANCH  57  74
ATOM     74  C   UNL A   1      43.099  26.463  34.427  1.00  0.00     0.057 A 
ATOM     75  C   UNL A   1      42.136  25.622  35.003  1.00  0.00     0.134 A 
ATOM     76  C   UNL A   1      44.339  25.865  34.130  1.00  0.00     0.134 A 
ATOM     77  F   UNL A   1      40.881  26.036  35.230  1.00  0.00    -0.206 F 
ATOM     78  C   UNL A   1      42.406  24.289  35.315  1.00  0.00     0.040 A 
ATOM     79  C   UNL A   1      44.597  24.518  34.376  1.00  0.00     0.040 A 
ATOM     80  F   UNL A   1      45.336  26.550  33.549  1.00  0.00    -0.206 F 
ATOM     81  C   UNL A   1      43.633  23.729  34.986  1.00  0.00     0.006 A 
ENDBRANCH  57  74
ENDBRANCH  31  32
ENDBRANCH  24  26
ENDBRANCH  23  24
ENDBRANCH  22  23
ENDBRANCH  21  22
ENDBRANCH  20  21
ENDBRANCH   1  20
TORSDOF 17
ENDMDL
