MODEL 1
REMARK VINA RESULT:     -11.3      0.000      0.000
REMARK SMILES COc1cc(OC(F)(F)F)cc2c1O[C@@H](C(F)(F)F)C(C(=O)OCCOCCOC(=O)c1ccc(-c3c4nc(c(-c5c(F)cccc5F)c5ccc([nH]5)c(-c5c(F)cccc5F)c5nc(c(-c6c(F)cccc6F)c6ccc3[nH]6)C=C5)C=C4)cc1)=C2
REMARK SMILES IDX 26 1 25 2 24 3 23 4 21 5 22 6 20 7 3 8 4 9 13 10 5 11 12 12
REMARK SMILES IDX 14 13 11 14 86 15 15 16 2 17 1 18 6 19 7 20 8 21 9 22 10 23
REMARK SMILES IDX 16 24 17 25 18 26 19 27 27 28 28 29 29 30 30 31 31 32 32 33
REMARK SMILES IDX 33 34 85 35 34 36 84 37 35 38 36 39 37 40 78 41 38 42 83 43
REMARK SMILES IDX 77 44 79 45 39 46 82 47 76 48 75 49 40 51 66 52 49 53 65 54
REMARK SMILES IDX 50 55 53 56 64 57 80 58 51 59 52 60 63 62 81 63 54 64 41 65
REMARK SMILES IDX 42 66 47 67 43 68 44 69 46 70 48 71 45 72 67 73 68 74 73 75
REMARK SMILES IDX 69 76 70 77 72 78 74 79 71 80 55 81 56 82 61 83 57 84 58 85
REMARK SMILES IDX 60 86 62 87 59 88
REMARK H PARENT 79 50 53 61
REMARK Flexibility Score: inf
ROOT
ATOM      1  O   UNL A   1      34.641  21.303  24.646  1.00  0.00    -0.374 OA
ENDROOT
BRANCH   1   2
ATOM      2  C   UNL A   1      33.251  21.084  24.416  1.00  0.00     0.202 C 
BRANCH   2   3
ATOM      3  C   UNL A   1      32.664  21.663  23.127  1.00  0.00     0.261 C 
BRANCH   3   4
ATOM      4  O   UNL A   1      32.302  23.045  23.284  1.00  0.00    -0.460 OA
BRANCH   4   5
ATOM      5  C   UNL A   1      33.021  23.907  22.530  1.00  0.00     0.338 C 
ATOM      6  O   UNL A   1      33.714  23.626  21.563  1.00  0.00    -0.246 OA
BRANCH   5   7
ATOM      7  C   UNL A   1      32.783  25.296  22.949  1.00  0.00     0.087 C 
ATOM      8  C   UNL A   1      31.569  28.763  24.924  1.00  0.00     0.165 A 
ATOM      9  C   UNL A   1      30.690  29.649  24.298  1.00  0.00     0.097 A 
ATOM     10  C   UNL A   1      31.986  27.608  24.258  1.00  0.00     0.170 A 
ATOM     11  C   UNL A   1      30.252  29.408  22.994  1.00  0.00     0.134 A 
ATOM     12  C   UNL A   1      31.539  27.343  22.952  1.00  0.00     0.025 A 
ATOM     13  O   UNL A   1      32.746  26.694  24.944  1.00  0.00    -0.471 OA
ATOM     14  C   UNL A   1      30.694  28.260  22.320  1.00  0.00     0.059 A 
ATOM     15  C   UNL A   1      31.847  26.045  22.343  1.00  0.00     0.027 C 
ATOM     16  C   UNL A   1      33.579  25.863  24.100  1.00  0.00     0.316 C 
BRANCH   8  17
ATOM     17  O   UNL A   1      31.882  29.056  26.226  1.00  0.00    -0.493 OA
ATOM     18  C   UNL A   1      31.967  30.455  26.490  1.00  0.00     0.278 C 
ENDBRANCH   8  17
BRANCH  11  19
ATOM     19  O   UNL A   1      29.391  30.191  22.278  1.00  0.00    -0.406 OA
BRANCH  19  20
ATOM     20  C   UNL A   1      28.013  29.850  22.311  1.00  0.00     0.573 C 
ATOM     21  F   UNL A   1      27.828  28.614  22.822  1.00  0.00    -0.132 F 
ATOM     22  F   UNL A   1      27.310  30.749  23.032  1.00  0.00    -0.132 F 
ATOM     23  F   UNL A   1      27.535  29.859  21.048  1.00  0.00    -0.132 F 
ENDBRANCH  19  20
ENDBRANCH  11  19
BRANCH  16  24
ATOM     24  C   UNL A   1      34.386  24.908  24.994  1.00  0.00     0.430 C 
ATOM     25  F   UNL A   1      33.573  24.044  25.645  1.00  0.00    -0.167 F 
ATOM     26  F   UNL A   1      35.201  24.138  24.221  1.00  0.00    -0.167 F 
ATOM     27  F   UNL A   1      35.170  25.537  25.889  1.00  0.00    -0.167 F 
ENDBRANCH  16  24
ENDBRANCH   5   7
ENDBRANCH   4   5
ENDBRANCH   3   4
ENDBRANCH   2   3
ENDBRANCH   1   2
BRANCH   1  28
ATOM     28  C   UNL A   1      35.432  20.202  25.089  1.00  0.00     0.202 C 
BRANCH  28  29
ATOM     29  C   UNL A   1      36.940  20.260  24.810  1.00  0.00     0.261 C 
BRANCH  29  30
ATOM     30  O   UNL A   1      37.582  21.342  25.506  1.00  0.00    -0.460 OA
BRANCH  30  31
ATOM     31  C   UNL A   1      38.842  21.081  25.926  1.00  0.00     0.338 C 
ATOM     32  O   UNL A   1      39.507  20.076  25.708  1.00  0.00    -0.246 OA
BRANCH  31  33
ATOM     33  C   UNL A   1      39.413  22.281  26.560  1.00  0.00     0.060 A 
ATOM     34  C   UNL A   1      38.903  23.530  26.182  1.00  0.00     0.016 A 
ATOM     35  C   UNL A   1      40.480  22.186  27.455  1.00  0.00     0.016 A 
ATOM     36  C   UNL A   1      39.487  24.698  26.667  1.00  0.00     0.010 A 
ATOM     37  C   UNL A   1      41.072  23.357  27.930  1.00  0.00     0.010 A 
ATOM     38  C   UNL A   1      40.598  24.616  27.514  1.00  0.00    -0.014 A 
BRANCH  38  39
ATOM     39  C   UNL A   1      41.366  25.835  27.855  1.00  0.00     0.031 A 
ATOM     40  C   UNL A   1      40.681  26.933  28.615  1.00  0.00     0.074 A 
ATOM     41  C   UNL A   1      42.647  25.969  27.472  1.00  0.00     0.049 A 
ATOM     42  N   UNL A   1      41.113  28.131  28.915  1.00  0.00    -0.248 NA
ATOM     43  C   UNL A   1      39.320  26.643  29.091  1.00  0.00     0.031 C 
ATOM     44  C   UNL A   1      43.427  24.957  26.764  1.00  0.00     0.029 A 
ATOM     45  N   UNL A   1      43.508  27.028  27.609  1.00  0.00    -0.354 N 
ATOM     46  C   UNL A   1      40.073  28.742  29.604  1.00  0.00     0.074 A 
ATOM     47  C   UNL A   1      38.980  27.794  29.651  1.00  0.00     0.031 C 
ATOM     48  C   UNL A   1      44.646  25.456  26.500  1.00  0.00     0.029 A 
ATOM     49  C   UNL A   1      44.716  26.831  26.990  1.00  0.00     0.049 A 
ATOM     50  H   UNL A   1      43.280  27.850  28.102  1.00  0.00     0.167 HD
ATOM     51  C   UNL A   1      40.035  29.981  30.150  1.00  0.00     0.037 A 
ATOM     52  C   UNL A   1      45.747  27.679  26.810  1.00  0.00     0.037 A 
ATOM     53  C   UNL A   1      41.124  30.921  30.092  1.00  0.00     0.049 A 
ATOM     54  C   UNL A   1      45.662  29.075  27.366  1.00  0.00     0.074 A 
ATOM     55  C   UNL A   1      41.193  32.196  30.626  1.00  0.00     0.029 A 
ATOM     56  N   UNL A   1      42.331  30.689  29.450  1.00  0.00    -0.354 N 
ATOM     57  N   UNL A   1      44.682  29.642  28.029  1.00  0.00    -0.248 NA
ATOM     58  C   UNL A   1      46.825  29.947  27.151  1.00  0.00     0.031 C 
ATOM     59  C   UNL A   1      42.426  32.752  30.265  1.00  0.00     0.029 A 
ATOM     60  C   UNL A   1      43.145  31.804  29.553  1.00  0.00     0.049 A 
ATOM     61  H   UNL A   1      42.575  29.853  28.990  1.00  0.00     0.167 HD
ATOM     62  C   UNL A   1      45.119  30.926  28.332  1.00  0.00     0.074 A 
ATOM     63  C   UNL A   1      46.456  31.050  27.788  1.00  0.00     0.031 C 
ATOM     64  C   UNL A   1      44.475  31.910  29.007  1.00  0.00     0.037 A 
BRANCH  51  65
ATOM     65  C   UNL A   1      38.758  30.393  30.823  1.00  0.00     0.057 A 
ATOM     66  C   UNL A   1      37.731  31.047  30.129  1.00  0.00     0.134 A 
ATOM     67  C   UNL A   1      38.554  30.136  32.184  1.00  0.00     0.134 A 
ATOM     68  F   UNL A   1      37.869  31.339  28.826  1.00  0.00    -0.206 F 
ATOM     69  C   UNL A   1      36.563  31.461  30.772  1.00  0.00     0.040 A 
ATOM     70  C   UNL A   1      37.379  30.520  32.832  1.00  0.00     0.040 A 
ATOM     71  F   UNL A   1      39.495  29.511  32.908  1.00  0.00    -0.206 F 
ATOM     72  C   UNL A   1      36.383  31.194  32.128  1.00  0.00     0.006 A 
ENDBRANCH  51  65
BRANCH  52  73
ATOM     73  C   UNL A   1      46.939  27.230  26.051  1.00  0.00     0.057 A 
ATOM     74  C   UNL A   1      48.015  26.608  26.692  1.00  0.00     0.134 A 
ATOM     75  C   UNL A   1      47.023  27.398  24.663  1.00  0.00     0.134 A 
ATOM     76  F   UNL A   1      48.002  26.439  28.022  1.00  0.00    -0.206 F 
ATOM     77  C   UNL A   1      49.136  26.173  25.983  1.00  0.00     0.040 A 
ATOM     78  C   UNL A   1      48.127  26.949  23.937  1.00  0.00     0.040 A 
ATOM     79  F   UNL A   1      46.022  27.984  23.990  1.00  0.00    -0.206 F 
ATOM     80  C   UNL A   1      49.190  26.337  24.599  1.00  0.00     0.006 A 
ENDBRANCH  52  73
BRANCH  64  81
ATOM     81  C   UNL A   1      45.218  33.196  29.226  1.00  0.00     0.057 A 
ATOM     82  C   UNL A   1      45.111  34.274  28.340  1.00  0.00     0.134 A 
ATOM     83  C   UNL A   1      46.015  33.371  30.364  1.00  0.00     0.134 A 
ATOM     84  F   UNL A   1      44.373  34.168  27.223  1.00  0.00    -0.206 F 
ATOM     85  C   UNL A   1      45.785  35.476  28.569  1.00  0.00     0.040 A 
ATOM     86  C   UNL A   1      46.674  34.575  30.617  1.00  0.00     0.040 A 
ATOM     87  F   UNL A   1      46.154  32.379  31.257  1.00  0.00    -0.206 F 
ATOM     88  C   UNL A   1      46.563  35.630  29.715  1.00  0.00     0.006 A 
ENDBRANCH  64  81
ENDBRANCH  38  39
ENDBRANCH  31  33
ENDBRANCH  30  31
ENDBRANCH  29  30
ENDBRANCH  28  29
ENDBRANCH   1  28
TORSDOF 18
ENDMDL
MODEL 2
REMARK VINA RESULT:     -11.1      2.546      8.145
REMARK SMILES COc1cc(OC(F)(F)F)cc2c1O[C@@H](C(F)(F)F)C(C(=O)OCCOCCOC(=O)c1ccc(-c3c4nc(c(-c5c(F)cccc5F)c5ccc([nH]5)c(-c5c(F)cccc5F)c5nc(c(-c6c(F)cccc6F)c6ccc3[nH]6)C=C5)C=C4)cc1)=C2
REMARK SMILES IDX 26 1 25 2 24 3 23 4 21 5 22 6 20 7 3 8 4 9 13 10 5 11 12 12
REMARK SMILES IDX 14 13 11 14 86 15 15 16 2 17 1 18 6 19 7 20 8 21 9 22 10 23
REMARK SMILES IDX 16 24 17 25 18 26 19 27 27 28 28 29 29 30 30 31 31 32 32 33
REMARK SMILES IDX 33 34 85 35 34 36 84 37 35 38 36 39 37 40 78 41 38 42 83 43
REMARK SMILES IDX 77 44 79 45 39 46 82 47 76 48 75 49 40 51 66 52 49 53 65 54
REMARK SMILES IDX 50 55 53 56 64 57 80 58 51 59 52 60 63 62 81 63 54 64 41 65
REMARK SMILES IDX 42 66 47 67 43 68 44 69 46 70 48 71 45 72 67 73 68 74 73 75
REMARK SMILES IDX 69 76 70 77 72 78 74 79 71 80 55 81 56 82 61 83 57 84 58 85
REMARK SMILES IDX 60 86 62 87 59 88
REMARK H PARENT 79 50 53 61
REMARK Flexibility Score: inf
ROOT
ATOM      1  O   UNL A   1      34.295  29.819  27.538  1.00  0.00    -0.374 OA
ENDROOT
BRANCH   1   2
ATOM      2  C   UNL A   1      33.971  29.198  26.297  1.00  0.00     0.202 C 
BRANCH   2   3
ATOM      3  C   UNL A   1      32.547  29.402  25.775  1.00  0.00     0.261 C 
BRANCH   3   4
ATOM      4  O   UNL A   1      32.039  28.215  25.142  1.00  0.00    -0.460 OA
BRANCH   4   5
ATOM      5  C   UNL A   1      31.845  27.169  25.978  1.00  0.00     0.338 C 
ATOM      6  O   UNL A   1      31.185  27.173  27.007  1.00  0.00    -0.246 OA
BRANCH   5   7
ATOM      7  C   UNL A   1      32.448  25.944  25.435  1.00  0.00     0.087 C 
ATOM      8  C   UNL A   1      33.409  21.999  24.480  1.00  0.00     0.165 A 
ATOM      9  C   UNL A   1      34.637  21.466  24.878  1.00  0.00     0.097 A 
ATOM     10  C   UNL A   1      33.092  23.324  24.788  1.00  0.00     0.170 A 
ATOM     11  C   UNL A   1      35.567  22.260  25.551  1.00  0.00     0.134 A 
ATOM     12  C   UNL A   1      34.012  24.130  25.482  1.00  0.00     0.025 A 
ATOM     13  O   UNL A   1      31.830  23.782  24.498  1.00  0.00    -0.471 OA
ATOM     14  C   UNL A   1      35.255  23.597  25.836  1.00  0.00     0.059 A 
ATOM     15  C   UNL A   1      33.590  25.455  25.947  1.00  0.00     0.027 C 
ATOM     16  C   UNL A   1      31.747  25.215  24.313  1.00  0.00     0.316 C 
BRANCH   8  17
ATOM     17  O   UNL A   1      32.541  21.118  23.888  1.00  0.00    -0.493 OA
ATOM     18  C   UNL A   1      32.303  19.946  24.665  1.00  0.00     0.278 C 
ENDBRANCH   8  17
BRANCH  11  19
ATOM     19  O   UNL A   1      36.794  21.856  25.997  1.00  0.00    -0.406 OA
BRANCH  19  20
ATOM     20  C   UNL A   1      37.755  21.481  25.020  1.00  0.00     0.573 C 
ATOM     21  F   UNL A   1      37.804  20.140  24.872  1.00  0.00    -0.132 F 
ATOM     22  F   UNL A   1      37.485  22.060  23.830  1.00  0.00    -0.132 F 
ATOM     23  F   UNL A   1      38.972  21.904  25.426  1.00  0.00    -0.132 F 
ENDBRANCH  19  20
ENDBRANCH  11  19
BRANCH  16  24
ATOM     24  C   UNL A   1      30.294  25.583  23.974  1.00  0.00     0.430 C 
ATOM     25  F   UNL A   1      30.236  26.725  23.249  1.00  0.00    -0.167 F 
ATOM     26  F   UNL A   1      29.749  24.616  23.186  1.00  0.00    -0.167 F 
ATOM     27  F   UNL A   1      29.501  25.706  25.054  1.00  0.00    -0.167 F 
ENDBRANCH  16  24
ENDBRANCH   5   7
ENDBRANCH   4   5
ENDBRANCH   3   4
ENDBRANCH   2   3
ENDBRANCH   1   2
BRANCH   1  28
ATOM     28  C   UNL A   1      33.958  31.195  27.711  1.00  0.00     0.202 C 
BRANCH  28  29
ATOM     29  C   UNL A   1      34.642  31.950  28.858  1.00  0.00     0.261 C 
BRANCH  29  30
ATOM     30  O   UNL A   1      36.063  31.726  28.888  1.00  0.00    -0.460 OA
BRANCH  30  31
ATOM     31  C   UNL A   1      36.495  30.950  29.910  1.00  0.00     0.338 C 
ATOM     32  O   UNL A   1      35.917  30.713  30.962  1.00  0.00    -0.246 OA
BRANCH  31  33
ATOM     33  C   UNL A   1      37.726  30.247  29.512  1.00  0.00     0.060 A 
ATOM     34  C   UNL A   1      38.664  29.948  30.510  1.00  0.00     0.016 A 
ATOM     35  C   UNL A   1      37.990  29.953  28.174  1.00  0.00     0.016 A 
ATOM     36  C   UNL A   1      39.892  29.388  30.167  1.00  0.00     0.010 A 
ATOM     37  C   UNL A   1      39.226  29.403  27.830  1.00  0.00     0.010 A 
ATOM     38  C   UNL A   1      40.193  29.149  28.821  1.00  0.00    -0.014 A 
BRANCH  38  39
ATOM     39  C   UNL A   1      41.567  28.770  28.421  1.00  0.00     0.031 A 
ATOM     40  C   UNL A   1      41.850  27.338  28.070  1.00  0.00     0.074 A 
ATOM     41  C   UNL A   1      42.551  29.685  28.392  1.00  0.00     0.049 A 
ATOM     42  N   UNL A   1      42.993  26.756  27.811  1.00  0.00    -0.248 NA
ATOM     43  C   UNL A   1      40.686  26.440  28.015  1.00  0.00     0.031 C 
ATOM     44  C   UNL A   1      42.388  31.109  28.676  1.00  0.00     0.029 A 
ATOM     45  N   UNL A   1      43.889  29.540  28.133  1.00  0.00    -0.354 N 
ATOM     46  C   UNL A   1      42.688  25.422  27.574  1.00  0.00     0.074 A 
ATOM     47  C   UNL A   1      41.258  25.275  27.749  1.00  0.00     0.031 C 
ATOM     48  C   UNL A   1      43.590  31.704  28.605  1.00  0.00     0.029 A 
ATOM     49  C   UNL A   1      44.606  30.697  28.306  1.00  0.00     0.049 A 
ATOM     50  H   UNL A   1      44.297  28.688  27.852  1.00  0.00     0.167 HD
ATOM     51  C   UNL A   1      43.524  24.410  27.239  1.00  0.00     0.037 A 
ATOM     52  C   UNL A   1      45.935  30.909  28.263  1.00  0.00     0.037 A 
ATOM     53  C   UNL A   1      44.947  24.562  27.074  1.00  0.00     0.049 A 
ATOM     54  C   UNL A   1      46.857  29.760  27.953  1.00  0.00     0.074 A 
ATOM     55  C   UNL A   1      45.882  23.607  26.721  1.00  0.00     0.029 A 
ATOM     56  N   UNL A   1      45.639  25.750  27.264  1.00  0.00    -0.354 N 
ATOM     57  N   UNL A   1      46.562  28.504  27.716  1.00  0.00    -0.248 NA
ATOM     58  C   UNL A   1      48.296  30.059  27.903  1.00  0.00     0.031 C 
ATOM     59  C   UNL A   1      47.147  24.205  26.744  1.00  0.00     0.029 A 
ATOM     60  C   UNL A   1      46.993  25.546  27.059  1.00  0.00     0.049 A 
ATOM     61  H   UNL A   1      45.228  26.611  27.508  1.00  0.00     0.167 HD
ATOM     62  C   UNL A   1      47.772  27.868  27.464  1.00  0.00     0.074 A 
ATOM     63  C   UNL A   1      48.804  28.880  27.569  1.00  0.00     0.031 C 
ATOM     64  C   UNL A   1      48.007  26.567  27.166  1.00  0.00     0.037 A 
BRANCH  51  65
ATOM     65  C   UNL A   1      42.917  23.049  27.066  1.00  0.00     0.057 A 
ATOM     66  C   UNL A   1      42.669  22.502  25.800  1.00  0.00     0.134 A 
ATOM     67  C   UNL A   1      42.571  22.276  28.181  1.00  0.00     0.134 A 
ATOM     68  F   UNL A   1      42.961  23.197  24.689  1.00  0.00    -0.206 F 
ATOM     69  C   UNL A   1      42.068  21.251  25.649  1.00  0.00     0.040 A 
ATOM     70  C   UNL A   1      41.996  21.012  28.043  1.00  0.00     0.040 A 
ATOM     71  F   UNL A   1      42.784  22.737  29.423  1.00  0.00    -0.206 F 
ATOM     72  C   UNL A   1      41.733  20.500  26.774  1.00  0.00     0.006 A 
ENDBRANCH  51  65
BRANCH  52  73
ATOM     73  C   UNL A   1      46.470  32.264  28.538  1.00  0.00     0.057 A 
ATOM     74  C   UNL A   1      46.826  32.655  29.833  1.00  0.00     0.134 A 
ATOM     75  C   UNL A   1      46.652  33.197  27.508  1.00  0.00     0.134 A 
ATOM     76  F   UNL A   1      46.654  31.813  30.862  1.00  0.00    -0.206 F 
ATOM     77  C   UNL A   1      47.339  33.925  30.097  1.00  0.00     0.040 A 
ATOM     78  C   UNL A   1      47.185  34.462  27.754  1.00  0.00     0.040 A 
ATOM     79  F   UNL A   1      46.333  32.881  26.245  1.00  0.00    -0.206 F 
ATOM     80  C   UNL A   1      47.527  34.831  29.054  1.00  0.00     0.006 A 
ENDBRANCH  52  73
BRANCH  64  81
ATOM     81  C   UNL A   1      49.429  26.167  26.896  1.00  0.00     0.057 A 
ATOM     82  C   UNL A   1      49.975  26.196  25.608  1.00  0.00     0.134 A 
ATOM     83  C   UNL A   1      50.274  25.793  27.949  1.00  0.00     0.134 A 
ATOM     84  F   UNL A   1      49.216  26.534  24.553  1.00  0.00    -0.206 F 
ATOM     85  C   UNL A   1      51.307  25.849  25.373  1.00  0.00     0.040 A 
ATOM     86  C   UNL A   1      51.613  25.468  27.731  1.00  0.00     0.040 A 
ATOM     87  F   UNL A   1      49.814  25.752  29.209  1.00  0.00    -0.206 F 
ATOM     88  C   UNL A   1      52.132  25.491  26.439  1.00  0.00     0.006 A 
ENDBRANCH  64  81
ENDBRANCH  38  39
ENDBRANCH  31  33
ENDBRANCH  30  31
ENDBRANCH  29  30
ENDBRANCH  28  29
ENDBRANCH   1  28
TORSDOF 18
ENDMDL
MODEL 3
REMARK VINA RESULT:     -11.0      5.145     10.416
REMARK SMILES COc1cc(OC(F)(F)F)cc2c1O[C@@H](C(F)(F)F)C(C(=O)OCCOCCOC(=O)c1ccc(-c3c4nc(c(-c5c(F)cccc5F)c5ccc([nH]5)c(-c5c(F)cccc5F)c5nc(c(-c6c(F)cccc6F)c6ccc3[nH]6)C=C5)C=C4)cc1)=C2
REMARK SMILES IDX 26 1 25 2 24 3 23 4 21 5 22 6 20 7 3 8 4 9 13 10 5 11 12 12
REMARK SMILES IDX 14 13 11 14 86 15 15 16 2 17 1 18 6 19 7 20 8 21 9 22 10 23
REMARK SMILES IDX 16 24 17 25 18 26 19 27 27 28 28 29 29 30 30 31 31 32 32 33
REMARK SMILES IDX 33 34 85 35 34 36 84 37 35 38 36 39 37 40 78 41 38 42 83 43
REMARK SMILES IDX 77 44 79 45 39 46 82 47 76 48 75 49 40 51 66 52 49 53 65 54
REMARK SMILES IDX 50 55 53 56 64 57 80 58 51 59 52 60 63 62 81 63 54 64 41 65
REMARK SMILES IDX 42 66 47 67 43 68 44 69 46 70 48 71 45 72 67 73 68 74 73 75
REMARK SMILES IDX 69 76 70 77 72 78 74 79 71 80 55 81 56 82 61 83 57 84 58 85
REMARK SMILES IDX 60 86 62 87 59 88
REMARK H PARENT 79 50 53 61
REMARK Flexibility Score: inf
ROOT
ATOM      1  O   UNL A   1      40.961  19.841  27.272  1.00  0.00    -0.374 OA
ENDROOT
BRANCH   1   2
ATOM      2  C   UNL A   1      42.319  19.428  27.141  1.00  0.00     0.202 C 
BRANCH   2   3
ATOM      3  C   UNL A   1      42.991  19.681  25.789  1.00  0.00     0.261 C 
BRANCH   3   4
ATOM      4  O   UNL A   1      43.928  20.768  25.857  1.00  0.00    -0.460 OA
BRANCH   4   5
ATOM      5  C   UNL A   1      43.398  21.987  25.605  1.00  0.00     0.338 C 
ATOM      6  O   UNL A   1      42.446  22.231  24.878  1.00  0.00    -0.246 OA
BRANCH   5   7
ATOM      7  C   UNL A   1      44.049  23.021  26.422  1.00  0.00     0.087 C 
ATOM      8  C   UNL A   1      46.601  25.180  28.918  1.00  0.00     0.165 A 
ATOM      9  C   UNL A   1      46.148  25.618  30.164  1.00  0.00     0.097 A 
ATOM     10  C   UNL A   1      45.743  24.468  28.076  1.00  0.00     0.170 A 
ATOM     11  C   UNL A   1      44.831  25.382  30.561  1.00  0.00     0.134 A 
ATOM     12  C   UNL A   1      44.419  24.207  28.471  1.00  0.00     0.025 A 
ATOM     13  O   UNL A   1      46.251  23.939  26.915  1.00  0.00    -0.471 OA
ATOM     14  C   UNL A   1      43.965  24.690  29.702  1.00  0.00     0.059 A 
ATOM     15  C   UNL A   1      43.594  23.311  27.653  1.00  0.00     0.027 C 
ATOM     16  C   UNL A   1      45.264  23.732  25.876  1.00  0.00     0.316 C 
BRANCH   8  17
ATOM     17  O   UNL A   1      47.928  25.401  28.654  1.00  0.00    -0.493 OA
ATOM     18  C   UNL A   1      48.731  25.502  29.828  1.00  0.00     0.278 C 
ENDBRANCH   8  17
BRANCH  11  19
ATOM     19  O   UNL A   1      44.272  25.753  31.752  1.00  0.00    -0.406 OA
BRANCH  19  20
ATOM     20  C   UNL A   1      43.728  27.062  31.840  1.00  0.00     0.573 C 
ATOM     21  F   UNL A   1      44.618  27.991  31.432  1.00  0.00    -0.132 F 
ATOM     22  F   UNL A   1      42.597  27.165  31.110  1.00  0.00    -0.132 F 
ATOM     23  F   UNL A   1      43.419  27.315  33.131  1.00  0.00    -0.132 F 
ENDBRANCH  19  20
ENDBRANCH  11  19
BRANCH  16  24
ATOM     24  C   UNL A   1      45.970  23.162  24.635  1.00  0.00     0.430 C 
ATOM     25  F   UNL A   1      47.033  23.924  24.285  1.00  0.00    -0.167 F 
ATOM     26  F   UNL A   1      46.476  21.931  24.922  1.00  0.00    -0.167 F 
ATOM     27  F   UNL A   1      45.159  23.018  23.571  1.00  0.00    -0.167 F 
ENDBRANCH  16  24
ENDBRANCH   5   7
ENDBRANCH   4   5
ENDBRANCH   3   4
ENDBRANCH   2   3
ENDBRANCH   1   2
BRANCH   1  28
ATOM     28  C   UNL A   1      40.120  19.762  26.122  1.00  0.00     0.202 C 
BRANCH  28  29
ATOM     29  C   UNL A   1      39.226  20.971  25.818  1.00  0.00     0.261 C 
BRANCH  29  30
ATOM     30  O   UNL A   1      39.610  22.135  26.571  1.00  0.00    -0.460 OA
BRANCH  30  31
ATOM     31  C   UNL A   1      38.840  23.229  26.359  1.00  0.00     0.338 C 
ATOM     32  O   UNL A   1      37.680  23.259  25.970  1.00  0.00    -0.246 OA
BRANCH  31  33
ATOM     33  C   UNL A   1      39.541  24.430  26.842  1.00  0.00     0.060 A 
ATOM     34  C   UNL A   1      39.451  24.739  28.206  1.00  0.00     0.016 A 
ATOM     35  C   UNL A   1      40.213  25.278  25.961  1.00  0.00     0.016 A 
ATOM     36  C   UNL A   1      40.000  25.924  28.690  1.00  0.00     0.010 A 
ATOM     37  C   UNL A   1      40.751  26.471  26.445  1.00  0.00     0.010 A 
ATOM     38  C   UNL A   1      40.619  26.813  27.804  1.00  0.00    -0.014 A 
BRANCH  38  39
ATOM     39  C   UNL A   1      41.003  28.170  28.257  1.00  0.00     0.031 A 
ATOM     40  C   UNL A   1      42.458  28.540  28.280  1.00  0.00     0.074 A 
ATOM     41  C   UNL A   1      40.071  29.048  28.661  1.00  0.00     0.049 A 
ATOM     42  N   UNL A   1      43.034  29.617  28.748  1.00  0.00    -0.248 NA
ATOM     43  C   UNL A   1      43.389  27.555  27.706  1.00  0.00     0.031 C 
ATOM     44  C   UNL A   1      38.629  28.815  28.648  1.00  0.00     0.029 A 
ATOM     45  N   UNL A   1      40.208  30.308  29.185  1.00  0.00    -0.354 N 
ATOM     46  C   UNL A   1      44.395  29.435  28.538  1.00  0.00     0.074 A 
ATOM     47  C   UNL A   1      44.560  28.133  27.927  1.00  0.00     0.031 C 
ATOM     48  C   UNL A   1      38.012  29.888  29.170  1.00  0.00     0.029 A 
ATOM     49  C   UNL A   1      39.019  30.863  29.585  1.00  0.00     0.049 A 
ATOM     50  H   UNL A   1      41.075  30.768  29.268  1.00  0.00     0.167 HD
ATOM     51  C   UNL A   1      45.415  30.279  28.826  1.00  0.00     0.037 A 
ATOM     52  C   UNL A   1      38.776  32.013  30.244  1.00  0.00     0.037 A 
ATOM     53  C   UNL A   1      45.243  31.570  29.440  1.00  0.00     0.049 A 
ATOM     54  C   UNL A   1      39.927  32.909  30.615  1.00  0.00     0.074 A 
ATOM     55  C   UNL A   1      46.207  32.508  29.761  1.00  0.00     0.029 A 
ATOM     56  N   UNL A   1      44.023  32.096  29.838  1.00  0.00    -0.354 N 
ATOM     57  N   UNL A   1      41.210  32.739  30.401  1.00  0.00    -0.248 NA
ATOM     58  C   UNL A   1      39.596  34.157  31.318  1.00  0.00     0.031 C 
ATOM     59  C   UNL A   1      45.575  33.584  30.396  1.00  0.00     0.029 A 
ATOM     60  C   UNL A   1      44.211  33.337  30.422  1.00  0.00     0.049 A 
ATOM     61  H   UNL A   1      43.151  31.653  29.721  1.00  0.00     0.167 HD
ATOM     62  C   UNL A   1      41.837  33.866  30.917  1.00  0.00     0.074 A 
ATOM     63  C   UNL A   1      40.791  34.717  31.448  1.00  0.00     0.031 C 
ATOM     64  C   UNL A   1      43.157  34.173  30.944  1.00  0.00     0.037 A 
BRANCH  51  65
ATOM     65  C   UNL A   1      46.804  29.807  28.508  1.00  0.00     0.057 A 
ATOM     66  C   UNL A   1      47.626  29.215  29.476  1.00  0.00     0.134 A 
ATOM     67  C   UNL A   1      47.328  29.952  27.218  1.00  0.00     0.134 A 
ATOM     68  F   UNL A   1      47.191  29.062  30.737  1.00  0.00    -0.206 F 
ATOM     69  C   UNL A   1      48.931  28.816  29.180  1.00  0.00     0.040 A 
ATOM     70  C   UNL A   1      48.621  29.531  26.903  1.00  0.00     0.040 A 
ATOM     71  F   UNL A   1      46.594  30.509  26.242  1.00  0.00    -0.206 F 
ATOM     72  C   UNL A   1      49.430  28.969  27.889  1.00  0.00     0.006 A 
ENDBRANCH  51  65
BRANCH  52  73
ATOM     73  C   UNL A   1      37.383  32.367  30.609  1.00  0.00     0.057 A 
ATOM     74  C   UNL A   1      36.566  33.091  29.734  1.00  0.00     0.134 A 
ATOM     75  C   UNL A   1      36.830  31.976  31.835  1.00  0.00     0.134 A 
ATOM     76  F   UNL A   1      37.046  33.510  28.555  1.00  0.00    -0.206 F 
ATOM     77  C   UNL A   1      35.251  33.418  30.066  1.00  0.00     0.040 A 
ATOM     78  C   UNL A   1      35.511  32.277  32.171  1.00  0.00     0.040 A 
ATOM     79  F   UNL A   1      37.562  31.277  32.715  1.00  0.00    -0.206 F 
ATOM     80  C   UNL A   1      34.717  33.004  31.285  1.00  0.00     0.006 A 
ENDBRANCH  52  73
BRANCH  64  81
ATOM     81  C   UNL A   1      43.546  35.498  31.534  1.00  0.00     0.057 A 
ATOM     82  C   UNL A   1      43.810  35.651  32.900  1.00  0.00     0.134 A 
ATOM     83  C   UNL A   1      43.703  36.622  30.714  1.00  0.00     0.134 A 
ATOM     84  F   UNL A   1      43.667  34.617  33.742  1.00  0.00    -0.206 F 
ATOM     85  C   UNL A   1      44.198  36.883  33.432  1.00  0.00     0.040 A 
ATOM     86  C   UNL A   1      44.114  37.851  31.230  1.00  0.00     0.040 A 
ATOM     87  F   UNL A   1      43.473  36.540  29.394  1.00  0.00    -0.206 F 
ATOM     88  C   UNL A   1      44.358  37.985  32.594  1.00  0.00     0.006 A 
ENDBRANCH  64  81
ENDBRANCH  38  39
ENDBRANCH  31  33
ENDBRANCH  30  31
ENDBRANCH  29  30
ENDBRANCH  28  29
ENDBRANCH   1  28
TORSDOF 18
ENDMDL
