MODEL 1
REMARK VINA RESULT:     -10.2      0.000      0.000
REMARK SMILES CC#CC[C@H](C(=O)OCCOCCOC(=O)c1ccc(-c2c3nc(c(-c4c(F)cccc4F)c4ccc([nH]4)c(-c4c(F)cccc4F)c4nc(c(-c5c(F)cccc5F)c5ccc2[nH]5)C=C4)C=C3)cc1)c1cccc(Br)c1
REMARK SMILES IDX 11 1 10 2 9 3 8 4 6 5 7 6 5 7 4 8 3 9 1 10 2 11 71 12 72 13
REMARK SMILES IDX 77 14 73 15 75 16 74 17 76 18 12 19 13 20 14 21 15 22 16 23
REMARK SMILES IDX 17 24 18 25 70 26 19 27 69 28 20 29 21 30 22 31 63 32 23 33
REMARK SMILES IDX 68 34 62 35 64 36 24 37 67 38 61 39 60 40 25 42 51 43 34 44
REMARK SMILES IDX 50 45 35 46 38 47 49 48 65 49 36 50 37 51 48 53 66 54 39 55
REMARK SMILES IDX 26 56 27 57 32 58 28 59 29 60 31 61 33 62 30 63 52 64 53 65
REMARK SMILES IDX 58 66 54 67 55 68 57 69 59 70 56 71 40 72 41 73 46 74 42 75
REMARK SMILES IDX 43 76 45 77 47 78 44 79
REMARK H PARENT 64 41 38 52
REMARK Flexibility Score: inf
ROOT
ATOM      1  O   UNL A   1      32.593  30.784  26.968  1.00  0.00    -0.374 OA
ENDROOT
BRANCH   1   2
ATOM      2  C   UNL A   1      32.873  30.031  25.789  1.00  0.00     0.202 C 
BRANCH   2   3
ATOM      3  C   UNL A   1      32.816  28.509  25.932  1.00  0.00     0.261 C 
BRANCH   3   4
ATOM      4  O   UNL A   1      31.490  28.060  26.282  1.00  0.00    -0.463 OA
BRANCH   4   5
ATOM      5  C   UNL A   1      30.920  27.144  25.443  1.00  0.00     0.314 C 
ATOM      6  O   UNL A   1      30.528  26.034  25.786  1.00  0.00    -0.252 OA
BRANCH   5   7
ATOM      7  C   UNL A   1      30.903  27.624  23.994  1.00  0.00     0.141 C 
BRANCH   7   8
ATOM      8  C   UNL A   1      31.117  26.432  23.023  1.00  0.00     0.109 C 
BRANCH   8   9
ATOM      9  C   UNL A   1      32.397  25.686  23.360  1.00  0.00    -0.102 C 
ATOM     10  C   UNL A   1      34.777  24.301  23.985  1.00  0.00     0.107 C 
ATOM     11  C   UNL A   1      33.496  25.047  23.649  1.00  0.00    -0.107 C 
ENDBRANCH   8   9
ENDBRANCH   7   8
BRANCH   7  12
ATOM     12  C   UNL A   1      29.709  28.531  23.669  1.00  0.00    -0.032 A 
ATOM     13  C   UNL A   1      28.466  27.955  23.349  1.00  0.00     0.005 A 
ATOM     14  C   UNL A   1      29.821  29.932  23.563  1.00  0.00     0.020 A 
ATOM     15  C   UNL A   1      27.378  28.744  22.961  1.00  0.00     0.001 A 
ATOM     16  C   UNL A   1      28.729  30.717  23.179  1.00  0.00     0.018 A 
ATOM     17  C   UNL A   1      27.508  30.129  22.877  1.00  0.00     0.016 A 
ATOM     18  Br  UNL A   1      28.925  32.595  23.051  1.00  0.00    -0.051 Br
ENDBRANCH   7  12
ENDBRANCH   5   7
ENDBRANCH   4   5
ENDBRANCH   3   4
ENDBRANCH   2   3
ENDBRANCH   1   2
BRANCH   1  19
ATOM     19  C   UNL A   1      31.625  31.827  26.862  1.00  0.00     0.202 C 
BRANCH  19  20
ATOM     20  C   UNL A   1      32.179  33.258  26.866  1.00  0.00     0.261 C 
BRANCH  20  21
ATOM     21  O   UNL A   1      32.222  33.828  28.189  1.00  0.00    -0.460 OA
BRANCH  21  22
ATOM     22  C   UNL A   1      33.329  34.561  28.457  1.00  0.00     0.338 C 
ATOM     23  O   UNL A   1      33.406  35.775  28.586  1.00  0.00    -0.246 OA
BRANCH  22  24
ATOM     24  C   UNL A   1      34.473  33.678  28.738  1.00  0.00     0.060 A 
ATOM     25  C   UNL A   1      34.230  32.518  29.485  1.00  0.00     0.016 A 
ATOM     26  C   UNL A   1      35.776  34.038  28.391  1.00  0.00     0.016 A 
ATOM     27  C   UNL A   1      35.294  31.731  29.920  1.00  0.00     0.010 A 
ATOM     28  C   UNL A   1      36.846  33.252  28.838  1.00  0.00     0.010 A 
ATOM     29  C   UNL A   1      36.610  32.114  29.631  1.00  0.00    -0.014 A 
BRANCH  29  30
ATOM     30  C   UNL A   1      37.735  31.388  30.269  1.00  0.00     0.031 A 
ATOM     31  C   UNL A   1      38.071  31.664  31.709  1.00  0.00     0.074 A 
ATOM     32  C   UNL A   1      38.428  30.462  29.581  1.00  0.00     0.049 A 
ATOM     33  N   UNL A   1      39.023  31.159  32.450  1.00  0.00    -0.248 NA
ATOM     34  C   UNL A   1      37.216  32.639  32.406  1.00  0.00     0.031 C 
ATOM     35  C   UNL A   1      38.171  30.074  28.196  1.00  0.00     0.029 A 
ATOM     36  N   UNL A   1      39.493  29.684  29.960  1.00  0.00    -0.354 N 
ATOM     37  C   UNL A   1      38.884  31.753  33.700  1.00  0.00     0.074 A 
ATOM     38  C   UNL A   1      37.773  32.674  33.609  1.00  0.00     0.031 C 
ATOM     39  C   UNL A   1      39.063  29.136  27.835  1.00  0.00     0.029 A 
ATOM     40  C   UNL A   1      39.973  28.884  28.953  1.00  0.00     0.049 A 
ATOM     41  H   UNL A   1      39.877  29.699  30.866  1.00  0.00     0.167 HD
ATOM     42  C   UNL A   1      39.613  31.542  34.821  1.00  0.00     0.037 A 
ATOM     43  C   UNL A   1      41.040  28.062  28.927  1.00  0.00     0.037 A 
ATOM     44  C   UNL A   1      40.717  30.623  34.911  1.00  0.00     0.049 A 
ATOM     45  C   UNL A   1      41.889  27.912  30.162  1.00  0.00     0.074 A 
ATOM     46  C   UNL A   1      41.497  30.317  36.013  1.00  0.00     0.029 A 
ATOM     47  N   UNL A   1      41.207  29.873  33.854  1.00  0.00    -0.354 N 
ATOM     48  N   UNL A   1      41.732  28.455  31.345  1.00  0.00    -0.248 NA
ATOM     49  C   UNL A   1      43.069  27.042  30.055  1.00  0.00     0.031 C 
ATOM     50  C   UNL A   1      42.490  29.418  35.610  1.00  0.00     0.029 A 
ATOM     51  C   UNL A   1      42.302  29.132  34.268  1.00  0.00     0.049 A 
ATOM     52  H   UNL A   1      40.832  29.867  32.944  1.00  0.00     0.167 HD
ATOM     53  C   UNL A   1      42.779  27.981  32.125  1.00  0.00     0.074 A 
ATOM     54  C   UNL A   1      43.557  27.093  31.286  1.00  0.00     0.031 C 
ATOM     55  C   UNL A   1      43.071  28.257  33.419  1.00  0.00     0.037 A 
BRANCH  42  56
ATOM     56  C   UNL A   1      39.255  32.339  36.040  1.00  0.00     0.057 A 
ATOM     57  C   UNL A   1      39.800  33.607  36.282  1.00  0.00     0.134 A 
ATOM     58  C   UNL A   1      38.321  31.850  36.962  1.00  0.00     0.134 A 
ATOM     59  F   UNL A   1      40.708  34.128  35.443  1.00  0.00    -0.206 F 
ATOM     60  C   UNL A   1      39.442  34.351  37.408  1.00  0.00     0.040 A 
ATOM     61  C   UNL A   1      37.938  32.594  38.079  1.00  0.00     0.040 A 
ATOM     62  F   UNL A   1      37.757  30.645  36.785  1.00  0.00    -0.206 F 
ATOM     63  C   UNL A   1      38.504  33.847  38.307  1.00  0.00     0.006 A 
ENDBRANCH  42  56
BRANCH  43  64
ATOM     64  C   UNL A   1      41.386  27.338  27.679  1.00  0.00     0.057 A 
ATOM     65  C   UNL A   1      42.182  27.928  26.692  1.00  0.00     0.134 A 
ATOM     66  C   UNL A   1      40.915  26.040  27.440  1.00  0.00     0.134 A 
ATOM     67  F   UNL A   1      42.643  29.177  26.854  1.00  0.00    -0.206 F 
ATOM     68  C   UNL A   1      42.490  27.259  25.506  1.00  0.00     0.040 A 
ATOM     69  C   UNL A   1      41.234  25.351  26.270  1.00  0.00     0.040 A 
ATOM     70  F   UNL A   1      40.142  25.423  28.345  1.00  0.00    -0.206 F 
ATOM     71  C   UNL A   1      42.021  25.963  25.296  1.00  0.00     0.006 A 
ENDBRANCH  43  64
BRANCH  55  72
ATOM     72  C   UNL A   1      44.275  27.589  34.013  1.00  0.00     0.057 A 
ATOM     73  C   UNL A   1      45.528  28.215  34.032  1.00  0.00     0.134 A 
ATOM     74  C   UNL A   1      44.170  26.330  34.621  1.00  0.00     0.134 A 
ATOM     75  F   UNL A   1      45.696  29.413  33.456  1.00  0.00    -0.206 F 
ATOM     76  C   UNL A   1      46.637  27.606  34.622  1.00  0.00     0.040 A 
ATOM     77  C   UNL A   1      45.267  25.723  35.233  1.00  0.00     0.040 A 
ATOM     78  F   UNL A   1      42.996  25.681  34.645  1.00  0.00    -0.206 F 
ATOM     79  C   UNL A   1      46.506  26.360  35.232  1.00  0.00     0.006 A 
ENDBRANCH  55  72
ENDBRANCH  29  30
ENDBRANCH  22  24
ENDBRANCH  21  22
ENDBRANCH  20  21
ENDBRANCH  19  20
ENDBRANCH   1  19
TORSDOF 17
ENDMDL
MODEL 2
REMARK VINA RESULT:     -10.1      1.423      2.928
REMARK SMILES CC#CC[C@H](C(=O)OCCOCCOC(=O)c1ccc(-c2c3nc(c(-c4c(F)cccc4F)c4ccc([nH]4)c(-c4c(F)cccc4F)c4nc(c(-c5c(F)cccc5F)c5ccc2[nH]5)C=C4)C=C3)cc1)c1cccc(Br)c1
REMARK SMILES IDX 11 1 10 2 9 3 8 4 6 5 7 6 5 7 4 8 3 9 1 10 2 11 71 12 72 13
REMARK SMILES IDX 77 14 73 15 75 16 74 17 76 18 12 19 13 20 14 21 15 22 16 23
REMARK SMILES IDX 17 24 18 25 70 26 19 27 69 28 20 29 21 30 22 31 63 32 23 33
REMARK SMILES IDX 68 34 62 35 64 36 24 37 67 38 61 39 60 40 25 42 51 43 34 44
REMARK SMILES IDX 50 45 35 46 38 47 49 48 65 49 36 50 37 51 48 53 66 54 39 55
REMARK SMILES IDX 26 56 27 57 32 58 28 59 29 60 31 61 33 62 30 63 52 64 53 65
REMARK SMILES IDX 58 66 54 67 55 68 57 69 59 70 56 71 40 72 41 73 46 74 42 75
REMARK SMILES IDX 43 76 45 77 47 78 44 79
REMARK H PARENT 64 41 38 52
REMARK Flexibility Score: inf
ROOT
ATOM      1  O   UNL A   1      31.866  30.631  26.724  1.00  0.00    -0.374 OA
ENDROOT
BRANCH   1   2
ATOM      2  C   UNL A   1      33.274  30.442  26.590  1.00  0.00     0.202 C 
BRANCH   2   3
ATOM      3  C   UNL A   1      33.721  29.100  26.006  1.00  0.00     0.261 C 
BRANCH   3   4
ATOM      4  O   UNL A   1      32.592  28.299  25.597  1.00  0.00    -0.463 OA
BRANCH   4   5
ATOM      5  C   UNL A   1      32.204  28.422  24.292  1.00  0.00     0.314 C 
ATOM      6  O   UNL A   1      32.774  29.117  23.458  1.00  0.00    -0.252 OA
BRANCH   5   7
ATOM      7  C   UNL A   1      30.914  27.659  24.003  1.00  0.00     0.141 C 
BRANCH   7   8
ATOM      8  C   UNL A   1      30.259  28.174  22.693  1.00  0.00     0.109 C 
BRANCH   8   9
ATOM      9  C   UNL A   1      29.310  29.325  22.983  1.00  0.00    -0.102 C 
ATOM     10  C   UNL A   1      27.544  31.462  23.523  1.00  0.00     0.107 C 
ATOM     11  C   UNL A   1      28.494  30.312  23.232  1.00  0.00    -0.107 C 
ENDBRANCH   8   9
ENDBRANCH   7   8
BRANCH   7  12
ATOM     12  C   UNL A   1      31.075  26.135  24.102  1.00  0.00    -0.032 A 
ATOM     13  C   UNL A   1      31.500  25.407  22.977  1.00  0.00     0.005 A 
ATOM     14  C   UNL A   1      30.706  25.403  25.248  1.00  0.00     0.020 A 
ATOM     15  C   UNL A   1      31.573  24.010  23.001  1.00  0.00     0.001 A 
ATOM     16  C   UNL A   1      30.785  24.007  25.269  1.00  0.00     0.018 A 
ATOM     17  C   UNL A   1      31.217  23.307  24.150  1.00  0.00     0.016 A 
ATOM     18  Br  UNL A   1      30.279  23.063  26.830  1.00  0.00    -0.051 Br
ENDBRANCH   7  12
ENDBRANCH   5   7
ENDBRANCH   4   5
ENDBRANCH   3   4
ENDBRANCH   2   3
ENDBRANCH   1   2
BRANCH   1  19
ATOM     19  C   UNL A   1      31.389  31.974  26.761  1.00  0.00     0.202 C 
BRANCH  19  20
ATOM     20  C   UNL A   1      32.459  33.061  26.926  1.00  0.00     0.261 C 
BRANCH  20  21
ATOM     21  O   UNL A   1      32.214  33.908  28.066  1.00  0.00    -0.460 OA
BRANCH  21  22
ATOM     22  C   UNL A   1      33.276  34.646  28.467  1.00  0.00     0.338 C 
ATOM     23  O   UNL A   1      33.301  35.844  28.711  1.00  0.00    -0.246 OA
BRANCH  22  24
ATOM     24  C   UNL A   1      34.433  33.776  28.736  1.00  0.00     0.060 A 
ATOM     25  C   UNL A   1      34.194  32.564  29.397  1.00  0.00     0.016 A 
ATOM     26  C   UNL A   1      35.738  34.191  28.463  1.00  0.00     0.016 A 
ATOM     27  C   UNL A   1      35.263  31.779  29.822  1.00  0.00     0.010 A 
ATOM     28  C   UNL A   1      36.811  33.405  28.901  1.00  0.00     0.010 A 
ATOM     29  C   UNL A   1      36.578  32.213  29.610  1.00  0.00    -0.014 A 
BRANCH  29  30
ATOM     30  C   UNL A   1      37.699  31.476  30.244  1.00  0.00     0.031 A 
ATOM     31  C   UNL A   1      38.035  31.741  31.685  1.00  0.00     0.074 A 
ATOM     32  C   UNL A   1      38.386  30.550  29.551  1.00  0.00     0.049 A 
ATOM     33  N   UNL A   1      38.984  31.225  32.424  1.00  0.00    -0.248 NA
ATOM     34  C   UNL A   1      37.186  32.716  32.388  1.00  0.00     0.031 C 
ATOM     35  C   UNL A   1      38.127  30.172  28.163  1.00  0.00     0.029 A 
ATOM     36  N   UNL A   1      39.446  29.764  29.924  1.00  0.00    -0.354 N 
ATOM     37  C   UNL A   1      38.848  31.812  33.677  1.00  0.00     0.074 A 
ATOM     38  C   UNL A   1      37.743  32.741  33.592  1.00  0.00     0.031 C 
ATOM     39  C   UNL A   1      39.014  29.231  27.796  1.00  0.00     0.029 A 
ATOM     40  C   UNL A   1      39.921  28.967  28.912  1.00  0.00     0.049 A 
ATOM     41  H   UNL A   1      39.830  29.770  30.831  1.00  0.00     0.167 HD
ATOM     42  C   UNL A   1      39.575  31.589  34.797  1.00  0.00     0.037 A 
ATOM     43  C   UNL A   1      40.984  28.139  28.882  1.00  0.00     0.037 A 
ATOM     44  C   UNL A   1      40.674  30.664  34.882  1.00  0.00     0.049 A 
ATOM     45  C   UNL A   1      41.831  27.976  30.117  1.00  0.00     0.074 A 
ATOM     46  C   UNL A   1      41.451  30.346  35.983  1.00  0.00     0.029 A 
ATOM     47  N   UNL A   1      41.159  29.917  33.820  1.00  0.00    -0.354 N 
ATOM     48  N   UNL A   1      41.677  28.512  31.303  1.00  0.00    -0.248 NA
ATOM     49  C   UNL A   1      43.007  27.099  30.004  1.00  0.00     0.031 C 
ATOM     50  C   UNL A   1      42.439  29.444  35.574  1.00  0.00     0.029 A 
ATOM     51  C   UNL A   1      42.250  29.167  34.230  1.00  0.00     0.049 A 
ATOM     52  H   UNL A   1      40.785  29.919  32.910  1.00  0.00     0.167 HD
ATOM     53  C   UNL A   1      42.721  28.027  32.080  1.00  0.00     0.074 A 
ATOM     54  C   UNL A   1      43.494  27.140  31.236  1.00  0.00     0.031 C 
ATOM     55  C   UNL A   1      43.014  28.293  33.376  1.00  0.00     0.037 A 
BRANCH  42  56
ATOM     56  C   UNL A   1      39.221  32.381  36.021  1.00  0.00     0.057 A 
ATOM     57  C   UNL A   1      39.766  33.648  36.267  1.00  0.00     0.134 A 
ATOM     58  C   UNL A   1      38.291  31.887  36.945  1.00  0.00     0.134 A 
ATOM     59  F   UNL A   1      40.671  34.173  35.427  1.00  0.00    -0.206 F 
ATOM     60  C   UNL A   1      39.413  34.387  37.397  1.00  0.00     0.040 A 
ATOM     61  C   UNL A   1      37.912  32.627  38.066  1.00  0.00     0.040 A 
ATOM     62  F   UNL A   1      37.727  30.683  36.765  1.00  0.00    -0.206 F 
ATOM     63  C   UNL A   1      38.478  33.879  38.298  1.00  0.00     0.006 A 
ENDBRANCH  42  56
BRANCH  43  64
ATOM     64  C   UNL A   1      41.326  27.420  27.630  1.00  0.00     0.057 A 
ATOM     65  C   UNL A   1      40.875  26.119  27.390  1.00  0.00     0.134 A 
ATOM     66  C   UNL A   1      42.128  28.018  26.648  1.00  0.00     0.134 A 
ATOM     67  F   UNL A   1      40.125  25.486  28.304  1.00  0.00    -0.206 F 
ATOM     68  C   UNL A   1      41.215  25.431  26.224  1.00  0.00     0.040 A 
ATOM     69  C   UNL A   1      42.456  27.351  25.467  1.00  0.00     0.040 A 
ATOM     70  F   UNL A   1      42.597  29.262  26.821  1.00  0.00    -0.206 F 
ATOM     71  C   UNL A   1      42.003  26.051  25.255  1.00  0.00     0.006 A 
ENDBRANCH  43  64
BRANCH  55  72
ATOM     72  C   UNL A   1      44.214  27.613  33.967  1.00  0.00     0.057 A 
ATOM     73  C   UNL A   1      44.130  26.333  34.528  1.00  0.00     0.134 A 
ATOM     74  C   UNL A   1      45.475  28.222  33.925  1.00  0.00     0.134 A 
ATOM     75  F   UNL A   1      42.950  25.703  34.610  1.00  0.00    -0.206 F 
ATOM     76  C   UNL A   1      45.257  25.687  35.041  1.00  0.00     0.040 A 
ATOM     77  C   UNL A   1      46.612  27.577  34.413  1.00  0.00     0.040 A 
ATOM     78  F   UNL A   1      45.625  29.444  33.392  1.00  0.00    -0.206 F 
ATOM     79  C   UNL A   1      46.504  26.307  34.976  1.00  0.00     0.006 A 
ENDBRANCH  55  72
ENDBRANCH  29  30
ENDBRANCH  22  24
ENDBRANCH  21  22
ENDBRANCH  20  21
ENDBRANCH  19  20
ENDBRANCH   1  19
TORSDOF 17
ENDMDL
MODEL 3
REMARK VINA RESULT:      -9.9      3.916      7.111
REMARK SMILES CC#CC[C@H](C(=O)OCCOCCOC(=O)c1ccc(-c2c3nc(c(-c4c(F)cccc4F)c4ccc([nH]4)c(-c4c(F)cccc4F)c4nc(c(-c5c(F)cccc5F)c5ccc2[nH]5)C=C4)C=C3)cc1)c1cccc(Br)c1
REMARK SMILES IDX 11 1 10 2 9 3 8 4 6 5 7 6 5 7 4 8 3 9 1 10 2 11 71 12 72 13
REMARK SMILES IDX 77 14 73 15 75 16 74 17 76 18 12 19 13 20 14 21 15 22 16 23
REMARK SMILES IDX 17 24 18 25 70 26 19 27 69 28 20 29 21 30 22 31 63 32 23 33
REMARK SMILES IDX 68 34 62 35 64 36 24 37 67 38 61 39 60 40 25 42 51 43 34 44
REMARK SMILES IDX 50 45 35 46 38 47 49 48 65 49 36 50 37 51 48 53 66 54 39 55
REMARK SMILES IDX 26 56 27 57 32 58 28 59 29 60 31 61 33 62 30 63 52 64 53 65
REMARK SMILES IDX 58 66 54 67 55 68 57 69 59 70 56 71 40 72 41 73 46 74 42 75
REMARK SMILES IDX 43 76 45 77 47 78 44 79
REMARK H PARENT 64 41 38 52
REMARK Flexibility Score: inf
ROOT
ATOM      1  O   UNL A   1      36.464  34.101  29.488  1.00  0.00    -0.374 OA
ENDROOT
BRANCH   1   2
ATOM      2  C   UNL A   1      37.735  33.574  29.111  1.00  0.00     0.202 C 
BRANCH   2   3
ATOM      3  C   UNL A   1      38.957  34.248  29.737  1.00  0.00     0.261 C 
BRANCH   3   4
ATOM      4  O   UNL A   1      38.651  34.797  31.037  1.00  0.00    -0.463 OA
BRANCH   4   5
ATOM      5  C   UNL A   1      39.513  34.477  32.047  1.00  0.00     0.314 C 
ATOM      6  O   UNL A   1      40.736  34.500  31.953  1.00  0.00    -0.252 OA
BRANCH   5   7
ATOM      7  C   UNL A   1      38.781  33.999  33.298  1.00  0.00     0.141 C 
BRANCH   7   8
ATOM      8  C   UNL A   1      39.162  34.875  34.521  1.00  0.00     0.109 C 
BRANCH   8   9
ATOM      9  C   UNL A   1      38.638  34.260  35.808  1.00  0.00    -0.102 C 
ATOM     10  C   UNL A   1      37.663  33.118  38.200  1.00  0.00     0.107 C 
ATOM     11  C   UNL A   1      38.188  33.732  36.913  1.00  0.00    -0.107 C 
ENDBRANCH   8   9
ENDBRANCH   7   8
BRANCH   7  12
ATOM     12  C   UNL A   1      37.276  33.794  33.079  1.00  0.00    -0.032 A 
ATOM     13  C   UNL A   1      36.787  32.511  32.776  1.00  0.00     0.005 A 
ATOM     14  C   UNL A   1      36.356  34.862  33.055  1.00  0.00     0.020 A 
ATOM     15  C   UNL A   1      35.435  32.300  32.483  1.00  0.00     0.001 A 
ATOM     16  C   UNL A   1      35.006  34.645  32.765  1.00  0.00     0.018 A 
ATOM     17  C   UNL A   1      34.541  33.368  32.479  1.00  0.00     0.016 A 
ATOM     18  Br  UNL A   1      33.805  36.109  32.744  1.00  0.00    -0.051 Br
ENDBRANCH   7  12
ENDBRANCH   5   7
ENDBRANCH   4   5
ENDBRANCH   3   4
ENDBRANCH   2   3
ENDBRANCH   1   2
BRANCH   1  19
ATOM     19  C   UNL A   1      35.474  34.212  28.467  1.00  0.00     0.202 C 
BRANCH  19  20
ATOM     20  C   UNL A   1      34.160  33.462  28.724  1.00  0.00     0.261 C 
BRANCH  20  21
ATOM     21  O   UNL A   1      34.375  32.120  29.200  1.00  0.00    -0.460 OA
BRANCH  21  22
ATOM     22  C   UNL A   1      34.543  31.191  28.229  1.00  0.00     0.338 C 
ATOM     23  O   UNL A   1      33.886  31.052  27.208  1.00  0.00    -0.246 OA
BRANCH  22  24
ATOM     24  C   UNL A   1      35.766  30.408  28.476  1.00  0.00     0.060 A 
ATOM     25  C   UNL A   1      35.881  29.754  29.709  1.00  0.00     0.016 A 
ATOM     26  C   UNL A   1      36.833  30.417  27.575  1.00  0.00     0.016 A 
ATOM     27  C   UNL A   1      37.078  29.137  30.063  1.00  0.00     0.010 A 
ATOM     28  C   UNL A   1      38.039  29.805  27.937  1.00  0.00     0.010 A 
ATOM     29  C   UNL A   1      38.176  29.191  29.195  1.00  0.00    -0.014 A 
BRANCH  29  30
ATOM     30  C   UNL A   1      39.499  28.712  29.665  1.00  0.00     0.031 A 
ATOM     31  C   UNL A   1      40.167  29.404  30.822  1.00  0.00     0.074 A 
ATOM     32  C   UNL A   1      40.083  27.645  29.090  1.00  0.00     0.049 A 
ATOM     33  N   UNL A   1      41.327  29.162  31.375  1.00  0.00    -0.248 NA
ATOM     34  C   UNL A   1      39.425  30.516  31.438  1.00  0.00     0.031 C 
ATOM     35  C   UNL A   1      39.517  26.864  27.993  1.00  0.00     0.029 A 
ATOM     36  N   UNL A   1      41.286  27.040  29.352  1.00  0.00    -0.354 N 
ATOM     37  C   UNL A   1      41.457  30.090  32.403  1.00  0.00     0.074 A 
ATOM     38  C   UNL A   1      40.269  30.915  32.379  1.00  0.00     0.031 C 
ATOM     39  C   UNL A   1      40.379  25.886  27.666  1.00  0.00     0.029 A 
ATOM     40  C   UNL A   1      41.569  25.994  28.509  1.00  0.00     0.049 A 
ATOM     41  H   UNL A   1      41.889  27.328  30.075  1.00  0.00     0.167 HD
ATOM     42  C   UNL A   1      42.470  30.233  33.288  1.00  0.00     0.037 A 
ATOM     43  C   UNL A   1      42.674  25.229  28.410  1.00  0.00     0.037 A 
ATOM     44  C   UNL A   1      43.651  29.411  33.312  1.00  0.00     0.049 A 
ATOM     45  C   UNL A   1      43.826  25.468  29.350  1.00  0.00     0.074 A 
ATOM     46  C   UNL A   1      44.718  29.460  34.192  1.00  0.00     0.029 A 
ATOM     47  N   UNL A   1      43.925  28.398  32.406  1.00  0.00    -0.354 N 
ATOM     48  N   UNL A   1      43.926  26.327  30.336  1.00  0.00    -0.248 NA
ATOM     49  C   UNL A   1      45.023  24.636  29.158  1.00  0.00     0.031 C 
ATOM     50  C   UNL A   1      45.662  28.509  33.787  1.00  0.00     0.029 A 
ATOM     51  C   UNL A   1      45.162  27.839  32.683  1.00  0.00     0.049 A 
ATOM     52  H   UNL A   1      43.329  28.118  31.675  1.00  0.00     0.167 HD
ATOM     53  C   UNL A   1      45.184  26.128  30.889  1.00  0.00     0.074 A 
ATOM     54  C   UNL A   1      45.807  25.056  30.141  1.00  0.00     0.031 C 
ATOM     55  C   UNL A   1      45.772  26.777  31.925  1.00  0.00     0.037 A 
BRANCH  42  56
ATOM     56  C   UNL A   1      42.360  31.341  34.294  1.00  0.00     0.057 A 
ATOM     57  C   UNL A   1      41.818  31.132  35.569  1.00  0.00     0.134 A 
ATOM     58  C   UNL A   1      42.840  32.623  33.997  1.00  0.00     0.134 A 
ATOM     59  F   UNL A   1      41.331  29.930  35.912  1.00  0.00    -0.206 F 
ATOM     60  C   UNL A   1      41.741  32.165  36.506  1.00  0.00     0.040 A 
ATOM     61  C   UNL A   1      42.789  33.657  34.933  1.00  0.00     0.040 A 
ATOM     62  F   UNL A   1      43.376  32.888  32.795  1.00  0.00    -0.206 F 
ATOM     63  C   UNL A   1      42.233  33.430  36.191  1.00  0.00     0.006 A 
ENDBRANCH  42  56
BRANCH  43  64
ATOM     64  C   UNL A   1      42.758  24.183  27.361  1.00  0.00     0.057 A 
ATOM     65  C   UNL A   1      43.200  24.482  26.068  1.00  0.00     0.134 A 
ATOM     66  C   UNL A   1      42.384  22.859  27.627  1.00  0.00     0.134 A 
ATOM     67  F   UNL A   1      43.548  25.737  25.748  1.00  0.00    -0.206 F 
ATOM     68  C   UNL A   1      43.258  23.506  25.073  1.00  0.00     0.040 A 
ATOM     69  C   UNL A   1      42.459  21.868  26.648  1.00  0.00     0.040 A 
ATOM     70  F   UNL A   1      41.947  22.510  28.846  1.00  0.00    -0.206 F 
ATOM     71  C   UNL A   1      42.893  22.192  25.364  1.00  0.00     0.006 A 
ENDBRANCH  43  64
BRANCH  55  72
ATOM     72  C   UNL A   1      47.153  26.342  32.316  1.00  0.00     0.057 A 
ATOM     73  C   UNL A   1      48.294  26.976  31.808  1.00  0.00     0.134 A 
ATOM     74  C   UNL A   1      47.344  25.317  33.252  1.00  0.00     0.134 A 
ATOM     75  F   UNL A   1      48.179  27.954  30.898  1.00  0.00    -0.206 F 
ATOM     76  C   UNL A   1      49.577  26.595  32.205  1.00  0.00     0.040 A 
ATOM     77  C   UNL A   1      48.621  24.945  33.675  1.00  0.00     0.040 A 
ATOM     78  F   UNL A   1      46.293  24.677  33.785  1.00  0.00    -0.206 F 
ATOM     79  C   UNL A   1      49.742  25.582  33.148  1.00  0.00     0.006 A 
ENDBRANCH  55  72
ENDBRANCH  29  30
ENDBRANCH  22  24
ENDBRANCH  21  22
ENDBRANCH  20  21
ENDBRANCH  19  20
ENDBRANCH   1  19
TORSDOF 17
ENDMDL
