MODEL 1
REMARK VINA RESULT:     -12.1      0.000      0.000
REMARK SMILES O=C(OCCOCCOC(=O)[C@H]1[C@@H](C(=O)Nc2ccccc2-c2ccccc2)[C@@H]2C=C[C@H]1O2)c1ccc(-c2c3nc(c(-c4c(F)cccc4F)c4ccc([nH]4)c(-c4c(F)cccc4F)c4nc(c(-c5c(F)cccc5F)c5ccc2[nH]5)C=C4)C=C3)cc1
REMARK SMILES IDX 7 1 6 2 5 3 4 4 3 5 2 6 1 7 34 8 35 9 87 10 36 11 86 12
REMARK SMILES IDX 37 13 38 14 39 15 80 16 40 17 85 18 79 19 81 20 41 21 84 22
REMARK SMILES IDX 78 23 77 24 42 26 68 27 51 28 67 29 52 30 55 31 66 32 82 33
REMARK SMILES IDX 53 34 54 35 65 37 83 38 56 39 43 40 44 41 49 42 45 43 46 44
REMARK SMILES IDX 48 45 50 46 47 47 69 48 70 49 75 50 71 51 72 52 74 53 76 54
REMARK SMILES IDX 73 55 57 56 58 57 63 58 59 59 60 60 62 61 64 62 61 63 8 64
REMARK SMILES IDX 9 65 10 66 11 67 12 68 13 69 32 70 29 71 31 72 33 73 30 74
REMARK SMILES IDX 14 75 15 76 16 77 17 79 18 80 22 81 19 82 21 83 20 84 23 85
REMARK SMILES IDX 24 86 28 87 25 88 27 89 26 90
REMARK H PARENT 81 25 55 36 16 78
REMARK Flexibility Score: inf
ROOT
ATOM      1  C   UNL A   1      33.030  29.882  26.816  1.00  0.00     0.202 C 
ENDROOT
BRANCH   1   2
ATOM      2  O   UNL A   1      31.822  30.382  26.269  1.00  0.00    -0.374 OA
BRANCH   2   3
ATOM      3  C   UNL A   1      31.438  31.721  26.557  1.00  0.00     0.202 C 
BRANCH   3   4
ATOM      4  C   UNL A   1      32.566  32.503  27.235  1.00  0.00     0.261 C 
BRANCH   4   5
ATOM      5  O   UNL A   1      32.125  33.776  27.711  1.00  0.00    -0.460 OA
BRANCH   5   6
ATOM      6  C   UNL A   1      32.935  34.540  28.488  1.00  0.00     0.338 C 
ATOM      7  O   UNL A   1      32.570  35.651  28.863  1.00  0.00    -0.246 OA
BRANCH   6   8
ATOM      8  C   UNL A   1      34.169  33.934  29.078  1.00  0.00     0.060 A 
ATOM      9  C   UNL A   1      34.206  32.911  30.041  1.00  0.00     0.016 A 
ATOM     10  C   UNL A   1      35.371  34.378  28.518  1.00  0.00     0.016 A 
ATOM     11  C   UNL A   1      35.398  32.335  30.436  1.00  0.00     0.010 A 
ATOM     12  C   UNL A   1      36.578  33.819  28.923  1.00  0.00     0.010 A 
ATOM     13  C   UNL A   1      36.581  32.802  29.886  1.00  0.00    -0.014 A 
BRANCH  13  14
ATOM     14  C   UNL A   1      37.836  32.345  30.479  1.00  0.00     0.031 A 
ATOM     15  C   UNL A   1      38.510  31.194  29.818  1.00  0.00     0.074 A 
ATOM     16  C   UNL A   1      38.355  32.998  31.527  1.00  0.00     0.049 A 
ATOM     17  N   UNL A   1      39.499  30.461  30.237  1.00  0.00    -0.248 NA
ATOM     18  C   UNL A   1      37.982  30.809  28.495  1.00  0.00     0.031 C 
ATOM     19  C   UNL A   1      37.809  34.225  32.111  1.00  0.00     0.029 A 
ATOM     20  N   UNL A   1      39.450  32.713  32.290  1.00  0.00    -0.354 N 
ATOM     21  C   UNL A   1      39.677  29.494  29.260  1.00  0.00     0.074 A 
ATOM     22  C   UNL A   1      38.703  29.737  28.222  1.00  0.00     0.031 C 
ATOM     23  C   UNL A   1      38.562  34.572  33.167  1.00  0.00     0.029 A 
ATOM     24  C   UNL A   1      39.581  33.548  33.371  1.00  0.00     0.049 A 
ATOM     25  H   UNL A   1      40.080  31.985  32.087  1.00  0.00     0.167 HD
ATOM     26  C   UNL A   1      40.568  28.479  29.265  1.00  0.00     0.037 A 
ATOM     27  C   UNL A   1      40.394  33.435  34.435  1.00  0.00     0.037 A 
ATOM     28  C   UNL A   1      41.502  28.290  30.341  1.00  0.00     0.049 A 
ATOM     29  C   UNL A   1      41.321  32.253  34.472  1.00  0.00     0.074 A 
ATOM     30  C   UNL A   1      42.435  27.290  30.518  1.00  0.00     0.029 A 
ATOM     31  N   UNL A   1      41.601  29.141  31.439  1.00  0.00    -0.354 N 
ATOM     32  N   UNL A   1      41.457  31.286  33.591  1.00  0.00    -0.248 NA
ATOM     33  C   UNL A   1      42.195  32.127  35.642  1.00  0.00     0.031 C 
ATOM     34  C   UNL A   1      43.059  27.506  31.753  1.00  0.00     0.029 A 
ATOM     35  C   UNL A   1      42.565  28.677  32.313  1.00  0.00     0.049 A 
ATOM     36  H   UNL A   1      41.063  29.955  31.574  1.00  0.00     0.167 HD
ATOM     37  C   UNL A   1      42.445  30.448  34.084  1.00  0.00     0.074 A 
ATOM     38  C   UNL A   1      42.875  31.026  35.346  1.00  0.00     0.031 C 
ATOM     39  C   UNL A   1      42.957  29.310  33.551  1.00  0.00     0.037 A 
BRANCH  26  40
ATOM     40  C   UNL A   1      40.465  27.484  28.149  1.00  0.00     0.057 A 
ATOM     41  C   UNL A   1      39.735  26.292  28.264  1.00  0.00     0.134 A 
ATOM     42  C   UNL A   1      41.197  27.676  26.970  1.00  0.00     0.134 A 
ATOM     43  F   UNL A   1      39.039  26.025  29.379  1.00  0.00    -0.206 F 
ATOM     44  C   UNL A   1      39.781  25.307  27.273  1.00  0.00     0.040 A 
ATOM     45  C   UNL A   1      41.224  26.714  25.959  1.00  0.00     0.040 A 
ATOM     46  F   UNL A   1      41.925  28.788  26.793  1.00  0.00    -0.206 F 
ATOM     47  C   UNL A   1      40.528  25.518  26.115  1.00  0.00     0.006 A 
ENDBRANCH  26  40
BRANCH  27  48
ATOM     48  C   UNL A   1      40.300  34.421  35.539  1.00  0.00     0.057 A 
ATOM     49  C   UNL A   1      39.529  34.174  36.679  1.00  0.00     0.134 A 
ATOM     50  C   UNL A   1      41.033  35.617  35.509  1.00  0.00     0.134 A 
ATOM     51  F   UNL A   1      38.795  33.055  36.766  1.00  0.00    -0.206 F 
ATOM     52  C   UNL A   1      39.491  35.074  37.747  1.00  0.00     0.040 A 
ATOM     53  C   UNL A   1      41.025  36.513  36.579  1.00  0.00     0.040 A 
ATOM     54  F   UNL A   1      41.801  35.915  34.450  1.00  0.00    -0.206 F 
ATOM     55  C   UNL A   1      40.249  36.243  37.703  1.00  0.00     0.006 A 
ENDBRANCH  27  48
BRANCH  39  56
ATOM     56  C   UNL A   1      44.072  28.651  34.303  1.00  0.00     0.057 A 
ATOM     57  C   UNL A   1      45.406  29.029  34.128  1.00  0.00     0.134 A 
ATOM     58  C   UNL A   1      43.782  27.704  35.293  1.00  0.00     0.134 A 
ATOM     59  F   UNL A   1      45.744  29.923  33.185  1.00  0.00    -0.206 F 
ATOM     60  C   UNL A   1      46.419  28.487  34.917  1.00  0.00     0.040 A 
ATOM     61  C   UNL A   1      44.781  27.178  36.107  1.00  0.00     0.040 A 
ATOM     62  F   UNL A   1      42.517  27.313  35.512  1.00  0.00    -0.206 F 
ATOM     63  C   UNL A   1      46.105  27.570  35.919  1.00  0.00     0.006 A 
ENDBRANCH  39  56
ENDBRANCH  13  14
ENDBRANCH   6   8
ENDBRANCH   5   6
ENDBRANCH   4   5
ENDBRANCH   3   4
ENDBRANCH   2   3
ENDBRANCH   1   2
BRANCH   1  64
ATOM     64  C   UNL A   1      33.577  28.721  25.990  1.00  0.00     0.261 C 
BRANCH  64  65
ATOM     65  O   UNL A   1      33.320  27.479  26.659  1.00  0.00    -0.463 OA
BRANCH  65  66
ATOM     66  C   UNL A   1      32.104  26.924  26.389  1.00  0.00     0.312 C 
ATOM     67  O   UNL A   1      31.101  27.025  27.086  1.00  0.00    -0.252 OA
BRANCH  66  68
ATOM     68  C   UNL A   1      32.160  26.242  25.053  1.00  0.00     0.147 C 
ATOM     69  C   UNL A   1      32.050  24.714  25.133  1.00  0.00     0.129 C 
ATOM     70  C   UNL A   1      30.946  26.585  24.186  1.00  0.00     0.157 C 
ATOM     71  C   UNL A   1      30.695  24.450  24.451  1.00  0.00     0.155 C 
ATOM     72  C   UNL A   1      31.088  25.985  22.814  1.00  0.00     0.004 C 
ATOM     73  O   UNL A   1      29.966  25.669  24.735  1.00  0.00    -0.365 OA
ATOM     74  C   UNL A   1      30.899  24.667  22.969  1.00  0.00     0.004 C 
BRANCH  69  75
ATOM     75  C   UNL A   1      32.243  24.012  26.470  1.00  0.00     0.231 C 
ATOM     76  O   UNL A   1      31.568  24.198  27.479  1.00  0.00    -0.274 OA
ATOM     77  N   UNL A   1      33.237  23.084  26.575  1.00  0.00    -0.325 N 
ATOM     78  H   UNL A   1      33.083  22.380  27.246  1.00  0.00     0.169 HD
BRANCH  77  79
ATOM     79  C   UNL A   1      34.446  22.979  25.871  1.00  0.00     0.049 A 
ATOM     80  C   UNL A   1      35.376  23.976  26.203  1.00  0.00     0.027 A 
ATOM     81  C   UNL A   1      34.748  21.992  24.889  1.00  0.00     0.005 A 
ATOM     82  C   UNL A   1      36.655  23.956  25.662  1.00  0.00     0.002 A 
ATOM     83  C   UNL A   1      36.051  22.011  24.358  1.00  0.00     0.011 A 
ATOM     84  C   UNL A   1      36.996  22.965  24.751  1.00  0.00     0.001 A 
BRANCH  81  85
ATOM     85  C   UNL A   1      33.790  20.955  24.393  1.00  0.00    -0.016 A 
ATOM     86  C   UNL A   1      32.809  21.296  23.434  1.00  0.00     0.009 A 
ATOM     87  C   UNL A   1      33.922  19.593  24.716  1.00  0.00     0.009 A 
ATOM     88  C   UNL A   1      32.076  20.316  22.755  1.00  0.00     0.001 A 
ATOM     89  C   UNL A   1      33.190  18.611  24.034  1.00  0.00     0.001 A 
ATOM     90  C   UNL A   1      32.283  18.971  23.042  1.00  0.00     0.000 A 
ENDBRANCH  81  85
ENDBRANCH  77  79
ENDBRANCH  69  75
ENDBRANCH  66  68
ENDBRANCH  65  66
ENDBRANCH  64  65
ENDBRANCH   1  64
TORSDOF 17
ENDMDL
MODEL 2
REMARK VINA RESULT:     -12.0      4.732      9.676
REMARK SMILES O=C(OCCOCCOC(=O)[C@H]1[C@@H](C(=O)Nc2ccccc2-c2ccccc2)[C@@H]2C=C[C@H]1O2)c1ccc(-c2c3nc(c(-c4c(F)cccc4F)c4ccc([nH]4)c(-c4c(F)cccc4F)c4nc(c(-c5c(F)cccc5F)c5ccc2[nH]5)C=C4)C=C3)cc1
REMARK SMILES IDX 7 1 6 2 5 3 4 4 3 5 2 6 1 7 34 8 35 9 87 10 36 11 86 12
REMARK SMILES IDX 37 13 38 14 39 15 80 16 40 17 85 18 79 19 81 20 41 21 84 22
REMARK SMILES IDX 78 23 77 24 42 26 68 27 51 28 67 29 52 30 55 31 66 32 82 33
REMARK SMILES IDX 53 34 54 35 65 37 83 38 56 39 43 40 44 41 49 42 45 43 46 44
REMARK SMILES IDX 48 45 50 46 47 47 69 48 70 49 75 50 71 51 72 52 74 53 76 54
REMARK SMILES IDX 73 55 57 56 58 57 63 58 59 59 60 60 62 61 64 62 61 63 8 64
REMARK SMILES IDX 9 65 10 66 11 67 12 68 13 69 32 70 29 71 31 72 33 73 30 74
REMARK SMILES IDX 14 75 15 76 16 77 17 79 18 80 22 81 19 82 21 83 20 84 23 85
REMARK SMILES IDX 24 86 28 87 25 88 27 89 26 90
REMARK H PARENT 81 25 55 36 16 78
REMARK Flexibility Score: inf
ROOT
ATOM      1  C   UNL A   1      36.849  22.038  25.379  1.00  0.00     0.202 C 
ENDROOT
BRANCH   1   2
ATOM      2  O   UNL A   1      37.318  21.062  24.463  1.00  0.00    -0.374 OA
BRANCH   2   3
ATOM      3  C   UNL A   1      37.952  19.894  24.967  1.00  0.00     0.202 C 
BRANCH   3   4
ATOM      4  C   UNL A   1      39.255  20.224  25.700  1.00  0.00     0.261 C 
BRANCH   4   5
ATOM      5  O   UNL A   1      40.204  19.159  25.612  1.00  0.00    -0.460 OA
BRANCH   5   6
ATOM      6  C   UNL A   1      41.507  19.369  25.933  1.00  0.00     0.338 C 
ATOM      7  O   UNL A   1      42.349  18.503  25.714  1.00  0.00    -0.246 OA
BRANCH   6   8
ATOM      8  C   UNL A   1      41.950  20.740  26.336  1.00  0.00     0.060 A 
ATOM      9  C   UNL A   1      42.259  21.797  25.462  1.00  0.00     0.016 A 
ATOM     10  C   UNL A   1      41.944  20.983  27.713  1.00  0.00     0.016 A 
ATOM     11  C   UNL A   1      42.546  23.063  25.934  1.00  0.00     0.010 A 
ATOM     12  C   UNL A   1      42.250  22.248  28.200  1.00  0.00     0.010 A 
ATOM     13  C   UNL A   1      42.554  23.280  27.303  1.00  0.00    -0.014 A 
BRANCH  13  14
ATOM     14  C   UNL A   1      43.079  24.555  27.788  1.00  0.00     0.031 A 
ATOM     15  C   UNL A   1      42.082  25.558  28.252  1.00  0.00     0.074 A 
ATOM     16  C   UNL A   1      44.403  24.747  27.857  1.00  0.00     0.049 A 
ATOM     17  N   UNL A   1      42.243  26.818  28.528  1.00  0.00    -0.248 NA
ATOM     18  C   UNL A   1      40.701  25.067  28.418  1.00  0.00     0.031 C 
ATOM     19  C   UNL A   1      45.419  23.736  27.560  1.00  0.00     0.029 A 
ATOM     20  N   UNL A   1      45.116  25.862  28.189  1.00  0.00    -0.354 N 
ATOM     21  C   UNL A   1      40.977  27.287  28.845  1.00  0.00     0.074 A 
ATOM     22  C   UNL A   1      40.060  26.176  28.739  1.00  0.00     0.031 C 
ATOM     23  C   UNL A   1      46.634  24.292  27.695  1.00  0.00     0.029 A 
ATOM     24  C   UNL A   1      46.467  25.707  28.007  1.00  0.00     0.049 A 
ATOM     25  H   UNL A   1      44.705  26.691  28.524  1.00  0.00     0.167 HD
ATOM     26  C   UNL A   1      40.629  28.551  29.169  1.00  0.00     0.037 A 
ATOM     27  C   UNL A   1      47.437  26.638  28.023  1.00  0.00     0.037 A 
ATOM     28  C   UNL A   1      41.596  29.612  29.244  1.00  0.00     0.049 A 
ATOM     29  C   UNL A   1      47.025  28.058  28.297  1.00  0.00     0.074 A 
ATOM     30  C   UNL A   1      41.400  30.950  29.512  1.00  0.00     0.029 A 
ATOM     31  N   UNL A   1      42.961  29.433  29.033  1.00  0.00    -0.354 N 
ATOM     32  N   UNL A   1      45.822  28.535  28.531  1.00  0.00    -0.248 NA
ATOM     33  C   UNL A   1      48.085  29.070  28.298  1.00  0.00     0.031 C 
ATOM     34  C   UNL A   1      42.640  31.591  29.408  1.00  0.00     0.029 A 
ATOM     35  C   UNL A   1      43.620  30.642  29.142  1.00  0.00     0.049 A 
ATOM     36  H   UNL A   1      43.394  28.571  28.836  1.00  0.00     0.167 HD
ATOM     37  C   UNL A   1      45.979  29.898  28.730  1.00  0.00     0.074 A 
ATOM     38  C   UNL A   1      47.399  30.169  28.589  1.00  0.00     0.031 C 
ATOM     39  C   UNL A   1      45.044  30.842  29.006  1.00  0.00     0.037 A 
BRANCH  26  40
ATOM     40  C   UNL A   1      39.165  28.827  29.334  1.00  0.00     0.057 A 
ATOM     41  C   UNL A   1      38.363  29.305  28.288  1.00  0.00     0.134 A 
ATOM     42  C   UNL A   1      38.569  28.711  30.598  1.00  0.00     0.134 A 
ATOM     43  F   UNL A   1      38.875  29.475  27.061  1.00  0.00    -0.206 F 
ATOM     44  C   UNL A   1      37.040  29.705  28.504  1.00  0.00     0.040 A 
ATOM     45  C   UNL A   1      37.240  29.076  30.818  1.00  0.00     0.040 A 
ATOM     46  F   UNL A   1      39.277  28.269  31.647  1.00  0.00    -0.206 F 
ATOM     47  C   UNL A   1      36.476  29.590  29.773  1.00  0.00     0.006 A 
ENDBRANCH  26  40
BRANCH  27  48
ATOM     48  C   UNL A   1      48.834  26.250  27.709  1.00  0.00     0.057 A 
ATOM     49  C   UNL A   1      49.330  26.292  26.402  1.00  0.00     0.134 A 
ATOM     50  C   UNL A   1      49.731  25.883  28.723  1.00  0.00     0.134 A 
ATOM     51  F   UNL A   1      48.522  26.622  25.385  1.00  0.00    -0.206 F 
ATOM     52  C   UNL A   1      50.663  25.988  26.115  1.00  0.00     0.040 A 
ATOM     53  C   UNL A   1      51.071  25.602  28.455  1.00  0.00     0.040 A 
ATOM     54  F   UNL A   1      49.324  25.829  30.001  1.00  0.00    -0.206 F 
ATOM     55  C   UNL A   1      51.541  25.651  27.145  1.00  0.00     0.006 A 
ENDBRANCH  27  48
BRANCH  39  56
ATOM     56  C   UNL A   1      45.536  32.239  29.226  1.00  0.00     0.057 A 
ATOM     57  C   UNL A   1      45.593  33.175  28.189  1.00  0.00     0.134 A 
ATOM     58  C   UNL A   1      45.846  32.674  30.521  1.00  0.00     0.134 A 
ATOM     59  F   UNL A   1      45.319  32.811  26.927  1.00  0.00    -0.206 F 
ATOM     60  C   UNL A   1      45.943  34.502  28.433  1.00  0.00     0.040 A 
ATOM     61  C   UNL A   1      46.168  34.003  30.781  1.00  0.00     0.040 A 
ATOM     62  F   UNL A   1      45.795  31.822  31.556  1.00  0.00    -0.206 F 
ATOM     63  C   UNL A   1      46.217  34.922  29.734  1.00  0.00     0.006 A 
ENDBRANCH  39  56
ENDBRANCH  13  14
ENDBRANCH   6   8
ENDBRANCH   5   6
ENDBRANCH   4   5
ENDBRANCH   3   4
ENDBRANCH   2   3
ENDBRANCH   1   2
BRANCH   1  64
ATOM     64  C   UNL A   1      37.070  23.452  24.849  1.00  0.00     0.261 C 
BRANCH  64  65
ATOM     65  O   UNL A   1      35.827  24.166  24.826  1.00  0.00    -0.463 OA
BRANCH  65  66
ATOM     66  C   UNL A   1      34.961  23.779  23.847  1.00  0.00     0.312 C 
ATOM     67  O   UNL A   1      35.274  23.335  22.747  1.00  0.00    -0.252 OA
BRANCH  66  68
ATOM     68  C   UNL A   1      33.555  23.894  24.360  1.00  0.00     0.147 C 
ATOM     69  C   UNL A   1      32.754  25.036  23.720  1.00  0.00     0.129 C 
ATOM     70  C   UNL A   1      32.705  22.681  23.976  1.00  0.00     0.157 C 
ATOM     71  C   UNL A   1      31.679  24.272  22.925  1.00  0.00     0.155 C 
ATOM     72  C   UNL A   1      31.341  22.768  24.603  1.00  0.00     0.004 C 
ATOM     73  O   UNL A   1      32.353  23.028  22.613  1.00  0.00    -0.365 OA
ATOM     74  C   UNL A   1      30.691  23.729  23.932  1.00  0.00     0.004 C 
BRANCH  69  75
ATOM     75  C   UNL A   1      33.480  26.122  22.938  1.00  0.00     0.231 C 
ATOM     76  O   UNL A   1      34.200  25.938  21.960  1.00  0.00    -0.274 OA
ATOM     77  N   UNL A   1      33.322  27.417  23.332  1.00  0.00    -0.325 N 
ATOM     78  H   UNL A   1      33.426  28.087  22.618  1.00  0.00     0.169 HD
BRANCH  77  79
ATOM     79  C   UNL A   1      33.033  27.941  24.601  1.00  0.00     0.049 A 
ATOM     80  C   UNL A   1      34.109  27.867  25.498  1.00  0.00     0.027 A 
ATOM     81  C   UNL A   1      31.780  28.488  25.003  1.00  0.00     0.005 A 
ATOM     82  C   UNL A   1      34.014  28.427  26.764  1.00  0.00     0.002 A 
ATOM     83  C   UNL A   1      31.720  29.037  26.298  1.00  0.00     0.011 A 
ATOM     84  C   UNL A   1      32.824  29.025  27.158  1.00  0.00     0.001 A 
BRANCH  81  85
ATOM     85  C   UNL A   1      30.546  28.517  24.158  1.00  0.00    -0.016 A 
ATOM     86  C   UNL A   1      29.754  27.355  24.018  1.00  0.00     0.009 A 
ATOM     87  C   UNL A   1      30.034  29.709  23.616  1.00  0.00     0.009 A 
ATOM     88  C   UNL A   1      28.470  27.405  23.463  1.00  0.00     0.001 A 
ATOM     89  C   UNL A   1      28.747  29.761  23.063  1.00  0.00     0.001 A 
ATOM     90  C   UNL A   1      27.960  28.614  23.004  1.00  0.00     0.000 A 
ENDBRANCH  81  85
ENDBRANCH  77  79
ENDBRANCH  69  75
ENDBRANCH  66  68
ENDBRANCH  65  66
ENDBRANCH  64  65
ENDBRANCH   1  64
TORSDOF 17
ENDMDL
MODEL 3
REMARK VINA RESULT:     -11.8      4.699      9.033
REMARK SMILES O=C(OCCOCCOC(=O)[C@H]1[C@@H](C(=O)Nc2ccccc2-c2ccccc2)[C@@H]2C=C[C@H]1O2)c1ccc(-c2c3nc(c(-c4c(F)cccc4F)c4ccc([nH]4)c(-c4c(F)cccc4F)c4nc(c(-c5c(F)cccc5F)c5ccc2[nH]5)C=C4)C=C3)cc1
REMARK SMILES IDX 7 1 6 2 5 3 4 4 3 5 2 6 1 7 34 8 35 9 87 10 36 11 86 12
REMARK SMILES IDX 37 13 38 14 39 15 80 16 40 17 85 18 79 19 81 20 41 21 84 22
REMARK SMILES IDX 78 23 77 24 42 26 68 27 51 28 67 29 52 30 55 31 66 32 82 33
REMARK SMILES IDX 53 34 54 35 65 37 83 38 56 39 43 40 44 41 49 42 45 43 46 44
REMARK SMILES IDX 48 45 50 46 47 47 69 48 70 49 75 50 71 51 72 52 74 53 76 54
REMARK SMILES IDX 73 55 57 56 58 57 63 58 59 59 60 60 62 61 64 62 61 63 8 64
REMARK SMILES IDX 9 65 10 66 11 67 12 68 13 69 32 70 29 71 31 72 33 73 30 74
REMARK SMILES IDX 14 75 15 76 16 77 17 79 18 80 22 81 19 82 21 83 20 84 23 85
REMARK SMILES IDX 24 86 28 87 25 88 27 89 26 90
REMARK H PARENT 81 25 55 36 16 78
REMARK Flexibility Score: inf
ROOT
ATOM      1  C   UNL A   1      37.375  22.181  24.958  1.00  0.00     0.202 C 
ENDROOT
BRANCH   1   2
ATOM      2  O   UNL A   1      36.948  20.855  24.695  1.00  0.00    -0.374 OA
BRANCH   2   3
ATOM      3  C   UNL A   1      37.862  19.785  24.891  1.00  0.00     0.202 C 
BRANCH   3   4
ATOM      4  C   UNL A   1      39.114  20.237  25.649  1.00  0.00     0.261 C 
BRANCH   4   5
ATOM      5  O   UNL A   1      40.037  19.164  25.849  1.00  0.00    -0.460 OA
BRANCH   5   6
ATOM      6  C   UNL A   1      41.348  19.419  26.090  1.00  0.00     0.338 C 
ATOM      7  O   UNL A   1      42.204  18.582  25.823  1.00  0.00    -0.246 OA
BRANCH   6   8
ATOM      8  C   UNL A   1      41.768  20.806  26.465  1.00  0.00     0.060 A 
ATOM      9  C   UNL A   1      41.837  21.322  27.770  1.00  0.00     0.016 A 
ATOM     10  C   UNL A   1      42.224  21.593  25.403  1.00  0.00     0.016 A 
ATOM     11  C   UNL A   1      42.350  22.579  28.022  1.00  0.00     0.010 A 
ATOM     12  C   UNL A   1      42.724  22.867  25.642  1.00  0.00     0.010 A 
ATOM     13  C   UNL A   1      42.779  23.353  26.956  1.00  0.00    -0.014 A 
BRANCH  13  14
ATOM     14  C   UNL A   1      43.101  24.754  27.215  1.00  0.00     0.031 A 
ATOM     15  C   UNL A   1      44.534  25.144  27.106  1.00  0.00     0.074 A 
ATOM     16  C   UNL A   1      42.119  25.628  27.472  1.00  0.00     0.049 A 
ATOM     17  N   UNL A   1      45.124  26.242  27.478  1.00  0.00    -0.248 NA
ATOM     18  C   UNL A   1      45.430  24.144  26.496  1.00  0.00     0.031 C 
ATOM     19  C   UNL A   1      40.688  25.323  27.437  1.00  0.00     0.029 A 
ATOM     20  N   UNL A   1      42.179  26.945  27.824  1.00  0.00    -0.354 N 
ATOM     21  C   UNL A   1      46.468  26.045  27.201  1.00  0.00     0.074 A 
ATOM     22  C   UNL A   1      46.608  24.730  26.621  1.00  0.00     0.031 C 
ATOM     23  C   UNL A   1      40.002  26.423  27.786  1.00  0.00     0.029 A 
ATOM     24  C   UNL A   1      40.953  27.471  28.142  1.00  0.00     0.049 A 
ATOM     25  H   UNL A   1      43.015  27.465  27.846  1.00  0.00     0.167 HD
ATOM     26  C   UNL A   1      47.488  26.896  27.447  1.00  0.00     0.037 A 
ATOM     27  C   UNL A   1      40.660  28.645  28.727  1.00  0.00     0.037 A 
ATOM     28  C   UNL A   1      47.276  28.188  28.040  1.00  0.00     0.049 A 
ATOM     29  C   UNL A   1      41.811  29.547  29.076  1.00  0.00     0.074 A 
ATOM     30  C   UNL A   1      48.203  29.145  28.394  1.00  0.00     0.029 A 
ATOM     31  N   UNL A   1      46.021  28.690  28.375  1.00  0.00    -0.354 N 
ATOM     32  N   UNL A   1      43.097  29.350  28.888  1.00  0.00    -0.248 NA
ATOM     33  C   UNL A   1      41.486  30.820  29.728  1.00  0.00     0.031 C 
ATOM     34  C   UNL A   1      47.513  30.204  28.995  1.00  0.00     0.029 A 
ATOM     35  C   UNL A   1      46.150  29.937  28.954  1.00  0.00     0.049 A 
ATOM     36  H   UNL A   1      45.167  28.225  28.221  1.00  0.00     0.167 HD
ATOM     37  C   UNL A   1      43.737  30.480  29.374  1.00  0.00     0.074 A 
ATOM     38  C   UNL A   1      42.691  31.359  29.866  1.00  0.00     0.031 C 
ATOM     39  C   UNL A   1      45.062  30.772  29.411  1.00  0.00     0.037 A 
BRANCH  26  40
ATOM     40  C   UNL A   1      48.872  26.386  27.179  1.00  0.00     0.057 A 
ATOM     41  C   UNL A   1      49.621  25.692  28.140  1.00  0.00     0.134 A 
ATOM     42  C   UNL A   1      49.507  26.689  25.967  1.00  0.00     0.134 A 
ATOM     43  F   UNL A   1      49.090  25.398  29.335  1.00  0.00    -0.206 F 
ATOM     44  C   UNL A   1      50.964  25.365  27.925  1.00  0.00     0.040 A 
ATOM     45  C   UNL A   1      50.837  26.339  25.729  1.00  0.00     0.040 A 
ATOM     46  F   UNL A   1      48.856  27.359  25.005  1.00  0.00    -0.206 F 
ATOM     47  C   UNL A   1      51.575  25.690  26.715  1.00  0.00     0.006 A 
ENDBRANCH  26  40
BRANCH  27  48
ATOM     48  C   UNL A   1      39.252  28.969  29.061  1.00  0.00     0.057 A 
ATOM     49  C   UNL A   1      38.369  29.477  28.102  1.00  0.00     0.134 A 
ATOM     50  C   UNL A   1      38.732  28.721  30.340  1.00  0.00     0.134 A 
ATOM     51  F   UNL A   1      38.804  29.748  26.863  1.00  0.00    -0.206 F 
ATOM     52  C   UNL A   1      37.026  29.723  28.399  1.00  0.00     0.040 A 
ATOM     53  C   UNL A   1      37.388  28.937  30.645  1.00  0.00     0.040 A 
ATOM     54  F   UNL A   1      39.521  28.227  31.307  1.00  0.00    -0.206 F 
ATOM     55  C   UNL A   1      36.530  29.442  29.672  1.00  0.00     0.006 A 
ENDBRANCH  27  48
BRANCH  39  56
ATOM     56  C   UNL A   1      45.446  32.114  29.952  1.00  0.00     0.057 A 
ATOM     57  C   UNL A   1      45.820  32.294  31.287  1.00  0.00     0.134 A 
ATOM     58  C   UNL A   1      45.547  33.212  29.088  1.00  0.00     0.134 A 
ATOM     59  F   UNL A   1      45.731  31.280  32.162  1.00  0.00    -0.206 F 
ATOM     60  C   UNL A   1      46.285  33.525  31.747  1.00  0.00     0.040 A 
ATOM     61  C   UNL A   1      46.038  34.438  29.529  1.00  0.00     0.040 A 
ATOM     62  F   UNL A   1      45.213  33.093  27.794  1.00  0.00    -0.206 F 
ATOM     63  C   UNL A   1      46.408  34.597  30.863  1.00  0.00     0.006 A 
ENDBRANCH  39  56
ENDBRANCH  13  14
ENDBRANCH   6   8
ENDBRANCH   5   6
ENDBRANCH   4   5
ENDBRANCH   3   4
ENDBRANCH   2   3
ENDBRANCH   1   2
BRANCH   1  64
ATOM     64  C   UNL A   1      36.256  23.016  25.575  1.00  0.00     0.261 C 
BRANCH  64  65
ATOM     65  O   UNL A   1      35.900  24.088  24.692  1.00  0.00    -0.463 OA
BRANCH  65  66
ATOM     66  C   UNL A   1      34.984  23.764  23.737  1.00  0.00     0.312 C 
ATOM     67  O   UNL A   1      35.239  23.368  22.605  1.00  0.00    -0.252 OA
BRANCH  66  68
ATOM     68  C   UNL A   1      33.605  23.880  24.318  1.00  0.00     0.147 C 
ATOM     69  C   UNL A   1      32.771  25.015  23.709  1.00  0.00     0.129 C 
ATOM     70  C   UNL A   1      32.740  22.662  23.986  1.00  0.00     0.157 C 
ATOM     71  C   UNL A   1      31.660  24.242  22.974  1.00  0.00     0.155 C 
ATOM     72  C   UNL A   1      31.409  22.751  24.678  1.00  0.00     0.004 C 
ATOM     73  O   UNL A   1      32.320  22.998  22.640  1.00  0.00    -0.365 OA
ATOM     74  C   UNL A   1      30.724  23.705  24.033  1.00  0.00     0.004 C 
BRANCH  69  75
ATOM     75  C   UNL A   1      33.454  26.096  22.884  1.00  0.00     0.231 C 
ATOM     76  O   UNL A   1      34.146  25.904  21.887  1.00  0.00    -0.274 OA
ATOM     77  N   UNL A   1      33.288  27.396  23.258  1.00  0.00    -0.325 N 
ATOM     78  H   UNL A   1      33.359  28.054  22.529  1.00  0.00     0.169 HD
BRANCH  77  79
ATOM     79  C   UNL A   1      33.031  27.941  24.525  1.00  0.00     0.049 A 
ATOM     80  C   UNL A   1      34.123  27.864  25.402  1.00  0.00     0.027 A 
ATOM     81  C   UNL A   1      31.793  28.509  24.944  1.00  0.00     0.005 A 
ATOM     82  C   UNL A   1      34.060  28.442  26.662  1.00  0.00     0.002 A 
ATOM     83  C   UNL A   1      31.765  29.076  26.233  1.00  0.00     0.011 A 
ATOM     84  C   UNL A   1      32.885  29.060  27.072  1.00  0.00     0.001 A 
BRANCH  81  85
ATOM     85  C   UNL A   1      30.543  28.543  24.123  1.00  0.00    -0.016 A 
ATOM     86  C   UNL A   1      29.774  27.369  23.951  1.00  0.00     0.009 A 
ATOM     87  C   UNL A   1      29.994  29.743  23.639  1.00  0.00     0.009 A 
ATOM     88  C   UNL A   1      28.480  27.412  23.421  1.00  0.00     0.001 A 
ATOM     89  C   UNL A   1      28.696  29.787  23.111  1.00  0.00     0.001 A 
ATOM     90  C   UNL A   1      27.934  28.626  23.020  1.00  0.00     0.000 A 
ENDBRANCH  81  85
ENDBRANCH  77  79
ENDBRANCH  69  75
ENDBRANCH  66  68
ENDBRANCH  65  66
ENDBRANCH  64  65
ENDBRANCH   1  64
TORSDOF 17
ENDMDL
