MODEL 1
REMARK VINA RESULT:     -11.1      0.000      0.000
REMARK SMILES O=C(N[C@H](CCBr)C(=O)OCCOCCOC(=O)c1ccc(-c2c3nc(c(-c4c(F)cccc4F)c4ccc([nH]4)c(-c4c(F)cccc4F)c4nc(c(-c5c(F)cccc5F)c5ccc2[nH]5)C=C4)C=C3)cc1)OCc1ccccc1
REMARK SMILES IDX 12 1 11 2 10 3 8 4 9 5 4 6 3 7 1 8 2 9 73 11 74 12 75 13
REMARK SMILES IDX 76 14 80 15 77 16 79 17 78 18 5 19 6 20 7 21 13 22 14 23
REMARK SMILES IDX 15 24 16 25 17 26 18 27 19 28 20 29 72 30 21 31 71 32 22 33
REMARK SMILES IDX 23 34 24 35 65 36 25 37 70 38 64 39 66 40 26 41 69 42 63 43
REMARK SMILES IDX 62 44 27 46 53 47 36 48 52 49 37 50 40 51 51 52 67 53 38 54
REMARK SMILES IDX 39 55 50 57 68 58 41 59 28 60 29 61 34 62 30 63 31 64 33 65
REMARK SMILES IDX 35 66 32 67 54 68 55 69 60 70 56 71 57 72 59 73 61 74 58 75
REMARK SMILES IDX 42 76 43 77 48 78 44 79 45 80 47 81 49 82 46 83
REMARK H PARENT 3 10 66 45 40 56
REMARK Flexibility Score: inf
ROOT
ATOM      1  C   UNL A   1      42.023  21.676  26.495  1.00  0.00     0.202 C 
ENDROOT
BRANCH   1   2
ATOM      2  C   UNL A   1      40.369  21.244  26.725  1.00  0.00     0.261 C 
BRANCH   2   3
ATOM      3  O   UNL A   1      38.876  20.947  25.367  1.00  0.00    -0.462 OA
BRANCH   3   4
ATOM      4  C   UNL A   1      37.536  20.309  25.070  1.00  0.00     0.328 C 
ATOM      5  O   UNL A   1      37.267  19.109  24.882  1.00  0.00    -0.250 OA
BRANCH   4   6
ATOM      6  C   UNL A   1      36.354  21.218  25.137  1.00  0.00     0.196 C 
BRANCH   6   7
ATOM      7  N   UNL A   1      35.178  20.405  25.256  1.00  0.00    -0.308 N 
ATOM      8  O   UNL A   1      33.032  20.281  26.075  1.00  0.00    -0.225 OA
ATOM      9  C   UNL A   1      34.090  20.894  25.999  1.00  0.00     0.408 C 
ATOM     10  H   UNL A   1      35.134  19.522  24.825  1.00  0.00     0.168 HD
BRANCH   9  11
ATOM     11  O   UNL A   1      34.323  22.096  26.632  1.00  0.00    -0.445 OA
BRANCH  11  12
ATOM     12  C   UNL A   1      33.240  22.984  27.130  1.00  0.00     0.270 C 
BRANCH  12  13
ATOM     13  C   UNL A   1      32.840  24.022  26.073  1.00  0.00    -0.011 A 
ATOM     14  C   UNL A   1      33.826  25.542  25.907  1.00  0.00     0.007 A 
ATOM     15  C   UNL A   1      31.049  24.136  26.020  1.00  0.00     0.007 A 
ATOM     16  C   UNL A   1      32.939  27.171  25.873  1.00  0.00     0.000 A 
ATOM     17  C   UNL A   1      30.232  25.693  25.970  1.00  0.00     0.000 A 
ATOM     18  C   UNL A   1      31.148  27.212  25.916  1.00  0.00     0.000 A 
ENDBRANCH  12  13
ENDBRANCH  11  12
ENDBRANCH   9  11
ENDBRANCH   6   7
BRANCH   6  19
ATOM     19  C   UNL A   1      36.757  22.209  24.018  1.00  0.00     0.048 C 
BRANCH  19  20
ATOM     20  C   UNL A   1      36.019  23.488  23.791  1.00  0.00     0.083 C 
ATOM     21  Br  UNL A   1      34.353  23.149  22.879  1.00  0.00    -0.093 Br
ENDBRANCH  19  20
ENDBRANCH   6  19
ENDBRANCH   4   6
ENDBRANCH   3   4
ENDBRANCH   2   3
ENDBRANCH   1   2
BRANCH   1  22
ATOM     22  O   UNL A   1      42.791  21.271  25.370  1.00  0.00    -0.374 OA
BRANCH  22  23
ATOM     23  C   UNL A   1      44.211  21.446  25.309  1.00  0.00     0.202 C 
BRANCH  23  24
ATOM     24  C   UNL A   1      44.952  22.514  24.459  1.00  0.00     0.261 C 
BRANCH  24  25
ATOM     25  O   UNL A   1      44.337  23.805  24.300  1.00  0.00    -0.460 OA
BRANCH  25  26
ATOM     26  C   UNL A   1      44.899  24.836  24.964  1.00  0.00     0.338 C 
ATOM     27  O   UNL A   1      46.055  25.206  24.869  1.00  0.00    -0.246 OA
BRANCH  26  28
ATOM     28  C   UNL A   1      43.825  25.623  25.633  1.00  0.00     0.060 A 
ATOM     29  C   UNL A   1      44.085  26.978  25.877  1.00  0.00     0.016 A 
ATOM     30  C   UNL A   1      42.606  25.068  26.037  1.00  0.00     0.016 A 
ATOM     31  C   UNL A   1      43.202  27.745  26.635  1.00  0.00     0.010 A 
ATOM     32  C   UNL A   1      41.722  25.837  26.814  1.00  0.00     0.010 A 
ATOM     33  C   UNL A   1      42.064  27.151  27.192  1.00  0.00    -0.014 A 
BRANCH  33  34
ATOM     34  C   UNL A   1      41.481  27.789  28.409  1.00  0.00     0.031 A 
ATOM     35  C   UNL A   1      42.235  27.635  29.713  1.00  0.00     0.074 A 
ATOM     36  C   UNL A   1      40.407  28.601  28.365  1.00  0.00     0.049 A 
ATOM     37  N   UNL A   1      41.992  28.159  30.889  1.00  0.00    -0.248 NA
ATOM     38  C   UNL A   1      43.428  26.774  29.682  1.00  0.00     0.031 C 
ATOM     39  C   UNL A   1      39.613  28.898  27.176  1.00  0.00     0.029 A 
ATOM     40  N   UNL A   1      39.813  29.341  29.360  1.00  0.00    -0.354 N 
ATOM     41  C   UNL A   1      42.996  27.687  31.728  1.00  0.00     0.074 A 
ATOM     42  C   UNL A   1      43.816  26.791  30.946  1.00  0.00     0.031 C 
ATOM     43  C   UNL A   1      38.636  29.762  27.509  1.00  0.00     0.029 A 
ATOM     44  C   UNL A   1      38.723  30.065  28.938  1.00  0.00     0.049 A 
ATOM     45  H   UNL A   1      40.138  29.353  30.289  1.00  0.00     0.167 HD
ATOM     46  C   UNL A   1      43.239  27.983  33.026  1.00  0.00     0.037 A 
ATOM     47  C   UNL A   1      37.890  30.874  29.626  1.00  0.00     0.037 A 
ATOM     48  C   UNL A   1      42.440  28.879  33.818  1.00  0.00     0.049 A 
ATOM     49  C   UNL A   1      38.133  31.129  31.095  1.00  0.00     0.074 A 
ATOM     50  C   UNL A   1      42.614  29.244  35.141  1.00  0.00     0.029 A 
ATOM     51  N   UNL A   1      41.315  29.546  33.362  1.00  0.00    -0.354 N 
ATOM     52  N   UNL A   1      39.096  30.689  31.869  1.00  0.00    -0.248 NA
ATOM     53  C   UNL A   1      37.174  32.008  31.782  1.00  0.00     0.031 C 
ATOM     54  C   UNL A   1      41.555  30.080  35.506  1.00  0.00     0.029 A 
ATOM     55  C   UNL A   1      40.769  30.301  34.387  1.00  0.00     0.049 A 
ATOM     56  H   UNL A   1      40.957  29.491  32.447  1.00  0.00     0.167 HD
ATOM     57  C   UNL A   1      38.886  31.278  33.114  1.00  0.00     0.074 A 
ATOM     58  C   UNL A   1      37.711  32.111  32.989  1.00  0.00     0.031 C 
ATOM     59  C   UNL A   1      39.609  31.145  34.255  1.00  0.00     0.037 A 
BRANCH  46  60
ATOM     60  C   UNL A   1      44.408  27.302  33.683  1.00  0.00     0.057 A 
ATOM     61  C   UNL A   1      45.692  27.866  33.693  1.00  0.00     0.134 A 
ATOM     62  C   UNL A   1      44.240  26.071  34.330  1.00  0.00     0.134 A 
ATOM     63  F   UNL A   1      45.927  29.033  33.076  1.00  0.00    -0.206 F 
ATOM     64  C   UNL A   1      46.770  27.215  34.295  1.00  0.00     0.040 A 
ATOM     65  C   UNL A   1      45.302  25.428  34.965  1.00  0.00     0.040 A 
ATOM     66  F   UNL A   1      43.037  25.476  34.361  1.00  0.00    -0.206 F 
ATOM     67  C   UNL A   1      46.574  25.996  34.941  1.00  0.00     0.006 A 
ENDBRANCH  46  60
BRANCH  47  68
ATOM     68  C   UNL A   1      36.728  31.511  28.946  1.00  0.00     0.057 A 
ATOM     69  C   UNL A   1      36.727  32.874  28.618  1.00  0.00     0.134 A 
ATOM     70  C   UNL A   1      35.565  30.785  28.666  1.00  0.00     0.134 A 
ATOM     71  F   UNL A   1      37.799  33.634  28.887  1.00  0.00    -0.206 F 
ATOM     72  C   UNL A   1      35.604  33.495  28.068  1.00  0.00     0.040 A 
ATOM     73  C   UNL A   1      34.447  31.385  28.086  1.00  0.00     0.040 A 
ATOM     74  F   UNL A   1      35.496  29.478  28.957  1.00  0.00    -0.206 F 
ATOM     75  C   UNL A   1      34.460  32.748  27.796  1.00  0.00     0.006 A 
ENDBRANCH  47  68
BRANCH  59  76
ATOM     76  C   UNL A   1      39.199  31.974  35.443  1.00  0.00     0.057 A 
ATOM     77  C   UNL A   1      38.381  31.477  36.465  1.00  0.00     0.134 A 
ATOM     78  C   UNL A   1      39.659  33.293  35.575  1.00  0.00     0.134 A 
ATOM     79  F   UNL A   1      37.901  30.226  36.405  1.00  0.00    -0.206 F 
ATOM     80  C   UNL A   1      37.997  32.272  37.548  1.00  0.00     0.040 A 
ATOM     81  C   UNL A   1      39.314  34.086  36.672  1.00  0.00     0.040 A 
ATOM     82  F   UNL A   1      40.461  33.832  34.646  1.00  0.00    -0.206 F 
ATOM     83  C   UNL A   1      38.469  33.579  37.656  1.00  0.00     0.006 A 
ENDBRANCH  59  76
ENDBRANCH  33  34
ENDBRANCH  26  28
ENDBRANCH  25  26
ENDBRANCH  24  25
ENDBRANCH  23  24
ENDBRANCH  22  23
ENDBRANCH   1  22
TORSDOF 20
ENDMDL
MODEL 2
REMARK VINA RESULT:     -10.9      4.690      9.703
REMARK SMILES O=C(N[C@H](CCBr)C(=O)OCCOCCOC(=O)c1ccc(-c2c3nc(c(-c4c(F)cccc4F)c4ccc([nH]4)c(-c4c(F)cccc4F)c4nc(c(-c5c(F)cccc5F)c5ccc2[nH]5)C=C4)C=C3)cc1)OCc1ccccc1
REMARK SMILES IDX 12 1 11 2 10 3 8 4 9 5 4 6 3 7 1 8 2 9 73 11 74 12 75 13
REMARK SMILES IDX 76 14 80 15 77 16 79 17 78 18 5 19 6 20 7 21 13 22 14 23
REMARK SMILES IDX 15 24 16 25 17 26 18 27 19 28 20 29 72 30 21 31 71 32 22 33
REMARK SMILES IDX 23 34 24 35 65 36 25 37 70 38 64 39 66 40 26 41 69 42 63 43
REMARK SMILES IDX 62 44 27 46 53 47 36 48 52 49 37 50 40 51 51 52 67 53 38 54
REMARK SMILES IDX 39 55 50 57 68 58 41 59 28 60 29 61 34 62 30 63 31 64 33 65
REMARK SMILES IDX 35 66 32 67 54 68 55 69 60 70 56 71 57 72 59 73 61 74 58 75
REMARK SMILES IDX 42 76 43 77 48 78 44 79 45 80 47 81 49 82 46 83
REMARK H PARENT 3 10 66 45 40 56
REMARK Flexibility Score: inf
ROOT
ATOM      1  C   UNL A   1      33.585  30.986  27.479  1.00  0.00     0.202 C 
ENDROOT
BRANCH   1   2
ATOM      2  C   UNL A   1      33.924  29.376  26.962  1.00  0.00     0.261 C 
BRANCH   2   3
ATOM      3  O   UNL A   1      32.844  28.108  25.784  1.00  0.00    -0.462 OA
BRANCH   3   4
ATOM      4  C   UNL A   1      31.904  26.923  25.719  1.00  0.00     0.328 C 
ATOM      5  O   UNL A   1      31.257  26.389  26.637  1.00  0.00    -0.250 OA
BRANCH   4   6
ATOM      6  C   UNL A   1      31.608  26.402  24.352  1.00  0.00     0.196 C 
BRANCH   6   7
ATOM      7  N   UNL A   1      32.714  26.738  23.502  1.00  0.00    -0.308 N 
ATOM      8  O   UNL A   1      33.950  26.122  21.664  1.00  0.00    -0.225 OA
ATOM      9  C   UNL A   1      33.066  25.855  22.467  1.00  0.00     0.408 C 
ATOM     10  H   UNL A   1      33.217  27.572  23.642  1.00  0.00     0.168 HD
BRANCH   9  11
ATOM     11  O   UNL A   1      32.345  24.680  22.449  1.00  0.00    -0.445 OA
BRANCH  11  12
ATOM     12  C   UNL A   1      32.974  23.333  22.425  1.00  0.00     0.270 C 
BRANCH  12  13
ATOM     13  C   UNL A   1      33.873  23.117  23.650  1.00  0.00    -0.011 A 
ATOM     14  C   UNL A   1      35.661  23.414  23.500  1.00  0.00     0.007 A 
ATOM     15  C   UNL A   1      33.303  21.664  24.537  1.00  0.00     0.007 A 
ATOM     16  C   UNL A   1      36.829  22.108  24.111  1.00  0.00     0.000 A 
ATOM     17  C   UNL A   1      34.433  20.448  25.123  1.00  0.00     0.000 A 
ATOM     18  C   UNL A   1      36.184  20.637  24.907  1.00  0.00     0.000 A 
ENDBRANCH  12  13
ENDBRANCH  11  12
ENDBRANCH   9  11
ENDBRANCH   6   7
BRANCH   6  19
ATOM     19  C   UNL A   1      30.124  26.831  24.253  1.00  0.00     0.048 C 
BRANCH  19  20
ATOM     20  C   UNL A   1      29.622  27.691  23.140  1.00  0.00     0.083 C 
ATOM     21  Br  UNL A   1      29.867  29.556  23.570  1.00  0.00    -0.093 Br
ENDBRANCH  19  20
ENDBRANCH   6  19
ENDBRANCH   4   6
ENDBRANCH   3   4
ENDBRANCH   2   3
ENDBRANCH   1   2
BRANCH   1  22
ATOM     22  O   UNL A   1      34.545  32.033  27.466  1.00  0.00    -0.374 OA
BRANCH  22  23
ATOM     23  C   UNL A   1      34.404  33.211  28.270  1.00  0.00     0.202 C 
BRANCH  23  24
ATOM     24  C   UNL A   1      34.754  33.319  29.779  1.00  0.00     0.261 C 
BRANCH  24  25
ATOM     25  O   UNL A   1      34.596  32.147  30.601  1.00  0.00    -0.460 OA
BRANCH  25  26
ATOM     26  C   UNL A   1      35.491  31.973  31.595  1.00  0.00     0.338 C 
ATOM     27  O   UNL A   1      35.372  32.360  32.743  1.00  0.00    -0.246 OA
BRANCH  26  28
ATOM     28  C   UNL A   1      36.528  31.003  31.145  1.00  0.00     0.060 A 
ATOM     29  C   UNL A   1      37.542  30.683  32.060  1.00  0.00     0.016 A 
ATOM     30  C   UNL A   1      36.542  30.431  29.869  1.00  0.00     0.016 A 
ATOM     31  C   UNL A   1      38.633  29.911  31.668  1.00  0.00     0.010 A 
ATOM     32  C   UNL A   1      37.650  29.663  29.468  1.00  0.00     0.010 A 
ATOM     33  C   UNL A   1      38.742  29.480  30.341  1.00  0.00    -0.014 A 
BRANCH  33  34
ATOM     34  C   UNL A   1      40.111  29.180  29.824  1.00  0.00     0.031 A 
ATOM     35  C   UNL A   1      40.356  27.804  29.242  1.00  0.00     0.074 A 
ATOM     36  C   UNL A   1      41.075  30.115  29.726  1.00  0.00     0.049 A 
ATOM     37  N   UNL A   1      41.421  27.321  28.652  1.00  0.00    -0.248 NA
ATOM     38  C   UNL A   1      39.244  26.844  29.337  1.00  0.00     0.031 C 
ATOM     39  C   UNL A   1      40.969  31.498  30.184  1.00  0.00     0.029 A 
ATOM     40  N   UNL A   1      42.336  30.035  29.185  1.00  0.00    -0.354 N 
ATOM     41  C   UNL A   1      41.105  26.010  28.315  1.00  0.00     0.074 A 
ATOM     42  C   UNL A   1      39.774  25.752  28.814  1.00  0.00     0.031 C 
ATOM     43  C   UNL A   1      42.119  32.138  29.902  1.00  0.00     0.029 A 
ATOM     44  C   UNL A   1      43.049  31.208  29.260  1.00  0.00     0.049 A 
ATOM     45  H   UNL A   1      42.697  29.213  28.781  1.00  0.00     0.167 HD
ATOM     46  C   UNL A   1      41.836  25.100  27.630  1.00  0.00     0.037 A 
ATOM     47  C   UNL A   1      44.305  31.497  28.862  1.00  0.00     0.037 A 
ATOM     48  C   UNL A   1      43.158  25.340  27.117  1.00  0.00     0.049 A 
ATOM     49  C   UNL A   1      45.135  30.441  28.170  1.00  0.00     0.074 A 
ATOM     50  C   UNL A   1      43.974  24.479  26.406  1.00  0.00     0.029 A 
ATOM     51  N   UNL A   1      43.859  26.526  27.264  1.00  0.00    -0.354 N 
ATOM     52  N   UNL A   1      44.815  29.212  27.842  1.00  0.00    -0.248 NA
ATOM     53  C   UNL A   1      46.501  30.823  27.779  1.00  0.00     0.031 C 
ATOM     54  C   UNL A   1      45.196  25.120  26.181  1.00  0.00     0.029 A 
ATOM     55  C   UNL A   1      45.109  26.409  26.679  1.00  0.00     0.049 A 
ATOM     56  H   UNL A   1      43.519  27.332  27.718  1.00  0.00     0.167 HD
ATOM     57  C   UNL A   1      45.918  28.696  27.165  1.00  0.00     0.074 A 
ATOM     58  C   UNL A   1      46.910  29.747  27.122  1.00  0.00     0.031 C 
ATOM     59  C   UNL A   1      46.089  27.464  26.622  1.00  0.00     0.037 A 
BRANCH  46  60
ATOM     60  C   UNL A   1      41.229  23.740  27.422  1.00  0.00     0.057 A 
ATOM     61  C   UNL A   1      41.669  22.610  28.125  1.00  0.00     0.134 A 
ATOM     62  C   UNL A   1      40.174  23.565  26.517  1.00  0.00     0.134 A 
ATOM     63  F   UNL A   1      42.688  22.702  28.993  1.00  0.00    -0.206 F 
ATOM     64  C   UNL A   1      41.105  21.351  27.912  1.00  0.00     0.040 A 
ATOM     65  C   UNL A   1      39.578  22.319  26.321  1.00  0.00     0.040 A 
ATOM     66  F   UNL A   1      39.701  24.605  25.813  1.00  0.00    -0.206 F 
ATOM     67  C   UNL A   1      40.049  21.206  27.013  1.00  0.00     0.006 A 
ENDBRANCH  46  60
BRANCH  47  68
ATOM     68  C   UNL A   1      44.881  32.848  29.107  1.00  0.00     0.057 A 
ATOM     69  C   UNL A   1      45.616  33.132  30.266  1.00  0.00     0.134 A 
ATOM     70  C   UNL A   1      44.652  33.905  28.219  1.00  0.00     0.134 A 
ATOM     71  F   UNL A   1      45.846  32.172  31.173  1.00  0.00    -0.206 F 
ATOM     72  C   UNL A   1      46.076  34.421  30.545  1.00  0.00     0.040 A 
ATOM     73  C   UNL A   1      45.134  35.191  28.469  1.00  0.00     0.040 A 
ATOM     74  F   UNL A   1      43.953  33.704  27.093  1.00  0.00    -0.206 F 
ATOM     75  C   UNL A   1      45.837  35.455  29.642  1.00  0.00     0.006 A 
ENDBRANCH  47  68
BRANCH  59  76
ATOM     76  C   UNL A   1      47.364  27.203  25.866  1.00  0.00     0.057 A 
ATOM     77  C   UNL A   1      48.467  26.563  26.443  1.00  0.00     0.134 A 
ATOM     78  C   UNL A   1      47.476  27.582  24.519  1.00  0.00     0.134 A 
ATOM     79  F   UNL A   1      48.434  26.175  27.727  1.00  0.00    -0.206 F 
ATOM     80  C   UNL A   1      49.648  26.350  25.727  1.00  0.00     0.040 A 
ATOM     81  C   UNL A   1      48.637  27.341  23.782  1.00  0.00     0.040 A 
ATOM     82  F   UNL A   1      46.454  28.184  23.892  1.00  0.00    -0.206 F 
ATOM     83  C   UNL A   1      49.732  26.735  24.390  1.00  0.00     0.006 A 
ENDBRANCH  59  76
ENDBRANCH  33  34
ENDBRANCH  26  28
ENDBRANCH  25  26
ENDBRANCH  24  25
ENDBRANCH  23  24
ENDBRANCH  22  23
ENDBRANCH   1  22
TORSDOF 20
ENDMDL
MODEL 3
REMARK VINA RESULT:     -10.7      1.495      6.639
REMARK SMILES O=C(N[C@H](CCBr)C(=O)OCCOCCOC(=O)c1ccc(-c2c3nc(c(-c4c(F)cccc4F)c4ccc([nH]4)c(-c4c(F)cccc4F)c4nc(c(-c5c(F)cccc5F)c5ccc2[nH]5)C=C4)C=C3)cc1)OCc1ccccc1
REMARK SMILES IDX 12 1 11 2 10 3 8 4 9 5 4 6 3 7 1 8 2 9 73 11 74 12 75 13
REMARK SMILES IDX 76 14 80 15 77 16 79 17 78 18 5 19 6 20 7 21 13 22 14 23
REMARK SMILES IDX 15 24 16 25 17 26 18 27 19 28 20 29 72 30 21 31 71 32 22 33
REMARK SMILES IDX 23 34 24 35 65 36 25 37 70 38 64 39 66 40 26 41 69 42 63 43
REMARK SMILES IDX 62 44 27 46 53 47 36 48 52 49 37 50 40 51 51 52 67 53 38 54
REMARK SMILES IDX 39 55 50 57 68 58 41 59 28 60 29 61 34 62 30 63 31 64 33 65
REMARK SMILES IDX 35 66 32 67 54 68 55 69 60 70 56 71 57 72 59 73 61 74 58 75
REMARK SMILES IDX 42 76 43 77 48 78 44 79 45 80 47 81 49 82 46 83
REMARK H PARENT 3 10 66 45 40 56
REMARK Flexibility Score: inf
ROOT
ATOM      1  C   UNL A   1      38.832  21.314  25.505  1.00  0.00     0.202 C 
ENDROOT
BRANCH   1   2
ATOM      2  C   UNL A   1      37.403  20.620  24.833  1.00  0.00     0.261 C 
BRANCH   2   3
ATOM      3  O   UNL A   1      35.453  20.785  25.410  1.00  0.00    -0.462 OA
BRANCH   3   4
ATOM      4  C   UNL A   1      34.449  21.460  26.320  1.00  0.00     0.328 C 
ATOM      5  O   UNL A   1      34.564  21.760  27.521  1.00  0.00    -0.250 OA
BRANCH   4   6
ATOM      6  C   UNL A   1      33.201  21.947  25.663  1.00  0.00     0.196 C 
BRANCH   6   7
ATOM      7  N   UNL A   1      32.150  21.925  26.639  1.00  0.00    -0.308 N 
ATOM      8  O   UNL A   1      30.405  23.094  27.576  1.00  0.00    -0.225 OA
ATOM      9  C   UNL A   1      31.363  23.076  26.814  1.00  0.00     0.408 C 
ATOM     10  H   UNL A   1      31.983  21.118  27.177  1.00  0.00     0.168 HD
BRANCH   9  11
ATOM     11  O   UNL A   1      31.769  24.164  26.071  1.00  0.00    -0.445 OA
BRANCH  11  12
ATOM     12  C   UNL A   1      31.101  25.491  26.128  1.00  0.00     0.270 C 
BRANCH  12  13
ATOM     13  C   UNL A   1      32.085  26.591  26.551  1.00  0.00    -0.011 A 
ATOM     14  C   UNL A   1      31.473  27.996  27.533  1.00  0.00     0.007 A 
ATOM     15  C   UNL A   1      33.222  26.905  25.198  1.00  0.00     0.007 A 
ATOM     16  C   UNL A   1      31.904  29.713  26.983  1.00  0.00     0.000 A 
ATOM     17  C   UNL A   1      33.629  28.545  24.706  1.00  0.00     0.000 A 
ATOM     18  C   UNL A   1      32.973  29.953  25.564  1.00  0.00     0.000 A 
ENDBRANCH  12  13
ENDBRANCH  11  12
ENDBRANCH   9  11
ENDBRANCH   6   7
BRANCH   6  19
ATOM     19  C   UNL A   1      33.321  21.174  24.328  1.00  0.00     0.048 C 
BRANCH  19  20
ATOM     20  C   UNL A   1      32.366  20.088  23.953  1.00  0.00     0.083 C 
ATOM     21  Br  UNL A   1      33.225  18.365  24.082  1.00  0.00    -0.093 Br
ENDBRANCH  19  20
ENDBRANCH   6  19
ENDBRANCH   4   6
ENDBRANCH   3   4
ENDBRANCH   2   3
ENDBRANCH   1   2
BRANCH   1  22
ATOM     22  O   UNL A   1      39.730  20.603  26.346  1.00  0.00    -0.374 OA
BRANCH  22  23
ATOM     23  C   UNL A   1      40.981  21.158  26.772  1.00  0.00     0.202 C 
BRANCH  23  24
ATOM     24  C   UNL A   1      41.980  21.927  25.867  1.00  0.00     0.261 C 
BRANCH  24  25
ATOM     25  O   UNL A   1      42.920  22.820  26.494  1.00  0.00    -0.460 OA
BRANCH  25  26
ATOM     26  C   UNL A   1      43.178  23.980  25.856  1.00  0.00     0.338 C 
ATOM     27  O   UNL A   1      43.707  24.098  24.766  1.00  0.00    -0.246 OA
BRANCH  26  28
ATOM     28  C   UNL A   1      42.476  25.087  26.566  1.00  0.00     0.060 A 
ATOM     29  C   UNL A   1      43.099  26.343  26.561  1.00  0.00     0.016 A 
ATOM     30  C   UNL A   1      41.262  24.918  27.239  1.00  0.00     0.016 A 
ATOM     31  C   UNL A   1      42.592  27.389  27.330  1.00  0.00     0.010 A 
ATOM     32  C   UNL A   1      40.758  25.969  28.027  1.00  0.00     0.010 A 
ATOM     33  C   UNL A   1      41.475  27.177  28.145  1.00  0.00    -0.014 A 
BRANCH  33  34
ATOM     34  C   UNL A   1      41.311  28.067  29.333  1.00  0.00     0.031 A 
ATOM     35  C   UNL A   1      40.163  29.055  29.317  1.00  0.00     0.074 A 
ATOM     36  C   UNL A   1      42.041  27.928  30.456  1.00  0.00     0.049 A 
ATOM     37  N   UNL A   1      39.750  29.875  30.251  1.00  0.00    -0.248 NA
ATOM     38  C   UNL A   1      39.373  29.122  28.077  1.00  0.00     0.031 C 
ATOM     39  C   UNL A   1      43.137  26.982  30.647  1.00  0.00     0.029 A 
ATOM     40  N   UNL A   1      41.948  28.585  31.661  1.00  0.00    -0.354 N 
ATOM     41  C   UNL A   1      38.663  30.551  29.707  1.00  0.00     0.074 A 
ATOM     42  C   UNL A   1      38.514  30.090  28.346  1.00  0.00     0.031 C 
ATOM     43  C   UNL A   1      43.614  27.117  31.899  1.00  0.00     0.029 A 
ATOM     44  C   UNL A   1      42.871  28.170  32.592  1.00  0.00     0.049 A 
ATOM     45  H   UNL A   1      41.282  29.287  31.841  1.00  0.00     0.167 HD
ATOM     46  C   UNL A   1      37.839  31.457  30.284  1.00  0.00     0.037 A 
ATOM     47  C   UNL A   1      43.094  28.595  33.853  1.00  0.00     0.037 A 
ATOM     48  C   UNL A   1      37.966  31.921  31.640  1.00  0.00     0.049 A 
ATOM     49  C   UNL A   1      42.212  29.666  34.452  1.00  0.00     0.074 A 
ATOM     50  C   UNL A   1      37.174  32.834  32.313  1.00  0.00     0.029 A 
ATOM     51  N   UNL A   1      38.949  31.512  32.526  1.00  0.00    -0.354 N 
ATOM     52  N   UNL A   1      41.178  30.281  33.932  1.00  0.00    -0.248 NA
ATOM     53  C   UNL A   1      42.525  30.088  35.826  1.00  0.00     0.031 C 
ATOM     54  C   UNL A   1      37.717  33.029  33.586  1.00  0.00     0.029 A 
ATOM     55  C   UNL A   1      38.798  32.176  33.733  1.00  0.00     0.049 A 
ATOM     56  H   UNL A   1      39.650  30.850  32.328  1.00  0.00     0.167 HD
ATOM     57  C   UNL A   1      40.690  31.122  34.929  1.00  0.00     0.074 A 
ATOM     58  C   UNL A   1      41.536  30.932  36.086  1.00  0.00     0.031 C 
ATOM     59  C   UNL A   1      39.631  31.970  34.890  1.00  0.00     0.037 A 
BRANCH  46  60
ATOM     60  C   UNL A   1      36.740  32.032  29.434  1.00  0.00     0.057 A 
ATOM     61  C   UNL A   1      36.814  33.322  28.890  1.00  0.00     0.134 A 
ATOM     62  C   UNL A   1      35.600  31.274  29.142  1.00  0.00     0.134 A 
ATOM     63  F   UNL A   1      37.870  34.109  29.146  1.00  0.00    -0.206 F 
ATOM     64  C   UNL A   1      35.779  33.847  28.114  1.00  0.00     0.040 A 
ATOM     65  C   UNL A   1      34.575  31.774  28.339  1.00  0.00     0.040 A 
ATOM     66  F   UNL A   1      35.465  30.030  29.628  1.00  0.00    -0.206 F 
ATOM     67  C   UNL A   1      34.659  33.068  27.830  1.00  0.00     0.006 A 
ENDBRANCH  46  60
BRANCH  47  68
ATOM     68  C   UNL A   1      44.208  28.018  34.655  1.00  0.00     0.057 A 
ATOM     69  C   UNL A   1      43.995  26.968  35.558  1.00  0.00     0.134 A 
ATOM     70  C   UNL A   1      45.501  28.549  34.585  1.00  0.00     0.134 A 
ATOM     71  F   UNL A   1      42.773  26.434  35.697  1.00  0.00    -0.206 F 
ATOM     72  C   UNL A   1      45.017  26.489  36.381  1.00  0.00     0.040 A 
ATOM     73  C   UNL A   1      46.541  28.059  35.377  1.00  0.00     0.040 A 
ATOM     74  F   UNL A   1      45.775  29.558  33.745  1.00  0.00    -0.206 F 
ATOM     75  C   UNL A   1      46.296  27.033  36.288  1.00  0.00     0.006 A 
ENDBRANCH  47  68
BRANCH  59  76
ATOM     76  C   UNL A   1      39.275  32.703  36.156  1.00  0.00     0.057 A 
ATOM     77  C   UNL A   1      39.775  33.976  36.458  1.00  0.00     0.134 A 
ATOM     78  C   UNL A   1      38.390  32.127  37.080  1.00  0.00     0.134 A 
ATOM     79  F   UNL A   1      40.628  34.588  35.624  1.00  0.00    -0.206 F 
ATOM     80  C   UNL A   1      39.446  34.628  37.649  1.00  0.00     0.040 A 
ATOM     81  C   UNL A   1      38.024  32.784  38.256  1.00  0.00     0.040 A 
ATOM     82  F   UNL A   1      37.856  30.918  36.851  1.00  0.00    -0.206 F 
ATOM     83  C   UNL A   1      38.563  34.034  38.550  1.00  0.00     0.006 A 
ENDBRANCH  59  76
ENDBRANCH  33  34
ENDBRANCH  26  28
ENDBRANCH  25  26
ENDBRANCH  24  25
ENDBRANCH  23  24
ENDBRANCH  22  23
ENDBRANCH   1  22
TORSDOF 20
ENDMDL
