MODEL 1
REMARK VINA RESULT:      -9.9      0.000      0.000
REMARK SMILES O=C(OCCOCCOC(=O)c1ccc(-n2cc(CSc3nc4ccccc4c(=O)n3-c3ccc(Cl)cc3)nn2)cc1)c1ccc(-c2c3nc(c(-c4c(F)cccc4F)c4ccc([nH]4)c(-c4c(F)cccc4F)c4nc(c(-c5c(F)cccc5F)c5ccc2[nH]5)C=C4)C=C3)cc1
REMARK SMILES IDX 7 1 6 2 5 3 4 4 3 5 2 6 1 7 43 8 44 9 96 10 45 11 95 12
REMARK SMILES IDX 46 13 47 14 48 15 89 16 49 17 94 18 88 19 90 20 50 21 93 22
REMARK SMILES IDX 87 23 86 24 51 26 77 27 60 28 76 29 61 30 64 31 75 32 91 33
REMARK SMILES IDX 62 34 63 35 74 37 92 38 65 39 52 40 53 41 58 42 54 43 55 44
REMARK SMILES IDX 57 45 59 46 56 47 78 48 79 49 84 50 80 51 81 52 83 53 85 54
REMARK SMILES IDX 82 55 66 56 67 57 72 58 68 59 69 60 71 61 73 62 70 63 8 64
REMARK SMILES IDX 9 65 10 66 11 67 12 68 13 69 42 70 14 71 41 72 15 73 16 74
REMARK SMILES IDX 17 75 40 76 18 77 39 78 19 79 20 80 21 81 22 82 31 83 23 84
REMARK SMILES IDX 29 85 24 86 28 87 30 88 25 89 27 90 26 91 32 92 33 93 38 94
REMARK SMILES IDX 34 95 37 96 35 97 36 98
REMARK H PARENT 90 25 64 36
REMARK Flexibility Score: inf
ROOT
ATOM      1  C   UNL A   1      37.459  21.624  24.911  1.00  0.00     0.202 C 
ENDROOT
BRANCH   1   2
ATOM      2  O   UNL A   1      38.557  21.872  25.802  1.00  0.00    -0.374 OA
BRANCH   2   3
ATOM      3  C   UNL A   1      39.511  20.832  25.972  1.00  0.00     0.202 C 
BRANCH   3   4
ATOM      4  C   UNL A   1      40.958  21.191  26.295  1.00  0.00     0.261 C 
BRANCH   4   5
ATOM      5  O   UNL A   1      41.387  22.430  25.708  1.00  0.00    -0.460 OA
BRANCH   5   6
ATOM      6  C   UNL A   1      42.668  22.834  25.581  1.00  0.00     0.338 C 
ATOM      7  O   UNL A   1      43.252  22.707  24.508  1.00  0.00    -0.246 OA
BRANCH   6   8
ATOM      8  C   UNL A   1      43.271  23.686  26.637  1.00  0.00     0.060 A 
ATOM      9  C   UNL A   1      42.765  23.857  27.923  1.00  0.00     0.016 A 
ATOM     10  C   UNL A   1      44.355  24.472  26.215  1.00  0.00     0.016 A 
ATOM     11  C   UNL A   1      43.100  24.985  28.642  1.00  0.00     0.010 A 
ATOM     12  C   UNL A   1      44.755  25.558  26.965  1.00  0.00     0.010 A 
ATOM     13  C   UNL A   1      44.043  25.864  28.118  1.00  0.00    -0.014 A 
BRANCH  13  14
ATOM     14  C   UNL A   1      44.400  27.018  28.918  1.00  0.00     0.031 A 
ATOM     15  C   UNL A   1      45.500  26.718  29.866  1.00  0.00     0.074 A 
ATOM     16  C   UNL A   1      43.845  28.228  28.714  1.00  0.00     0.049 A 
ATOM     17  N   UNL A   1      45.447  26.705  31.156  1.00  0.00    -0.248 NA
ATOM     18  C   UNL A   1      46.747  26.155  29.314  1.00  0.00     0.031 C 
ATOM     19  C   UNL A   1      42.927  28.626  27.644  1.00  0.00     0.029 A 
ATOM     20  N   UNL A   1      44.072  29.399  29.368  1.00  0.00    -0.354 N 
ATOM     21  C   UNL A   1      46.734  26.380  31.574  1.00  0.00     0.074 A 
ATOM     22  C   UNL A   1      47.411  25.842  30.427  1.00  0.00     0.031 C 
ATOM     23  C   UNL A   1      42.873  29.975  27.578  1.00  0.00     0.029 A 
ATOM     24  C   UNL A   1      43.642  30.530  28.676  1.00  0.00     0.049 A 
ATOM     25  H   UNL A   1      44.501  29.445  30.253  1.00  0.00     0.167 HD
ATOM     26  C   UNL A   1      47.222  26.895  32.734  1.00  0.00     0.037 A 
ATOM     27  C   UNL A   1      43.978  31.815  28.963  1.00  0.00     0.037 A 
ATOM     28  C   UNL A   1      46.142  27.283  33.612  1.00  0.00     0.049 A 
ATOM     29  C   UNL A   1      44.472  31.839  30.364  1.00  0.00     0.074 A 
ATOM     30  C   UNL A   1      45.066  26.626  34.178  1.00  0.00     0.029 A 
ATOM     31  N   UNL A   1      45.854  28.622  33.709  1.00  0.00    -0.354 N 
ATOM     32  N   UNL A   1      43.707  31.636  31.400  1.00  0.00    -0.248 NA
ATOM     33  C   UNL A   1      45.892  31.599  30.577  1.00  0.00     0.031 C 
ATOM     34  C   UNL A   1      43.996  27.568  34.140  1.00  0.00     0.029 A 
ATOM     35  C   UNL A   1      44.495  28.768  33.635  1.00  0.00     0.049 A 
ATOM     36  H   UNL A   1      46.510  29.348  33.813  1.00  0.00     0.167 HD
ATOM     37  C   UNL A   1      44.458  30.821  32.233  1.00  0.00     0.074 A 
ATOM     38  C   UNL A   1      45.822  30.891  31.708  1.00  0.00     0.031 C 
ATOM     39  C   UNL A   1      43.854  29.934  33.076  1.00  0.00     0.037 A 
BRANCH  26  40
ATOM     40  C   UNL A   1      48.611  27.493  32.846  1.00  0.00     0.057 A 
ATOM     41  C   UNL A   1      49.383  27.181  33.979  1.00  0.00     0.134 A 
ATOM     42  C   UNL A   1      49.084  28.589  32.092  1.00  0.00     0.134 A 
ATOM     43  F   UNL A   1      49.049  26.157  34.780  1.00  0.00    -0.206 F 
ATOM     44  C   UNL A   1      50.463  27.971  34.395  1.00  0.00     0.040 A 
ATOM     45  C   UNL A   1      50.188  29.355  32.472  1.00  0.00     0.040 A 
ATOM     46  F   UNL A   1      48.464  29.051  31.001  1.00  0.00    -0.206 F 
ATOM     47  C   UNL A   1      50.857  29.073  33.649  1.00  0.00     0.006 A 
ENDBRANCH  26  40
BRANCH  27  48
ATOM     48  C   UNL A   1      44.228  32.939  28.028  1.00  0.00     0.057 A 
ATOM     49  C   UNL A   1      44.990  32.757  26.863  1.00  0.00     0.134 A 
ATOM     50  C   UNL A   1      43.496  34.138  28.099  1.00  0.00     0.134 A 
ATOM     51  F   UNL A   1      45.689  31.628  26.677  1.00  0.00    -0.206 F 
ATOM     52  C   UNL A   1      45.000  33.695  25.821  1.00  0.00     0.040 A 
ATOM     53  C   UNL A   1      43.503  35.085  27.070  1.00  0.00     0.040 A 
ATOM     54  F   UNL A   1      42.674  34.389  29.129  1.00  0.00    -0.206 F 
ATOM     55  C   UNL A   1      44.246  34.859  25.918  1.00  0.00     0.006 A 
ENDBRANCH  27  48
BRANCH  39  56
ATOM     56  C   UNL A   1      42.367  30.049  33.271  1.00  0.00     0.057 A 
ATOM     57  C   UNL A   1      41.410  29.344  32.526  1.00  0.00     0.134 A 
ATOM     58  C   UNL A   1      41.897  30.800  34.353  1.00  0.00     0.134 A 
ATOM     59  F   UNL A   1      41.771  28.520  31.533  1.00  0.00    -0.206 F 
ATOM     60  C   UNL A   1      40.044  29.422  32.818  1.00  0.00     0.040 A 
ATOM     61  C   UNL A   1      40.541  30.857  34.678  1.00  0.00     0.040 A 
ATOM     62  F   UNL A   1      42.759  31.456  35.146  1.00  0.00    -0.206 F 
ATOM     63  C   UNL A   1      39.607  30.177  33.903  1.00  0.00     0.006 A 
ENDBRANCH  39  56
ENDBRANCH  13  14
ENDBRANCH   6   8
ENDBRANCH   5   6
ENDBRANCH   4   5
ENDBRANCH   3   4
ENDBRANCH   2   3
ENDBRANCH   1   2
BRANCH   1  64
ATOM     64  C   UNL A   1      36.804  22.772  24.116  1.00  0.00     0.261 C 
BRANCH  64  65
ATOM     65  O   UNL A   1      35.437  23.028  24.487  1.00  0.00    -0.460 OA
BRANCH  65  66
ATOM     66  C   UNL A   1      34.707  23.710  23.561  1.00  0.00     0.338 C 
ATOM     67  O   UNL A   1      34.381  23.329  22.461  1.00  0.00    -0.246 OA
BRANCH  66  68
ATOM     68  C   UNL A   1      34.118  24.906  24.206  1.00  0.00     0.060 A 
ATOM     69  C   UNL A   1      33.901  26.038  23.399  1.00  0.00     0.018 A 
ATOM     70  C   UNL A   1      33.812  24.935  25.566  1.00  0.00     0.018 A 
ATOM     71  C   UNL A   1      33.349  27.199  23.934  1.00  0.00     0.029 A 
ATOM     72  C   UNL A   1      33.358  26.130  26.128  1.00  0.00     0.029 A 
ATOM     73  C   UNL A   1      33.125  27.250  25.307  1.00  0.00     0.066 A 
BRANCH  73  74
ATOM     74  N   UNL A   1      32.964  28.519  25.888  1.00  0.00    -0.220 N 
ATOM     75  C   UNL A   1      33.898  29.090  26.705  1.00  0.00     0.141 A 
ATOM     76  N   UNL A   1      32.049  29.439  25.534  1.00  0.00    -0.062 NA
ATOM     77  C   UNL A   1      33.486  30.383  26.910  1.00  0.00     0.093 A 
ATOM     78  N   UNL A   1      32.304  30.552  26.224  1.00  0.00    -0.134 NA
BRANCH  77  79
ATOM     79  C   UNL A   1      33.978  31.371  27.899  1.00  0.00     0.138 C 
BRANCH  79  80
ATOM     80  S   UNL A   1      35.660  31.978  27.993  1.00  0.00    -0.081 SA
BRANCH  80  81
ATOM     81  C   UNL A   1      36.795  30.907  28.766  1.00  0.00     0.176 A 
ATOM     82  N   UNL A   1      37.416  30.149  27.909  1.00  0.00    -0.223 NA
ATOM     83  N   UNL A   1      37.060  30.817  30.121  1.00  0.00    -0.255 N 
ATOM     84  C   UNL A   1      38.249  29.132  28.395  1.00  0.00     0.079 A 
ATOM     85  C   UNL A   1      37.262  29.505  30.570  1.00  0.00     0.266 A 
ATOM     86  C   UNL A   1      39.189  28.504  27.578  1.00  0.00     0.029 A 
ATOM     87  C   UNL A   1      38.059  28.648  29.681  1.00  0.00     0.066 A 
ATOM     88  O   UNL A   1      36.833  29.027  31.618  1.00  0.00    -0.268 OA
ATOM     89  C   UNL A   1      39.862  27.361  28.029  1.00  0.00     0.002 A 
ATOM     90  C   UNL A   1      38.671  27.473  30.125  1.00  0.00     0.016 A 
ATOM     91  C   UNL A   1      39.570  26.821  29.285  1.00  0.00     0.001 A 
BRANCH  83  92
ATOM     92  C   UNL A   1      37.120  31.889  31.092  1.00  0.00     0.051 A 
ATOM     93  C   UNL A   1      38.355  32.513  31.368  1.00  0.00     0.028 A 
ATOM     94  C   UNL A   1      36.022  32.364  31.820  1.00  0.00     0.028 A 
ATOM     95  C   UNL A   1      38.540  33.339  32.482  1.00  0.00     0.022 A 
ATOM     96  C   UNL A   1      36.208  33.127  32.985  1.00  0.00     0.022 A 
ATOM     97  C   UNL A   1      37.478  33.570  33.336  1.00  0.00     0.041 A 
ATOM     98  Cl  UNL A   1      37.736  34.367  34.834  1.00  0.00    -0.084 Cl
ENDBRANCH  83  92
ENDBRANCH  80  81
ENDBRANCH  79  80
ENDBRANCH  77  79
ENDBRANCH  73  74
ENDBRANCH  66  68
ENDBRANCH  65  66
ENDBRANCH  64  65
ENDBRANCH   1  64
TORSDOF 19
ENDMDL
MODEL 2
REMARK VINA RESULT:      -9.8      2.611      4.568
REMARK SMILES O=C(OCCOCCOC(=O)c1ccc(-n2cc(CSc3nc4ccccc4c(=O)n3-c3ccc(Cl)cc3)nn2)cc1)c1ccc(-c2c3nc(c(-c4c(F)cccc4F)c4ccc([nH]4)c(-c4c(F)cccc4F)c4nc(c(-c5c(F)cccc5F)c5ccc2[nH]5)C=C4)C=C3)cc1
REMARK SMILES IDX 7 1 6 2 5 3 4 4 3 5 2 6 1 7 43 8 44 9 96 10 45 11 95 12
REMARK SMILES IDX 46 13 47 14 48 15 89 16 49 17 94 18 88 19 90 20 50 21 93 22
REMARK SMILES IDX 87 23 86 24 51 26 77 27 60 28 76 29 61 30 64 31 75 32 91 33
REMARK SMILES IDX 62 34 63 35 74 37 92 38 65 39 52 40 53 41 58 42 54 43 55 44
REMARK SMILES IDX 57 45 59 46 56 47 78 48 79 49 84 50 80 51 81 52 83 53 85 54
REMARK SMILES IDX 82 55 66 56 67 57 72 58 68 59 69 60 71 61 73 62 70 63 8 64
REMARK SMILES IDX 9 65 10 66 11 67 12 68 13 69 42 70 14 71 41 72 15 73 16 74
REMARK SMILES IDX 17 75 40 76 18 77 39 78 19 79 20 80 21 81 22 82 31 83 23 84
REMARK SMILES IDX 29 85 24 86 28 87 30 88 25 89 27 90 26 91 32 92 33 93 38 94
REMARK SMILES IDX 34 95 37 96 35 97 36 98
REMARK H PARENT 90 25 64 36
REMARK Flexibility Score: inf
ROOT
ATOM      1  C   UNL A   1      35.665  22.021  24.924  1.00  0.00     0.202 C 
ENDROOT
BRANCH   1   2
ATOM      2  O   UNL A   1      36.750  21.704  25.809  1.00  0.00    -0.374 OA
BRANCH   2   3
ATOM      3  C   UNL A   1      37.897  21.084  25.243  1.00  0.00     0.202 C 
BRANCH   3   4
ATOM      4  C   UNL A   1      39.282  21.465  25.759  1.00  0.00     0.261 C 
BRANCH   4   5
ATOM      5  O   UNL A   1      39.251  22.376  26.870  1.00  0.00    -0.460 OA
BRANCH   5   6
ATOM      6  C   UNL A   1      39.372  23.717  26.786  1.00  0.00     0.338 C 
ATOM      7  O   UNL A   1      38.392  24.438  26.955  1.00  0.00    -0.246 OA
BRANCH   6   8
ATOM      8  C   UNL A   1      40.725  24.327  26.779  1.00  0.00     0.060 A 
ATOM      9  C   UNL A   1      41.737  24.058  27.698  1.00  0.00     0.016 A 
ATOM     10  C   UNL A   1      40.906  25.354  25.839  1.00  0.00     0.016 A 
ATOM     11  C   UNL A   1      42.742  24.981  27.894  1.00  0.00     0.010 A 
ATOM     12  C   UNL A   1      41.955  26.240  25.976  1.00  0.00     0.010 A 
ATOM     13  C   UNL A   1      42.796  26.104  27.073  1.00  0.00    -0.014 A 
BRANCH  13  14
ATOM     14  C   UNL A   1      43.888  27.033  27.281  1.00  0.00     0.031 A 
ATOM     15  C   UNL A   1      45.190  26.467  26.851  1.00  0.00     0.074 A 
ATOM     16  C   UNL A   1      43.683  28.292  27.715  1.00  0.00     0.049 A 
ATOM     17  N   UNL A   1      46.207  26.180  27.591  1.00  0.00    -0.248 NA
ATOM     18  C   UNL A   1      45.293  25.959  25.469  1.00  0.00     0.031 C 
ATOM     19  C   UNL A   1      42.401  28.968  27.933  1.00  0.00     0.029 A 
ATOM     20  N   UNL A   1      44.589  29.277  27.955  1.00  0.00    -0.354 N 
ATOM     21  C   UNL A   1      47.173  25.691  26.716  1.00  0.00     0.074 A 
ATOM     22  C   UNL A   1      46.491  25.372  25.493  1.00  0.00     0.031 C 
ATOM     23  C   UNL A   1      42.609  30.300  28.031  1.00  0.00     0.029 A 
ATOM     24  C   UNL A   1      44.037  30.556  28.015  1.00  0.00     0.049 A 
ATOM     25  H   UNL A   1      45.550  29.104  28.075  1.00  0.00     0.167 HD
ATOM     26  C   UNL A   1      48.491  25.912  26.967  1.00  0.00     0.037 A 
ATOM     27  C   UNL A   1      44.728  31.724  27.972  1.00  0.00     0.037 A 
ATOM     28  C   UNL A   1      48.705  26.169  28.372  1.00  0.00     0.049 A 
ATOM     29  C   UNL A   1      46.140  31.415  28.316  1.00  0.00     0.074 A 
ATOM     30  C   UNL A   1      48.443  25.475  29.538  1.00  0.00     0.029 A 
ATOM     31  N   UNL A   1      48.916  27.471  28.754  1.00  0.00    -0.354 N 
ATOM     32  N   UNL A   1      46.526  31.042  29.504  1.00  0.00    -0.248 NA
ATOM     33  C   UNL A   1      47.029  31.045  27.225  1.00  0.00     0.031 C 
ATOM     34  C   UNL A   1      48.036  26.469  30.478  1.00  0.00     0.029 A 
ATOM     35  C   UNL A   1      48.153  27.715  29.864  1.00  0.00     0.049 A 
ATOM     36  H   UNL A   1      49.511  28.115  28.307  1.00  0.00     0.167 HD
ATOM     37  C   UNL A   1      47.434  30.021  29.271  1.00  0.00     0.074 A 
ATOM     38  C   UNL A   1      47.759  30.116  27.848  1.00  0.00     0.031 C 
ATOM     39  C   UNL A   1      47.602  29.012  30.176  1.00  0.00     0.037 A 
BRANCH  26  40
ATOM     40  C   UNL A   1      49.462  26.383  25.902  1.00  0.00     0.057 A 
ATOM     41  C   UNL A   1      50.765  25.855  25.904  1.00  0.00     0.134 A 
ATOM     42  C   UNL A   1      49.293  27.538  25.106  1.00  0.00     0.134 A 
ATOM     43  F   UNL A   1      51.061  24.755  26.613  1.00  0.00    -0.206 F 
ATOM     44  C   UNL A   1      51.838  26.495  25.270  1.00  0.00     0.040 A 
ATOM     45  C   UNL A   1      50.348  28.157  24.431  1.00  0.00     0.040 A 
ATOM     46  F   UNL A   1      48.135  28.196  25.005  1.00  0.00    -0.206 F 
ATOM     47  C   UNL A   1      51.633  27.660  24.545  1.00  0.00     0.006 A 
ENDBRANCH  26  40
BRANCH  27  48
ATOM     48  C   UNL A   1      44.344  33.006  27.330  1.00  0.00     0.057 A 
ATOM     49  C   UNL A   1      44.221  33.110  25.936  1.00  0.00     0.134 A 
ATOM     50  C   UNL A   1      43.813  34.075  28.073  1.00  0.00     0.134 A 
ATOM     51  F   UNL A   1      44.656  32.122  25.139  1.00  0.00    -0.206 F 
ATOM     52  C   UNL A   1      43.583  34.196  25.319  1.00  0.00     0.040 A 
ATOM     53  C   UNL A   1      43.181  35.168  27.471  1.00  0.00     0.040 A 
ATOM     54  F   UNL A   1      43.806  34.053  29.414  1.00  0.00    -0.206 F 
ATOM     55  C   UNL A   1      43.050  35.224  26.089  1.00  0.00     0.006 A 
ENDBRANCH  27  48
BRANCH  39  56
ATOM     56  C   UNL A   1      46.981  29.176  31.536  1.00  0.00     0.057 A 
ATOM     57  C   UNL A   1      45.666  28.811  31.860  1.00  0.00     0.134 A 
ATOM     58  C   UNL A   1      47.800  29.591  32.592  1.00  0.00     0.134 A 
ATOM     59  F   UNL A   1      44.837  28.307  30.935  1.00  0.00    -0.206 F 
ATOM     60  C   UNL A   1      45.177  28.901  33.167  1.00  0.00     0.040 A 
ATOM     61  C   UNL A   1      47.336  29.651  33.906  1.00  0.00     0.040 A 
ATOM     62  F   UNL A   1      49.086  29.903  32.367  1.00  0.00    -0.206 F 
ATOM     63  C   UNL A   1      46.016  29.316  34.197  1.00  0.00     0.006 A 
ENDBRANCH  39  56
ENDBRANCH  13  14
ENDBRANCH   6   8
ENDBRANCH   5   6
ENDBRANCH   4   5
ENDBRANCH   3   4
ENDBRANCH   2   3
ENDBRANCH   1   2
BRANCH   1  64
ATOM     64  C   UNL A   1      35.088  23.449  24.851  1.00  0.00     0.261 C 
BRANCH  64  65
ATOM     65  O   UNL A   1      33.813  23.527  24.187  1.00  0.00    -0.460 OA
BRANCH  65  66
ATOM     66  C   UNL A   1      33.720  24.493  23.231  1.00  0.00     0.338 C 
ATOM     67  O   UNL A   1      33.830  24.353  22.035  1.00  0.00    -0.246 OA
BRANCH  66  68
ATOM     68  C   UNL A   1      33.180  25.725  23.851  1.00  0.00     0.060 A 
ATOM     69  C   UNL A   1      33.513  26.954  23.252  1.00  0.00     0.018 A 
ATOM     70  C   UNL A   1      32.393  25.687  25.001  1.00  0.00     0.018 A 
ATOM     71  C   UNL A   1      33.042  28.153  23.777  1.00  0.00     0.029 A 
ATOM     72  C   UNL A   1      32.005  26.892  25.591  1.00  0.00     0.029 A 
ATOM     73  C   UNL A   1      32.328  28.115  24.971  1.00  0.00     0.066 A 
BRANCH  73  74
ATOM     74  N   UNL A   1      32.213  29.314  25.694  1.00  0.00    -0.220 N 
ATOM     75  C   UNL A   1      33.150  29.738  26.592  1.00  0.00     0.141 A 
ATOM     76  N   UNL A   1      31.353  30.315  25.430  1.00  0.00    -0.062 NA
ATOM     77  C   UNL A   1      32.796  31.017  26.939  1.00  0.00     0.093 A 
ATOM     78  N   UNL A   1      31.643  31.326  26.251  1.00  0.00    -0.134 NA
BRANCH  77  79
ATOM     79  C   UNL A   1      33.307  31.858  28.047  1.00  0.00     0.138 C 
BRANCH  79  80
ATOM     80  S   UNL A   1      34.989  32.458  28.188  1.00  0.00    -0.081 SA
BRANCH  80  81
ATOM     81  C   UNL A   1      35.646  32.457  29.800  1.00  0.00     0.176 A 
ATOM     82  N   UNL A   1      34.907  33.136  30.631  1.00  0.00    -0.223 NA
ATOM     83  N   UNL A   1      36.806  31.833  30.223  1.00  0.00    -0.255 N 
ATOM     84  C   UNL A   1      35.386  33.352  31.930  1.00  0.00     0.079 A 
ATOM     85  C   UNL A   1      37.542  32.581  31.153  1.00  0.00     0.266 A 
ATOM     86  C   UNL A   1      34.542  33.766  32.961  1.00  0.00     0.029 A 
ATOM     87  C   UNL A   1      36.748  33.271  32.180  1.00  0.00     0.066 A 
ATOM     88  O   UNL A   1      38.764  32.705  31.173  1.00  0.00    -0.268 OA
ATOM     89  C   UNL A   1      35.079  34.167  34.191  1.00  0.00     0.002 A 
ATOM     90  C   UNL A   1      37.307  33.727  33.376  1.00  0.00     0.016 A 
ATOM     91  C   UNL A   1      36.463  34.190  34.383  1.00  0.00     0.001 A 
BRANCH  83  92
ATOM     92  C   UNL A   1      37.335  30.553  29.804  1.00  0.00     0.051 A 
ATOM     93  C   UNL A   1      37.254  29.444  30.674  1.00  0.00     0.028 A 
ATOM     94  C   UNL A   1      37.957  30.315  28.573  1.00  0.00     0.028 A 
ATOM     95  C   UNL A   1      37.989  28.274  30.460  1.00  0.00     0.022 A 
ATOM     96  C   UNL A   1      38.762  29.180  28.381  1.00  0.00     0.022 A 
ATOM     97  C   UNL A   1      38.811  28.185  29.351  1.00  0.00     0.041 A 
ATOM     98  Cl  UNL A   1      39.908  26.874  29.195  1.00  0.00    -0.084 Cl
ENDBRANCH  83  92
ENDBRANCH  80  81
ENDBRANCH  79  80
ENDBRANCH  77  79
ENDBRANCH  73  74
ENDBRANCH  66  68
ENDBRANCH  65  66
ENDBRANCH  64  65
ENDBRANCH   1  64
TORSDOF 19
ENDMDL
MODEL 3
REMARK VINA RESULT:      -9.5      9.369     15.324
REMARK SMILES O=C(OCCOCCOC(=O)c1ccc(-n2cc(CSc3nc4ccccc4c(=O)n3-c3ccc(Cl)cc3)nn2)cc1)c1ccc(-c2c3nc(c(-c4c(F)cccc4F)c4ccc([nH]4)c(-c4c(F)cccc4F)c4nc(c(-c5c(F)cccc5F)c5ccc2[nH]5)C=C4)C=C3)cc1
REMARK SMILES IDX 7 1 6 2 5 3 4 4 3 5 2 6 1 7 43 8 44 9 96 10 45 11 95 12
REMARK SMILES IDX 46 13 47 14 48 15 89 16 49 17 94 18 88 19 90 20 50 21 93 22
REMARK SMILES IDX 87 23 86 24 51 26 77 27 60 28 76 29 61 30 64 31 75 32 91 33
REMARK SMILES IDX 62 34 63 35 74 37 92 38 65 39 52 40 53 41 58 42 54 43 55 44
REMARK SMILES IDX 57 45 59 46 56 47 78 48 79 49 84 50 80 51 81 52 83 53 85 54
REMARK SMILES IDX 82 55 66 56 67 57 72 58 68 59 69 60 71 61 73 62 70 63 8 64
REMARK SMILES IDX 9 65 10 66 11 67 12 68 13 69 42 70 14 71 41 72 15 73 16 74
REMARK SMILES IDX 17 75 40 76 18 77 39 78 19 79 20 80 21 81 22 82 31 83 23 84
REMARK SMILES IDX 29 85 24 86 28 87 30 88 25 89 27 90 26 91 32 92 33 93 38 94
REMARK SMILES IDX 34 95 37 96 35 97 36 98
REMARK H PARENT 90 25 64 36
REMARK Flexibility Score: inf
ROOT
ATOM      1  C   UNL A   1      44.816  43.265  29.657  1.00  0.00     0.202 C 
ENDROOT
BRANCH   1   2
ATOM      2  O   UNL A   1      43.740  42.318  29.727  1.00  0.00    -0.374 OA
BRANCH   2   3
ATOM      3  C   UNL A   1      43.477  41.718  30.988  1.00  0.00     0.202 C 
BRANCH   3   4
ATOM      4  C   UNL A   1      44.390  40.601  31.489  1.00  0.00     0.261 C 
BRANCH   4   5
ATOM      5  O   UNL A   1      43.944  39.287  31.119  1.00  0.00    -0.460 OA
BRANCH   5   6
ATOM      6  C   UNL A   1      44.290  38.631  29.992  1.00  0.00     0.338 C 
ATOM      7  O   UNL A   1      45.047  39.155  29.180  1.00  0.00    -0.246 OA
BRANCH   6   8
ATOM      8  C   UNL A   1      43.993  37.182  29.872  1.00  0.00     0.060 A 
ATOM      9  C   UNL A   1      43.706  36.511  28.685  1.00  0.00     0.016 A 
ATOM     10  C   UNL A   1      43.860  36.502  31.093  1.00  0.00     0.016 A 
ATOM     11  C   UNL A   1      43.002  35.327  28.724  1.00  0.00     0.010 A 
ATOM     12  C   UNL A   1      43.228  35.277  31.138  1.00  0.00     0.010 A 
ATOM     13  C   UNL A   1      42.707  34.758  29.960  1.00  0.00    -0.014 A 
BRANCH  13  14
ATOM     14  C   UNL A   1      42.000  33.493  29.963  1.00  0.00     0.031 A 
ATOM     15  C   UNL A   1      40.539  33.673  30.140  1.00  0.00     0.074 A 
ATOM     16  C   UNL A   1      42.625  32.325  29.721  1.00  0.00     0.049 A 
ATOM     17  N   UNL A   1      39.813  33.292  31.137  1.00  0.00    -0.248 NA
ATOM     18  C   UNL A   1      39.840  34.572  29.201  1.00  0.00     0.031 C 
ATOM     19  C   UNL A   1      44.018  32.119  29.317  1.00  0.00     0.029 A 
ATOM     20  N   UNL A   1      42.111  31.066  29.685  1.00  0.00    -0.354 N 
ATOM     21  C   UNL A   1      38.516  33.685  30.819  1.00  0.00     0.074 A 
ATOM     22  C   UNL A   1      38.630  34.644  29.756  1.00  0.00     0.031 C 
ATOM     23  C   UNL A   1      44.166  30.862  28.843  1.00  0.00     0.029 A 
ATOM     24  C   UNL A   1      42.923  30.138  29.034  1.00  0.00     0.049 A 
ATOM     25  H   UNL A   1      41.242  30.830  30.083  1.00  0.00     0.167 HD
ATOM     26  C   UNL A   1      37.459  32.935  31.231  1.00  0.00     0.037 A 
ATOM     27  C   UNL A   1      42.545  28.900  28.622  1.00  0.00     0.037 A 
ATOM     28  C   UNL A   1      37.821  32.131  32.375  1.00  0.00     0.049 A 
ATOM     29  C   UNL A   1      41.316  28.541  29.375  1.00  0.00     0.074 A 
ATOM     30  C   UNL A   1      38.315  32.402  33.637  1.00  0.00     0.029 A 
ATOM     31  N   UNL A   1      38.060  30.796  32.162  1.00  0.00    -0.354 N 
ATOM     32  N   UNL A   1      41.302  28.297  30.656  1.00  0.00    -0.248 NA
ATOM     33  C   UNL A   1      40.039  28.937  28.800  1.00  0.00     0.031 C 
ATOM     34  C   UNL A   1      39.242  31.352  33.906  1.00  0.00     0.029 A 
ATOM     35  C   UNL A   1      39.200  30.457  32.838  1.00  0.00     0.049 A 
ATOM     36  H   UNL A   1      37.507  30.190  31.618  1.00  0.00     0.167 HD
ATOM     37  C   UNL A   1      40.165  28.938  31.121  1.00  0.00     0.074 A 
ATOM     38  C   UNL A   1      39.387  29.253  29.923  1.00  0.00     0.031 C 
ATOM     39  C   UNL A   1      40.104  29.422  32.396  1.00  0.00     0.037 A 
BRANCH  26  40
ATOM     40  C   UNL A   1      36.307  32.568  30.315  1.00  0.00     0.057 A 
ATOM     41  C   UNL A   1      36.603  31.977  29.073  1.00  0.00     0.134 A 
ATOM     42  C   UNL A   1      34.987  33.053  30.439  1.00  0.00     0.134 A 
ATOM     43  F   UNL A   1      37.820  31.468  28.826  1.00  0.00    -0.206 F 
ATOM     44  C   UNL A   1      35.700  31.982  28.003  1.00  0.00     0.040 A 
ATOM     45  C   UNL A   1      34.063  33.021  29.392  1.00  0.00     0.040 A 
ATOM     46  F   UNL A   1      34.533  33.672  31.533  1.00  0.00    -0.206 F 
ATOM     47  C   UNL A   1      34.430  32.522  28.156  1.00  0.00     0.006 A 
ENDBRANCH  26  40
BRANCH  27  48
ATOM     48  C   UNL A   1      42.956  28.163  27.402  1.00  0.00     0.057 A 
ATOM     49  C   UNL A   1      43.812  27.054  27.480  1.00  0.00     0.134 A 
ATOM     50  C   UNL A   1      42.300  28.345  26.171  1.00  0.00     0.134 A 
ATOM     51  F   UNL A   1      44.451  26.767  28.624  1.00  0.00    -0.206 F 
ATOM     52  C   UNL A   1      43.984  26.164  26.410  1.00  0.00     0.040 A 
ATOM     53  C   UNL A   1      42.468  27.469  25.094  1.00  0.00     0.040 A 
ATOM     54  F   UNL A   1      41.402  29.326  26.002  1.00  0.00    -0.206 F 
ATOM     55  C   UNL A   1      43.301  26.364  25.215  1.00  0.00     0.006 A 
ENDBRANCH  27  48
BRANCH  39  56
ATOM     56  C   UNL A   1      41.186  29.011  33.357  1.00  0.00     0.057 A 
ATOM     57  C   UNL A   1      41.212  27.794  34.053  1.00  0.00     0.134 A 
ATOM     58  C   UNL A   1      42.317  29.827  33.469  1.00  0.00     0.134 A 
ATOM     59  F   UNL A   1      40.220  26.901  33.930  1.00  0.00    -0.206 F 
ATOM     60  C   UNL A   1      42.295  27.430  34.861  1.00  0.00     0.040 A 
ATOM     61  C   UNL A   1      43.419  29.459  34.241  1.00  0.00     0.040 A 
ATOM     62  F   UNL A   1      42.387  30.981  32.786  1.00  0.00    -0.206 F 
ATOM     63  C   UNL A   1      43.407  28.262  34.951  1.00  0.00     0.006 A 
ENDBRANCH  39  56
ENDBRANCH  13  14
ENDBRANCH   6   8
ENDBRANCH   5   6
ENDBRANCH   4   5
ENDBRANCH   3   4
ENDBRANCH   2   3
ENDBRANCH   1   2
BRANCH   1  64
ATOM     64  C   UNL A   1      45.573  43.514  28.336  1.00  0.00     0.261 C 
BRANCH  64  65
ATOM     65  O   UNL A   1      44.769  43.309  27.159  1.00  0.00    -0.460 OA
BRANCH  65  66
ATOM     66  C   UNL A   1      45.099  42.214  26.421  1.00  0.00     0.338 C 
ATOM     67  O   UNL A   1      45.674  41.221  26.801  1.00  0.00    -0.246 OA
BRANCH  66  68
ATOM     68  C   UNL A   1      44.397  42.289  25.118  1.00  0.00     0.060 A 
ATOM     69  C   UNL A   1      45.109  42.818  24.027  1.00  0.00     0.018 A 
ATOM     70  C   UNL A   1      43.072  41.882  24.971  1.00  0.00     0.018 A 
ATOM     71  C   UNL A   1      44.516  42.919  22.771  1.00  0.00     0.029 A 
ATOM     72  C   UNL A   1      42.440  42.079  23.741  1.00  0.00     0.029 A 
ATOM     73  C   UNL A   1      43.169  42.591  22.650  1.00  0.00     0.066 A 
BRANCH  73  74
ATOM     74  N   UNL A   1      42.486  43.070  21.519  1.00  0.00    -0.220 N 
ATOM     75  C   UNL A   1      43.072  43.199  20.292  1.00  0.00     0.141 A 
ATOM     76  N   UNL A   1      41.153  43.207  21.401  1.00  0.00    -0.062 NA
ATOM     77  C   UNL A   1      42.060  43.500  19.416  1.00  0.00     0.093 A 
ATOM     78  N   UNL A   1      40.891  43.561  20.142  1.00  0.00    -0.134 NA
BRANCH  77  79
ATOM     79  C   UNL A   1      42.151  43.983  18.018  1.00  0.00     0.138 C 
BRANCH  79  80
ATOM     80  S   UNL A   1      43.680  44.264  17.128  1.00  0.00    -0.081 SA
BRANCH  80  81
ATOM     81  C   UNL A   1      44.439  45.804  17.422  1.00  0.00     0.176 A 
ATOM     82  N   UNL A   1      43.753  46.792  16.922  1.00  0.00    -0.223 NA
ATOM     83  N   UNL A   1      45.625  46.028  18.098  1.00  0.00    -0.255 N 
ATOM     84  C   UNL A   1      44.314  48.076  16.948  1.00  0.00     0.079 A 
ATOM     85  C   UNL A   1      46.417  47.034  17.528  1.00  0.00     0.266 A 
ATOM     86  C   UNL A   1      43.537  49.217  16.746  1.00  0.00     0.029 A 
ATOM     87  C   UNL A   1      45.690  48.220  17.055  1.00  0.00     0.066 A 
ATOM     88  O   UNL A   1      47.638  47.000  17.393  1.00  0.00    -0.268 OA
ATOM     89  C   UNL A   1      44.151  50.465  16.576  1.00  0.00     0.002 A 
ATOM     90  C   UNL A   1      46.323  49.444  16.823  1.00  0.00     0.016 A 
ATOM     91  C   UNL A   1      45.544  50.570  16.571  1.00  0.00     0.001 A 
BRANCH  83  92
ATOM     92  C   UNL A   1      46.129  45.342  19.269  1.00  0.00     0.051 A 
ATOM     93  C   UNL A   1      46.018  45.951  20.537  1.00  0.00     0.028 A 
ATOM     94  C   UNL A   1      46.754  44.090  19.249  1.00  0.00     0.028 A 
ATOM     95  C   UNL A   1      46.728  45.490  21.650  1.00  0.00     0.022 A 
ATOM     96  C   UNL A   1      47.535  43.659  20.334  1.00  0.00     0.022 A 
ATOM     97  C   UNL A   1      47.556  44.391  21.516  1.00  0.00     0.041 A 
ATOM     98  Cl  UNL A   1      48.624  43.957  22.787  1.00  0.00    -0.084 Cl
ENDBRANCH  83  92
ENDBRANCH  80  81
ENDBRANCH  79  80
ENDBRANCH  77  79
ENDBRANCH  73  74
ENDBRANCH  66  68
ENDBRANCH  65  66
ENDBRANCH  64  65
ENDBRANCH   1  64
TORSDOF 19
ENDMDL
