MODEL 1
REMARK VINA RESULT:     -11.1      0.000      0.000
REMARK SMILES CC(C)c1ccc(OCC[C@H]2CCC[C@@]2([NH3+])C(=O)OCCOCCOC(=O)c2ccc(-c3c4nc(c(-c5c(F)cccc5F)c5ccc([nH]5)c(-c5c(F)cccc5F)c5nc(c(-c6c(F)cccc6F)c6ccc3[nH]6)C=C5)C=C4)cc2)cc1
REMARK SMILES IDX 20 1 19 2 17 3 18 4 15 5 11 6 12 7 13 8 14 9 10 10 9 11 8 12
REMARK SMILES IDX 7 13 4 14 5 15 83 16 6 17 82 18 2 19 1 20 3 21 16 22 21 26
REMARK SMILES IDX 22 27 23 28 24 29 25 30 26 31 27 32 28 33 29 34 81 35 30 36
REMARK SMILES IDX 80 37 31 38 32 39 33 40 74 41 34 42 79 43 73 44 75 45 35 46
REMARK SMILES IDX 78 47 72 48 71 49 36 51 62 52 45 53 61 54 46 55 49 56 60 57
REMARK SMILES IDX 76 58 47 59 48 60 59 62 77 63 50 64 37 65 38 66 43 67 39 68
REMARK SMILES IDX 40 69 42 70 44 71 41 72 63 73 64 74 69 75 65 76 66 77 68 78
REMARK SMILES IDX 70 79 67 80 51 81 52 82 57 83 53 84 54 85 56 86 58 87 55 88
REMARK H PARENT 16 23 16 24 16 25 75 50 49 61
REMARK Flexibility Score: inf
ROOT
ATOM      1  C   UNL A   1      32.135  28.506  26.212  1.00  0.00     0.261 C 
ENDROOT
BRANCH   1   2
ATOM      2  O   UNL A   1      31.063  28.822  25.314  1.00  0.00    -0.459 OA
BRANCH   2   3
ATOM      3  C   UNL A   1      31.467  28.940  24.014  1.00  0.00     0.368 C 
ATOM      4  O   UNL A   1      32.562  28.543  23.636  1.00  0.00    -0.245 OA
BRANCH   3   5
ATOM      5  C   UNL A   1      30.364  29.570  23.062  1.00  0.00     0.195 C 
ATOM      6  C   UNL A   1      29.051  28.153  22.743  1.00  0.00     0.066 C 
ATOM      7  C   UNL A   1      27.237  28.925  22.866  1.00  0.00     0.011 C 
ATOM      8  C   UNL A   1      27.467  30.928  23.808  1.00  0.00     0.008 C 
ATOM      9  C   UNL A   1      29.489  31.204  23.791  1.00  0.00     0.081 C 
BRANCH   6  10
ATOM     10  C   UNL A   1      28.945  26.941  23.850  1.00  0.00     0.052 C 
BRANCH  10  11
ATOM     11  C   UNL A   1      29.992  25.706  23.913  1.00  0.00     0.230 C 
BRANCH  11  12
ATOM     12  O   UNL A   1      30.608  25.335  25.187  1.00  0.00    -0.494 OA
BRANCH  12  13
ATOM     13  C   UNL A   1      31.630  24.415  25.016  1.00  0.00     0.119 A 
ATOM     14  C   UNL A   1      35.232  23.917  24.757  1.00  0.00    -0.045 A 
ATOM     15  C   UNL A   1      34.313  23.776  26.191  1.00  0.00     0.008 A 
ATOM     16  C   UNL A   1      34.334  24.345  23.308  1.00  0.00     0.008 A 
ATOM     17  C   UNL A   1      32.617  24.013  26.314  1.00  0.00     0.047 A 
ATOM     18  C   UNL A   1      32.351  24.492  23.500  1.00  0.00     0.047 A 
BRANCH  14  19
ATOM     19  C   UNL A   1      36.656  23.419  24.687  1.00  0.00     0.013 C 
ATOM     20  C   UNL A   1      37.479  23.878  25.882  1.00  0.00     0.012 C 
ATOM     21  C   UNL A   1      36.679  21.887  24.587  1.00  0.00     0.012 C 
ENDBRANCH  14  19
ENDBRANCH  12  13
ENDBRANCH  11  12
ENDBRANCH  10  11
ENDBRANCH   6  10
BRANCH   5  22
ATOM     22  N   UNL A   1      31.103  29.879  21.794  1.00  0.00    -0.343 N 
ATOM     23  H   UNL A   1      32.081  29.608  21.896  1.00  0.00     0.345 HD
ATOM     24  H   UNL A   1      31.046  30.880  21.604  1.00  0.00     0.345 HD
ATOM     25  H   UNL A   1      30.684  29.361  21.021  1.00  0.00     0.345 HD
ENDBRANCH   5  22
ENDBRANCH   3   5
ENDBRANCH   2   3
ENDBRANCH   1   2
BRANCH   1  26
ATOM     26  C   UNL A   1      32.417  29.616  27.227  1.00  0.00     0.202 C 
BRANCH  26  27
ATOM     27  O   UNL A   1      32.736  30.934  26.798  1.00  0.00    -0.374 OA
BRANCH  27  28
ATOM     28  C   UNL A   1      31.748  31.954  26.856  1.00  0.00     0.202 C 
BRANCH  28  29
ATOM     29  C   UNL A   1      32.141  33.428  27.015  1.00  0.00     0.261 C 
BRANCH  29  30
ATOM     30  O   UNL A   1      32.240  33.869  28.373  1.00  0.00    -0.460 OA
BRANCH  30  31
ATOM     31  C   UNL A   1      33.341  34.623  28.610  1.00  0.00     0.338 C 
ATOM     32  O   UNL A   1      33.394  35.830  28.772  1.00  0.00    -0.246 OA
BRANCH  31  33
ATOM     33  C   UNL A   1      34.500  33.753  28.847  1.00  0.00     0.060 A 
ATOM     34  C   UNL A   1      34.260  32.501  29.427  1.00  0.00     0.016 A 
ATOM     35  C   UNL A   1      35.798  34.200  28.607  1.00  0.00     0.016 A 
ATOM     36  C   UNL A   1      35.326  31.710  29.830  1.00  0.00     0.010 A 
ATOM     37  C   UNL A   1      36.869  33.407  29.021  1.00  0.00     0.010 A 
ATOM     38  C   UNL A   1      36.633  32.182  29.672  1.00  0.00    -0.014 A 
BRANCH  38  39
ATOM     39  C   UNL A   1      37.745  31.452  30.315  1.00  0.00     0.031 A 
ATOM     40  C   UNL A   1      38.069  31.729  31.754  1.00  0.00     0.074 A 
ATOM     41  C   UNL A   1      38.429  30.527  29.621  1.00  0.00     0.049 A 
ATOM     42  N   UNL A   1      39.027  31.239  32.497  1.00  0.00    -0.248 NA
ATOM     43  C   UNL A   1      37.201  32.694  32.449  1.00  0.00     0.031 C 
ATOM     44  C   UNL A   1      38.165  30.149  28.233  1.00  0.00     0.029 A 
ATOM     45  N   UNL A   1      39.488  29.742  29.991  1.00  0.00    -0.354 N 
ATOM     46  C   UNL A   1      38.886  31.843  33.739  1.00  0.00     0.074 A 
ATOM     47  C   UNL A   1      37.776  32.765  33.640  1.00  0.00     0.031 C 
ATOM     48  C   UNL A   1      39.046  29.204  27.866  1.00  0.00     0.029 A 
ATOM     49  C   UNL A   1      39.960  28.949  28.975  1.00  0.00     0.049 A 
ATOM     50  H   UNL A   1      39.874  29.747  30.897  1.00  0.00     0.167 HD
ATOM     51  C   UNL A   1      39.615  31.637  34.862  1.00  0.00     0.037 A 
ATOM     52  C   UNL A   1      41.029  28.133  28.940  1.00  0.00     0.037 A 
ATOM     53  C   UNL A   1      40.722  30.718  34.941  1.00  0.00     0.049 A 
ATOM     54  C   UNL A   1      41.877  27.990  30.176  1.00  0.00     0.074 A 
ATOM     55  C   UNL A   1      41.517  30.420  36.032  1.00  0.00     0.029 A 
ATOM     56  N   UNL A   1      41.198  29.961  33.880  1.00  0.00    -0.354 N 
ATOM     57  N   UNL A   1      41.725  28.543  31.356  1.00  0.00    -0.248 NA
ATOM     58  C   UNL A   1      43.044  27.103  30.076  1.00  0.00     0.031 C 
ATOM     59  C   UNL A   1      42.521  29.542  35.614  1.00  0.00     0.029 A 
ATOM     60  C   UNL A   1      42.300  29.225  34.283  1.00  0.00     0.049 A 
ATOM     61  H   UNL A   1      40.810  29.948  32.976  1.00  0.00     0.167 HD
ATOM     62  C   UNL A   1      42.753  28.046  32.147  1.00  0.00     0.074 A 
ATOM     63  C   UNL A   1      43.511  27.134  31.315  1.00  0.00     0.031 C 
ATOM     64  C   UNL A   1      43.043  28.317  33.443  1.00  0.00     0.037 A 
BRANCH  51  65
ATOM     65  C   UNL A   1      39.264  32.444  36.081  1.00  0.00     0.057 A 
ATOM     66  C   UNL A   1      39.803  33.716  36.316  1.00  0.00     0.134 A 
ATOM     67  C   UNL A   1      38.346  31.952  37.017  1.00  0.00     0.134 A 
ATOM     68  F   UNL A   1      40.697  34.245  35.467  1.00  0.00    -0.206 F 
ATOM     69  C   UNL A   1      39.463  34.456  37.451  1.00  0.00     0.040 A 
ATOM     70  C   UNL A   1      37.972  32.697  38.137  1.00  0.00     0.040 A 
ATOM     71  F   UNL A   1      37.785  30.744  36.854  1.00  0.00    -0.206 F 
ATOM     72  C   UNL A   1      38.538  33.949  38.362  1.00  0.00     0.006 A 
ENDBRANCH  51  65
BRANCH  52  73
ATOM     73  C   UNL A   1      41.368  27.405  27.692  1.00  0.00     0.057 A 
ATOM     74  C   UNL A   1      42.199  27.977  26.721  1.00  0.00     0.134 A 
ATOM     75  C   UNL A   1      40.855  26.129  27.428  1.00  0.00     0.134 A 
ATOM     76  F   UNL A   1      42.710  29.204  26.908  1.00  0.00    -0.206 F 
ATOM     77  C   UNL A   1      42.486  27.320  25.525  1.00  0.00     0.040 A 
ATOM     78  C   UNL A   1      41.161  25.445  26.251  1.00  0.00     0.040 A 
ATOM     79  F   UNL A   1      40.057  25.521  28.319  1.00  0.00    -0.206 F 
ATOM     80  C   UNL A   1      41.969  26.047  25.289  1.00  0.00     0.006 A 
ENDBRANCH  52  73
BRANCH  64  81
ATOM     81  C   UNL A   1      44.202  27.583  34.060  1.00  0.00     0.057 A 
ATOM     82  C   UNL A   1      44.060  26.316  34.640  1.00  0.00     0.134 A 
ATOM     83  C   UNL A   1      45.487  28.142  34.040  1.00  0.00     0.134 A 
ATOM     84  F   UNL A   1      42.856  25.726  34.702  1.00  0.00    -0.206 F 
ATOM     85  C   UNL A   1      45.146  25.647  35.208  1.00  0.00     0.040 A 
ATOM     86  C   UNL A   1      46.587  27.466  34.569  1.00  0.00     0.040 A 
ATOM     87  F   UNL A   1      45.699  29.347  33.489  1.00  0.00    -0.206 F 
ATOM     88  C   UNL A   1      46.416  26.220  35.165  1.00  0.00     0.006 A 
ENDBRANCH  64  81
ENDBRANCH  38  39
ENDBRANCH  31  33
ENDBRANCH  30  31
ENDBRANCH  29  30
ENDBRANCH  28  29
ENDBRANCH  27  28
ENDBRANCH  26  27
ENDBRANCH   1  26
TORSDOF 20
ENDMDL
MODEL 2
REMARK VINA RESULT:     -11.0      0.292      6.176
REMARK SMILES CC(C)c1ccc(OCC[C@H]2CCC[C@@]2([NH3+])C(=O)OCCOCCOC(=O)c2ccc(-c3c4nc(c(-c5c(F)cccc5F)c5ccc([nH]5)c(-c5c(F)cccc5F)c5nc(c(-c6c(F)cccc6F)c6ccc3[nH]6)C=C5)C=C4)cc2)cc1
REMARK SMILES IDX 20 1 19 2 17 3 18 4 15 5 11 6 12 7 13 8 14 9 10 10 9 11 8 12
REMARK SMILES IDX 7 13 4 14 5 15 83 16 6 17 82 18 2 19 1 20 3 21 16 22 21 26
REMARK SMILES IDX 22 27 23 28 24 29 25 30 26 31 27 32 28 33 29 34 81 35 30 36
REMARK SMILES IDX 80 37 31 38 32 39 33 40 74 41 34 42 79 43 73 44 75 45 35 46
REMARK SMILES IDX 78 47 72 48 71 49 36 51 62 52 45 53 61 54 46 55 49 56 60 57
REMARK SMILES IDX 76 58 47 59 48 60 59 62 77 63 50 64 37 65 38 66 43 67 39 68
REMARK SMILES IDX 40 69 42 70 44 71 41 72 63 73 64 74 69 75 65 76 66 77 68 78
REMARK SMILES IDX 70 79 67 80 51 81 52 82 57 83 53 84 54 85 56 86 58 87 55 88
REMARK H PARENT 16 23 16 24 16 25 75 50 49 61
REMARK Flexibility Score: inf
ROOT
ATOM      1  C   UNL A   1      32.124  28.464  26.202  1.00  0.00     0.261 C 
ENDROOT
BRANCH   1   2
ATOM      2  O   UNL A   1      31.061  28.874  25.330  1.00  0.00    -0.459 OA
BRANCH   2   3
ATOM      3  C   UNL A   1      31.456  29.019  24.031  1.00  0.00     0.368 C 
ATOM      4  O   UNL A   1      32.557  28.650  23.642  1.00  0.00    -0.245 OA
BRANCH   3   5
ATOM      5  C   UNL A   1      30.335  29.639  23.093  1.00  0.00     0.195 C 
ATOM      6  C   UNL A   1      29.040  28.206  22.776  1.00  0.00     0.066 C 
ATOM      7  C   UNL A   1      27.216  28.952  22.921  1.00  0.00     0.011 C 
ATOM      8  C   UNL A   1      27.427  30.951  23.875  1.00  0.00     0.008 C 
ATOM      9  C   UNL A   1      29.444  31.256  23.842  1.00  0.00     0.081 C 
BRANCH   6  10
ATOM     10  C   UNL A   1      28.961  26.985  23.875  1.00  0.00     0.052 C 
BRANCH  10  11
ATOM     11  C   UNL A   1      29.972  25.720  23.866  1.00  0.00     0.230 C 
BRANCH  11  12
ATOM     12  O   UNL A   1      30.502  25.199  25.127  1.00  0.00    -0.494 OA
BRANCH  12  13
ATOM     13  C   UNL A   1      31.548  24.314  24.919  1.00  0.00     0.119 A 
ATOM     14  C   UNL A   1      35.167  23.889  24.817  1.00  0.00    -0.045 A 
ATOM     15  C   UNL A   1      34.172  23.585  26.172  1.00  0.00     0.008 A 
ATOM     16  C   UNL A   1      34.345  24.458  23.371  1.00  0.00     0.008 A 
ATOM     17  C   UNL A   1      32.468  23.788  26.221  1.00  0.00     0.047 A 
ATOM     18  C   UNL A   1      32.352  24.560  23.464  1.00  0.00     0.047 A 
BRANCH  14  19
ATOM     19  C   UNL A   1      36.601  23.417  24.777  1.00  0.00     0.013 C 
ATOM     20  C   UNL A   1      37.360  23.796  26.041  1.00  0.00     0.012 C 
ATOM     21  C   UNL A   1      36.656  21.898  24.563  1.00  0.00     0.012 C 
ENDBRANCH  14  19
ENDBRANCH  12  13
ENDBRANCH  11  12
ENDBRANCH  10  11
ENDBRANCH   6  10
BRANCH   5  22
ATOM     22  N   UNL A   1      31.058  29.968  21.821  1.00  0.00    -0.343 N 
ATOM     23  H   UNL A   1      30.864  30.935  21.560  1.00  0.00     0.345 HD
ATOM     24  H   UNL A   1      30.738  29.346  21.078  1.00  0.00     0.345 HD
ATOM     25  H   UNL A   1      32.062  29.846  21.959  1.00  0.00     0.345 HD
ENDBRANCH   5  22
ENDBRANCH   3   5
ENDBRANCH   2   3
ENDBRANCH   1   2
BRANCH   1  26
ATOM     26  C   UNL A   1      32.491  29.524  27.243  1.00  0.00     0.202 C 
BRANCH  26  27
ATOM     27  O   UNL A   1      32.798  30.857  26.850  1.00  0.00    -0.374 OA
BRANCH  27  28
ATOM     28  C   UNL A   1      31.780  31.849  26.866  1.00  0.00     0.202 C 
BRANCH  28  29
ATOM     29  C   UNL A   1      32.130  33.339  26.966  1.00  0.00     0.261 C 
BRANCH  29  30
ATOM     30  O   UNL A   1      32.177  33.845  28.305  1.00  0.00    -0.460 OA
BRANCH  30  31
ATOM     31  C   UNL A   1      33.256  34.631  28.540  1.00  0.00     0.338 C 
ATOM     32  O   UNL A   1      33.282  35.845  28.646  1.00  0.00    -0.246 OA
BRANCH  31  33
ATOM     33  C   UNL A   1      34.424  33.795  28.852  1.00  0.00     0.060 A 
ATOM     34  C   UNL A   1      34.196  32.603  29.552  1.00  0.00     0.016 A 
ATOM     35  C   UNL A   1      35.717  34.227  28.563  1.00  0.00     0.016 A 
ATOM     36  C   UNL A   1      35.269  31.863  30.023  1.00  0.00     0.010 A 
ATOM     37  C   UNL A   1      36.796  33.485  29.046  1.00  0.00     0.010 A 
ATOM     38  C   UNL A   1      36.573  32.327  29.813  1.00  0.00    -0.014 A 
BRANCH  38  39
ATOM     39  C   UNL A   1      37.693  31.669  30.516  1.00  0.00     0.031 A 
ATOM     40  C   UNL A   1      38.523  30.655  29.783  1.00  0.00     0.074 A 
ATOM     41  C   UNL A   1      37.980  32.008  31.784  1.00  0.00     0.049 A 
ATOM     42  N   UNL A   1      39.518  29.927  30.221  1.00  0.00    -0.248 NA
ATOM     43  C   UNL A   1      38.182  30.423  28.370  1.00  0.00     0.031 C 
ATOM     44  C   UNL A   1      37.265  33.013  32.570  1.00  0.00     0.029 A 
ATOM     45  N   UNL A   1      38.946  31.537  32.632  1.00  0.00    -0.354 N 
ATOM     46  C   UNL A   1      39.913  29.145  29.144  1.00  0.00     0.074 A 
ATOM     47  C   UNL A   1      39.026  29.456  28.044  1.00  0.00     0.031 C 
ATOM     48  C   UNL A   1      37.817  33.080  33.792  1.00  0.00     0.029 A 
ATOM     49  C   UNL A   1      38.888  32.092  33.886  1.00  0.00     0.049 A 
ATOM     50  H   UNL A   1      39.616  30.865  32.369  1.00  0.00     0.167 HD
ATOM     51  C   UNL A   1      40.931  28.254  29.080  1.00  0.00     0.037 A 
ATOM     52  C   UNL A   1      39.601  31.809  34.991  1.00  0.00     0.037 A 
ATOM     53  C   UNL A   1      41.801  27.952  30.188  1.00  0.00     0.049 A 
ATOM     54  C   UNL A   1      40.669  30.750  34.918  1.00  0.00     0.074 A 
ATOM     55  C   UNL A   1      42.873  27.080  30.227  1.00  0.00     0.029 A 
ATOM     56  N   UNL A   1      41.688  28.505  31.456  1.00  0.00    -0.354 N 
ATOM     57  N   UNL A   1      41.055  30.031  33.891  1.00  0.00    -0.248 NA
ATOM     58  C   UNL A   1      41.402  30.466  36.158  1.00  0.00     0.031 C 
ATOM     59  C   UNL A   1      43.360  27.046  31.536  1.00  0.00     0.029 A 
ATOM     60  C   UNL A   1      42.647  27.962  32.294  1.00  0.00     0.049 A 
ATOM     61  H   UNL A   1      41.025  29.182  31.720  1.00  0.00     0.167 HD
ATOM     62  C   UNL A   1      42.098  29.237  34.351  1.00  0.00     0.074 A 
ATOM     63  C   UNL A   1      42.293  29.577  35.746  1.00  0.00     0.031 C 
ATOM     64  C   UNL A   1      42.830  28.313  33.682  1.00  0.00     0.037 A 
BRANCH  51  65
ATOM     65  C   UNL A   1      41.135  27.517  27.786  1.00  0.00     0.057 A 
ATOM     66  C   UNL A   1      41.949  28.017  26.761  1.00  0.00     0.134 A 
ATOM     67  C   UNL A   1      40.532  26.269  27.578  1.00  0.00     0.134 A 
ATOM     68  F   UNL A   1      42.548  29.210  26.888  1.00  0.00    -0.206 F 
ATOM     69  C   UNL A   1      42.132  27.317  25.566  1.00  0.00     0.040 A 
ATOM     70  C   UNL A   1      40.737  25.545  26.402  1.00  0.00     0.040 A 
ATOM     71  F   UNL A   1      39.746  25.726  28.518  1.00  0.00    -0.206 F 
ATOM     72  C   UNL A   1      41.532  26.073  25.388  1.00  0.00     0.006 A 
ENDBRANCH  51  65
BRANCH  52  73
ATOM     73  C   UNL A   1      39.319  32.523  36.261  1.00  0.00     0.057 A 
ATOM     74  C   UNL A   1      38.408  32.014  37.194  1.00  0.00     0.134 A 
ATOM     75  C   UNL A   1      39.937  33.743  36.566  1.00  0.00     0.134 A 
ATOM     76  F   UNL A   1      37.771  30.857  36.953  1.00  0.00    -0.206 F 
ATOM     77  C   UNL A   1      38.102  32.701  38.368  1.00  0.00     0.040 A 
ATOM     78  C   UNL A   1      39.667  34.424  37.753  1.00  0.00     0.040 A 
ATOM     79  F   UNL A   1      40.825  34.284  35.719  1.00  0.00    -0.206 F 
ATOM     80  C   UNL A   1      38.736  33.910  38.653  1.00  0.00     0.006 A 
ENDBRANCH  52  73
BRANCH  64  81
ATOM     81  C   UNL A   1      43.943  27.636  34.434  1.00  0.00     0.057 A 
ATOM     82  C   UNL A   1      45.223  28.195  34.538  1.00  0.00     0.134 A 
ATOM     83  C   UNL A   1      43.716  26.419  35.092  1.00  0.00     0.134 A 
ATOM     84  F   UNL A   1      45.513  29.353  33.924  1.00  0.00    -0.206 F 
ATOM     85  C   UNL A   1      46.245  27.554  35.241  1.00  0.00     0.040 A 
ATOM     86  C   UNL A   1      44.718  25.789  35.830  1.00  0.00     0.040 A 
ATOM     87  F   UNL A   1      42.510  25.832  35.046  1.00  0.00    -0.206 F 
ATOM     88  C   UNL A   1      45.990  26.351  35.897  1.00  0.00     0.006 A 
ENDBRANCH  64  81
ENDBRANCH  38  39
ENDBRANCH  31  33
ENDBRANCH  30  31
ENDBRANCH  29  30
ENDBRANCH  28  29
ENDBRANCH  27  28
ENDBRANCH  26  27
ENDBRANCH   1  26
TORSDOF 20
ENDMDL
MODEL 3
REMARK VINA RESULT:     -10.5      1.440      2.247
REMARK SMILES CC(C)c1ccc(OCC[C@H]2CCC[C@@]2([NH3+])C(=O)OCCOCCOC(=O)c2ccc(-c3c4nc(c(-c5c(F)cccc5F)c5ccc([nH]5)c(-c5c(F)cccc5F)c5nc(c(-c6c(F)cccc6F)c6ccc3[nH]6)C=C5)C=C4)cc2)cc1
REMARK SMILES IDX 20 1 19 2 17 3 18 4 15 5 11 6 12 7 13 8 14 9 10 10 9 11 8 12
REMARK SMILES IDX 7 13 4 14 5 15 83 16 6 17 82 18 2 19 1 20 3 21 16 22 21 26
REMARK SMILES IDX 22 27 23 28 24 29 25 30 26 31 27 32 28 33 29 34 81 35 30 36
REMARK SMILES IDX 80 37 31 38 32 39 33 40 74 41 34 42 79 43 73 44 75 45 35 46
REMARK SMILES IDX 78 47 72 48 71 49 36 51 62 52 45 53 61 54 46 55 49 56 60 57
REMARK SMILES IDX 76 58 47 59 48 60 59 62 77 63 50 64 37 65 38 66 43 67 39 68
REMARK SMILES IDX 40 69 42 70 44 71 41 72 63 73 64 74 69 75 65 76 66 77 68 78
REMARK SMILES IDX 70 79 67 80 51 81 52 82 57 83 53 84 54 85 56 86 58 87 55 88
REMARK H PARENT 16 23 16 24 16 25 75 50 49 61
REMARK Flexibility Score: inf
ROOT
ATOM      1  C   UNL A   1      33.057  28.255  25.768  1.00  0.00     0.261 C 
ENDROOT
BRANCH   1   2
ATOM      2  O   UNL A   1      32.486  28.523  24.480  1.00  0.00    -0.459 OA
BRANCH   2   3
ATOM      3  C   UNL A   1      32.507  27.441  23.645  1.00  0.00     0.368 C 
ATOM      4  O   UNL A   1      33.448  26.658  23.622  1.00  0.00    -0.245 OA
BRANCH   3   5
ATOM      5  C   UNL A   1      31.183  27.279  22.784  1.00  0.00     0.195 C 
ATOM      6  C   UNL A   1      29.997  26.122  23.825  1.00  0.00     0.066 C 
ATOM      7  C   UNL A   1      28.164  26.857  23.751  1.00  0.00     0.011 C 
ATOM      8  C   UNL A   1      28.346  28.927  22.955  1.00  0.00     0.008 C 
ATOM      9  C   UNL A   1      30.287  29.000  22.330  1.00  0.00     0.081 C 
BRANCH   6  10
ATOM     10  C   UNL A   1      30.232  26.046  25.452  1.00  0.00     0.052 C 
BRANCH  10  11
ATOM     11  C   UNL A   1      30.990  24.813  26.179  1.00  0.00     0.230 C 
BRANCH  11  12
ATOM     12  O   UNL A   1      32.449  24.818  26.292  1.00  0.00    -0.494 OA
BRANCH  12  13
ATOM     13  C   UNL A   1      33.023  23.764  25.598  1.00  0.00     0.119 A 
ATOM     14  C   UNL A   1      33.030  20.161  25.046  1.00  0.00    -0.045 A 
ATOM     15  C   UNL A   1      32.165  21.304  24.115  1.00  0.00     0.008 A 
ATOM     16  C   UNL A   1      33.978  20.811  26.375  1.00  0.00     0.008 A 
ATOM     17  C   UNL A   1      32.160  23.001  24.377  1.00  0.00     0.047 A 
ATOM     18  C   UNL A   1      34.018  22.801  26.550  1.00  0.00     0.047 A 
BRANCH  14  19
ATOM     19  C   UNL A   1      33.201  18.736  24.575  1.00  0.00     0.013 C 
ATOM     20  C   UNL A   1      32.605  17.737  25.558  1.00  0.00     0.012 C 
ATOM     21  C   UNL A   1      32.569  18.554  23.189  1.00  0.00     0.012 C 
ENDBRANCH  14  19
ENDBRANCH  12  13
ENDBRANCH  11  12
ENDBRANCH  10  11
ENDBRANCH   6  10
BRANCH   5  22
ATOM     22  N   UNL A   1      31.635  26.568  21.543  1.00  0.00    -0.343 N 
ATOM     23  H   UNL A   1      30.895  25.944  21.221  1.00  0.00     0.345 HD
ATOM     24  H   UNL A   1      32.472  26.023  21.750  1.00  0.00     0.345 HD
ATOM     25  H   UNL A   1      31.845  27.252  20.816  1.00  0.00     0.345 HD
ENDBRANCH   5  22
ENDBRANCH   3   5
ENDBRANCH   2   3
ENDBRANCH   1   2
BRANCH   1  26
ATOM     26  C   UNL A   1      32.972  29.447  26.724  1.00  0.00     0.202 C 
BRANCH  26  27
ATOM     27  O   UNL A   1      32.847  30.774  26.226  1.00  0.00    -0.374 OA
BRANCH  27  28
ATOM     28  C   UNL A   1      31.751  31.581  26.638  1.00  0.00     0.202 C 
BRANCH  28  29
ATOM     29  C   UNL A   1      31.923  33.087  26.872  1.00  0.00     0.261 C 
BRANCH  29  30
ATOM     30  O   UNL A   1      32.276  33.439  28.214  1.00  0.00    -0.460 OA
BRANCH  30  31
ATOM     31  C   UNL A   1      33.383  34.218  28.287  1.00  0.00     0.338 C 
ATOM     32  O   UNL A   1      33.434  35.437  28.300  1.00  0.00    -0.246 OA
BRANCH  31  33
ATOM     33  C   UNL A   1      34.563  33.385  28.550  1.00  0.00     0.060 A 
ATOM     34  C   UNL A   1      34.348  32.118  29.108  1.00  0.00     0.016 A 
ATOM     35  C   UNL A   1      35.852  33.879  28.356  1.00  0.00     0.016 A 
ATOM     36  C   UNL A   1      35.428  31.360  29.535  1.00  0.00     0.010 A 
ATOM     37  C   UNL A   1      36.936  33.118  28.794  1.00  0.00     0.010 A 
ATOM     38  C   UNL A   1      36.722  31.878  29.424  1.00  0.00    -0.014 A 
BRANCH  38  39
ATOM     39  C   UNL A   1      37.838  31.177  30.092  1.00  0.00     0.031 A 
ATOM     40  C   UNL A   1      38.126  31.470  31.536  1.00  0.00     0.074 A 
ATOM     41  C   UNL A   1      38.557  30.266  29.417  1.00  0.00     0.049 A 
ATOM     42  N   UNL A   1      39.081  31.006  32.301  1.00  0.00    -0.248 NA
ATOM     43  C   UNL A   1      37.222  32.417  32.209  1.00  0.00     0.031 C 
ATOM     44  C   UNL A   1      38.331  29.875  28.026  1.00  0.00     0.029 A 
ATOM     45  N   UNL A   1      39.628  29.508  29.813  1.00  0.00    -0.354 N 
ATOM     46  C   UNL A   1      38.901  31.613  33.536  1.00  0.00     0.074 A 
ATOM     47  C   UNL A   1      37.771  32.508  33.411  1.00  0.00     0.031 C 
ATOM     48  C   UNL A   1      39.241  28.950  27.682  1.00  0.00     0.029 A 
ATOM     49  C   UNL A   1      40.139  28.722  28.811  1.00  0.00     0.049 A 
ATOM     50  H   UNL A   1      39.995  29.527  30.726  1.00  0.00     0.167 HD
ATOM     51  C   UNL A   1      39.612  31.431  34.675  1.00  0.00     0.037 A 
ATOM     52  C   UNL A   1      41.228  27.932  28.802  1.00  0.00     0.037 A 
ATOM     53  C   UNL A   1      40.738  30.539  34.781  1.00  0.00     0.049 A 
ATOM     54  C   UNL A   1      42.054  27.815  30.055  1.00  0.00     0.074 A 
ATOM     55  C   UNL A   1      41.518  30.266  35.890  1.00  0.00     0.029 A 
ATOM     56  N   UNL A   1      41.253  29.788  33.734  1.00  0.00    -0.354 N 
ATOM     57  N   UNL A   1      41.864  28.371  31.228  1.00  0.00    -0.248 NA
ATOM     58  C   UNL A   1      43.243  26.957  29.983  1.00  0.00     0.031 C 
ATOM     59  C   UNL A   1      42.551  29.410  35.496  1.00  0.00     0.029 A 
ATOM     60  C   UNL A   1      42.365  29.081  34.162  1.00  0.00     0.049 A 
ATOM     61  H   UNL A   1      40.884  29.761  32.822  1.00  0.00     0.167 HD
ATOM     62  C   UNL A   1      42.888  27.902  32.042  1.00  0.00     0.074 A 
ATOM     63  C   UNL A   1      43.684  27.004  31.231  1.00  0.00     0.031 C 
ATOM     64  C   UNL A   1      43.146  28.187  33.343  1.00  0.00     0.037 A 
BRANCH  51  65
ATOM     65  C   UNL A   1      39.217  32.235  35.882  1.00  0.00     0.057 A 
ATOM     66  C   UNL A   1      39.708  33.526  36.113  1.00  0.00     0.134 A 
ATOM     67  C   UNL A   1      38.304  31.719  36.811  1.00  0.00     0.134 A 
ATOM     68  F   UNL A   1      40.594  34.079  35.271  1.00  0.00    -0.206 F 
ATOM     69  C   UNL A   1      39.328  34.263  37.237  1.00  0.00     0.040 A 
ATOM     70  C   UNL A   1      37.890  32.460  37.919  1.00  0.00     0.040 A 
ATOM     71  F   UNL A   1      37.787  30.492  36.651  1.00  0.00    -0.206 F 
ATOM     72  C   UNL A   1      38.410  33.733  38.140  1.00  0.00     0.006 A 
ENDBRANCH  51  65
BRANCH  52  73
ATOM     73  C   UNL A   1      41.609  27.206  27.565  1.00  0.00     0.057 A 
ATOM     74  C   UNL A   1      41.237  25.873  27.361  1.00  0.00     0.134 A 
ATOM     75  C   UNL A   1      42.373  27.820  26.563  1.00  0.00     0.134 A 
ATOM     76  F   UNL A   1      40.519  25.223  28.291  1.00  0.00    -0.206 F 
ATOM     77  C   UNL A   1      41.630  25.168  26.223  1.00  0.00     0.040 A 
ATOM     78  C   UNL A   1      42.744  27.140  25.404  1.00  0.00     0.040 A 
ATOM     79  F   UNL A   1      42.757  29.099  26.692  1.00  0.00    -0.206 F 
ATOM     80  C   UNL A   1      42.383  25.805  25.237  1.00  0.00     0.006 A 
ENDBRANCH  52  73
BRANCH  64  81
ATOM     81  C   UNL A   1      44.309  27.484  33.987  1.00  0.00     0.057 A 
ATOM     82  C   UNL A   1      45.588  28.054  34.044  1.00  0.00     0.134 A 
ATOM     83  C   UNL A   1      44.135  26.231  34.590  1.00  0.00     0.134 A 
ATOM     84  F   UNL A   1      45.828  29.247  33.477  1.00  0.00    -0.206 F 
ATOM     85  C   UNL A   1      46.657  27.388  34.646  1.00  0.00     0.040 A 
ATOM     86  C   UNL A   1      45.187  25.574  35.229  1.00  0.00     0.040 A 
ATOM     87  F   UNL A   1      42.934  25.631  34.585  1.00  0.00    -0.206 F 
ATOM     88  C   UNL A   1      46.455  26.148  35.249  1.00  0.00     0.006 A 
ENDBRANCH  64  81
ENDBRANCH  38  39
ENDBRANCH  31  33
ENDBRANCH  30  31
ENDBRANCH  29  30
ENDBRANCH  28  29
ENDBRANCH  27  28
ENDBRANCH  26  27
ENDBRANCH   1  26
TORSDOF 20
ENDMDL
