MODEL 1
REMARK VINA RESULT:     -11.9      0.000      0.000
REMARK SMILES O=C(COc1nc(-c2cccnc2)nc2c1CCCC2)OCCOCCOC(=O)c1ccc(-c2c3nc(c(-c4c(F)cccc4F)c4ccc([nH]4)c(-c4c(F)cccc4F)c4nc(c(-c5c(F)cccc5F)c5ccc2[nH]5)C=C4)C=C3)cc1
REMARK SMILES IDX 23 1 22 2 21 3 2 4 1 5 3 6 4 7 5 8 6 9 16 10 7 11 15 12
REMARK SMILES IDX 17 13 14 14 20 15 18 16 19 17 8 18 9 19 13 20 10 21 12 22
REMARK SMILES IDX 11 23 24 24 25 25 26 26 27 27 28 28 29 29 30 30 31 31 83 32
REMARK SMILES IDX 32 33 82 34 33 35 34 36 35 37 76 38 36 39 81 40 75 41 77 42
REMARK SMILES IDX 37 43 80 44 74 45 73 46 38 48 64 49 47 50 63 51 48 52 51 53
REMARK SMILES IDX 62 54 78 55 49 56 50 57 61 59 79 60 52 61 39 62 40 63 45 64
REMARK SMILES IDX 41 65 42 66 44 67 46 68 43 69 65 70 66 71 71 72 67 73 68 74
REMARK SMILES IDX 70 75 72 76 69 77 53 78 54 79 59 80 55 81 56 82 58 83 60 84
REMARK SMILES IDX 57 85
REMARK H PARENT 77 47 51 58
REMARK Flexibility Score: inf
ROOT
ATOM      1  C   UNL A   1      40.956  20.410  26.822  1.00  0.00     0.202 C 
ENDROOT
BRANCH   1   2
ATOM      2  C   UNL A   1      40.006  21.599  26.676  1.00  0.00     0.261 C 
BRANCH   2   3
ATOM      3  O   UNL A   1      38.835  21.320  25.901  1.00  0.00    -0.461 OA
BRANCH   3   4
ATOM      4  C   UNL A   1      37.832  22.213  25.711  1.00  0.00     0.344 C 
ATOM      5  O   UNL A   1      38.072  23.420  25.770  1.00  0.00    -0.248 OA
BRANCH   4   6
ATOM      6  C   UNL A   1      36.392  21.708  25.564  1.00  0.00     0.353 C 
BRANCH   6   7
ATOM      7  O   UNL A   1      36.152  20.415  25.032  1.00  0.00    -0.465 OA
BRANCH   7   8
ATOM      8  C   UNL A   1      34.798  20.271  24.857  1.00  0.00     0.221 A 
ATOM      9  N   UNL A   1      34.058  21.374  24.989  1.00  0.00    -0.193 NA
ATOM     10  C   UNL A   1      34.309  19.006  24.687  1.00  0.00     0.036 A 
ATOM     11  C   UNL A   1      32.742  21.192  25.109  1.00  0.00     0.164 A 
ATOM     12  C   UNL A   1      32.933  18.918  24.777  1.00  0.00     0.051 A 
ATOM     13  C   UNL A   1      35.217  17.846  24.418  1.00  0.00     0.043 C 
ATOM     14  N   UNL A   1      32.139  19.991  25.038  1.00  0.00    -0.232 NA
ATOM     15  C   UNL A   1      32.266  17.567  24.714  1.00  0.00     0.057 C 
ATOM     16  C   UNL A   1      34.537  16.499  24.623  1.00  0.00     0.005 C 
ATOM     17  C   UNL A   1      33.136  16.513  24.024  1.00  0.00     0.007 C 
BRANCH  11  18
ATOM     18  C   UNL A   1      31.991  22.382  25.492  1.00  0.00     0.038 A 
ATOM     19  C   UNL A   1      31.277  23.142  24.553  1.00  0.00     0.015 A 
ATOM     20  C   UNL A   1      32.055  22.901  26.782  1.00  0.00     0.123 A 
ATOM     21  C   UNL A   1      30.673  24.344  24.925  1.00  0.00     0.021 A 
ATOM     22  N   UNL A   1      31.478  24.066  27.179  1.00  0.00    -0.264 NA
ATOM     23  C   UNL A   1      30.808  24.762  26.236  1.00  0.00     0.111 A 
ENDBRANCH  11  18
ENDBRANCH   7   8
ENDBRANCH   6   7
ENDBRANCH   4   6
ENDBRANCH   3   4
ENDBRANCH   2   3
ENDBRANCH   1   2
BRANCH   1  24
ATOM     24  O   UNL A   1      42.029  20.262  25.900  1.00  0.00    -0.374 OA
BRANCH  24  25
ATOM     25  C   UNL A   1      43.206  21.055  26.095  1.00  0.00     0.202 C 
BRANCH  25  26
ATOM     26  C   UNL A   1      43.770  21.838  24.909  1.00  0.00     0.261 C 
BRANCH  26  27
ATOM     27  O   UNL A   1      43.058  23.064  24.696  1.00  0.00    -0.460 OA
BRANCH  27  28
ATOM     28  C   UNL A   1      43.767  24.177  24.982  1.00  0.00     0.338 C 
ATOM     29  O   UNL A   1      44.863  24.495  24.542  1.00  0.00    -0.246 OA
BRANCH  28  30
ATOM     30  C   UNL A   1      42.919  25.109  25.745  1.00  0.00     0.060 A 
ATOM     31  C   UNL A   1      43.200  26.479  25.630  1.00  0.00     0.016 A 
ATOM     32  C   UNL A   1      41.909  24.650  26.592  1.00  0.00     0.016 A 
ATOM     33  C   UNL A   1      42.532  27.392  26.434  1.00  0.00     0.010 A 
ATOM     34  C   UNL A   1      41.256  25.564  27.415  1.00  0.00     0.010 A 
ATOM     35  C   UNL A   1      41.616  26.924  27.379  1.00  0.00    -0.014 A 
BRANCH  35  36
ATOM     36  C   UNL A   1      41.255  27.796  28.515  1.00  0.00     0.031 A 
ATOM     37  C   UNL A   1      42.105  27.709  29.754  1.00  0.00     0.074 A 
ATOM     38  C   UNL A   1      40.237  28.666  28.431  1.00  0.00     0.049 A 
ATOM     39  N   UNL A   1      41.935  28.275  30.918  1.00  0.00    -0.248 NA
ATOM     40  C   UNL A   1      43.313  26.868  29.665  1.00  0.00     0.031 C 
ATOM     41  C   UNL A   1      39.409  28.892  27.247  1.00  0.00     0.029 A 
ATOM     42  N   UNL A   1      39.727  29.521  29.372  1.00  0.00    -0.354 N 
ATOM     43  C   UNL A   1      43.008  27.855  31.697  1.00  0.00     0.074 A 
ATOM     44  C   UNL A   1      43.808  26.965  30.889  1.00  0.00     0.031 C 
ATOM     45  C   UNL A   1      38.480  29.819  27.541  1.00  0.00     0.029 A 
ATOM     46  C   UNL A   1      38.624  30.215  28.940  1.00  0.00     0.049 A 
ATOM     47  H   UNL A   1      40.113  29.627  30.271  1.00  0.00     0.167 HD
ATOM     48  C   UNL A   1      43.301  28.196  32.971  1.00  0.00     0.037 A 
ATOM     49  C   UNL A   1      37.812  31.047  29.618  1.00  0.00     0.037 A 
ATOM     50  C   UNL A   1      42.498  29.086  33.765  1.00  0.00     0.049 A 
ATOM     51  C   UNL A   1      38.102  31.318  31.073  1.00  0.00     0.074 A 
ATOM     52  C   UNL A   1      42.688  29.479  35.076  1.00  0.00     0.029 A 
ATOM     53  N   UNL A   1      41.355  29.727  33.312  1.00  0.00    -0.354 N 
ATOM     54  N   UNL A   1      39.098  30.896  31.816  1.00  0.00    -0.248 NA
ATOM     55  C   UNL A   1      37.147  32.178  31.785  1.00  0.00     0.031 C 
ATOM     56  C   UNL A   1      41.636  30.327  35.431  1.00  0.00     0.029 A 
ATOM     57  C   UNL A   1      40.820  30.503  34.325  1.00  0.00     0.049 A 
ATOM     58  H   UNL A   1      40.981  29.641  32.406  1.00  0.00     0.167 HD
ATOM     59  C   UNL A   1      38.904  31.460  33.071  1.00  0.00     0.074 A 
ATOM     60  C   UNL A   1      37.711  32.277  32.979  1.00  0.00     0.031 C 
ATOM     61  C   UNL A   1      39.636  31.313  34.202  1.00  0.00     0.037 A 
BRANCH  48  62
ATOM     62  C   UNL A   1      44.532  27.608  33.592  1.00  0.00     0.057 A 
ATOM     63  C   UNL A   1      45.763  28.274  33.552  1.00  0.00     0.134 A 
ATOM     64  C   UNL A   1      44.467  26.407  34.310  1.00  0.00     0.134 A 
ATOM     65  F   UNL A   1      45.897  29.416  32.863  1.00  0.00    -0.206 F 
ATOM     66  C   UNL A   1      46.886  27.769  34.211  1.00  0.00     0.040 A 
ATOM     67  C   UNL A   1      45.577  25.906  34.992  1.00  0.00     0.040 A 
ATOM     68  F   UNL A   1      43.319  25.717  34.382  1.00  0.00    -0.206 F 
ATOM     69  C   UNL A   1      46.790  26.589  34.946  1.00  0.00     0.006 A 
ENDBRANCH  48  62
BRANCH  49  70
ATOM     70  C   UNL A   1      36.639  31.669  28.953  1.00  0.00     0.057 A 
ATOM     71  C   UNL A   1      36.641  33.024  28.605  1.00  0.00     0.134 A 
ATOM     72  C   UNL A   1      35.471  30.941  28.694  1.00  0.00     0.134 A 
ATOM     73  F   UNL A   1      37.721  33.783  28.850  1.00  0.00    -0.206 F 
ATOM     74  C   UNL A   1      35.518  33.641  28.050  1.00  0.00     0.040 A 
ATOM     75  C   UNL A   1      34.351  31.537  28.111  1.00  0.00     0.040 A 
ATOM     76  F   UNL A   1      35.400  29.638  29.004  1.00  0.00    -0.206 F 
ATOM     77  C   UNL A   1      34.369  32.895  27.797  1.00  0.00     0.006 A 
ENDBRANCH  49  70
BRANCH  61  78
ATOM     78  C   UNL A   1      39.183  32.071  35.416  1.00  0.00     0.057 A 
ATOM     79  C   UNL A   1      38.399  31.471  36.410  1.00  0.00     0.134 A 
ATOM     80  C   UNL A   1      39.561  33.406  35.608  1.00  0.00     0.134 A 
ATOM     81  F   UNL A   1      37.996  30.198  36.282  1.00  0.00    -0.206 F 
ATOM     82  C   UNL A   1      37.978  32.183  37.534  1.00  0.00     0.040 A 
ATOM     83  C   UNL A   1      39.175  34.117  36.744  1.00  0.00     0.040 A 
ATOM     84  F   UNL A   1      40.326  34.036  34.704  1.00  0.00    -0.206 F 
ATOM     85  C   UNL A   1      38.373  33.508  37.707  1.00  0.00     0.006 A 
ENDBRANCH  61  78
ENDBRANCH  35  36
ENDBRANCH  28  30
ENDBRANCH  27  28
ENDBRANCH  26  27
ENDBRANCH  25  26
ENDBRANCH  24  25
ENDBRANCH   1  24
TORSDOF 17
ENDMDL
MODEL 2
REMARK VINA RESULT:     -11.9      3.082      7.717
REMARK SMILES O=C(COc1nc(-c2cccnc2)nc2c1CCCC2)OCCOCCOC(=O)c1ccc(-c2c3nc(c(-c4c(F)cccc4F)c4ccc([nH]4)c(-c4c(F)cccc4F)c4nc(c(-c5c(F)cccc5F)c5ccc2[nH]5)C=C4)C=C3)cc1
REMARK SMILES IDX 23 1 22 2 21 3 2 4 1 5 3 6 4 7 5 8 6 9 16 10 7 11 15 12
REMARK SMILES IDX 17 13 14 14 20 15 18 16 19 17 8 18 9 19 13 20 10 21 12 22
REMARK SMILES IDX 11 23 24 24 25 25 26 26 27 27 28 28 29 29 30 30 31 31 83 32
REMARK SMILES IDX 32 33 82 34 33 35 34 36 35 37 76 38 36 39 81 40 75 41 77 42
REMARK SMILES IDX 37 43 80 44 74 45 73 46 38 48 64 49 47 50 63 51 48 52 51 53
REMARK SMILES IDX 62 54 78 55 49 56 50 57 61 59 79 60 52 61 39 62 40 63 45 64
REMARK SMILES IDX 41 65 42 66 44 67 46 68 43 69 65 70 66 71 71 72 67 73 68 74
REMARK SMILES IDX 70 75 72 76 69 77 53 78 54 79 59 80 55 81 56 82 58 83 60 84
REMARK SMILES IDX 57 85
REMARK H PARENT 77 47 51 58
REMARK Flexibility Score: inf
ROOT
ATOM      1  C   UNL A   1      31.655  26.904  25.885  1.00  0.00     0.202 C 
ENDROOT
BRANCH   1   2
ATOM      2  C   UNL A   1      30.604  25.816  26.100  1.00  0.00     0.261 C 
BRANCH   2   3
ATOM      3  O   UNL A   1      31.095  24.655  26.782  1.00  0.00    -0.461 OA
BRANCH   3   4
ATOM      4  C   UNL A   1      30.446  23.464  26.796  1.00  0.00     0.344 C 
ATOM      5  O   UNL A   1      29.509  23.291  27.577  1.00  0.00    -0.248 OA
BRANCH   4   6
ATOM      6  C   UNL A   1      30.975  22.308  25.940  1.00  0.00     0.353 C 
BRANCH   6   7
ATOM      7  O   UNL A   1      31.575  22.582  24.684  1.00  0.00    -0.465 OA
BRANCH   7   8
ATOM      8  C   UNL A   1      32.763  21.895  24.621  1.00  0.00     0.221 A 
ATOM      9  N   UNL A   1      32.680  20.571  24.469  1.00  0.00    -0.193 NA
ATOM     10  C   UNL A   1      33.916  22.596  24.840  1.00  0.00     0.036 A 
ATOM     11  C   UNL A   1      33.798  19.880  24.697  1.00  0.00     0.164 A 
ATOM     12  C   UNL A   1      35.033  21.801  25.017  1.00  0.00     0.051 A 
ATOM     13  C   UNL A   1      33.927  24.093  24.869  1.00  0.00     0.043 C 
ATOM     14  N   UNL A   1      34.982  20.442  24.999  1.00  0.00    -0.232 NA
ATOM     15  C   UNL A   1      36.353  22.437  25.372  1.00  0.00     0.057 C 
ATOM     16  C   UNL A   1      35.199  24.666  25.481  1.00  0.00     0.005 C 
ATOM     17  C   UNL A   1      36.422  23.913  24.970  1.00  0.00     0.007 C 
BRANCH  11  18
ATOM     18  C   UNL A   1      33.621  18.434  24.762  1.00  0.00     0.038 A 
ATOM     19  C   UNL A   1      34.233  17.570  23.840  1.00  0.00     0.015 A 
ATOM     20  C   UNL A   1      32.729  17.847  25.655  1.00  0.00     0.123 A 
ATOM     21  C   UNL A   1      33.945  16.205  23.848  1.00  0.00     0.021 A 
ATOM     22  N   UNL A   1      32.426  16.522  25.691  1.00  0.00    -0.264 NA
ATOM     23  C   UNL A   1      33.037  15.736  24.780  1.00  0.00     0.111 A 
ENDBRANCH  11  18
ENDBRANCH   7   8
ENDBRANCH   6   7
ENDBRANCH   4   6
ENDBRANCH   3   4
ENDBRANCH   2   3
ENDBRANCH   1   2
BRANCH   1  24
ATOM     24  O   UNL A   1      31.309  28.064  25.138  1.00  0.00    -0.374 OA
BRANCH  24  25
ATOM     25  C   UNL A   1      32.207  29.181  25.166  1.00  0.00     0.202 C 
BRANCH  25  26
ATOM     26  C   UNL A   1      31.814  30.420  25.973  1.00  0.00     0.261 C 
BRANCH  26  27
ATOM     27  O   UNL A   1      32.525  30.489  27.216  1.00  0.00    -0.460 OA
BRANCH  27  28
ATOM     28  C   UNL A   1      33.208  31.639  27.404  1.00  0.00     0.338 C 
ATOM     29  O   UNL A   1      32.751  32.771  27.490  1.00  0.00    -0.246 OA
BRANCH  28  30
ATOM     30  C   UNL A   1      34.607  31.322  27.736  1.00  0.00     0.060 A 
ATOM     31  C   UNL A   1      34.941  29.969  27.898  1.00  0.00     0.016 A 
ATOM     32  C   UNL A   1      35.556  32.326  27.933  1.00  0.00     0.016 A 
ATOM     33  C   UNL A   1      36.205  29.617  28.352  1.00  0.00     0.010 A 
ATOM     34  C   UNL A   1      36.816  31.974  28.412  1.00  0.00     0.010 A 
ATOM     35  C   UNL A   1      37.115  30.626  28.681  1.00  0.00    -0.014 A 
BRANCH  35  36
ATOM     36  C   UNL A   1      38.249  30.301  29.569  1.00  0.00     0.031 A 
ATOM     37  C   UNL A   1      39.304  29.371  29.034  1.00  0.00     0.074 A 
ATOM     38  C   UNL A   1      38.360  30.850  30.788  1.00  0.00     0.049 A 
ATOM     39  N   UNL A   1      40.329  28.841  29.645  1.00  0.00    -0.248 NA
ATOM     40  C   UNL A   1      39.185  28.987  27.616  1.00  0.00     0.031 C 
ATOM     41  C   UNL A   1      37.441  31.831  31.364  1.00  0.00     0.029 A 
ATOM     42  N   UNL A   1      39.300  30.651  31.764  1.00  0.00    -0.354 N 
ATOM     43  C   UNL A   1      40.971  28.061  28.690  1.00  0.00     0.074 A 
ATOM     44  C   UNL A   1      40.208  28.159  27.467  1.00  0.00     0.031 C 
ATOM     45  C   UNL A   1      37.859  32.138  32.606  1.00  0.00     0.029 A 
ATOM     46  C   UNL A   1      39.044  31.344  32.921  1.00  0.00     0.049 A 
ATOM     47  H   UNL A   1      40.084  30.067  31.646  1.00  0.00     0.167 HD
ATOM     48  C   UNL A   1      42.104  27.338  28.823  1.00  0.00     0.037 A 
ATOM     49  C   UNL A   1      39.684  31.305  34.105  1.00  0.00     0.037 A 
ATOM     50  C   UNL A   1      42.857  27.251  30.044  1.00  0.00     0.049 A 
ATOM     51  C   UNL A   1      40.879  30.399  34.255  1.00  0.00     0.074 A 
ATOM     52  C   UNL A   1      44.006  26.525  30.298  1.00  0.00     0.029 A 
ATOM     53  N   UNL A   1      42.536  27.921  31.214  1.00  0.00    -0.354 N 
ATOM     54  N   UNL A   1      41.465  29.640  33.360  1.00  0.00    -0.248 NA
ATOM     55  C   UNL A   1      41.499  30.344  35.586  1.00  0.00     0.031 C 
ATOM     56  C   UNL A   1      44.358  26.725  31.636  1.00  0.00     0.029 A 
ATOM     57  C   UNL A   1      43.458  27.615  32.200  1.00  0.00     0.049 A 
ATOM     58  H   UNL A   1      41.766  28.525  31.327  1.00  0.00     0.167 HD
ATOM     59  C   UNL A   1      42.535  29.038  34.011  1.00  0.00     0.074 A 
ATOM     60  C   UNL A   1      42.533  29.545  35.368  1.00  0.00     0.031 C 
ATOM     61  C   UNL A   1      43.436  28.141  33.539  1.00  0.00     0.037 A 
BRANCH  48  62
ATOM     62  C   UNL A   1      42.601  26.581  27.628  1.00  0.00     0.057 A 
ATOM     63  C   UNL A   1      42.192  25.267  27.370  1.00  0.00     0.134 A 
ATOM     64  C   UNL A   1      43.427  27.201  26.682  1.00  0.00     0.134 A 
ATOM     65  F   UNL A   1      41.420  24.610  28.248  1.00  0.00    -0.206 F 
ATOM     66  C   UNL A   1      42.582  24.598  26.208  1.00  0.00     0.040 A 
ATOM     67  C   UNL A   1      43.803  26.550  25.506  1.00  0.00     0.040 A 
ATOM     68  F   UNL A   1      43.858  28.457  26.872  1.00  0.00    -0.206 F 
ATOM     69  C   UNL A   1      43.378  25.245  25.266  1.00  0.00     0.006 A 
ENDBRANCH  48  62
BRANCH  49  70
ATOM     70  C   UNL A   1      39.207  32.122  35.249  1.00  0.00     0.057 A 
ATOM     71  C   UNL A   1      38.370  31.574  36.228  1.00  0.00     0.134 A 
ATOM     72  C   UNL A   1      39.532  33.479  35.369  1.00  0.00     0.134 A 
ATOM     73  F   UNL A   1      38.002  30.286  36.157  1.00  0.00    -0.206 F 
ATOM     74  C   UNL A   1      37.851  32.349  37.267  1.00  0.00     0.040 A 
ATOM     75  C   UNL A   1      39.045  34.260  36.420  1.00  0.00     0.040 A 
ATOM     76  F   UNL A   1      40.328  34.069  34.465  1.00  0.00    -0.206 F 
ATOM     77  C   UNL A   1      38.192  33.696  37.367  1.00  0.00     0.006 A 
ENDBRANCH  49  70
BRANCH  61  78
ATOM     78  C   UNL A   1      44.503  27.676  34.487  1.00  0.00     0.057 A 
ATOM     79  C   UNL A   1      44.338  26.535  35.282  1.00  0.00     0.134 A 
ATOM     80  C   UNL A   1      45.722  28.360  34.582  1.00  0.00     0.134 A 
ATOM     81  F   UNL A   1      43.190  25.840  35.244  1.00  0.00    -0.206 F 
ATOM     82  C   UNL A   1      45.333  26.110  36.163  1.00  0.00     0.040 A 
ATOM     83  C   UNL A   1      46.737  27.926  35.435  1.00  0.00     0.040 A 
ATOM     84  F   UNL A   1      45.953  29.451  33.837  1.00  0.00    -0.206 F 
ATOM     85  C   UNL A   1      46.539  26.803  36.236  1.00  0.00     0.006 A 
ENDBRANCH  61  78
ENDBRANCH  35  36
ENDBRANCH  28  30
ENDBRANCH  27  28
ENDBRANCH  26  27
ENDBRANCH  25  26
ENDBRANCH  24  25
ENDBRANCH   1  24
TORSDOF 17
ENDMDL
MODEL 3
REMARK VINA RESULT:     -11.8      1.068      6.723
REMARK SMILES O=C(COc1nc(-c2cccnc2)nc2c1CCCC2)OCCOCCOC(=O)c1ccc(-c2c3nc(c(-c4c(F)cccc4F)c4ccc([nH]4)c(-c4c(F)cccc4F)c4nc(c(-c5c(F)cccc5F)c5ccc2[nH]5)C=C4)C=C3)cc1
REMARK SMILES IDX 23 1 22 2 21 3 2 4 1 5 3 6 4 7 5 8 6 9 16 10 7 11 15 12
REMARK SMILES IDX 17 13 14 14 20 15 18 16 19 17 8 18 9 19 13 20 10 21 12 22
REMARK SMILES IDX 11 23 24 24 25 25 26 26 27 27 28 28 29 29 30 30 31 31 83 32
REMARK SMILES IDX 32 33 82 34 33 35 34 36 35 37 76 38 36 39 81 40 75 41 77 42
REMARK SMILES IDX 37 43 80 44 74 45 73 46 38 48 64 49 47 50 63 51 48 52 51 53
REMARK SMILES IDX 62 54 78 55 49 56 50 57 61 59 79 60 52 61 39 62 40 63 45 64
REMARK SMILES IDX 41 65 42 66 44 67 46 68 43 69 65 70 66 71 71 72 67 73 68 74
REMARK SMILES IDX 70 75 72 76 69 77 53 78 54 79 59 80 55 81 56 82 58 83 60 84
REMARK SMILES IDX 57 85
REMARK H PARENT 77 47 51 58
REMARK Flexibility Score: inf
ROOT
ATOM      1  C   UNL A   1      41.836  21.399  26.907  1.00  0.00     0.202 C 
ENDROOT
BRANCH   1   2
ATOM      2  C   UNL A   1      40.424  21.962  27.063  1.00  0.00     0.261 C 
BRANCH   2   3
ATOM      3  O   UNL A   1      39.449  21.338  26.220  1.00  0.00    -0.461 OA
BRANCH   3   4
ATOM      4  C   UNL A   1      38.363  21.983  25.725  1.00  0.00     0.344 C 
ATOM      5  O   UNL A   1      38.096  23.118  26.123  1.00  0.00    -0.248 OA
BRANCH   4   6
ATOM      6  C   UNL A   1      37.410  21.240  24.782  1.00  0.00     0.353 C 
BRANCH   6   7
ATOM      7  O   UNL A   1      36.350  21.944  24.156  1.00  0.00    -0.465 OA
BRANCH   7   8
ATOM      8  C   UNL A   1      35.170  21.529  24.721  1.00  0.00     0.221 A 
ATOM      9  N   UNL A   1      34.970  20.211  24.788  1.00  0.00    -0.193 NA
ATOM     10  C   UNL A   1      34.251  22.486  25.053  1.00  0.00     0.036 A 
ATOM     11  C   UNL A   1      33.726  19.815  25.061  1.00  0.00     0.164 A 
ATOM     12  C   UNL A   1      33.004  21.983  25.369  1.00  0.00     0.051 A 
ATOM     13  C   UNL A   1      34.609  23.940  25.070  1.00  0.00     0.043 C 
ATOM     14  N   UNL A   1      32.710  20.655  25.329  1.00  0.00    -0.232 NA
ATOM     15  C   UNL A   1      31.866  22.931  25.652  1.00  0.00     0.057 C 
ATOM     16  C   UNL A   1      33.389  24.851  25.100  1.00  0.00     0.005 C 
ATOM     17  C   UNL A   1      32.350  24.319  26.081  1.00  0.00     0.007 C 
BRANCH  11  18
ATOM     18  C   UNL A   1      33.486  18.386  24.888  1.00  0.00     0.038 A 
ATOM     19  C   UNL A   1      32.658  17.663  25.760  1.00  0.00     0.015 A 
ATOM     20  C   UNL A   1      34.173  17.641  23.934  1.00  0.00     0.123 A 
ATOM     21  C   UNL A   1      32.548  16.277  25.648  1.00  0.00     0.021 A 
ATOM     22  N   UNL A   1      34.089  16.292  23.795  1.00  0.00    -0.264 NA
ATOM     23  C   UNL A   1      33.283  15.643  24.662  1.00  0.00     0.111 A 
ENDBRANCH  11  18
ENDBRANCH   7   8
ENDBRANCH   6   7
ENDBRANCH   4   6
ENDBRANCH   3   4
ENDBRANCH   2   3
ENDBRANCH   1   2
BRANCH   1  24
ATOM     24  O   UNL A   1      42.431  21.367  25.614  1.00  0.00    -0.374 OA
BRANCH  24  25
ATOM     25  C   UNL A   1      43.829  21.661  25.504  1.00  0.00     0.202 C 
BRANCH  25  26
ATOM     26  C   UNL A   1      44.284  22.689  24.467  1.00  0.00     0.261 C 
BRANCH  26  27
ATOM     27  O   UNL A   1      43.555  23.917  24.583  1.00  0.00    -0.460 OA
BRANCH  27  28
ATOM     28  C   UNL A   1      44.272  24.947  25.082  1.00  0.00     0.338 C 
ATOM     29  O   UNL A   1      45.398  25.296  24.756  1.00  0.00    -0.246 OA
BRANCH  28  30
ATOM     30  C   UNL A   1      43.404  25.770  25.940  1.00  0.00     0.060 A 
ATOM     31  C   UNL A   1      43.807  27.091  26.187  1.00  0.00     0.016 A 
ATOM     32  C   UNL A   1      42.254  25.247  26.531  1.00  0.00     0.016 A 
ATOM     33  C   UNL A   1      43.110  27.869  27.102  1.00  0.00     0.010 A 
ATOM     34  C   UNL A   1      41.569  26.018  27.467  1.00  0.00     0.010 A 
ATOM     35  C   UNL A   1      42.037  27.303  27.797  1.00  0.00    -0.014 A 
BRANCH  35  36
ATOM     36  C   UNL A   1      41.595  27.931  29.058  1.00  0.00     0.031 A 
ATOM     37  C   UNL A   1      40.377  28.814  29.003  1.00  0.00     0.074 A 
ATOM     38  C   UNL A   1      42.224  27.688  30.217  1.00  0.00     0.049 A 
ATOM     39  N   UNL A   1      39.856  29.567  29.933  1.00  0.00    -0.248 NA
ATOM     40  C   UNL A   1      39.649  28.852  27.721  1.00  0.00     0.031 C 
ATOM     41  C   UNL A   1      43.356  26.779  30.394  1.00  0.00     0.029 A 
ATOM     42  N   UNL A   1      41.996  28.195  31.469  1.00  0.00    -0.354 N 
ATOM     43  C   UNL A   1      38.747  30.169  29.349  1.00  0.00     0.074 A 
ATOM     44  C   UNL A   1      38.684  29.721  27.977  1.00  0.00     0.031 C 
ATOM     45  C   UNL A   1      43.733  26.805  31.685  1.00  0.00     0.029 A 
ATOM     46  C   UNL A   1      42.899  27.763  32.408  1.00  0.00     0.049 A 
ATOM     47  H   UNL A   1      41.256  28.811  31.675  1.00  0.00     0.167 HD
ATOM     48  C   UNL A   1      37.856  31.011  29.916  1.00  0.00     0.037 A 
ATOM     49  C   UNL A   1      43.044  28.132  33.694  1.00  0.00     0.037 A 
ATOM     50  C   UNL A   1      37.927  31.448  31.283  1.00  0.00     0.049 A 
ATOM     51  C   UNL A   1      42.103  29.161  34.265  1.00  0.00     0.074 A 
ATOM     52  C   UNL A   1      37.092  32.321  31.953  1.00  0.00     0.029 A 
ATOM     53  N   UNL A   1      38.890  31.033  32.190  1.00  0.00    -0.354 N 
ATOM     54  N   UNL A   1      41.075  29.751  33.702  1.00  0.00    -0.248 NA
ATOM     55  C   UNL A   1      42.348  29.579  35.653  1.00  0.00     0.031 C 
ATOM     56  C   UNL A   1      37.573  32.467  33.257  1.00  0.00     0.029 A 
ATOM     57  C   UNL A   1      38.678  31.645  33.413  1.00  0.00     0.049 A 
ATOM     58  H   UNL A   1      39.616  30.398  31.993  1.00  0.00     0.167 HD
ATOM     59  C   UNL A   1      40.536  30.587  34.673  1.00  0.00     0.074 A 
ATOM     60  C   UNL A   1      41.334  30.405  35.868  1.00  0.00     0.031 C 
ATOM     61  C   UNL A   1      39.483  31.438  34.587  1.00  0.00     0.037 A 
BRANCH  48  62
ATOM     62  C   UNL A   1      36.731  31.521  29.067  1.00  0.00     0.057 A 
ATOM     63  C   UNL A   1      35.622  30.723  28.761  1.00  0.00     0.134 A 
ATOM     64  C   UNL A   1      36.715  32.850  28.623  1.00  0.00     0.134 A 
ATOM     65  F   UNL A   1      35.586  29.436  29.137  1.00  0.00    -0.206 F 
ATOM     66  C   UNL A   1      34.533  31.230  28.049  1.00  0.00     0.040 A 
ATOM     67  C   UNL A   1      35.622  33.374  27.932  1.00  0.00     0.040 A 
ATOM     68  F   UNL A   1      37.748  33.666  28.878  1.00  0.00    -0.206 F 
ATOM     69  C   UNL A   1      34.525  32.563  27.645  1.00  0.00     0.006 A 
ENDBRANCH  48  62
BRANCH  49  70
ATOM     70  C   UNL A   1      44.128  27.554  34.529  1.00  0.00     0.057 A 
ATOM     71  C   UNL A   1      43.927  26.378  35.261  1.00  0.00     0.134 A 
ATOM     72  C   UNL A   1      45.372  28.185  34.657  1.00  0.00     0.134 A 
ATOM     73  F   UNL A   1      42.749  25.739  35.200  1.00  0.00    -0.206 F 
ATOM     74  C   UNL A   1      44.910  25.865  36.110  1.00  0.00     0.040 A 
ATOM     75  C   UNL A   1      46.375  27.667  35.479  1.00  0.00     0.040 A 
ATOM     76  F   UNL A   1      45.632  29.317  33.985  1.00  0.00    -0.206 F 
ATOM     77  C   UNL A   1      46.140  26.509  36.218  1.00  0.00     0.006 A 
ENDBRANCH  49  70
BRANCH  61  78
ATOM     78  C   UNL A   1      39.122  32.209  35.824  1.00  0.00     0.057 A 
ATOM     79  C   UNL A   1      38.307  31.663  36.822  1.00  0.00     0.134 A 
ATOM     80  C   UNL A   1      39.623  33.501  36.032  1.00  0.00     0.134 A 
ATOM     81  F   UNL A   1      37.788  30.433  36.679  1.00  0.00    -0.206 F 
ATOM     82  C   UNL A   1      37.973  32.386  37.968  1.00  0.00     0.040 A 
ATOM     83  C   UNL A   1      39.324  34.221  37.189  1.00  0.00     0.040 A 
ATOM     84  F   UNL A   1      40.424  34.078  35.124  1.00  0.00    -0.206 F 
ATOM     85  C   UNL A   1      38.488  33.667  38.156  1.00  0.00     0.006 A 
ENDBRANCH  61  78
ENDBRANCH  35  36
ENDBRANCH  28  30
ENDBRANCH  27  28
ENDBRANCH  26  27
ENDBRANCH  25  26
ENDBRANCH  24  25
ENDBRANCH   1  24
TORSDOF 17
ENDMDL
