MODEL 1
REMARK VINA RESULT:     -10.0      0.000      0.000
REMARK SMILES CCOc1ccc2c(c1)=N[C@H](SCC(=O)OCCOCCOC(=O)c1ccc(-c3c4nc(c(-c5c(F)cccc5F)c5ccc([nH]5)c(-c5c(F)cccc5F)c5nc(c(-c6c(F)cccc6F)c6ccc3[nH]6)C=C5)C=C4)cc1)N=2
REMARK SMILES IDX 18 1 17 2 16 3 14 4 15 5 13 6 12 7 11 8 4 9 5 10 9 11 6 12
REMARK SMILES IDX 8 13 7 14 10 15 79 16 3 17 2 18 1 19 19 20 20 21 21 22 22 23
REMARK SMILES IDX 23 24 24 25 25 26 26 27 78 28 27 29 77 30 28 31 29 32 30 33
REMARK SMILES IDX 71 34 31 35 76 36 70 37 72 38 32 39 75 40 69 41 68 42 33 44
REMARK SMILES IDX 59 45 42 46 58 47 43 48 46 49 57 50 73 51 44 52 45 53 56 55
REMARK SMILES IDX 74 56 47 57 34 58 35 59 40 60 36 61 37 62 39 63 41 64 38 65
REMARK SMILES IDX 60 66 61 67 66 68 62 69 63 70 65 71 67 72 64 73 48 74 49 75
REMARK SMILES IDX 54 76 50 77 51 78 53 79 55 80 52 81
REMARK H PARENT 72 43 46 54
REMARK Flexibility Score: inf
ROOT
ATOM      1  C   UNL A   1      41.038  19.839  26.180  1.00  0.00     0.202 C 
ENDROOT
BRANCH   1   2
ATOM      2  C   UNL A   1      40.269  21.146  26.407  1.00  0.00     0.261 C 
BRANCH   2   3
ATOM      3  O   UNL A   1      39.065  21.234  25.619  1.00  0.00    -0.463 OA
BRANCH   3   4
ATOM      4  C   UNL A   1      38.289  22.326  25.861  1.00  0.00     0.316 C 
ATOM      5  O   UNL A   1      38.704  23.352  26.399  1.00  0.00    -0.251 OA
BRANCH   4   6
ATOM      6  C   UNL A   1      36.875  22.254  25.329  1.00  0.00     0.196 C 
BRANCH   6   7
ATOM      7  S   UNL A   1      36.583  22.880  23.652  1.00  0.00    -0.100 SA
BRANCH   7   8
ATOM      8  C   UNL A   1      34.838  23.436  23.754  1.00  0.00     0.282 C 
ATOM      9  C   UNL A   1      32.548  27.326  23.412  1.00  0.00     0.121 A 
ATOM     10  C   UNL A   1      32.303  26.778  22.089  1.00  0.00     0.049 A 
ATOM     11  C   UNL A   1      33.331  26.712  24.314  1.00  0.00     0.076 A 
ATOM     12  C   UNL A   1      32.772  25.589  21.683  1.00  0.00     0.034 A 
ATOM     13  C   UNL A   1      33.889  25.401  23.956  1.00  0.00     0.090 A 
ATOM     14  C   UNL A   1      33.592  24.827  22.629  1.00  0.00     0.087 A 
ATOM     15  N   UNL A   1      34.640  24.619  24.648  1.00  0.00    -0.246 NA
ATOM     16  N   UNL A   1      34.131  23.672  22.463  1.00  0.00    -0.246 NA
BRANCH   9  17
ATOM     17  O   UNL A   1      32.078  28.602  23.639  1.00  0.00    -0.494 OA
BRANCH  17  18
ATOM     18  C   UNL A   1      30.657  28.711  23.796  1.00  0.00     0.226 C 
ATOM     19  C   UNL A   1      30.038  29.442  22.615  1.00  0.00     0.049 C 
ENDBRANCH  17  18
ENDBRANCH   9  17
ENDBRANCH   7   8
ENDBRANCH   6   7
ENDBRANCH   4   6
ENDBRANCH   3   4
ENDBRANCH   2   3
ENDBRANCH   1   2
BRANCH   1  20
ATOM     20  O   UNL A   1      42.429  19.858  26.493  1.00  0.00    -0.374 OA
BRANCH  20  21
ATOM     21  C   UNL A   1      43.321  20.387  25.510  1.00  0.00     0.202 C 
BRANCH  21  22
ATOM     22  C   UNL A   1      43.913  21.772  25.805  1.00  0.00     0.261 C 
BRANCH  22  23
ATOM     23  O   UNL A   1      43.067  22.843  25.338  1.00  0.00    -0.460 OA
BRANCH  23  24
ATOM     24  C   UNL A   1      43.650  24.066  25.317  1.00  0.00     0.338 C 
ATOM     25  O   UNL A   1      44.502  24.463  24.533  1.00  0.00    -0.246 OA
BRANCH  24  26
ATOM     26  C   UNL A   1      42.987  24.973  26.275  1.00  0.00     0.060 A 
ATOM     27  C   UNL A   1      41.950  24.539  27.103  1.00  0.00     0.016 A 
ATOM     28  C   UNL A   1      43.505  26.268  26.410  1.00  0.00     0.016 A 
ATOM     29  C   UNL A   1      41.461  25.399  28.096  1.00  0.00     0.010 A 
ATOM     30  C   UNL A   1      43.010  27.124  27.396  1.00  0.00     0.010 A 
ATOM     31  C   UNL A   1      41.999  26.689  28.265  1.00  0.00    -0.014 A 
BRANCH  31  32
ATOM     32  C   UNL A   1      41.593  27.545  29.411  1.00  0.00     0.031 A 
ATOM     33  C   UNL A   1      40.442  28.505  29.305  1.00  0.00     0.074 A 
ATOM     34  C   UNL A   1      42.312  27.498  30.549  1.00  0.00     0.049 A 
ATOM     35  N   UNL A   1      39.937  29.293  30.222  1.00  0.00    -0.248 NA
ATOM     36  C   UNL A   1      39.784  28.604  27.996  1.00  0.00     0.031 C 
ATOM     37  C   UNL A   1      43.490  26.658  30.766  1.00  0.00     0.029 A 
ATOM     38  N   UNL A   1      42.161  28.174  31.735  1.00  0.00    -0.354 N 
ATOM     39  C   UNL A   1      38.886  29.964  29.612  1.00  0.00     0.074 A 
ATOM     40  C   UNL A   1      38.865  29.532  28.228  1.00  0.00     0.031 C 
ATOM     41  C   UNL A   1      43.944  26.854  32.014  1.00  0.00     0.029 A 
ATOM     42  C   UNL A   1      43.103  27.845  32.680  1.00  0.00     0.049 A 
ATOM     43  H   UNL A   1      41.448  28.834  31.892  1.00  0.00     0.167 HD
ATOM     44  C   UNL A   1      38.009  30.844  30.156  1.00  0.00     0.037 A 
ATOM     45  C   UNL A   1      43.267  28.287  33.941  1.00  0.00     0.037 A 
ATOM     46  C   UNL A   1      38.044  31.296  31.526  1.00  0.00     0.049 A 
ATOM     47  C   UNL A   1      42.303  29.292  34.509  1.00  0.00     0.074 A 
ATOM     48  C   UNL A   1      37.168  32.150  32.176  1.00  0.00     0.029 A 
ATOM     49  N   UNL A   1      39.017  30.949  32.451  1.00  0.00    -0.354 N 
ATOM     50  N   UNL A   1      41.254  29.842  33.950  1.00  0.00    -0.248 NA
ATOM     51  C   UNL A   1      42.545  29.727  35.892  1.00  0.00     0.031 C 
ATOM     52  C   UNL A   1      37.638  32.358  33.478  1.00  0.00     0.029 A 
ATOM     53  C   UNL A   1      38.779  31.593  33.656  1.00  0.00     0.049 A 
ATOM     54  H   UNL A   1      39.767  30.336  32.276  1.00  0.00     0.167 HD
ATOM     55  C   UNL A   1      40.692  30.663  34.920  1.00  0.00     0.074 A 
ATOM     56  C   UNL A   1      41.509  30.524  36.108  1.00  0.00     0.031 C 
ATOM     57  C   UNL A   1      39.597  31.457  34.834  1.00  0.00     0.037 A 
BRANCH  44  58
ATOM     58  C   UNL A   1      36.923  31.374  29.263  1.00  0.00     0.057 A 
ATOM     59  C   UNL A   1      36.965  32.686  28.774  1.00  0.00     0.134 A 
ATOM     60  C   UNL A   1      35.810  30.593  28.919  1.00  0.00     0.134 A 
ATOM     61  F   UNL A   1      37.994  33.492  29.074  1.00  0.00    -0.206 F 
ATOM     62  C   UNL A   1      35.944  33.200  27.973  1.00  0.00     0.040 A 
ATOM     63  C   UNL A   1      34.795  31.088  28.098  1.00  0.00     0.040 A 
ATOM     64  F   UNL A   1      35.709  29.328  29.351  1.00  0.00    -0.206 F 
ATOM     65  C   UNL A   1      34.859  32.397  27.627  1.00  0.00     0.006 A 
ENDBRANCH  44  58
BRANCH  45  66
ATOM     66  C   UNL A   1      44.373  27.757  34.778  1.00  0.00     0.057 A 
ATOM     67  C   UNL A   1      44.204  26.624  35.582  1.00  0.00     0.134 A 
ATOM     68  C   UNL A   1      45.637  28.359  34.764  1.00  0.00     0.134 A 
ATOM     69  F   UNL A   1      43.016  26.005  35.641  1.00  0.00    -0.206 F 
ATOM     70  C   UNL A   1      45.254  26.108  36.343  1.00  0.00     0.040 A 
ATOM     71  C   UNL A   1      46.702  27.837  35.499  1.00  0.00     0.040 A 
ATOM     72  F   UNL A   1      45.864  29.433  33.995  1.00  0.00    -0.206 F 
ATOM     73  C   UNL A   1      46.510  26.708  36.294  1.00  0.00     0.006 A 
ENDBRANCH  45  66
BRANCH  57  74
ATOM     74  C   UNL A   1      39.206  32.213  36.072  1.00  0.00     0.057 A 
ATOM     75  C   UNL A   1      39.738  33.484  36.331  1.00  0.00     0.134 A 
ATOM     76  C   UNL A   1      38.301  31.692  37.007  1.00  0.00     0.134 A 
ATOM     77  F   UNL A   1      40.614  34.042  35.482  1.00  0.00    -0.206 F 
ATOM     78  C   UNL A   1      39.380  34.209  37.470  1.00  0.00     0.040 A 
ATOM     79  C   UNL A   1      37.914  32.419  38.135  1.00  0.00     0.040 A 
ATOM     80  F   UNL A   1      37.742  30.488  36.813  1.00  0.00    -0.206 F 
ATOM     81  C   UNL A   1      38.457  33.681  38.370  1.00  0.00     0.006 A 
ENDBRANCH  57  74
ENDBRANCH  31  32
ENDBRANCH  24  26
ENDBRANCH  23  24
ENDBRANCH  22  23
ENDBRANCH  21  22
ENDBRANCH  20  21
ENDBRANCH   1  20
TORSDOF 18
ENDMDL
MODEL 2
REMARK VINA RESULT:      -9.9      4.161      7.905
REMARK SMILES CCOc1ccc2c(c1)=N[C@H](SCC(=O)OCCOCCOC(=O)c1ccc(-c3c4nc(c(-c5c(F)cccc5F)c5ccc([nH]5)c(-c5c(F)cccc5F)c5nc(c(-c6c(F)cccc6F)c6ccc3[nH]6)C=C5)C=C4)cc1)N=2
REMARK SMILES IDX 18 1 17 2 16 3 14 4 15 5 13 6 12 7 11 8 4 9 5 10 9 11 6 12
REMARK SMILES IDX 8 13 7 14 10 15 79 16 3 17 2 18 1 19 19 20 20 21 21 22 22 23
REMARK SMILES IDX 23 24 24 25 25 26 26 27 78 28 27 29 77 30 28 31 29 32 30 33
REMARK SMILES IDX 71 34 31 35 76 36 70 37 72 38 32 39 75 40 69 41 68 42 33 44
REMARK SMILES IDX 59 45 42 46 58 47 43 48 46 49 57 50 73 51 44 52 45 53 56 55
REMARK SMILES IDX 74 56 47 57 34 58 35 59 40 60 36 61 37 62 39 63 41 64 38 65
REMARK SMILES IDX 60 66 61 67 66 68 62 69 63 70 65 71 67 72 64 73 48 74 49 75
REMARK SMILES IDX 54 76 50 77 51 78 53 79 55 80 52 81
REMARK H PARENT 72 43 46 54
REMARK Flexibility Score: inf
ROOT
ATOM      1  C   UNL A   1      34.159  20.650  25.020  1.00  0.00     0.202 C 
ENDROOT
BRANCH   1   2
ATOM      2  C   UNL A   1      33.353  21.613  25.898  1.00  0.00     0.261 C 
BRANCH   2   3
ATOM      3  O   UNL A   1      31.930  21.505  25.693  1.00  0.00    -0.463 OA
BRANCH   3   4
ATOM      4  C   UNL A   1      31.264  22.688  25.598  1.00  0.00     0.316 C 
ATOM      5  O   UNL A   1      30.225  22.938  26.209  1.00  0.00    -0.251 OA
BRANCH   4   6
ATOM      6  C   UNL A   1      31.938  23.752  24.760  1.00  0.00     0.196 C 
BRANCH   6   7
ATOM      7  S   UNL A   1      31.013  24.406  23.343  1.00  0.00    -0.100 SA
BRANCH   7   8
ATOM      8  C   UNL A   1      30.502  26.058  23.954  1.00  0.00     0.282 C 
ATOM      9  C   UNL A   1      29.133  29.994  22.188  1.00  0.00     0.121 A 
ATOM     10  C   UNL A   1      27.849  29.443  22.586  1.00  0.00     0.049 A 
ATOM     11  C   UNL A   1      30.284  29.320  22.332  1.00  0.00     0.076 A 
ATOM     12  C   UNL A   1      27.711  28.255  23.193  1.00  0.00     0.034 A 
ATOM     13  C   UNL A   1      30.230  28.007  22.990  1.00  0.00     0.090 A 
ATOM     14  C   UNL A   1      28.929  27.477  23.438  1.00  0.00     0.087 A 
ATOM     15  N   UNL A   1      31.188  27.191  23.258  1.00  0.00    -0.246 NA
ATOM     16  N   UNL A   1      29.038  26.330  24.011  1.00  0.00    -0.246 NA
BRANCH   9  17
ATOM     17  O   UNL A   1      29.093  31.182  21.488  1.00  0.00    -0.494 OA
BRANCH  17  18
ATOM     18  C   UNL A   1      28.154  32.149  21.976  1.00  0.00     0.226 C 
ATOM     19  C   UNL A   1      28.835  33.141  22.906  1.00  0.00     0.049 C 
ENDBRANCH  17  18
ENDBRANCH   9  17
ENDBRANCH   7   8
ENDBRANCH   6   7
ENDBRANCH   4   6
ENDBRANCH   3   4
ENDBRANCH   2   3
ENDBRANCH   1   2
BRANCH   1  20
ATOM     20  O   UNL A   1      35.578  20.707  25.149  1.00  0.00    -0.374 OA
BRANCH  20  21
ATOM     21  C   UNL A   1      36.311  19.501  24.926  1.00  0.00     0.202 C 
BRANCH  21  22
ATOM     22  C   UNL A   1      37.836  19.641  24.830  1.00  0.00     0.261 C 
BRANCH  22  23
ATOM     23  O   UNL A   1      38.321  20.837  25.472  1.00  0.00    -0.460 OA
BRANCH  23  24
ATOM     24  C   UNL A   1      39.472  20.685  26.172  1.00  0.00     0.338 C 
ATOM     25  O   UNL A   1      40.165  19.679  26.240  1.00  0.00    -0.246 OA
BRANCH  24  26
ATOM     26  C   UNL A   1      39.918  21.979  26.725  1.00  0.00     0.060 A 
ATOM     27  C   UNL A   1      40.929  22.060  27.684  1.00  0.00     0.016 A 
ATOM     28  C   UNL A   1      39.368  23.145  26.178  1.00  0.00     0.016 A 
ATOM     29  C   UNL A   1      41.416  23.320  28.062  1.00  0.00     0.010 A 
ATOM     30  C   UNL A   1      39.851  24.398  26.562  1.00  0.00     0.010 A 
ATOM     31  C   UNL A   1      40.896  24.496  27.490  1.00  0.00    -0.014 A 
BRANCH  31  32
ATOM     32  C   UNL A   1      41.512  25.822  27.771  1.00  0.00     0.031 A 
ATOM     33  C   UNL A   1      42.905  26.152  27.318  1.00  0.00     0.074 A 
ATOM     34  C   UNL A   1      40.822  26.721  28.498  1.00  0.00     0.049 A 
ATOM     35  N   UNL A   1      43.571  27.273  27.448  1.00  0.00    -0.248 NA
ATOM     36  C   UNL A   1      43.652  25.081  26.645  1.00  0.00     0.031 C 
ATOM     37  C   UNL A   1      39.485  26.507  29.054  1.00  0.00     0.029 A 
ATOM     38  N   UNL A   1      41.150  27.992  28.900  1.00  0.00    -0.354 N 
ATOM     39  C   UNL A   1      44.807  27.054  26.853  1.00  0.00     0.074 A 
ATOM     40  C   UNL A   1      44.817  25.672  26.413  1.00  0.00     0.031 C 
ATOM     41  C   UNL A   1      39.100  27.615  29.708  1.00  0.00     0.029 A 
ATOM     42  C   UNL A   1      40.166  28.609  29.634  1.00  0.00     0.049 A 
ATOM     43  H   UNL A   1      42.010  28.420  28.684  1.00  0.00     0.167 HD
ATOM     44  C   UNL A   1      45.830  27.925  26.673  1.00  0.00     0.037 A 
ATOM     45  C   UNL A   1      40.125  29.839  30.181  1.00  0.00     0.037 A 
ATOM     46  C   UNL A   1      45.834  29.293  27.133  1.00  0.00     0.049 A 
ATOM     47  C   UNL A   1      41.289  30.774  29.999  1.00  0.00     0.074 A 
ATOM     48  C   UNL A   1      46.807  30.262  26.954  1.00  0.00     0.029 A 
ATOM     49  N   UNL A   1      44.825  29.880  27.881  1.00  0.00    -0.354 N 
ATOM     50  N   UNL A   1      42.410  30.585  29.347  1.00  0.00    -0.248 NA
ATOM     51  C   UNL A   1      41.173  32.099  30.624  1.00  0.00     0.031 C 
ATOM     52  C   UNL A   1      46.409  31.419  27.635  1.00  0.00     0.029 A 
ATOM     53  C   UNL A   1      45.164  31.188  28.195  1.00  0.00     0.049 A 
ATOM     54  H   UNL A   1      43.989  29.434  28.149  1.00  0.00     0.167 HD
ATOM     55  C   UNL A   1      43.118  31.776  29.456  1.00  0.00     0.074 A 
ATOM     56  C   UNL A   1      42.291  32.685  30.222  1.00  0.00     0.031 C 
ATOM     57  C   UNL A   1      44.341  32.088  28.963  1.00  0.00     0.037 A 
BRANCH  44  58
ATOM     58  C   UNL A   1      47.038  27.424  25.934  1.00  0.00     0.057 A 
ATOM     59  C   UNL A   1      48.101  26.817  26.615  1.00  0.00     0.134 A 
ATOM     60  C   UNL A   1      47.167  27.580  24.547  1.00  0.00     0.134 A 
ATOM     61  F   UNL A   1      48.050  26.647  27.944  1.00  0.00    -0.206 F 
ATOM     62  C   UNL A   1      49.244  26.380  25.943  1.00  0.00     0.040 A 
ATOM     63  C   UNL A   1      48.294  27.124  23.860  1.00  0.00     0.040 A 
ATOM     64  F   UNL A   1      46.184  28.150  23.834  1.00  0.00    -0.206 F 
ATOM     65  C   UNL A   1      49.339  26.526  24.560  1.00  0.00     0.006 A 
ENDBRANCH  44  58
BRANCH  45  66
ATOM     66  C   UNL A   1      38.922  30.282  30.929  1.00  0.00     0.057 A 
ATOM     67  C   UNL A   1      37.881  30.972  30.297  1.00  0.00     0.134 A 
ATOM     68  C   UNL A   1      38.774  29.993  32.290  1.00  0.00     0.134 A 
ATOM     69  F   UNL A   1      37.964  31.282  28.996  1.00  0.00    -0.206 F 
ATOM     70  C   UNL A   1      36.735  31.359  30.994  1.00  0.00     0.040 A 
ATOM     71  C   UNL A   1      37.622  30.350  32.992  1.00  0.00     0.040 A 
ATOM     72  F   UNL A   1      39.729  29.314  32.943  1.00  0.00    -0.206 F 
ATOM     73  C   UNL A   1      36.599  31.038  32.343  1.00  0.00     0.006 A 
ENDBRANCH  45  66
BRANCH  57  74
ATOM     74  C   UNL A   1      44.842  33.482  29.214  1.00  0.00     0.057 A 
ATOM     75  C   UNL A   1      44.536  34.522  28.325  1.00  0.00     0.134 A 
ATOM     76  C   UNL A   1      45.624  33.800  30.333  1.00  0.00     0.134 A 
ATOM     77  F   UNL A   1      43.797  34.287  27.230  1.00  0.00    -0.206 F 
ATOM     78  C   UNL A   1      44.983  35.827  28.544  1.00  0.00     0.040 A 
ATOM     79  C   UNL A   1      46.052  35.107  30.577  1.00  0.00     0.040 A 
ATOM     80  F   UNL A   1      45.940  32.856  31.231  1.00  0.00    -0.206 F 
ATOM     81  C   UNL A   1      45.735  36.124  29.679  1.00  0.00     0.006 A 
ENDBRANCH  57  74
ENDBRANCH  31  32
ENDBRANCH  24  26
ENDBRANCH  23  24
ENDBRANCH  22  23
ENDBRANCH  21  22
ENDBRANCH  20  21
ENDBRANCH   1  20
TORSDOF 18
ENDMDL
MODEL 3
REMARK VINA RESULT:      -9.6      1.531      6.417
REMARK SMILES CCOc1ccc2c(c1)=N[C@H](SCC(=O)OCCOCCOC(=O)c1ccc(-c3c4nc(c(-c5c(F)cccc5F)c5ccc([nH]5)c(-c5c(F)cccc5F)c5nc(c(-c6c(F)cccc6F)c6ccc3[nH]6)C=C5)C=C4)cc1)N=2
REMARK SMILES IDX 18 1 17 2 16 3 14 4 15 5 13 6 12 7 11 8 4 9 5 10 9 11 6 12
REMARK SMILES IDX 8 13 7 14 10 15 79 16 3 17 2 18 1 19 19 20 20 21 21 22 22 23
REMARK SMILES IDX 23 24 24 25 25 26 26 27 78 28 27 29 77 30 28 31 29 32 30 33
REMARK SMILES IDX 71 34 31 35 76 36 70 37 72 38 32 39 75 40 69 41 68 42 33 44
REMARK SMILES IDX 59 45 42 46 58 47 43 48 46 49 57 50 73 51 44 52 45 53 56 55
REMARK SMILES IDX 74 56 47 57 34 58 35 59 40 60 36 61 37 62 39 63 41 64 38 65
REMARK SMILES IDX 60 66 61 67 66 68 62 69 63 70 65 71 67 72 64 73 48 74 49 75
REMARK SMILES IDX 54 76 50 77 51 78 53 79 55 80 52 81
REMARK H PARENT 72 43 46 54
REMARK Flexibility Score: inf
ROOT
ATOM      1  C   UNL A   1      43.235  19.449  25.621  1.00  0.00     0.202 C 
ENDROOT
BRANCH   1   2
ATOM      2  C   UNL A   1      42.302  20.372  26.412  1.00  0.00     0.261 C 
BRANCH   2   3
ATOM      3  O   UNL A   1      40.908  20.153  26.112  1.00  0.00    -0.463 OA
BRANCH   3   4
ATOM      4  C   UNL A   1      40.128  21.269  26.124  1.00  0.00     0.316 C 
ATOM      5  O   UNL A   1      40.527  22.377  26.479  1.00  0.00    -0.251 OA
BRANCH   4   6
ATOM      6  C   UNL A   1      38.734  21.096  25.564  1.00  0.00     0.196 C 
BRANCH   6   7
ATOM      7  S   UNL A   1      37.668  22.564  25.516  1.00  0.00    -0.100 SA
BRANCH   7   8
ATOM      8  C   UNL A   1      36.006  21.834  25.781  1.00  0.00     0.282 C 
ATOM      9  C   UNL A   1      31.694  23.201  25.613  1.00  0.00     0.121 A 
ATOM     10  C   UNL A   1      31.791  22.529  24.328  1.00  0.00     0.049 A 
ATOM     11  C   UNL A   1      32.742  23.328  26.441  1.00  0.00     0.076 A 
ATOM     12  C   UNL A   1      32.903  21.921  23.894  1.00  0.00     0.034 A 
ATOM     13  C   UNL A   1      34.006  22.690  26.048  1.00  0.00     0.090 A 
ATOM     14  C   UNL A   1      34.081  21.965  24.765  1.00  0.00     0.087 A 
ATOM     15  N   UNL A   1      35.130  22.654  26.674  1.00  0.00    -0.246 NA
ATOM     16  N   UNL A   1      35.240  21.445  24.564  1.00  0.00    -0.246 NA
BRANCH   9  17
ATOM     17  O   UNL A   1      30.510  23.861  25.866  1.00  0.00    -0.494 OA
BRANCH  17  18
ATOM     18  C   UNL A   1      30.628  25.277  26.057  1.00  0.00     0.226 C 
ATOM     19  C   UNL A   1      30.361  26.020  24.758  1.00  0.00     0.049 C 
ENDBRANCH  17  18
ENDBRANCH   9  17
ENDBRANCH   7   8
ENDBRANCH   6   7
ENDBRANCH   4   6
ENDBRANCH   3   4
ENDBRANCH   2   3
ENDBRANCH   1   2
BRANCH   1  20
ATOM     20  O   UNL A   1      44.517  19.975  25.288  1.00  0.00    -0.374 OA
BRANCH  20  21
ATOM     21  C   UNL A   1      44.563  21.095  24.402  1.00  0.00     0.202 C 
BRANCH  21  22
ATOM     22  C   UNL A   1      45.178  22.383  24.964  1.00  0.00     0.261 C 
BRANCH  22  23
ATOM     23  O   UNL A   1      44.211  23.446  25.088  1.00  0.00    -0.460 OA
BRANCH  23  24
ATOM     24  C   UNL A   1      44.738  24.681  25.268  1.00  0.00     0.338 C 
ATOM     25  O   UNL A   1      45.650  25.192  24.632  1.00  0.00    -0.246 OA
BRANCH  24  26
ATOM     26  C   UNL A   1      43.937  25.451  26.239  1.00  0.00     0.060 A 
ATOM     27  C   UNL A   1      42.950  24.848  27.021  1.00  0.00     0.016 A 
ATOM     28  C   UNL A   1      44.270  26.797  26.436  1.00  0.00     0.016 A 
ATOM     29  C   UNL A   1      42.325  25.594  28.031  1.00  0.00     0.010 A 
ATOM     30  C   UNL A   1      43.642  27.538  27.440  1.00  0.00     0.010 A 
ATOM     31  C   UNL A   1      42.680  26.936  28.263  1.00  0.00    -0.014 A 
BRANCH  31  32
ATOM     32  C   UNL A   1      42.135  27.683  29.429  1.00  0.00     0.031 A 
ATOM     33  C   UNL A   1      42.753  27.569  30.793  1.00  0.00     0.074 A 
ATOM     34  C   UNL A   1      41.028  28.433  29.265  1.00  0.00     0.049 A 
ATOM     35  N   UNL A   1      42.423  28.182  31.903  1.00  0.00    -0.248 NA
ATOM     36  C   UNL A   1      43.876  26.633  30.932  1.00  0.00     0.031 C 
ATOM     37  C   UNL A   1      40.292  28.583  28.009  1.00  0.00     0.029 A 
ATOM     38  N   UNL A   1      40.326  29.204  30.158  1.00  0.00    -0.354 N 
ATOM     39  C   UNL A   1      43.311  27.728  32.869  1.00  0.00     0.074 A 
ATOM     40  C   UNL A   1      44.157  26.742  32.224  1.00  0.00     0.031 C 
ATOM     41  C   UNL A   1      39.253  29.410  28.207  1.00  0.00     0.029 A 
ATOM     42  C   UNL A   1      39.238  29.835  29.604  1.00  0.00     0.049 A 
ATOM     43  H   UNL A   1      40.578  29.296  31.105  1.00  0.00     0.167 HD
ATOM     44  C   UNL A   1      43.425  28.109  34.165  1.00  0.00     0.037 A 
ATOM     45  C   UNL A   1      38.336  30.667  30.157  1.00  0.00     0.037 A 
ATOM     46  C   UNL A   1      42.568  29.069  34.816  1.00  0.00     0.049 A 
ATOM     47  C   UNL A   1      38.461  31.043  31.608  1.00  0.00     0.074 A 
ATOM     48  C   UNL A   1      42.638  29.550  36.114  1.00  0.00     0.029 A 
ATOM     49  N   UNL A   1      41.471  29.680  34.228  1.00  0.00    -0.354 N 
ATOM     50  N   UNL A   1      39.367  30.683  32.482  1.00  0.00    -0.248 NA
ATOM     51  C   UNL A   1      37.439  31.955  32.142  1.00  0.00     0.031 C 
ATOM     52  C   UNL A   1      41.557  30.414  36.324  1.00  0.00     0.029 A 
ATOM     53  C   UNL A   1      40.841  30.511  35.143  1.00  0.00     0.049 A 
ATOM     54  H   UNL A   1      41.182  29.544  33.297  1.00  0.00     0.167 HD
ATOM     55  C   UNL A   1      39.044  31.346  33.660  1.00  0.00     0.074 A 
ATOM     56  C   UNL A   1      37.868  32.144  33.381  1.00  0.00     0.031 C 
ATOM     57  C   UNL A   1      39.667  31.299  34.863  1.00  0.00     0.037 A 
BRANCH  44  58
ATOM     58  C   UNL A   1      44.529  27.485  34.971  1.00  0.00     0.057 A 
ATOM     59  C   UNL A   1      45.810  28.052  35.004  1.00  0.00     0.134 A 
ATOM     60  C   UNL A   1      44.333  26.294  35.685  1.00  0.00     0.134 A 
ATOM     61  F   UNL A   1      46.071  29.183  34.333  1.00  0.00    -0.206 F 
ATOM     62  C   UNL A   1      46.851  27.460  35.720  1.00  0.00     0.040 A 
ATOM     63  C   UNL A   1      45.361  25.707  36.425  1.00  0.00     0.040 A 
ATOM     64  F   UNL A   1      43.130  25.701  35.698  1.00  0.00    -0.206 F 
ATOM     65  C   UNL A   1      46.626  26.288  36.440  1.00  0.00     0.006 A 
ENDBRANCH  44  58
BRANCH  45  66
ATOM     66  C   UNL A   1      37.242  31.236  29.330  1.00  0.00     0.057 A 
ATOM     67  C   UNL A   1      36.064  30.522  29.082  1.00  0.00     0.134 A 
ATOM     68  C   UNL A   1      37.342  32.526  28.795  1.00  0.00     0.134 A 
ATOM     69  F   UNL A   1      35.910  29.280  29.563  1.00  0.00    -0.206 F 
ATOM     70  C   UNL A   1      35.024  31.071  28.331  1.00  0.00     0.040 A 
ATOM     71  C   UNL A   1      36.298  33.097  28.066  1.00  0.00     0.040 A 
ATOM     72  F   UNL A   1      38.437  33.266  29.019  1.00  0.00    -0.206 F 
ATOM     73  C   UNL A   1      35.135  32.367  27.830  1.00  0.00     0.006 A 
ENDBRANCH  45  66
BRANCH  57  74
ATOM     74  C   UNL A   1      39.103  32.161  35.957  1.00  0.00     0.057 A 
ATOM     75  C   UNL A   1      39.466  33.511  36.061  1.00  0.00     0.134 A 
ATOM     76  C   UNL A   1      38.200  31.662  36.905  1.00  0.00     0.134 A 
ATOM     77  F   UNL A   1      40.330  34.054  35.191  1.00  0.00    -0.206 F 
ATOM     78  C   UNL A   1      38.946  34.333  37.064  1.00  0.00     0.040 A 
ATOM     79  C   UNL A   1      37.652  32.481  37.894  1.00  0.00     0.040 A 
ATOM     80  F   UNL A   1      37.798  30.383  36.853  1.00  0.00    -0.206 F 
ATOM     81  C   UNL A   1      38.028  33.820  37.978  1.00  0.00     0.006 A 
ENDBRANCH  57  74
ENDBRANCH  31  32
ENDBRANCH  24  26
ENDBRANCH  23  24
ENDBRANCH  22  23
ENDBRANCH  21  22
ENDBRANCH  20  21
ENDBRANCH   1  20
TORSDOF 18
ENDMDL
