MODEL 1
REMARK VINA RESULT:     -12.2      0.000      0.000
REMARK SMILES Cc1c(C(=O)Nc2ccc(C(=O)Nc3ccccc3C(=O)OCCOCCOC(=O)c3ccc(-c4c5nc(c(-c6c(F)cccc6F)c6ccc([nH]6)c(-c6c(F)cccc6F)c6nc(c(-c7c(F)cccc7F)c7ccc4[nH]7)C=C6)C=C5)cc3)cc2)cccc1[N+](=O)[O-]
REMARK SMILES IDX 23 1 22 2 20 3 21 4 19 5 14 6 15 7 16 8 18 9 17 10 13 11
REMARK SMILES IDX 11 12 12 13 10 15 7 16 8 17 86 18 9 19 85 20 6 21 4 22 5 23
REMARK SMILES IDX 3 25 1 26 2 27 90 28 87 29 89 30 88 31 91 32 92 33 93 34
REMARK SMILES IDX 24 35 25 36 26 37 27 38 28 39 29 40 30 41 31 42 32 43 84 44
REMARK SMILES IDX 33 45 83 46 34 47 35 48 36 49 77 50 37 51 82 52 76 53 78 54
REMARK SMILES IDX 38 55 81 56 75 57 74 58 39 60 65 61 48 62 64 63 49 64 52 65
REMARK SMILES IDX 63 66 79 67 50 68 51 69 62 71 80 72 53 73 40 74 41 75 46 76
REMARK SMILES IDX 42 77 43 78 45 79 47 80 44 81 66 82 67 83 72 84 68 85 69 86
REMARK SMILES IDX 71 87 73 88 70 89 54 90 55 91 60 92 56 93 57 94 59 95 61 96
REMARK SMILES IDX 58 97
REMARK H PARENT 13 14 6 24 78 59 52 70
REMARK Flexibility Score: inf
ROOT
ATOM      1  C   UNL A   1      32.873  33.725  27.735  1.00  0.00     0.261 C 
ENDROOT
BRANCH   1   2
ATOM      2  O   UNL A   1      32.976  32.302  27.534  1.00  0.00    -0.460 OA
BRANCH   2   3
ATOM      3  C   UNL A   1      32.027  31.573  26.871  1.00  0.00     0.340 C 
ATOM      4  O   UNL A   1      30.963  31.953  26.491  1.00  0.00    -0.246 OA
BRANCH   3   5
ATOM      5  C   UNL A   1      32.620  30.232  26.530  1.00  0.00     0.083 A 
ATOM      6  C   UNL A   1      32.196  29.519  25.386  1.00  0.00     0.056 A 
ATOM      7  C   UNL A   1      32.844  28.324  25.029  1.00  0.00     0.027 A 
ATOM      8  C   UNL A   1      33.961  27.887  25.737  1.00  0.00     0.002 A 
ATOM      9  C   UNL A   1      33.697  29.726  27.282  1.00  0.00     0.018 A 
ATOM     10  C   UNL A   1      34.383  28.581  26.866  1.00  0.00     0.001 A 
BRANCH   6  11
ATOM     11  N   UNL A   1      31.230  29.944  24.459  1.00  0.00    -0.321 N 
ATOM     12  C   UNL A   1      30.502  29.251  23.514  1.00  0.00     0.255 C 
ATOM     13  O   UNL A   1      29.742  29.897  22.788  1.00  0.00    -0.269 OA
ATOM     14  H   UNL A   1      31.039  30.909  24.489  1.00  0.00     0.170 HD
BRANCH  12  15
ATOM     15  C   UNL A   1      30.521  27.760  23.363  1.00  0.00     0.040 A 
ATOM     16  C   UNL A   1      30.888  24.968  23.103  1.00  0.00     0.041 A 
ATOM     17  C   UNL A   1      30.071  25.494  24.099  1.00  0.00     0.027 A 
ATOM     18  C   UNL A   1      31.504  25.837  22.208  1.00  0.00     0.027 A 
ATOM     19  C   UNL A   1      29.842  26.867  24.187  1.00  0.00     0.016 A 
ATOM     20  C   UNL A   1      31.302  27.221  22.325  1.00  0.00     0.016 A 
BRANCH  16  21
ATOM     21  N   UNL A   1      31.029  23.584  22.909  1.00  0.00    -0.322 N 
ATOM     22  C   UNL A   1      31.898  22.712  23.547  1.00  0.00     0.256 C 
ATOM     23  O   UNL A   1      32.039  21.567  23.125  1.00  0.00    -0.269 OA
ATOM     24  H   UNL A   1      30.435  23.183  22.234  1.00  0.00     0.170 HD
BRANCH  22  25
ATOM     25  C   UNL A   1      32.670  23.154  24.755  1.00  0.00     0.049 A 
ATOM     26  C   UNL A   1      34.662  24.064  23.455  1.00  0.00     0.053 C 
ATOM     27  C   UNL A   1      34.037  23.523  24.718  1.00  0.00     0.039 A 
ATOM     28  C   UNL A   1      34.768  23.359  25.913  1.00  0.00     0.273 A 
ATOM     29  C   UNL A   1      32.007  23.019  25.985  1.00  0.00     0.014 A 
ATOM     30  C   UNL A   1      34.105  23.186  27.141  1.00  0.00     0.086 A 
ATOM     31  C   UNL A   1      32.717  23.099  27.179  1.00  0.00     0.008 A 
BRANCH  28  32
ATOM     32  N   UNL A   1      36.227  23.116  25.906  1.00  0.00     0.063 N 
ATOM     33  O   UNL A   1      36.600  21.955  25.672  1.00  0.00    -0.258 OA
ATOM     34  O   UNL A   1      36.996  24.069  26.072  1.00  0.00    -0.258 OA
ENDBRANCH  28  32
ENDBRANCH  22  25
ENDBRANCH  16  21
ENDBRANCH  12  15
ENDBRANCH   6  11
ENDBRANCH   3   5
ENDBRANCH   2   3
ENDBRANCH   1   2
BRANCH   1  35
ATOM     35  C   UNL A   1      33.873  34.531  28.545  1.00  0.00     0.202 C 
BRANCH  35  36
ATOM     36  O   UNL A   1      33.617  34.732  29.914  1.00  0.00    -0.374 OA
BRANCH  36  37
ATOM     37  C   UNL A   1      34.448  34.128  30.890  1.00  0.00     0.202 C 
BRANCH  37  38
ATOM     38  C   UNL A   1      34.491  32.591  30.908  1.00  0.00     0.261 C 
BRANCH  38  39
ATOM     39  O   UNL A   1      35.478  32.043  30.008  1.00  0.00    -0.460 OA
BRANCH  39  40
ATOM     40  C   UNL A   1      36.564  31.458  30.589  1.00  0.00     0.338 C 
ATOM     41  O   UNL A   1      37.290  31.992  31.411  1.00  0.00    -0.246 OA
BRANCH  40  42
ATOM     42  C   UNL A   1      36.886  30.207  29.840  1.00  0.00     0.060 A 
ATOM     43  C   UNL A   1      37.293  29.087  30.574  1.00  0.00     0.016 A 
ATOM     44  C   UNL A   1      37.242  30.315  28.500  1.00  0.00     0.016 A 
ATOM     45  C   UNL A   1      38.372  28.331  30.102  1.00  0.00     0.010 A 
ATOM     46  C   UNL A   1      38.314  29.563  28.051  1.00  0.00     0.010 A 
ATOM     47  C   UNL A   1      39.025  28.735  28.941  1.00  0.00    -0.014 A 
BRANCH  47  48
ATOM     48  C   UNL A   1      40.493  28.585  28.730  1.00  0.00     0.031 A 
ATOM     49  C   UNL A   1      40.942  27.351  28.090  1.00  0.00     0.074 A 
ATOM     50  C   UNL A   1      41.477  29.503  28.891  1.00  0.00     0.049 A 
ATOM     51  N   UNL A   1      41.310  26.280  28.714  1.00  0.00    -0.248 NA
ATOM     52  C   UNL A   1      40.877  27.250  26.629  1.00  0.00     0.031 C 
ATOM     53  C   UNL A   1      42.892  29.376  28.525  1.00  0.00     0.029 A 
ATOM     54  N   UNL A   1      41.412  30.786  29.434  1.00  0.00    -0.354 N 
ATOM     55  C   UNL A   1      41.759  25.449  27.713  1.00  0.00     0.074 A 
ATOM     56  C   UNL A   1      41.185  25.963  26.473  1.00  0.00     0.031 C 
ATOM     57  C   UNL A   1      43.594  30.366  29.108  1.00  0.00     0.029 A 
ATOM     58  C   UNL A   1      42.678  31.154  29.917  1.00  0.00     0.049 A 
ATOM     59  H   UNL A   1      40.604  31.347  29.471  1.00  0.00     0.167 HD
ATOM     60  C   UNL A   1      42.997  24.876  27.758  1.00  0.00     0.037 A 
ATOM     61  C   UNL A   1      42.819  31.519  31.221  1.00  0.00     0.037 A 
ATOM     62  C   UNL A   1      43.906  25.633  28.626  1.00  0.00     0.049 A 
ATOM     63  C   UNL A   1      43.466  30.388  31.968  1.00  0.00     0.074 A 
ATOM     64  C   UNL A   1      44.975  26.463  28.321  1.00  0.00     0.029 A 
ATOM     65  N   UNL A   1      43.625  25.849  29.973  1.00  0.00    -0.354 N 
ATOM     66  N   UNL A   1      43.635  29.215  31.422  1.00  0.00    -0.248 NA
ATOM     67  C   UNL A   1      44.005  30.446  33.321  1.00  0.00     0.031 C 
ATOM     68  C   UNL A   1      45.337  27.175  29.491  1.00  0.00     0.029 A 
ATOM     69  C   UNL A   1      44.499  26.773  30.519  1.00  0.00     0.049 A 
ATOM     70  H   UNL A   1      42.901  25.404  30.469  1.00  0.00     0.167 HD
ATOM     71  C   UNL A   1      44.249  28.376  32.289  1.00  0.00     0.074 A 
ATOM     72  C   UNL A   1      44.471  29.190  33.470  1.00  0.00     0.031 C 
ATOM     73  C   UNL A   1      44.490  27.081  31.945  1.00  0.00     0.037 A 
BRANCH  60  74
ATOM     74  C   UNL A   1      43.450  23.918  26.675  1.00  0.00     0.057 A 
ATOM     75  C   UNL A   1      43.204  22.539  26.754  1.00  0.00     0.134 A 
ATOM     76  C   UNL A   1      44.073  24.334  25.477  1.00  0.00     0.134 A 
ATOM     77  F   UNL A   1      42.494  22.007  27.759  1.00  0.00    -0.206 F 
ATOM     78  C   UNL A   1      43.643  21.634  25.779  1.00  0.00     0.040 A 
ATOM     79  C   UNL A   1      44.560  23.437  24.518  1.00  0.00     0.040 A 
ATOM     80  F   UNL A   1      44.213  25.634  25.174  1.00  0.00    -0.206 F 
ATOM     81  C   UNL A   1      44.351  22.077  24.671  1.00  0.00     0.006 A 
ENDBRANCH  60  74
BRANCH  61  82
ATOM     82  C   UNL A   1      41.716  32.428  31.657  1.00  0.00     0.057 A 
ATOM     83  C   UNL A   1      40.724  31.867  32.487  1.00  0.00     0.134 A 
ATOM     84  C   UNL A   1      41.868  33.817  31.722  1.00  0.00     0.134 A 
ATOM     85  F   UNL A   1      40.515  30.540  32.479  1.00  0.00    -0.206 F 
ATOM     86  C   UNL A   1      40.029  32.622  33.440  1.00  0.00     0.040 A 
ATOM     87  C   UNL A   1      41.192  34.580  32.691  1.00  0.00     0.040 A 
ATOM     88  F   UNL A   1      42.780  34.437  30.962  1.00  0.00    -0.206 F 
ATOM     89  C   UNL A   1      40.305  33.977  33.582  1.00  0.00     0.006 A 
ENDBRANCH  61  82
BRANCH  73  90
ATOM     90  C   UNL A   1      44.822  26.004  32.927  1.00  0.00     0.057 A 
ATOM     91  C   UNL A   1      43.898  25.511  33.859  1.00  0.00     0.134 A 
ATOM     92  C   UNL A   1      46.038  25.299  32.834  1.00  0.00     0.134 A 
ATOM     93  F   UNL A   1      42.668  26.031  33.973  1.00  0.00    -0.206 F 
ATOM     94  C   UNL A   1      44.184  24.419  34.681  1.00  0.00     0.040 A 
ATOM     95  C   UNL A   1      46.311  24.173  33.607  1.00  0.00     0.040 A 
ATOM     96  F   UNL A   1      46.998  25.659  31.968  1.00  0.00    -0.206 F 
ATOM     97  C   UNL A   1      45.387  23.736  34.546  1.00  0.00     0.006 A 
ENDBRANCH  73  90
ENDBRANCH  47  48
ENDBRANCH  40  42
ENDBRANCH  39  40
ENDBRANCH  38  39
ENDBRANCH  37  38
ENDBRANCH  36  37
ENDBRANCH  35  36
ENDBRANCH   1  35
TORSDOF 19
ENDMDL
MODEL 2
REMARK VINA RESULT:     -12.2      3.301      9.020
REMARK SMILES Cc1c(C(=O)Nc2ccc(C(=O)Nc3ccccc3C(=O)OCCOCCOC(=O)c3ccc(-c4c5nc(c(-c6c(F)cccc6F)c6ccc([nH]6)c(-c6c(F)cccc6F)c6nc(c(-c7c(F)cccc7F)c7ccc4[nH]7)C=C6)C=C5)cc3)cc2)cccc1[N+](=O)[O-]
REMARK SMILES IDX 23 1 22 2 20 3 21 4 19 5 14 6 15 7 16 8 18 9 17 10 13 11
REMARK SMILES IDX 11 12 12 13 10 15 7 16 8 17 86 18 9 19 85 20 6 21 4 22 5 23
REMARK SMILES IDX 3 25 1 26 2 27 90 28 87 29 89 30 88 31 91 32 92 33 93 34
REMARK SMILES IDX 24 35 25 36 26 37 27 38 28 39 29 40 30 41 31 42 32 43 84 44
REMARK SMILES IDX 33 45 83 46 34 47 35 48 36 49 77 50 37 51 82 52 76 53 78 54
REMARK SMILES IDX 38 55 81 56 75 57 74 58 39 60 65 61 48 62 64 63 49 64 52 65
REMARK SMILES IDX 63 66 79 67 50 68 51 69 62 71 80 72 53 73 40 74 41 75 46 76
REMARK SMILES IDX 42 77 43 78 45 79 47 80 44 81 66 82 67 83 72 84 68 85 69 86
REMARK SMILES IDX 71 87 73 88 70 89 54 90 55 91 60 92 56 93 57 94 59 95 61 96
REMARK SMILES IDX 58 97
REMARK H PARENT 13 14 6 24 78 59 52 70
REMARK Flexibility Score: inf
ROOT
ATOM      1  C   UNL A   1      41.330  19.921  26.967  1.00  0.00     0.261 C 
ENDROOT
BRANCH   1   2
ATOM      2  O   UNL A   1      40.172  20.752  26.751  1.00  0.00    -0.460 OA
BRANCH   2   3
ATOM      3  C   UNL A   1      39.214  20.464  25.818  1.00  0.00     0.340 C 
ATOM      4  O   UNL A   1      38.988  19.405  25.321  1.00  0.00    -0.246 OA
BRANCH   3   5
ATOM      5  C   UNL A   1      38.348  21.683  25.645  1.00  0.00     0.083 A 
ATOM      6  C   UNL A   1      37.020  21.572  25.173  1.00  0.00     0.056 A 
ATOM      7  C   UNL A   1      36.199  22.711  25.127  1.00  0.00     0.027 A 
ATOM      8  C   UNL A   1      36.650  23.929  25.632  1.00  0.00     0.002 A 
ATOM      9  C   UNL A   1      38.812  22.942  26.069  1.00  0.00     0.018 A 
ATOM     10  C   UNL A   1      37.956  24.048  26.094  1.00  0.00     0.001 A 
BRANCH   6  11
ATOM     11  N   UNL A   1      36.362  20.379  24.834  1.00  0.00    -0.321 N 
ATOM     12  C   UNL A   1      35.035  20.012  24.914  1.00  0.00     0.255 C 
ATOM     13  O   UNL A   1      34.736  18.861  24.584  1.00  0.00    -0.269 OA
ATOM     14  H   UNL A   1      36.955  19.679  24.475  1.00  0.00     0.170 HD
BRANCH  12  15
ATOM     15  C   UNL A   1      33.926  20.942  25.303  1.00  0.00     0.040 A 
ATOM     16  C   UNL A   1      31.625  22.463  25.928  1.00  0.00     0.041 A 
ATOM     17  C   UNL A   1      32.572  22.161  26.903  1.00  0.00     0.027 A 
ATOM     18  C   UNL A   1      31.841  22.031  24.623  1.00  0.00     0.027 A 
ATOM     19  C   UNL A   1      33.736  21.466  26.579  1.00  0.00     0.016 A 
ATOM     20  C   UNL A   1      32.994  21.296  24.311  1.00  0.00     0.016 A 
BRANCH  16  21
ATOM     21  N   UNL A   1      30.512  23.277  26.197  1.00  0.00    -0.322 N 
ATOM     22  C   UNL A   1      30.421  24.658  26.124  1.00  0.00     0.256 C 
ATOM     23  O   UNL A   1      29.439  25.235  26.583  1.00  0.00    -0.269 OA
ATOM     24  H   UNL A   1      29.693  22.805  26.474  1.00  0.00     0.170 HD
BRANCH  22  25
ATOM     25  C   UNL A   1      31.516  25.461  25.484  1.00  0.00     0.049 A 
ATOM     26  C   UNL A   1      30.549  25.366  23.130  1.00  0.00     0.053 C 
ATOM     27  C   UNL A   1      31.704  25.550  24.083  1.00  0.00     0.039 A 
ATOM     28  C   UNL A   1      33.016  25.818  23.638  1.00  0.00     0.273 A 
ATOM     29  C   UNL A   1      32.473  25.994  26.362  1.00  0.00     0.014 A 
ATOM     30  C   UNL A   1      33.986  26.317  24.526  1.00  0.00     0.086 A 
ATOM     31  C   UNL A   1      33.682  26.480  25.873  1.00  0.00     0.008 A 
BRANCH  28  32
ATOM     32  N   UNL A   1      33.496  25.366  22.315  1.00  0.00     0.063 N 
ATOM     33  O   UNL A   1      33.665  26.242  21.451  1.00  0.00    -0.258 OA
ATOM     34  O   UNL A   1      33.758  24.170  22.146  1.00  0.00    -0.258 OA
ENDBRANCH  28  32
ENDBRANCH  22  25
ENDBRANCH  16  21
ENDBRANCH  12  15
ENDBRANCH   6  11
ENDBRANCH   3   5
ENDBRANCH   2   3
ENDBRANCH   1   2
BRANCH   1  35
ATOM     35  C   UNL A   1      42.347  19.604  25.886  1.00  0.00     0.202 C 
BRANCH  35  36
ATOM     36  O   UNL A   1      43.599  20.245  25.937  1.00  0.00    -0.374 OA
BRANCH  36  37
ATOM     37  C   UNL A   1      43.774  21.517  25.338  1.00  0.00     0.202 C 
BRANCH  37  38
ATOM     38  C   UNL A   1      44.591  22.550  26.134  1.00  0.00     0.261 C 
BRANCH  38  39
ATOM     39  O   UNL A   1      43.778  23.605  26.689  1.00  0.00    -0.460 OA
BRANCH  39  40
ATOM     40  C   UNL A   1      43.296  24.524  25.804  1.00  0.00     0.338 C 
ATOM     41  O   UNL A   1      43.950  25.057  24.924  1.00  0.00    -0.246 OA
BRANCH  40  42
ATOM     42  C   UNL A   1      41.957  24.983  26.280  1.00  0.00     0.060 A 
ATOM     43  C   UNL A   1      41.494  26.228  25.838  1.00  0.00     0.016 A 
ATOM     44  C   UNL A   1      41.457  24.443  27.459  1.00  0.00     0.016 A 
ATOM     45  C   UNL A   1      40.886  27.084  26.764  1.00  0.00     0.010 A 
ATOM     46  C   UNL A   1      40.862  25.305  28.365  1.00  0.00     0.010 A 
ATOM     47  C   UNL A   1      40.792  26.685  28.095  1.00  0.00    -0.014 A 
BRANCH  47  48
ATOM     48  C   UNL A   1      40.913  27.627  29.244  1.00  0.00     0.031 A 
ATOM     49  C   UNL A   1      39.767  28.496  29.503  1.00  0.00     0.074 A 
ATOM     50  C   UNL A   1      41.868  27.686  30.204  1.00  0.00     0.049 A 
ATOM     51  N   UNL A   1      39.619  29.692  29.035  1.00  0.00    -0.248 NA
ATOM     52  C   UNL A   1      38.631  27.961  30.259  1.00  0.00     0.031 C 
ATOM     53  C   UNL A   1      41.877  28.518  31.411  1.00  0.00     0.029 A 
ATOM     54  N   UNL A   1      43.070  26.987  30.302  1.00  0.00    -0.354 N 
ATOM     55  C   UNL A   1      38.474  30.150  29.645  1.00  0.00     0.074 A 
ATOM     56  C   UNL A   1      37.766  28.964  30.117  1.00  0.00     0.031 C 
ATOM     57  C   UNL A   1      43.112  28.515  31.947  1.00  0.00     0.029 A 
ATOM     58  C   UNL A   1      43.974  27.719  31.087  1.00  0.00     0.049 A 
ATOM     59  H   UNL A   1      43.255  26.114  29.884  1.00  0.00     0.167 HD
ATOM     60  C   UNL A   1      38.448  31.332  30.326  1.00  0.00     0.037 A 
ATOM     61  C   UNL A   1      45.186  28.063  30.572  1.00  0.00     0.037 A 
ATOM     62  C   UNL A   1      39.790  31.726  30.767  1.00  0.00     0.049 A 
ATOM     63  C   UNL A   1      45.159  29.522  30.217  1.00  0.00     0.074 A 
ATOM     64  C   UNL A   1      40.375  31.717  32.026  1.00  0.00     0.029 A 
ATOM     65  N   UNL A   1      40.831  31.922  29.863  1.00  0.00    -0.354 N 
ATOM     66  N   UNL A   1      44.051  30.211  30.237  1.00  0.00    -0.248 NA
ATOM     67  C   UNL A   1      46.308  30.343  29.858  1.00  0.00     0.031 C 
ATOM     68  C   UNL A   1      41.769  31.915  31.874  1.00  0.00     0.029 A 
ATOM     69  C   UNL A   1      42.041  32.056  30.523  1.00  0.00     0.049 A 
ATOM     70  H   UNL A   1      40.721  31.960  28.886  1.00  0.00     0.167 HD
ATOM     71  C   UNL A   1      44.290  31.498  29.893  1.00  0.00     0.074 A 
ATOM     72  C   UNL A   1      45.724  31.542  29.668  1.00  0.00     0.031 C 
ATOM     73  C   UNL A   1      43.268  32.392  29.807  1.00  0.00     0.037 A 
BRANCH  60  74
ATOM     74  C   UNL A   1      37.163  31.846  30.941  1.00  0.00     0.057 A 
ATOM     75  C   UNL A   1      36.195  32.522  30.181  1.00  0.00     0.134 A 
ATOM     76  C   UNL A   1      36.796  31.620  32.287  1.00  0.00     0.134 A 
ATOM     77  F   UNL A   1      36.329  32.687  28.858  1.00  0.00    -0.206 F 
ATOM     78  C   UNL A   1      35.016  33.034  30.738  1.00  0.00     0.040 A 
ATOM     79  C   UNL A   1      35.645  32.166  32.868  1.00  0.00     0.040 A 
ATOM     80  F   UNL A   1      37.531  30.836  33.091  1.00  0.00    -0.206 F 
ATOM     81  C   UNL A   1      34.751  32.885  32.092  1.00  0.00     0.006 A 
ENDBRANCH  60  74
BRANCH  61  82
ATOM     82  C   UNL A   1      45.810  26.924  29.833  1.00  0.00     0.057 A 
ATOM     83  C   UNL A   1      45.697  26.944  28.428  1.00  0.00     0.134 A 
ATOM     84  C   UNL A   1      46.866  26.173  30.361  1.00  0.00     0.134 A 
ATOM     85  F   UNL A   1      44.707  27.640  27.845  1.00  0.00    -0.206 F 
ATOM     86  C   UNL A   1      46.666  26.378  27.590  1.00  0.00     0.040 A 
ATOM     87  C   UNL A   1      47.856  25.622  29.529  1.00  0.00     0.040 A 
ATOM     88  F   UNL A   1      47.045  26.091  31.686  1.00  0.00    -0.206 F 
ATOM     89  C   UNL A   1      47.782  25.762  28.144  1.00  0.00     0.006 A 
ENDBRANCH  61  82
BRANCH  73  90
ATOM     90  C   UNL A   1      43.366  33.707  29.103  1.00  0.00     0.057 A 
ATOM     91  C   UNL A   1      43.301  34.937  29.772  1.00  0.00     0.134 A 
ATOM     92  C   UNL A   1      43.717  33.766  27.740  1.00  0.00     0.134 A 
ATOM     93  F   UNL A   1      43.076  35.009  31.091  1.00  0.00    -0.206 F 
ATOM     94  C   UNL A   1      43.523  36.151  29.117  1.00  0.00     0.040 A 
ATOM     95  C   UNL A   1      43.998  34.966  27.090  1.00  0.00     0.040 A 
ATOM     96  F   UNL A   1      43.831  32.658  26.992  1.00  0.00    -0.206 F 
ATOM     97  C   UNL A   1      43.888  36.167  27.776  1.00  0.00     0.006 A 
ENDBRANCH  73  90
ENDBRANCH  47  48
ENDBRANCH  40  42
ENDBRANCH  39  40
ENDBRANCH  38  39
ENDBRANCH  37  38
ENDBRANCH  36  37
ENDBRANCH  35  36
ENDBRANCH   1  35
TORSDOF 19
ENDMDL
MODEL 3
REMARK VINA RESULT:     -11.7      1.727      2.313
REMARK SMILES Cc1c(C(=O)Nc2ccc(C(=O)Nc3ccccc3C(=O)OCCOCCOC(=O)c3ccc(-c4c5nc(c(-c6c(F)cccc6F)c6ccc([nH]6)c(-c6c(F)cccc6F)c6nc(c(-c7c(F)cccc7F)c7ccc4[nH]7)C=C6)C=C5)cc3)cc2)cccc1[N+](=O)[O-]
REMARK SMILES IDX 23 1 22 2 20 3 21 4 19 5 14 6 15 7 16 8 18 9 17 10 13 11
REMARK SMILES IDX 11 12 12 13 10 15 7 16 8 17 86 18 9 19 85 20 6 21 4 22 5 23
REMARK SMILES IDX 3 25 1 26 2 27 90 28 87 29 89 30 88 31 91 32 92 33 93 34
REMARK SMILES IDX 24 35 25 36 26 37 27 38 28 39 29 40 30 41 31 42 32 43 84 44
REMARK SMILES IDX 33 45 83 46 34 47 35 48 36 49 77 50 37 51 82 52 76 53 78 54
REMARK SMILES IDX 38 55 81 56 75 57 74 58 39 60 65 61 48 62 64 63 49 64 52 65
REMARK SMILES IDX 63 66 79 67 50 68 51 69 62 71 80 72 53 73 40 74 41 75 46 76
REMARK SMILES IDX 42 77 43 78 45 79 47 80 44 81 66 82 67 83 72 84 68 85 69 86
REMARK SMILES IDX 71 87 73 88 70 89 54 90 55 91 60 92 56 93 57 94 59 95 61 96
REMARK SMILES IDX 58 97
REMARK H PARENT 13 14 6 24 78 59 52 70
REMARK Flexibility Score: inf
ROOT
ATOM      1  C   UNL A   1      33.195  34.312  28.420  1.00  0.00     0.261 C 
ENDROOT
BRANCH   1   2
ATOM      2  O   UNL A   1      33.307  33.006  27.820  1.00  0.00    -0.460 OA
BRANCH   2   3
ATOM      3  C   UNL A   1      32.308  32.441  27.076  1.00  0.00     0.340 C 
ATOM      4  O   UNL A   1      31.379  32.996  26.579  1.00  0.00    -0.246 OA
BRANCH   3   5
ATOM      5  C   UNL A   1      32.670  31.002  26.824  1.00  0.00     0.083 A 
ATOM      6  C   UNL A   1      31.916  30.207  25.931  1.00  0.00     0.056 A 
ATOM      7  C   UNL A   1      32.341  28.902  25.630  1.00  0.00     0.027 A 
ATOM      8  C   UNL A   1      33.549  28.419  26.127  1.00  0.00     0.002 A 
ATOM      9  C   UNL A   1      33.843  30.462  27.384  1.00  0.00     0.018 A 
ATOM     10  C   UNL A   1      34.296  29.192  27.009  1.00  0.00     0.001 A 
BRANCH   6  11
ATOM     11  N   UNL A   1      30.800  30.630  25.191  1.00  0.00    -0.321 N 
ATOM     12  C   UNL A   1      30.234  30.144  24.031  1.00  0.00     0.255 C 
ATOM     13  O   UNL A   1      29.265  30.751  23.566  1.00  0.00    -0.269 OA
ATOM     14  H   UNL A   1      30.339  31.415  25.568  1.00  0.00     0.170 HD
BRANCH  12  15
ATOM     15  C   UNL A   1      30.673  28.887  23.343  1.00  0.00     0.040 A 
ATOM     16  C   UNL A   1      31.792  26.554  22.201  1.00  0.00     0.041 A 
ATOM     17  C   UNL A   1      30.600  26.501  22.918  1.00  0.00     0.027 A 
ATOM     18  C   UNL A   1      32.417  27.784  22.024  1.00  0.00     0.027 A 
ATOM     19  C   UNL A   1      30.018  27.662  23.426  1.00  0.00     0.016 A 
ATOM     20  C   UNL A   1      31.848  28.944  22.572  1.00  0.00     0.016 A 
BRANCH  16  21
ATOM     21  N   UNL A   1      32.329  25.423  21.565  1.00  0.00    -0.322 N 
ATOM     22  C   UNL A   1      33.084  24.402  22.122  1.00  0.00     0.256 C 
ATOM     23  O   UNL A   1      33.648  23.588  21.396  1.00  0.00    -0.269 OA
ATOM     24  H   UNL A   1      32.147  25.346  20.600  1.00  0.00     0.170 HD
BRANCH  22  25
ATOM     25  C   UNL A   1      33.218  24.280  23.612  1.00  0.00     0.049 A 
ATOM     26  C   UNL A   1      31.084  22.931  23.942  1.00  0.00     0.053 C 
ATOM     27  C   UNL A   1      32.170  23.841  24.458  1.00  0.00     0.039 A 
ATOM     28  C   UNL A   1      32.203  24.299  25.792  1.00  0.00     0.273 A 
ATOM     29  C   UNL A   1      34.402  24.795  24.160  1.00  0.00     0.014 A 
ATOM     30  C   UNL A   1      33.379  24.850  26.332  1.00  0.00     0.086 A 
ATOM     31  C   UNL A   1      34.503  25.020  25.530  1.00  0.00     0.008 A 
BRANCH  28  32
ATOM     32  N   UNL A   1      30.970  24.450  26.593  1.00  0.00     0.063 N 
ATOM     33  O   UNL A   1      30.692  23.526  27.375  1.00  0.00    -0.258 OA
ATOM     34  O   UNL A   1      30.313  25.492  26.495  1.00  0.00    -0.258 OA
ENDBRANCH  28  32
ENDBRANCH  22  25
ENDBRANCH  16  21
ENDBRANCH  12  15
ENDBRANCH   6  11
ENDBRANCH   3   5
ENDBRANCH   2   3
ENDBRANCH   1   2
BRANCH   1  35
ATOM     35  C   UNL A   1      33.717  34.645  29.806  1.00  0.00     0.202 C 
BRANCH  35  36
ATOM     36  O   UNL A   1      34.000  33.585  30.686  1.00  0.00    -0.374 OA
BRANCH  36  37
ATOM     37  C   UNL A   1      35.015  32.647  30.372  1.00  0.00     0.202 C 
BRANCH  37  38
ATOM     38  C   UNL A   1      36.452  33.024  30.771  1.00  0.00     0.261 C 
BRANCH  38  39
ATOM     39  O   UNL A   1      37.449  32.189  30.145  1.00  0.00    -0.460 OA
BRANCH  39  40
ATOM     40  C   UNL A   1      37.770  31.038  30.803  1.00  0.00     0.338 C 
ATOM     41  O   UNL A   1      38.244  30.983  31.925  1.00  0.00    -0.246 OA
BRANCH  40  42
ATOM     42  C   UNL A   1      37.736  29.909  29.826  1.00  0.00     0.060 A 
ATOM     43  C   UNL A   1      37.912  28.609  30.317  1.00  0.00     0.016 A 
ATOM     44  C   UNL A   1      38.018  30.182  28.493  1.00  0.00     0.016 A 
ATOM     45  C   UNL A   1      38.748  27.734  29.614  1.00  0.00     0.010 A 
ATOM     46  C   UNL A   1      38.850  29.308  27.813  1.00  0.00     0.010 A 
ATOM     47  C   UNL A   1      39.401  28.192  28.472  1.00  0.00    -0.014 A 
BRANCH  47  48
ATOM     48  C   UNL A   1      40.774  27.762  28.084  1.00  0.00     0.031 A 
ATOM     49  C   UNL A   1      40.963  26.340  27.806  1.00  0.00     0.074 A 
ATOM     50  C   UNL A   1      41.854  28.523  27.782  1.00  0.00     0.049 A 
ATOM     51  N   UNL A   1      41.345  25.458  28.669  1.00  0.00    -0.248 NA
ATOM     52  C   UNL A   1      40.594  25.824  26.484  1.00  0.00     0.031 C 
ATOM     53  C   UNL A   1      43.146  28.078  27.249  1.00  0.00     0.029 A 
ATOM     54  N   UNL A   1      42.024  29.903  27.890  1.00  0.00    -0.354 N 
ATOM     55  C   UNL A   1      41.500  24.310  27.926  1.00  0.00     0.074 A 
ATOM     56  C   UNL A   1      40.738  24.518  26.699  1.00  0.00     0.031 C 
ATOM     57  C   UNL A   1      44.044  29.074  27.364  1.00  0.00     0.029 A 
ATOM     58  C   UNL A   1      43.391  30.197  28.018  1.00  0.00     0.049 A 
ATOM     59  H   UNL A   1      41.297  30.568  27.878  1.00  0.00     0.167 HD
ATOM     60  C   UNL A   1      42.660  23.591  27.950  1.00  0.00     0.037 A 
ATOM     61  C   UNL A   1      43.828  30.904  29.097  1.00  0.00     0.037 A 
ATOM     62  C   UNL A   1      43.795  24.420  28.370  1.00  0.00     0.049 A 
ATOM     63  C   UNL A   1      44.502  29.958  30.048  1.00  0.00     0.074 A 
ATOM     64  C   UNL A   1      44.855  24.949  27.647  1.00  0.00     0.029 A 
ATOM     65  N   UNL A   1      43.815  25.064  29.605  1.00  0.00    -0.354 N 
ATOM     66  N   UNL A   1      44.442  28.665  29.884  1.00  0.00    -0.248 NA
ATOM     67  C   UNL A   1      45.307  30.328  31.205  1.00  0.00     0.031 C 
ATOM     68  C   UNL A   1      45.514  25.909  28.454  1.00  0.00     0.029 A 
ATOM     69  C   UNL A   1      44.866  25.962  29.678  1.00  0.00     0.049 A 
ATOM     70  H   UNL A   1      43.167  24.903  30.329  1.00  0.00     0.167 HD
ATOM     71  C   UNL A   1      45.136  28.034  30.861  1.00  0.00     0.074 A 
ATOM     72  C   UNL A   1      45.671  29.116  31.669  1.00  0.00     0.031 C 
ATOM     73  C   UNL A   1      45.177  26.675  30.913  1.00  0.00     0.037 A 
BRANCH  60  74
ATOM     74  C   UNL A   1      42.790  22.299  27.170  1.00  0.00     0.057 A 
ATOM     75  C   UNL A   1      42.055  21.152  27.507  1.00  0.00     0.134 A 
ATOM     76  C   UNL A   1      43.583  22.166  26.008  1.00  0.00     0.134 A 
ATOM     77  F   UNL A   1      41.150  21.162  28.494  1.00  0.00    -0.206 F 
ATOM     78  C   UNL A   1      42.186  19.939  26.818  1.00  0.00     0.040 A 
ATOM     79  C   UNL A   1      43.761  20.948  25.339  1.00  0.00     0.040 A 
ATOM     80  F   UNL A   1      44.203  23.222  25.456  1.00  0.00    -0.206 F 
ATOM     81  C   UNL A   1      43.064  19.824  25.749  1.00  0.00     0.006 A 
ENDBRANCH  60  74
BRANCH  61  82
ATOM     82  C   UNL A   1      42.929  32.060  29.393  1.00  0.00     0.057 A 
ATOM     83  C   UNL A   1      41.914  31.843  30.347  1.00  0.00     0.134 A 
ATOM     84  C   UNL A   1      43.320  33.388  29.194  1.00  0.00     0.134 A 
ATOM     85  F   UNL A   1      41.480  30.596  30.593  1.00  0.00    -0.206 F 
ATOM     86  C   UNL A   1      41.424  32.868  31.166  1.00  0.00     0.040 A 
ATOM     87  C   UNL A   1      42.852  34.420  30.027  1.00  0.00     0.040 A 
ATOM     88  F   UNL A   1      44.273  33.688  28.300  1.00  0.00    -0.206 F 
ATOM     89  C   UNL A   1      41.937  34.154  31.044  1.00  0.00     0.006 A 
ENDBRANCH  61  82
BRANCH  73  90
ATOM     90  C   UNL A   1      45.596  25.897  32.120  1.00  0.00     0.057 A 
ATOM     91  C   UNL A   1      46.926  25.536  32.370  1.00  0.00     0.134 A 
ATOM     92  C   UNL A   1      44.684  25.651  33.165  1.00  0.00     0.134 A 
ATOM     93  F   UNL A   1      47.906  25.809  31.497  1.00  0.00    -0.206 F 
ATOM     94  C   UNL A   1      47.317  24.923  33.563  1.00  0.00     0.040 A 
ATOM     95  C   UNL A   1      45.073  25.094  34.382  1.00  0.00     0.040 A 
ATOM     96  F   UNL A   1      43.385  25.968  33.058  1.00  0.00    -0.206 F 
ATOM     97  C   UNL A   1      46.393  24.715  34.579  1.00  0.00     0.006 A 
ENDBRANCH  73  90
ENDBRANCH  47  48
ENDBRANCH  40  42
ENDBRANCH  39  40
ENDBRANCH  38  39
ENDBRANCH  37  38
ENDBRANCH  36  37
ENDBRANCH  35  36
ENDBRANCH   1  35
TORSDOF 19
ENDMDL
