MODEL 1
REMARK VINA RESULT:     -10.7      0.000      0.000
REMARK SMILES COc1ccc(-c2nc(NCC(=O)OCCOCCOC(=O)c3ccc(-c4c5nc(c(-c6c(F)cccc6F)c6ccc([nH]6)c(-c6c(F)cccc6F)c6nc(c(-c7c(F)cccc7F)c7ccc4[nH]7)C=C6)C=C5)cc3)sc2-c2ccc(OC)cc2)cc1
REMARK SMILES IDX 16 1 15 2 14 3 12 4 13 5 11 6 10 7 9 9 7 10 8 11 78 12 77 13
REMARK SMILES IDX 6 14 3 15 4 16 88 17 5 18 87 19 2 20 1 21 79 22 80 23 86 24
REMARK SMILES IDX 81 25 85 26 82 27 83 28 84 29 17 30 18 31 19 32 20 33 21 34
REMARK SMILES IDX 22 35 23 36 24 37 76 38 25 39 75 40 26 41 27 42 28 43 69 44
REMARK SMILES IDX 29 45 74 46 68 47 70 48 30 49 73 50 67 51 66 52 31 54 57 55
REMARK SMILES IDX 40 56 56 57 41 58 44 59 55 60 71 61 42 62 43 63 54 65 72 66
REMARK SMILES IDX 45 67 32 68 33 69 38 70 34 71 35 72 37 73 39 74 36 75 58 76
REMARK SMILES IDX 59 77 64 78 60 79 61 80 63 81 65 82 62 83 46 84 47 85 52 86
REMARK SMILES IDX 48 87 49 88 51 89 53 90 50 91
REMARK H PARENT 10 8 70 53 44 64
REMARK Flexibility Score: inf
ROOT
ATOM      1  C   UNL A   1      36.298  22.118  25.161  1.00  0.00     0.202 C 
ENDROOT
BRANCH   1   2
ATOM      2  C   UNL A   1      34.985  21.810  24.436  1.00  0.00     0.261 C 
BRANCH   2   3
ATOM      3  O   UNL A   1      34.121  21.033  25.281  1.00  0.00    -0.462 OA
BRANCH   3   4
ATOM      4  C   UNL A   1      32.971  20.585  24.705  1.00  0.00     0.325 C 
ATOM      5  O   UNL A   1      32.376  19.566  25.039  1.00  0.00    -0.250 OA
BRANCH   4   6
ATOM      6  C   UNL A   1      32.405  21.555  23.672  1.00  0.00     0.238 C 
BRANCH   6   7
ATOM      7  N   UNL A   1      31.289  22.374  24.131  1.00  0.00    -0.351 N 
ATOM      8  H   UNL A   1      30.417  21.933  24.253  1.00  0.00     0.163 HD
BRANCH   7   9
ATOM      9  C   UNL A   1      31.369  23.692  24.401  1.00  0.00     0.184 A 
ATOM     10  C   UNL A   1      31.007  25.860  24.115  1.00  0.00     0.091 A 
ATOM     11  N   UNL A   1      30.683  24.574  23.710  1.00  0.00    -0.220 NA
ATOM     12  C   UNL A   1      31.873  25.936  25.194  1.00  0.00     0.064 A 
ATOM     13  S   UNL A   1      32.342  24.358  25.654  1.00  0.00    -0.096 S 
BRANCH  10  14
ATOM     14  C   UNL A   1      30.445  27.037  23.465  1.00  0.00     0.002 A 
ATOM     15  C   UNL A   1      29.389  29.434  22.455  1.00  0.00     0.118 A 
ATOM     16  C   UNL A   1      30.755  29.177  22.364  1.00  0.00     0.047 A 
ATOM     17  C   UNL A   1      28.538  28.464  22.992  1.00  0.00     0.047 A 
ATOM     18  C   UNL A   1      31.284  27.988  22.870  1.00  0.00     0.014 A 
ATOM     19  C   UNL A   1      29.065  27.265  23.490  1.00  0.00     0.014 A 
BRANCH  15  20
ATOM     20  O   UNL A   1      28.984  30.643  21.958  1.00  0.00    -0.497 OA
ATOM     21  C   UNL A   1      28.899  31.691  22.917  1.00  0.00     0.278 C 
ENDBRANCH  15  20
ENDBRANCH  10  14
BRANCH  12  22
ATOM     22  C   UNL A   1      32.358  27.082  25.955  1.00  0.00    -0.006 A 
ATOM     23  C   UNL A   1      33.717  27.416  25.971  1.00  0.00     0.013 A 
ATOM     24  C   UNL A   1      31.454  27.875  26.671  1.00  0.00     0.013 A 
ATOM     25  C   UNL A   1      34.157  28.524  26.698  1.00  0.00     0.047 A 
ATOM     26  C   UNL A   1      31.898  28.984  27.397  1.00  0.00     0.047 A 
ATOM     27  C   UNL A   1      33.253  29.312  27.412  1.00  0.00     0.118 A 
BRANCH  27  28
ATOM     28  O   UNL A   1      33.814  30.365  28.081  1.00  0.00    -0.497 OA
ATOM     29  C   UNL A   1      34.785  31.123  27.371  1.00  0.00     0.278 C 
ENDBRANCH  27  28
ENDBRANCH  12  22
ENDBRANCH   7   9
ENDBRANCH   6   7
ENDBRANCH   4   6
ENDBRANCH   3   4
ENDBRANCH   2   3
ENDBRANCH   1   2
BRANCH   1  30
ATOM     30  O   UNL A   1      36.996  20.987  25.687  1.00  0.00    -0.374 OA
BRANCH  30  31
ATOM     31  C   UNL A   1      37.540  20.054  24.752  1.00  0.00     0.202 C 
BRANCH  31  32
ATOM     32  C   UNL A   1      38.670  19.151  25.261  1.00  0.00     0.261 C 
BRANCH  32  33
ATOM     33  O   UNL A   1      39.269  19.653  26.470  1.00  0.00    -0.460 OA
BRANCH  33  34
ATOM     34  C   UNL A   1      40.587  19.942  26.376  1.00  0.00     0.338 C 
ATOM     35  O   UNL A   1      41.465  19.255  25.870  1.00  0.00    -0.246 OA
BRANCH  34  36
ATOM     36  C   UNL A   1      40.840  21.323  26.823  1.00  0.00     0.060 A 
ATOM     37  C   UNL A   1      40.205  22.359  26.124  1.00  0.00     0.016 A 
ATOM     38  C   UNL A   1      41.741  21.610  27.852  1.00  0.00     0.016 A 
ATOM     39  C   UNL A   1      40.492  23.687  26.430  1.00  0.00     0.010 A 
ATOM     40  C   UNL A   1      42.037  22.946  28.146  1.00  0.00     0.010 A 
ATOM     41  C   UNL A   1      41.434  23.989  27.421  1.00  0.00    -0.014 A 
BRANCH  41  42
ATOM     42  C   UNL A   1      41.865  25.394  27.625  1.00  0.00     0.031 A 
ATOM     43  C   UNL A   1      43.209  25.834  27.118  1.00  0.00     0.074 A 
ATOM     44  C   UNL A   1      41.059  26.273  28.249  1.00  0.00     0.049 A 
ATOM     45  N   UNL A   1      43.805  26.992  27.246  1.00  0.00    -0.248 NA
ATOM     46  C   UNL A   1      43.988  24.836  26.369  1.00  0.00     0.031 C 
ATOM     47  C   UNL A   1      39.719  25.978  28.754  1.00  0.00     0.029 A 
ATOM     48  N   UNL A   1      41.263  27.590  28.575  1.00  0.00    -0.354 N 
ATOM     49  C   UNL A   1      45.027  26.862  26.600  1.00  0.00     0.074 A 
ATOM     50  C   UNL A   1      45.099  25.506  26.099  1.00  0.00     0.031 C 
ATOM     51  C   UNL A   1      39.227  27.079  29.348  1.00  0.00     0.029 A 
ATOM     52  C   UNL A   1      40.228  28.143  29.291  1.00  0.00     0.049 A 
ATOM     53  H   UNL A   1      42.071  28.091  28.321  1.00  0.00     0.167 HD
ATOM     54  C   UNL A   1      46.001  27.790  26.438  1.00  0.00     0.037 A 
ATOM     55  C   UNL A   1      40.117  29.358  29.861  1.00  0.00     0.037 A 
ATOM     56  C   UNL A   1      45.929  29.140  26.933  1.00  0.00     0.049 A 
ATOM     57  C   UNL A   1      41.242  30.349  29.723  1.00  0.00     0.074 A 
ATOM     58  C   UNL A   1      46.853  30.160  26.789  1.00  0.00     0.029 A 
ATOM     59  N   UNL A   1      44.877  29.655  27.673  1.00  0.00    -0.354 N 
ATOM     60  N   UNL A   1      42.382  30.224  29.088  1.00  0.00    -0.248 NA
ATOM     61  C   UNL A   1      41.065  31.651  30.385  1.00  0.00     0.031 C 
ATOM     62  C   UNL A   1      46.381  31.280  27.481  1.00  0.00     0.029 A 
ATOM     63  C   UNL A   1      45.142  30.970  28.019  1.00  0.00     0.049 A 
ATOM     64  H   UNL A   1      44.061  29.160  27.916  1.00  0.00     0.167 HD
ATOM     65  C   UNL A   1      43.046  31.433  29.254  1.00  0.00     0.074 A 
ATOM     66  C   UNL A   1      42.176  32.284  30.037  1.00  0.00     0.031 C 
ATOM     67  C   UNL A   1      44.266  31.805  28.798  1.00  0.00     0.037 A 
BRANCH  54  68
ATOM     68  C   UNL A   1      47.244  27.371  25.715  1.00  0.00     0.057 A 
ATOM     69  C   UNL A   1      48.289  26.702  26.364  1.00  0.00     0.134 A 
ATOM     70  C   UNL A   1      47.374  27.594  24.338  1.00  0.00     0.134 A 
ATOM     71  F   UNL A   1      48.229  26.469  27.684  1.00  0.00    -0.206 F 
ATOM     72  C   UNL A   1      49.425  26.280  25.673  1.00  0.00     0.040 A 
ATOM     73  C   UNL A   1      48.496  27.158  23.632  1.00  0.00     0.040 A 
ATOM     74  F   UNL A   1      46.408  28.226  23.656  1.00  0.00    -0.206 F 
ATOM     75  C   UNL A   1      49.528  26.501  24.301  1.00  0.00     0.006 A 
ENDBRANCH  54  68
BRANCH  55  76
ATOM     76  C   UNL A   1      38.907  29.701  30.649  1.00  0.00     0.057 A 
ATOM     77  C   UNL A   1      38.745  29.256  31.964  1.00  0.00     0.134 A 
ATOM     78  C   UNL A   1      37.868  30.455  30.089  1.00  0.00     0.134 A 
ATOM     79  F   UNL A   1      39.694  28.506  32.546  1.00  0.00    -0.206 F 
ATOM     80  C   UNL A   1      37.585  29.531  32.691  1.00  0.00     0.040 A 
ATOM     81  C   UNL A   1      36.714  30.758  30.812  1.00  0.00     0.040 A 
ATOM     82  F   UNL A   1      37.961  30.907  28.830  1.00  0.00    -0.206 F 
ATOM     83  C   UNL A   1      36.567  30.289  32.116  1.00  0.00     0.006 A 
ENDBRANCH  55  76
BRANCH  67  84
ATOM     84  C   UNL A   1      44.725  33.198  29.115  1.00  0.00     0.057 A 
ATOM     85  C   UNL A   1      45.489  33.482  30.254  1.00  0.00     0.134 A 
ATOM     86  C   UNL A   1      44.430  34.261  28.252  1.00  0.00     0.134 A 
ATOM     87  F   UNL A   1      45.793  32.510  31.128  1.00  0.00    -0.206 F 
ATOM     88  C   UNL A   1      45.929  34.778  30.532  1.00  0.00     0.040 A 
ATOM     89  C   UNL A   1      44.885  35.555  28.506  1.00  0.00     0.040 A 
ATOM     90  F   UNL A   1      43.710  34.055  27.138  1.00  0.00    -0.206 F 
ATOM     91  C   UNL A   1      45.632  35.817  29.653  1.00  0.00     0.006 A 
ENDBRANCH  67  84
ENDBRANCH  41  42
ENDBRANCH  34  36
ENDBRANCH  33  34
ENDBRANCH  32  33
ENDBRANCH  31  32
ENDBRANCH  30  31
ENDBRANCH   1  30
TORSDOF 20
ENDMDL
MODEL 2
REMARK VINA RESULT:     -10.6      0.976      2.910
REMARK SMILES COc1ccc(-c2nc(NCC(=O)OCCOCCOC(=O)c3ccc(-c4c5nc(c(-c6c(F)cccc6F)c6ccc([nH]6)c(-c6c(F)cccc6F)c6nc(c(-c7c(F)cccc7F)c7ccc4[nH]7)C=C6)C=C5)cc3)sc2-c2ccc(OC)cc2)cc1
REMARK SMILES IDX 16 1 15 2 14 3 12 4 13 5 11 6 10 7 9 9 7 10 8 11 78 12 77 13
REMARK SMILES IDX 6 14 3 15 4 16 88 17 5 18 87 19 2 20 1 21 79 22 80 23 86 24
REMARK SMILES IDX 81 25 85 26 82 27 83 28 84 29 17 30 18 31 19 32 20 33 21 34
REMARK SMILES IDX 22 35 23 36 24 37 76 38 25 39 75 40 26 41 27 42 28 43 69 44
REMARK SMILES IDX 29 45 74 46 68 47 70 48 30 49 73 50 67 51 66 52 31 54 57 55
REMARK SMILES IDX 40 56 56 57 41 58 44 59 55 60 71 61 42 62 43 63 54 65 72 66
REMARK SMILES IDX 45 67 32 68 33 69 38 70 34 71 35 72 37 73 39 74 36 75 58 76
REMARK SMILES IDX 59 77 64 78 60 79 61 80 63 81 65 82 62 83 46 84 47 85 52 86
REMARK SMILES IDX 48 87 49 88 51 89 53 90 50 91
REMARK H PARENT 10 8 70 53 44 64
REMARK Flexibility Score: inf
ROOT
ATOM      1  C   UNL A   1      37.371  22.637  25.132  1.00  0.00     0.202 C 
ENDROOT
BRANCH   1   2
ATOM      2  C   UNL A   1      36.206  22.433  24.159  1.00  0.00     0.261 C 
BRANCH   2   3
ATOM      3  O   UNL A   1      34.961  22.394  24.875  1.00  0.00    -0.462 OA
BRANCH   3   4
ATOM      4  C   UNL A   1      34.140  21.348  24.583  1.00  0.00     0.325 C 
ATOM      5  O   UNL A   1      34.309  20.199  24.977  1.00  0.00    -0.250 OA
BRANCH   4   6
ATOM      6  C   UNL A   1      32.891  21.768  23.814  1.00  0.00     0.238 C 
BRANCH   6   7
ATOM      7  N   UNL A   1      31.892  22.492  24.593  1.00  0.00    -0.351 N 
ATOM      8  H   UNL A   1      31.362  21.980  25.246  1.00  0.00     0.163 HD
BRANCH   7   9
ATOM      9  C   UNL A   1      31.646  23.812  24.481  1.00  0.00     0.184 A 
ATOM     10  C   UNL A   1      31.793  25.966  24.982  1.00  0.00     0.091 A 
ATOM     11  N   UNL A   1      32.289  24.692  25.215  1.00  0.00    -0.220 NA
ATOM     12  C   UNL A   1      30.835  26.051  23.985  1.00  0.00     0.064 A 
ATOM     13  S   UNL A   1      30.503  24.485  23.385  1.00  0.00    -0.096 S 
BRANCH  10  14
ATOM     14  C   UNL A   1      32.278  27.127  25.717  1.00  0.00     0.002 A 
ATOM     15  C   UNL A   1      33.342  29.188  27.299  1.00  0.00     0.118 A 
ATOM     16  C   UNL A   1      34.029  28.744  26.171  1.00  0.00     0.047 A 
ATOM     17  C   UNL A   1      32.090  28.648  27.601  1.00  0.00     0.047 A 
ATOM     18  C   UNL A   1      33.505  27.715  25.385  1.00  0.00     0.014 A 
ATOM     19  C   UNL A   1      31.556  27.623  26.808  1.00  0.00     0.014 A 
BRANCH  15  20
ATOM     20  O   UNL A   1      33.963  30.175  28.014  1.00  0.00    -0.497 OA
ATOM     21  C   UNL A   1      33.765  31.494  27.516  1.00  0.00     0.278 C 
ENDBRANCH  15  20
ENDBRANCH  10  14
BRANCH  12  22
ATOM     22  C   UNL A   1      30.164  27.205  23.395  1.00  0.00    -0.006 A 
ATOM     23  C   UNL A   1      28.778  27.367  23.503  1.00  0.00     0.013 A 
ATOM     24  C   UNL A   1      30.914  28.177  22.723  1.00  0.00     0.013 A 
ATOM     25  C   UNL A   1      28.160  28.486  22.940  1.00  0.00     0.047 A 
ATOM     26  C   UNL A   1      30.291  29.295  22.162  1.00  0.00     0.047 A 
ATOM     27  C   UNL A   1      28.910  29.453  22.269  1.00  0.00     0.118 A 
BRANCH  27  28
ATOM     28  O   UNL A   1      28.182  30.495  21.765  1.00  0.00    -0.497 OA
ATOM     29  C   UNL A   1      28.472  31.785  22.288  1.00  0.00     0.278 C 
ENDBRANCH  27  28
ENDBRANCH  12  22
ENDBRANCH   7   9
ENDBRANCH   6   7
ENDBRANCH   4   6
ENDBRANCH   3   4
ENDBRANCH   2   3
ENDBRANCH   1   2
BRANCH   1  30
ATOM     30  O   UNL A   1      37.859  21.455  25.770  1.00  0.00    -0.374 OA
BRANCH  30  31
ATOM     31  C   UNL A   1      37.898  20.255  24.997  1.00  0.00     0.202 C 
BRANCH  31  32
ATOM     32  C   UNL A   1      38.971  19.227  25.376  1.00  0.00     0.261 C 
BRANCH  32  33
ATOM     33  O   UNL A   1      39.786  19.669  26.478  1.00  0.00    -0.460 OA
BRANCH  33  34
ATOM     34  C   UNL A   1      41.119  19.642  26.248  1.00  0.00     0.338 C 
ATOM     35  O   UNL A   1      41.777  18.713  25.795  1.00  0.00    -0.246 OA
BRANCH  34  36
ATOM     36  C   UNL A   1      41.700  20.980  26.454  1.00  0.00     0.060 A 
ATOM     37  C   UNL A   1      41.914  21.399  27.774  1.00  0.00     0.016 A 
ATOM     38  C   UNL A   1      41.958  21.843  25.386  1.00  0.00     0.016 A 
ATOM     39  C   UNL A   1      42.357  22.694  28.033  1.00  0.00     0.010 A 
ATOM     40  C   UNL A   1      42.387  23.148  25.651  1.00  0.00     0.010 A 
ATOM     41  C   UNL A   1      42.565  23.587  26.975  1.00  0.00    -0.014 A 
BRANCH  41  42
ATOM     42  C   UNL A   1      42.868  25.011  27.261  1.00  0.00     0.031 A 
ATOM     43  C   UNL A   1      44.250  25.538  26.998  1.00  0.00     0.074 A 
ATOM     44  C   UNL A   1      41.915  25.829  27.744  1.00  0.00     0.049 A 
ATOM     45  N   UNL A   1      44.743  26.727  27.236  1.00  0.00    -0.248 NA
ATOM     46  C   UNL A   1      45.206  24.601  26.388  1.00  0.00     0.031 C 
ATOM     47  C   UNL A   1      40.528  25.448  28.006  1.00  0.00     0.029 A 
ATOM     48  N   UNL A   1      41.978  27.150  28.110  1.00  0.00    -0.354 N 
ATOM     49  C   UNL A   1      46.064  26.680  26.811  1.00  0.00     0.074 A 
ATOM     50  C   UNL A   1      46.304  25.340  26.319  1.00  0.00     0.031 C 
ATOM     51  C   UNL A   1      39.875  26.506  28.515  1.00  0.00     0.029 A 
ATOM     52  C   UNL A   1      40.805  27.628  28.640  1.00  0.00     0.049 A 
ATOM     53  H   UNL A   1      42.786  27.702  28.003  1.00  0.00     0.167 HD
ATOM     54  C   UNL A   1      46.993  27.666  26.827  1.00  0.00     0.037 A 
ATOM     55  C   UNL A   1      40.523  28.824  29.191  1.00  0.00     0.037 A 
ATOM     56  C   UNL A   1      46.754  29.001  27.312  1.00  0.00     0.049 A 
ATOM     57  C   UNL A   1      41.592  29.882  29.257  1.00  0.00     0.074 A 
ATOM     58  C   UNL A   1      47.626  30.076  27.337  1.00  0.00     0.029 A 
ATOM     59  N   UNL A   1      45.562  29.440  27.862  1.00  0.00    -0.354 N 
ATOM     60  N   UNL A   1      42.830  29.836  28.828  1.00  0.00    -0.248 NA
ATOM     61  C   UNL A   1      41.225  31.159  29.888  1.00  0.00     0.031 C 
ATOM     62  C   UNL A   1      46.974  31.153  27.946  1.00  0.00     0.029 A 
ATOM     63  C   UNL A   1      45.683  30.761  28.258  1.00  0.00     0.049 A 
ATOM     64  H   UNL A   1      44.747  28.893  27.957  1.00  0.00     0.167 HD
ATOM     65  C   UNL A   1      43.380  31.078  29.116  1.00  0.00     0.074 A 
ATOM     66  C   UNL A   1      42.338  31.863  29.743  1.00  0.00     0.031 C 
ATOM     67  C   UNL A   1      44.636  31.530  28.881  1.00  0.00     0.037 A 
BRANCH  54  68
ATOM     68  C   UNL A   1      48.365  27.335  26.326  1.00  0.00     0.057 A 
ATOM     69  C   UNL A   1      49.379  26.892  27.185  1.00  0.00     0.134 A 
ATOM     70  C   UNL A   1      48.660  27.409  24.959  1.00  0.00     0.134 A 
ATOM     71  F   UNL A   1      49.162  26.811  28.506  1.00  0.00    -0.206 F 
ATOM     72  C   UNL A   1      50.642  26.546  26.703  1.00  0.00     0.040 A 
ATOM     73  C   UNL A   1      49.913  27.046  24.462  1.00  0.00     0.040 A 
ATOM     74  F   UNL A   1      47.732  27.822  24.083  1.00  0.00    -0.206 F 
ATOM     75  C   UNL A   1      50.910  26.615  25.337  1.00  0.00     0.006 A 
ENDBRANCH  54  68
BRANCH  55  76
ATOM     76  C   UNL A   1      39.177  29.081  29.760  1.00  0.00     0.057 A 
ATOM     77  C   UNL A   1      38.162  29.665  28.995  1.00  0.00     0.134 A 
ATOM     78  C   UNL A   1      38.886  28.779  31.097  1.00  0.00     0.134 A 
ATOM     79  F   UNL A   1      38.390  30.002  27.716  1.00  0.00    -0.206 F 
ATOM     80  C   UNL A   1      36.911  29.957  29.542  1.00  0.00     0.040 A 
ATOM     81  C   UNL A   1      37.632  29.043  31.650  1.00  0.00     0.040 A 
ATOM     82  F   UNL A   1      39.818  28.223  31.884  1.00  0.00    -0.206 F 
ATOM     83  C   UNL A   1      36.642  29.641  30.872  1.00  0.00     0.006 A 
ENDBRANCH  55  76
BRANCH  67  84
ATOM     84  C   UNL A   1      44.947  32.942  29.283  1.00  0.00     0.057 A 
ATOM     85  C   UNL A   1      45.422  33.256  30.562  1.00  0.00     0.134 A 
ATOM     86  C   UNL A   1      44.805  33.992  28.368  1.00  0.00     0.134 A 
ATOM     87  F   UNL A   1      45.566  32.296  31.489  1.00  0.00    -0.206 F 
ATOM     88  C   UNL A   1      45.728  34.570  30.923  1.00  0.00     0.040 A 
ATOM     89  C   UNL A   1      45.131  35.306  28.709  1.00  0.00     0.040 A 
ATOM     90  F   UNL A   1      44.364  33.757  27.123  1.00  0.00    -0.206 F 
ATOM     91  C   UNL A   1      45.589  35.597  29.992  1.00  0.00     0.006 A 
ENDBRANCH  67  84
ENDBRANCH  41  42
ENDBRANCH  34  36
ENDBRANCH  33  34
ENDBRANCH  32  33
ENDBRANCH  31  32
ENDBRANCH  30  31
ENDBRANCH   1  30
TORSDOF 20
ENDMDL
MODEL 3
REMARK VINA RESULT:     -10.5      3.991      9.141
REMARK SMILES COc1ccc(-c2nc(NCC(=O)OCCOCCOC(=O)c3ccc(-c4c5nc(c(-c6c(F)cccc6F)c6ccc([nH]6)c(-c6c(F)cccc6F)c6nc(c(-c7c(F)cccc7F)c7ccc4[nH]7)C=C6)C=C5)cc3)sc2-c2ccc(OC)cc2)cc1
REMARK SMILES IDX 16 1 15 2 14 3 12 4 13 5 11 6 10 7 9 9 7 10 8 11 78 12 77 13
REMARK SMILES IDX 6 14 3 15 4 16 88 17 5 18 87 19 2 20 1 21 79 22 80 23 86 24
REMARK SMILES IDX 81 25 85 26 82 27 83 28 84 29 17 30 18 31 19 32 20 33 21 34
REMARK SMILES IDX 22 35 23 36 24 37 76 38 25 39 75 40 26 41 27 42 28 43 69 44
REMARK SMILES IDX 29 45 74 46 68 47 70 48 30 49 73 50 67 51 66 52 31 54 57 55
REMARK SMILES IDX 40 56 56 57 41 58 44 59 55 60 71 61 42 62 43 63 54 65 72 66
REMARK SMILES IDX 45 67 32 68 33 69 38 70 34 71 35 72 37 73 39 74 36 75 58 76
REMARK SMILES IDX 59 77 64 78 60 79 61 80 63 81 65 82 62 83 46 84 47 85 52 86
REMARK SMILES IDX 48 87 49 88 51 89 53 90 50 91
REMARK H PARENT 10 8 70 53 44 64
REMARK Flexibility Score: inf
ROOT
ATOM      1  C   UNL A   1      31.754  30.368  25.267  1.00  0.00     0.202 C 
ENDROOT
BRANCH   1   2
ATOM      2  C   UNL A   1      31.443  28.880  25.082  1.00  0.00     0.261 C 
BRANCH   2   3
ATOM      3  O   UNL A   1      30.225  28.715  24.338  1.00  0.00    -0.462 OA
BRANCH   3   4
ATOM      4  C   UNL A   1      30.351  28.143  23.109  1.00  0.00     0.325 C 
ATOM      5  O   UNL A   1      30.582  28.760  22.074  1.00  0.00    -0.250 OA
BRANCH   4   6
ATOM      6  C   UNL A   1      30.310  26.619  23.154  1.00  0.00     0.238 C 
BRANCH   6   7
ATOM      7  N   UNL A   1      31.467  25.946  22.574  1.00  0.00    -0.351 N 
ATOM      8  H   UNL A   1      31.871  26.342  21.769  1.00  0.00     0.163 HD
BRANCH   7   9
ATOM      9  C   UNL A   1      32.020  24.819  23.065  1.00  0.00     0.184 A 
ATOM     10  C   UNL A   1      33.598  23.534  23.943  1.00  0.00     0.091 A 
ATOM     11  N   UNL A   1      33.220  24.823  23.601  1.00  0.00    -0.220 NA
ATOM     12  C   UNL A   1      32.626  22.566  23.752  1.00  0.00     0.064 A 
ATOM     13  S   UNL A   1      31.239  23.286  23.060  1.00  0.00    -0.096 S 
BRANCH  10  14
ATOM     14  C   UNL A   1      34.915  23.239  24.493  1.00  0.00     0.002 A 
ATOM     15  C   UNL A   1      37.538  22.902  25.434  1.00  0.00     0.118 A 
ATOM     16  C   UNL A   1      36.595  23.571  26.212  1.00  0.00     0.047 A 
ATOM     17  C   UNL A   1      37.154  22.342  24.213  1.00  0.00     0.047 A 
ATOM     18  C   UNL A   1      35.291  23.745  25.744  1.00  0.00     0.014 A 
ATOM     19  C   UNL A   1      35.843  22.505  23.746  1.00  0.00     0.014 A 
BRANCH  15  20
ATOM     20  O   UNL A   1      38.793  22.819  25.975  1.00  0.00    -0.497 OA
ATOM     21  C   UNL A   1      39.308  21.498  26.100  1.00  0.00     0.278 C 
ENDBRANCH  15  20
ENDBRANCH  10  14
BRANCH  12  22
ATOM     22  C   UNL A   1      32.612  21.143  24.079  1.00  0.00    -0.006 A 
ATOM     23  C   UNL A   1      32.425  20.176  23.086  1.00  0.00     0.013 A 
ATOM     24  C   UNL A   1      32.803  20.733  25.404  1.00  0.00     0.013 A 
ATOM     25  C   UNL A   1      32.427  18.820  23.422  1.00  0.00     0.047 A 
ATOM     26  C   UNL A   1      32.804  19.375  25.736  1.00  0.00     0.047 A 
ATOM     27  C   UNL A   1      32.616  18.413  24.744  1.00  0.00     0.118 A 
BRANCH  27  28
ATOM     28  O   UNL A   1      32.594  17.059  24.935  1.00  0.00    -0.497 OA
ATOM     29  C   UNL A   1      33.510  16.294  24.164  1.00  0.00     0.278 C 
ENDBRANCH  27  28
ENDBRANCH  12  22
ENDBRANCH   7   9
ENDBRANCH   6   7
ENDBRANCH   4   6
ENDBRANCH   3   4
ENDBRANCH   2   3
ENDBRANCH   1   2
BRANCH   1  30
ATOM     30  O   UNL A   1      31.908  30.806  26.618  1.00  0.00    -0.374 OA
BRANCH  30  31
ATOM     31  C   UNL A   1      31.475  32.130  26.936  1.00  0.00     0.202 C 
BRANCH  31  32
ATOM     32  C   UNL A   1      32.573  33.174  27.168  1.00  0.00     0.261 C 
BRANCH  32  33
ATOM     33  O   UNL A   1      32.305  34.004  28.314  1.00  0.00    -0.460 OA
BRANCH  33  34
ATOM     34  C   UNL A   1      33.322  34.819  28.678  1.00  0.00     0.338 C 
ATOM     35  O   UNL A   1      33.294  36.038  28.792  1.00  0.00    -0.246 OA
BRANCH  34  36
ATOM     36  C   UNL A   1      34.485  34.024  29.107  1.00  0.00     0.060 A 
ATOM     37  C   UNL A   1      34.279  33.054  30.098  1.00  0.00     0.016 A 
ATOM     38  C   UNL A   1      35.769  34.271  28.613  1.00  0.00     0.016 A 
ATOM     39  C   UNL A   1      35.360  32.349  30.621  1.00  0.00     0.010 A 
ATOM     40  C   UNL A   1      36.854  33.571  29.152  1.00  0.00     0.010 A 
ATOM     41  C   UNL A   1      36.658  32.626  30.176  1.00  0.00    -0.014 A 
BRANCH  41  42
ATOM     42  C   UNL A   1      37.820  32.001  30.854  1.00  0.00     0.031 A 
ATOM     43  C   UNL A   1      38.591  30.920  30.151  1.00  0.00     0.074 A 
ATOM     44  C   UNL A   1      38.190  32.401  32.084  1.00  0.00     0.049 A 
ATOM     45  N   UNL A   1      39.594  30.200  30.585  1.00  0.00    -0.248 NA
ATOM     46  C   UNL A   1      38.175  30.605  28.775  1.00  0.00     0.031 C 
ATOM     47  C   UNL A   1      37.547  33.464  32.855  1.00  0.00     0.029 A 
ATOM     48  N   UNL A   1      39.192  31.947  32.904  1.00  0.00    -0.354 N 
ATOM     49  C   UNL A   1      39.926  29.346  29.543  1.00  0.00     0.074 A 
ATOM     50  C   UNL A   1      39.005  29.621  28.460  1.00  0.00     0.031 C 
ATOM     51  C   UNL A   1      38.158  33.565  34.049  1.00  0.00     0.029 A 
ATOM     52  C   UNL A   1      39.212  32.556  34.135  1.00  0.00     0.049 A 
ATOM     53  H   UNL A   1      39.836  31.252  32.636  1.00  0.00     0.167 HD
ATOM     54  C   UNL A   1      40.911  28.417  29.491  1.00  0.00     0.037 A 
ATOM     55  C   UNL A   1      39.973  32.306  35.217  1.00  0.00     0.037 A 
ATOM     56  C   UNL A   1      41.830  28.146  30.565  1.00  0.00     0.049 A 
ATOM     57  C   UNL A   1      41.017  31.223  35.156  1.00  0.00     0.074 A 
ATOM     58  C   UNL A   1      42.881  27.246  30.592  1.00  0.00     0.029 A 
ATOM     59  N   UNL A   1      41.803  28.766  31.803  1.00  0.00    -0.354 N 
ATOM     60  N   UNL A   1      41.340  30.440  34.157  1.00  0.00    -0.248 NA
ATOM     61  C   UNL A   1      41.802  30.988  36.379  1.00  0.00     0.031 C 
ATOM     62  C   UNL A   1      43.462  27.289  31.863  1.00  0.00     0.029 A 
ATOM     63  C   UNL A   1      42.800  28.247  32.613  1.00  0.00     0.049 A 
ATOM     64  H   UNL A   1      41.169  29.472  32.069  1.00  0.00     0.167 HD
ATOM     65  C   UNL A   1      42.376  29.637  34.619  1.00  0.00     0.074 A 
ATOM     66  C   UNL A   1      42.638  30.037  35.985  1.00  0.00     0.031 C 
ATOM     67  C   UNL A   1      43.050  28.657  33.971  1.00  0.00     0.037 A 
BRANCH  54  68
ATOM     68  C   UNL A   1      41.034  27.605  28.238  1.00  0.00     0.057 A 
ATOM     69  C   UNL A   1      40.341  26.401  28.066  1.00  0.00     0.134 A 
ATOM     70  C   UNL A   1      41.815  28.062  27.169  1.00  0.00     0.134 A 
ATOM     71  F   UNL A   1      39.585  25.905  29.057  1.00  0.00    -0.206 F 
ATOM     72  C   UNL A   1      40.429  25.673  26.879  1.00  0.00     0.040 A 
ATOM     73  C   UNL A   1      41.896  27.353  25.970  1.00  0.00     0.040 A 
ATOM     74  F   UNL A   1      42.502  29.210  27.268  1.00  0.00    -0.206 F 
ATOM     75  C   UNL A   1      41.203  26.152  25.823  1.00  0.00     0.006 A 
ENDBRANCH  54  68
BRANCH  55  76
ATOM     76  C   UNL A   1      39.757  33.070  36.471  1.00  0.00     0.057 A 
ATOM     77  C   UNL A   1      40.477  34.237  36.745  1.00  0.00     0.134 A 
ATOM     78  C   UNL A   1      38.847  32.630  37.440  1.00  0.00     0.134 A 
ATOM     79  F   UNL A   1      41.384  34.693  35.867  1.00  0.00    -0.206 F 
ATOM     80  C   UNL A   1      40.315  34.930  37.946  1.00  0.00     0.040 A 
ATOM     81  C   UNL A   1      38.657  33.326  38.634  1.00  0.00     0.040 A 
ATOM     82  F   UNL A   1      38.129  31.515  37.238  1.00  0.00    -0.206 F 
ATOM     83  C   UNL A   1      39.399  34.477  38.893  1.00  0.00     0.006 A 
ENDBRANCH  55  76
BRANCH  67  84
ATOM     84  C   UNL A   1      44.149  27.964  34.721  1.00  0.00     0.057 A 
ATOM     85  C   UNL A   1      45.468  28.434  34.696  1.00  0.00     0.134 A 
ATOM     86  C   UNL A   1      43.878  26.838  35.508  1.00  0.00     0.134 A 
ATOM     87  F   UNL A   1      45.796  29.500  33.951  1.00  0.00    -0.206 F 
ATOM     88  C   UNL A   1      46.483  27.796  35.413  1.00  0.00     0.040 A 
ATOM     89  C   UNL A   1      44.878  26.206  36.247  1.00  0.00     0.040 A 
ATOM     90  F   UNL A   1      42.633  26.342  35.583  1.00  0.00    -0.206 F 
ATOM     91  C   UNL A   1      46.186  26.682  36.196  1.00  0.00     0.006 A 
ENDBRANCH  67  84
ENDBRANCH  41  42
ENDBRANCH  34  36
ENDBRANCH  33  34
ENDBRANCH  32  33
ENDBRANCH  31  32
ENDBRANCH  30  31
ENDBRANCH   1  30
TORSDOF 20
ENDMDL
