MODEL 1
REMARK VINA RESULT:     -11.3      0.000      0.000
REMARK SMILES O=C(CN(C(=O)[C@H]1CC[C@H]2CCCC[C@H]2[NH2+]1)C1CC1)OCCOCCOC(=O)c1ccc(-c2c3nc(c(-c4c(F)cccc4F)c4ccc([nH]4)c(-c4c(F)cccc4F)c4nc(c(-c5c(F)cccc5F)c5ccc2[nH]5)C=C4)C=C3)cc1
REMARK SMILES IDX 22 1 21 2 20 3 2 4 1 5 3 6 4 7 5 8 6 9 7 10 8 11 16 12 9 13
REMARK SMILES IDX 15 14 10 17 14 18 11 19 13 20 12 21 17 22 18 23 19 24 23 25
REMARK SMILES IDX 24 26 25 27 26 28 27 29 28 30 29 31 30 32 82 33 31 34 81 35
REMARK SMILES IDX 32 36 33 37 34 38 75 39 35 40 80 41 74 42 76 43 36 44 79 45
REMARK SMILES IDX 73 46 72 47 37 49 63 50 46 51 62 52 47 53 50 54 61 55 77 56
REMARK SMILES IDX 48 57 49 58 60 60 78 61 51 62 38 63 39 64 44 65 40 66 41 67
REMARK SMILES IDX 43 68 45 69 42 70 64 71 65 72 70 73 66 74 67 75 69 76 71 77
REMARK SMILES IDX 68 78 52 79 53 80 58 81 54 82 55 83 57 84 59 85 56 86
REMARK H PARENT 16 15 16 16 76 48 50 59
REMARK Flexibility Score: inf
ROOT
ATOM      1  C   UNL A   1      32.543  27.084  25.393  1.00  0.00     0.202 C 
ENDROOT
BRANCH   1   2
ATOM      2  C   UNL A   1      31.366  26.121  25.420  1.00  0.00     0.261 C 
BRANCH   2   3
ATOM      3  O   UNL A   1      31.339  25.341  26.625  1.00  0.00    -0.462 OA
BRANCH   3   4
ATOM      4  C   UNL A   1      31.440  23.992  26.569  1.00  0.00     0.325 C 
ATOM      5  O   UNL A   1      31.220  23.325  27.580  1.00  0.00    -0.250 OA
BRANCH   4   6
ATOM      6  C   UNL A   1      31.902  23.320  25.270  1.00  0.00     0.242 C 
BRANCH   6   7
ATOM      7  N   UNL A   1      33.184  22.587  25.299  1.00  0.00    -0.323 N 
BRANCH   7   8
ATOM      8  C   UNL A   1      33.342  21.255  25.695  1.00  0.00     0.281 C 
ATOM      9  O   UNL A   1      34.155  20.933  26.573  1.00  0.00    -0.268 OA
BRANCH   8  10
ATOM     10  C   UNL A   1      32.454  20.111  25.087  1.00  0.00     0.273 C 
ATOM     11  C   UNL A   1      32.677  20.108  23.558  1.00  0.00     0.076 C 
ATOM     12  N   UNL A   1      32.875  18.829  25.715  1.00  0.00    -0.333 N 
ATOM     13  C   UNL A   1      32.164  18.845  22.871  1.00  0.00     0.016 C 
ATOM     14  C   UNL A   1      32.260  17.662  25.046  1.00  0.00     0.186 C 
ATOM     15  H   UNL A   1      32.595  18.833  26.694  1.00  0.00     0.347 HD
ATOM     16  H   UNL A   1      33.888  18.749  25.622  1.00  0.00     0.347 HD
ATOM     17  C   UNL A   1      32.653  17.575  23.571  1.00  0.00     0.048 C 
ATOM     18  C   UNL A   1      32.667  16.332  25.676  1.00  0.00     0.065 C 
ATOM     19  C   UNL A   1      34.166  17.315  23.387  1.00  0.00     0.010 C 
ATOM     20  C   UNL A   1      34.175  16.144  25.714  1.00  0.00     0.006 C 
ATOM     21  C   UNL A   1      34.789  16.262  24.321  1.00  0.00     0.001 C 
ENDBRANCH   8  10
ENDBRANCH   7   8
BRANCH   7  22
ATOM     22  C   UNL A   1      34.294  23.377  24.766  1.00  0.00     0.086 C 
ATOM     23  C   UNL A   1      34.847  23.057  23.396  1.00  0.00     0.027 C 
ATOM     24  C   UNL A   1      34.278  24.411  23.676  1.00  0.00     0.027 C 
ENDBRANCH   7  22
ENDBRANCH   6   7
ENDBRANCH   4   6
ENDBRANCH   3   4
ENDBRANCH   2   3
ENDBRANCH   1   2
BRANCH   1  25
ATOM     25  O   UNL A   1      32.179  28.388  24.937  1.00  0.00    -0.374 OA
BRANCH  25  26
ATOM     26  C   UNL A   1      31.402  29.142  25.875  1.00  0.00     0.202 C 
BRANCH  26  27
ATOM     27  C   UNL A   1      31.889  30.583  26.051  1.00  0.00     0.261 C 
BRANCH  27  28
ATOM     28  O   UNL A   1      32.473  30.770  27.352  1.00  0.00    -0.460 OA
BRANCH  28  29
ATOM     29  C   UNL A   1      33.228  31.884  27.467  1.00  0.00     0.338 C 
ATOM     30  O   UNL A   1      32.837  33.046  27.472  1.00  0.00    -0.246 OA
BRANCH  29  31
ATOM     31  C   UNL A   1      34.630  31.528  27.745  1.00  0.00     0.060 A 
ATOM     32  C   UNL A   1      34.929  30.169  27.871  1.00  0.00     0.016 A 
ATOM     33  C   UNL A   1      35.616  32.480  27.992  1.00  0.00     0.016 A 
ATOM     34  C   UNL A   1      36.134  29.744  28.390  1.00  0.00     0.010 A 
ATOM     35  C   UNL A   1      36.856  32.058  28.482  1.00  0.00     0.010 A 
ATOM     36  C   UNL A   1      37.082  30.694  28.757  1.00  0.00    -0.014 A 
BRANCH  36  37
ATOM     37  C   UNL A   1      38.173  30.258  29.653  1.00  0.00     0.031 A 
ATOM     38  C   UNL A   1      39.252  29.386  29.075  1.00  0.00     0.074 A 
ATOM     39  C   UNL A   1      38.271  30.742  30.902  1.00  0.00     0.049 A 
ATOM     40  N   UNL A   1      40.260  28.805  29.669  1.00  0.00    -0.248 NA
ATOM     41  C   UNL A   1      39.184  29.130  27.624  1.00  0.00     0.031 C 
ATOM     42  C   UNL A   1      37.349  31.698  31.516  1.00  0.00     0.029 A 
ATOM     43  N   UNL A   1      39.211  30.510  31.870  1.00  0.00    -0.354 N 
ATOM     44  C   UNL A   1      40.907  28.076  28.680  1.00  0.00     0.074 A 
ATOM     45  C   UNL A   1      40.179  28.277  27.449  1.00  0.00     0.031 C 
ATOM     46  C   UNL A   1      37.777  31.979  32.758  1.00  0.00     0.029 A 
ATOM     47  C   UNL A   1      38.964  31.180  33.042  1.00  0.00     0.049 A 
ATOM     48  H   UNL A   1      39.989  29.921  31.738  1.00  0.00     0.167 HD
ATOM     49  C   UNL A   1      42.014  27.305  28.794  1.00  0.00     0.037 A 
ATOM     50  C   UNL A   1      39.613  31.121  34.220  1.00  0.00     0.037 A 
ATOM     51  C   UNL A   1      42.757  27.163  30.016  1.00  0.00     0.049 A 
ATOM     52  C   UNL A   1      40.812  30.221  34.336  1.00  0.00     0.074 A 
ATOM     53  C   UNL A   1      43.885  26.401  30.259  1.00  0.00     0.029 A 
ATOM     54  N   UNL A   1      42.451  27.821  31.199  1.00  0.00    -0.354 N 
ATOM     55  N   UNL A   1      41.375  29.470  33.419  1.00  0.00    -0.248 NA
ATOM     56  C   UNL A   1      41.460  30.154  35.652  1.00  0.00     0.031 C 
ATOM     57  C   UNL A   1      44.241  26.572  31.601  1.00  0.00     0.029 A 
ATOM     58  C   UNL A   1      43.363  27.477  32.180  1.00  0.00     0.049 A 
ATOM     59  H   UNL A   1      41.696  28.441  31.321  1.00  0.00     0.167 HD
ATOM     60  C   UNL A   1      42.461  28.865  34.037  1.00  0.00     0.074 A 
ATOM     61  C   UNL A   1      42.482  29.347  35.405  1.00  0.00     0.031 C 
ATOM     62  C   UNL A   1      43.363  27.990  33.526  1.00  0.00     0.037 A 
BRANCH  49  63
ATOM     63  C   UNL A   1      42.440  26.528  27.585  1.00  0.00     0.057 A 
ATOM     64  C   UNL A   1      43.316  27.051  26.624  1.00  0.00     0.134 A 
ATOM     65  C   UNL A   1      41.951  25.232  27.374  1.00  0.00     0.134 A 
ATOM     66  F   UNL A   1      43.798  28.296  26.749  1.00  0.00    -0.206 F 
ATOM     67  C   UNL A   1      43.668  26.322  25.486  1.00  0.00     0.040 A 
ATOM     68  C   UNL A   1      42.318  24.484  26.255  1.00  0.00     0.040 A 
ATOM     69  F   UNL A   1      41.104  24.673  28.252  1.00  0.00    -0.206 F 
ATOM     70  C   UNL A   1      43.173  25.032  25.302  1.00  0.00     0.006 A 
ENDBRANCH  49  63
BRANCH  50  71
ATOM     71  C   UNL A   1      39.128  31.912  35.378  1.00  0.00     0.057 A 
ATOM     72  C   UNL A   1      38.248  31.362  36.317  1.00  0.00     0.134 A 
ATOM     73  C   UNL A   1      39.523  33.242  35.569  1.00  0.00     0.134 A 
ATOM     74  F   UNL A   1      37.816  30.100  36.179  1.00  0.00    -0.206 F 
ATOM     75  C   UNL A   1      37.768  32.109  37.395  1.00  0.00     0.040 A 
ATOM     76  C   UNL A   1      39.073  33.992  36.656  1.00  0.00     0.040 A 
ATOM     77  F   UNL A   1      40.367  33.827  34.706  1.00  0.00    -0.206 F 
ATOM     78  C   UNL A   1      38.186  33.427  37.569  1.00  0.00     0.006 A 
ENDBRANCH  50  71
BRANCH  62  79
ATOM     79  C   UNL A   1      44.470  27.550  34.435  1.00  0.00     0.057 A 
ATOM     80  C   UNL A   1      45.668  28.266  34.547  1.00  0.00     0.134 A 
ATOM     81  C   UNL A   1      44.319  26.407  35.230  1.00  0.00     0.134 A 
ATOM     82  F   UNL A   1      45.875  29.363  33.802  1.00  0.00    -0.206 F 
ATOM     83  C   UNL A   1      46.691  27.842  35.394  1.00  0.00     0.040 A 
ATOM     84  C   UNL A   1      45.323  25.988  36.102  1.00  0.00     0.040 A 
ATOM     85  F   UNL A   1      43.190  25.684  35.178  1.00  0.00    -0.206 F 
ATOM     86  C   UNL A   1      46.518  26.702  36.178  1.00  0.00     0.006 A 
ENDBRANCH  62  79
ENDBRANCH  36  37
ENDBRANCH  29  31
ENDBRANCH  28  29
ENDBRANCH  27  28
ENDBRANCH  26  27
ENDBRANCH  25  26
ENDBRANCH   1  25
TORSDOF 18
ENDMDL
MODEL 2
REMARK VINA RESULT:     -11.2      3.914      9.131
REMARK SMILES O=C(CN(C(=O)[C@H]1CC[C@H]2CCCC[C@H]2[NH2+]1)C1CC1)OCCOCCOC(=O)c1ccc(-c2c3nc(c(-c4c(F)cccc4F)c4ccc([nH]4)c(-c4c(F)cccc4F)c4nc(c(-c5c(F)cccc5F)c5ccc2[nH]5)C=C4)C=C3)cc1
REMARK SMILES IDX 22 1 21 2 20 3 2 4 1 5 3 6 4 7 5 8 6 9 7 10 8 11 16 12 9 13
REMARK SMILES IDX 15 14 10 17 14 18 11 19 13 20 12 21 17 22 18 23 19 24 23 25
REMARK SMILES IDX 24 26 25 27 26 28 27 29 28 30 29 31 30 32 82 33 31 34 81 35
REMARK SMILES IDX 32 36 33 37 34 38 75 39 35 40 80 41 74 42 76 43 36 44 79 45
REMARK SMILES IDX 73 46 72 47 37 49 63 50 46 51 62 52 47 53 50 54 61 55 77 56
REMARK SMILES IDX 48 57 49 58 60 60 78 61 51 62 38 63 39 64 44 65 40 66 41 67
REMARK SMILES IDX 43 68 45 69 42 70 64 71 65 72 70 73 66 74 67 75 69 76 71 77
REMARK SMILES IDX 68 78 52 79 53 80 58 81 54 82 55 83 57 84 59 85 56 86
REMARK H PARENT 16 15 16 16 76 48 50 59
REMARK Flexibility Score: inf
ROOT
ATOM      1  C   UNL A   1      34.623  23.212  26.302  1.00  0.00     0.202 C 
ENDROOT
BRANCH   1   2
ATOM      2  C   UNL A   1      33.911  22.831  27.591  1.00  0.00     0.261 C 
BRANCH   2   3
ATOM      3  O   UNL A   1      32.578  22.358  27.346  1.00  0.00    -0.462 OA
BRANCH   3   4
ATOM      4  C   UNL A   1      31.661  23.168  26.766  1.00  0.00     0.325 C 
ATOM      5  O   UNL A   1      31.341  24.219  27.322  1.00  0.00    -0.250 OA
BRANCH   4   6
ATOM      6  C   UNL A   1      30.973  22.726  25.467  1.00  0.00     0.242 C 
BRANCH   6   7
ATOM      7  N   UNL A   1      31.260  23.503  24.244  1.00  0.00    -0.323 N 
BRANCH   7   8
ATOM      8  C   UNL A   1      31.194  24.896  24.141  1.00  0.00     0.281 C 
ATOM      9  O   UNL A   1      30.108  25.487  24.051  1.00  0.00    -0.268 OA
BRANCH   8  10
ATOM     10  C   UNL A   1      32.489  25.782  24.191  1.00  0.00     0.273 C 
ATOM     11  C   UNL A   1      32.423  26.776  23.010  1.00  0.00     0.076 C 
ATOM     12  N   UNL A   1      32.510  26.479  25.506  1.00  0.00    -0.333 N 
ATOM     13  C   UNL A   1      33.422  27.924  23.125  1.00  0.00     0.016 C 
ATOM     14  C   UNL A   1      33.567  27.511  25.564  1.00  0.00     0.186 C 
ATOM     15  H   UNL A   1      32.680  25.792  26.241  1.00  0.00     0.347 HD
ATOM     16  H   UNL A   1      31.610  26.940  25.635  1.00  0.00     0.347 HD
ATOM     17  C   UNL A   1      33.370  28.592  24.501  1.00  0.00     0.048 C 
ATOM     18  C   UNL A   1      33.619  28.235  26.907  1.00  0.00     0.065 C 
ATOM     19  C   UNL A   1      32.080  29.411  24.738  1.00  0.00     0.010 C 
ATOM     20  C   UNL A   1      32.288  28.868  27.278  1.00  0.00     0.006 C 
ATOM     21  C   UNL A   1      31.803  29.828  26.194  1.00  0.00     0.001 C 
ENDBRANCH   8  10
ENDBRANCH   7   8
BRANCH   7  22
ATOM     22  C   UNL A   1      31.729  22.662  23.143  1.00  0.00     0.086 C 
ATOM     23  C   UNL A   1      33.213  22.447  22.948  1.00  0.00     0.027 C 
ATOM     24  C   UNL A   1      32.314  21.278  23.196  1.00  0.00     0.027 C 
ENDBRANCH   7  22
ENDBRANCH   6   7
ENDBRANCH   4   6
ENDBRANCH   3   4
ENDBRANCH   2   3
ENDBRANCH   1   2
BRANCH   1  25
ATOM     25  O   UNL A   1      35.824  22.466  26.094  1.00  0.00    -0.374 OA
BRANCH  25  26
ATOM     26  C   UNL A   1      35.620  21.185  25.485  1.00  0.00     0.202 C 
BRANCH  26  27
ATOM     27  C   UNL A   1      36.918  20.514  25.030  1.00  0.00     0.261 C 
BRANCH  27  28
ATOM     28  O   UNL A   1      38.001  21.461  25.000  1.00  0.00    -0.460 OA
BRANCH  28  29
ATOM     29  C   UNL A   1      39.041  21.141  25.800  1.00  0.00     0.338 C 
ATOM     30  O   UNL A   1      39.665  20.085  25.816  1.00  0.00    -0.246 OA
BRANCH  29  31
ATOM     31  C   UNL A   1      39.459  22.311  26.592  1.00  0.00     0.060 A 
ATOM     32  C   UNL A   1      38.873  23.538  26.273  1.00  0.00     0.016 A 
ATOM     33  C   UNL A   1      40.473  22.253  27.545  1.00  0.00     0.016 A 
ATOM     34  C   UNL A   1      39.381  24.724  26.759  1.00  0.00     0.010 A 
ATOM     35  C   UNL A   1      40.971  23.449  28.074  1.00  0.00     0.010 A 
ATOM     36  C   UNL A   1      40.476  24.686  27.617  1.00  0.00    -0.014 A 
BRANCH  36  37
ATOM     37  C   UNL A   1      41.235  25.939  27.808  1.00  0.00     0.031 A 
ATOM     38  C   UNL A   1      40.607  27.024  28.637  1.00  0.00     0.074 A 
ATOM     39  C   UNL A   1      42.503  26.047  27.375  1.00  0.00     0.049 A 
ATOM     40  N   UNL A   1      41.029  28.237  28.878  1.00  0.00    -0.248 NA
ATOM     41  C   UNL A   1      39.323  26.697  29.283  1.00  0.00     0.031 C 
ATOM     42  C   UNL A   1      43.252  25.003  26.675  1.00  0.00     0.029 A 
ATOM     43  N   UNL A   1      43.390  27.084  27.483  1.00  0.00    -0.354 N 
ATOM     44  C   UNL A   1      40.038  28.830  29.651  1.00  0.00     0.074 A 
ATOM     45  C   UNL A   1      38.991  27.851  29.836  1.00  0.00     0.031 C 
ATOM     46  C   UNL A   1      44.494  25.451  26.426  1.00  0.00     0.029 A 
ATOM     47  C   UNL A   1      44.603  26.829  26.894  1.00  0.00     0.049 A 
ATOM     48  H   UNL A   1      43.179  27.931  27.940  1.00  0.00     0.167 HD
ATOM     49  C   UNL A   1      40.010  30.083  30.161  1.00  0.00     0.037 A 
ATOM     50  C   UNL A   1      45.666  27.637  26.728  1.00  0.00     0.037 A 
ATOM     51  C   UNL A   1      41.087  31.022  30.014  1.00  0.00     0.049 A 
ATOM     52  C   UNL A   1      45.593  29.041  27.262  1.00  0.00     0.074 A 
ATOM     53  C   UNL A   1      41.170  32.324  30.473  1.00  0.00     0.029 A 
ATOM     54  N   UNL A   1      42.285  30.745  29.370  1.00  0.00    -0.354 N 
ATOM     55  N   UNL A   1      44.622  29.624  27.924  1.00  0.00    -0.248 NA
ATOM     56  C   UNL A   1      46.758  29.900  27.017  1.00  0.00     0.031 C 
ATOM     57  C   UNL A   1      42.405  32.845  30.075  1.00  0.00     0.029 A 
ATOM     58  C   UNL A   1      43.111  31.853  29.411  1.00  0.00     0.049 A 
ATOM     59  H   UNL A   1      42.512  29.885  28.946  1.00  0.00     0.167 HD
ATOM     60  C   UNL A   1      45.070  30.909  28.203  1.00  0.00     0.074 A 
ATOM     61  C   UNL A   1      46.405  31.012  27.646  1.00  0.00     0.031 C 
ATOM     62  C   UNL A   1      44.441  31.914  28.860  1.00  0.00     0.037 A 
BRANCH  49  63
ATOM     63  C   UNL A   1      38.759  30.510  30.869  1.00  0.00     0.057 A 
ATOM     64  C   UNL A   1      38.571  30.322  32.245  1.00  0.00     0.134 A 
ATOM     65  C   UNL A   1      37.716  31.112  30.152  1.00  0.00     0.134 A 
ATOM     66  F   UNL A   1      39.517  29.726  32.985  1.00  0.00    -0.206 F 
ATOM     67  C   UNL A   1      37.381  30.694  32.876  1.00  0.00     0.040 A 
ATOM     68  C   UNL A   1      36.535  31.513  30.776  1.00  0.00     0.040 A 
ATOM     69  F   UNL A   1      37.829  31.317  28.831  1.00  0.00    -0.206 F 
ATOM     70  C   UNL A   1      36.361  31.297  32.141  1.00  0.00     0.006 A 
ENDBRANCH  49  63
BRANCH  50  71
ATOM     71  C   UNL A   1      46.868  27.148  26.008  1.00  0.00     0.057 A 
ATOM     72  C   UNL A   1      47.023  27.348  24.632  1.00  0.00     0.134 A 
ATOM     73  C   UNL A   1      47.888  26.459  26.676  1.00  0.00     0.134 A 
ATOM     74  F   UNL A   1      46.072  27.983  23.931  1.00  0.00    -0.206 F 
ATOM     75  C   UNL A   1      48.139  26.868  23.943  1.00  0.00     0.040 A 
ATOM     76  C   UNL A   1      49.022  25.997  26.007  1.00  0.00     0.040 A 
ATOM     77  F   UNL A   1      47.802  26.236  27.997  1.00  0.00    -0.206 F 
ATOM     78  C   UNL A   1      49.146  26.195  24.634  1.00  0.00     0.006 A 
ENDBRANCH  50  71
BRANCH  62  79
ATOM     79  C   UNL A   1      45.213  33.184  29.054  1.00  0.00     0.057 A 
ATOM     80  C   UNL A   1      45.143  34.242  28.140  1.00  0.00     0.134 A 
ATOM     81  C   UNL A   1      46.016  33.356  30.189  1.00  0.00     0.134 A 
ATOM     82  F   UNL A   1      44.400  34.131  27.028  1.00  0.00    -0.206 F 
ATOM     83  C   UNL A   1      45.871  35.416  28.332  1.00  0.00     0.040 A 
ATOM     84  C   UNL A   1      46.725  34.537  30.406  1.00  0.00     0.040 A 
ATOM     85  F   UNL A   1      46.115  32.384  31.108  1.00  0.00    -0.206 F 
ATOM     86  C   UNL A   1      46.661  35.568  29.470  1.00  0.00     0.006 A 
ENDBRANCH  62  79
ENDBRANCH  36  37
ENDBRANCH  29  31
ENDBRANCH  28  29
ENDBRANCH  27  28
ENDBRANCH  26  27
ENDBRANCH  25  26
ENDBRANCH   1  25
TORSDOF 18
ENDMDL
MODEL 3
REMARK VINA RESULT:     -10.9      1.710      2.986
REMARK SMILES O=C(CN(C(=O)[C@H]1CC[C@H]2CCCC[C@H]2[NH2+]1)C1CC1)OCCOCCOC(=O)c1ccc(-c2c3nc(c(-c4c(F)cccc4F)c4ccc([nH]4)c(-c4c(F)cccc4F)c4nc(c(-c5c(F)cccc5F)c5ccc2[nH]5)C=C4)C=C3)cc1
REMARK SMILES IDX 22 1 21 2 20 3 2 4 1 5 3 6 4 7 5 8 6 9 7 10 8 11 16 12 9 13
REMARK SMILES IDX 15 14 10 17 14 18 11 19 13 20 12 21 17 22 18 23 19 24 23 25
REMARK SMILES IDX 24 26 25 27 26 28 27 29 28 30 29 31 30 32 82 33 31 34 81 35
REMARK SMILES IDX 32 36 33 37 34 38 75 39 35 40 80 41 74 42 76 43 36 44 79 45
REMARK SMILES IDX 73 46 72 47 37 49 63 50 46 51 62 52 47 53 50 54 61 55 77 56
REMARK SMILES IDX 48 57 49 58 60 60 78 61 51 62 38 63 39 64 44 65 40 66 41 67
REMARK SMILES IDX 43 68 45 69 42 70 64 71 65 72 70 73 66 74 67 75 69 76 71 77
REMARK SMILES IDX 68 78 52 79 53 80 58 81 54 82 55 83 57 84 59 85 56 86
REMARK H PARENT 16 15 16 16 76 48 50 59
REMARK Flexibility Score: inf
ROOT
ATOM      1  C   UNL A   1      32.928  29.996  25.775  1.00  0.00     0.202 C 
ENDROOT
BRANCH   1   2
ATOM      2  C   UNL A   1      33.777  28.896  26.394  1.00  0.00     0.261 C 
BRANCH   2   3
ATOM      3  O   UNL A   1      33.015  28.070  27.287  1.00  0.00    -0.462 OA
BRANCH   3   4
ATOM      4  C   UNL A   1      32.181  27.122  26.798  1.00  0.00     0.325 C 
ATOM      5  O   UNL A   1      31.012  27.086  27.182  1.00  0.00    -0.250 OA
BRANCH   4   6
ATOM      6  C   UNL A   1      32.723  26.059  25.833  1.00  0.00     0.242 C 
BRANCH   6   7
ATOM      7  N   UNL A   1      31.900  24.853  25.612  1.00  0.00    -0.323 N 
BRANCH   7   8
ATOM      8  C   UNL A   1      31.770  23.791  26.512  1.00  0.00     0.281 C 
ATOM      9  O   UNL A   1      30.809  23.716  27.290  1.00  0.00    -0.268 OA
BRANCH   8  10
ATOM     10  C   UNL A   1      32.805  22.612  26.539  1.00  0.00     0.273 C 
ATOM     11  C   UNL A   1      32.451  21.649  25.384  1.00  0.00     0.076 C 
ATOM     12  N   UNL A   1      34.164  23.198  26.379  1.00  0.00    -0.333 N 
ATOM     13  C   UNL A   1      33.560  20.651  25.061  1.00  0.00     0.016 C 
ATOM     14  C   UNL A   1      35.191  22.156  26.162  1.00  0.00     0.186 C 
ATOM     15  H   UNL A   1      34.399  23.722  27.221  1.00  0.00     0.347 HD
ATOM     16  H   UNL A   1      34.152  23.806  25.559  1.00  0.00     0.347 HD
ATOM     17  C   UNL A   1      34.918  21.338  24.900  1.00  0.00     0.048 C 
ATOM     18  C   UNL A   1      36.597  22.729  26.005  1.00  0.00     0.065 C 
ATOM     19  C   UNL A   1      35.025  22.195  23.618  1.00  0.00     0.010 C 
ATOM     20  C   UNL A   1      36.685  23.753  24.884  1.00  0.00     0.006 C 
ATOM     21  C   UNL A   1      36.216  23.168  23.554  1.00  0.00     0.001 C 
ENDBRANCH   8  10
ENDBRANCH   7   8
BRANCH   7  22
ATOM     22  C   UNL A   1      31.133  24.918  24.368  1.00  0.00     0.086 C 
ATOM     23  C   UNL A   1      31.822  24.628  23.053  1.00  0.00     0.027 C 
ATOM     24  C   UNL A   1      30.661  23.792  23.491  1.00  0.00     0.027 C 
ENDBRANCH   7  22
ENDBRANCH   6   7
ENDBRANCH   4   6
ENDBRANCH   3   4
ENDBRANCH   2   3
ENDBRANCH   1   2
BRANCH   1  25
ATOM     25  O   UNL A   1      31.978  30.542  26.692  1.00  0.00    -0.374 OA
BRANCH  25  26
ATOM     26  C   UNL A   1      31.182  31.602  26.148  1.00  0.00     0.202 C 
BRANCH  26  27
ATOM     27  C   UNL A   1      31.675  32.997  26.542  1.00  0.00     0.261 C 
BRANCH  27  28
ATOM     28  O   UNL A   1      32.099  33.020  27.916  1.00  0.00    -0.460 OA
BRANCH  28  29
ATOM     29  C   UNL A   1      33.085  33.906  28.178  1.00  0.00     0.338 C 
ATOM     30  O   UNL A   1      32.965  35.109  28.379  1.00  0.00    -0.246 OA
BRANCH  29  31
ATOM     31  C   UNL A   1      34.371  33.207  28.347  1.00  0.00     0.060 A 
ATOM     32  C   UNL A   1      34.321  31.864  28.730  1.00  0.00     0.016 A 
ATOM     33  C   UNL A   1      35.600  33.854  28.250  1.00  0.00     0.016 A 
ATOM     34  C   UNL A   1      35.446  31.201  29.172  1.00  0.00     0.010 A 
ATOM     35  C   UNL A   1      36.754  33.178  28.659  1.00  0.00     0.010 A 
ATOM     36  C   UNL A   1      36.661  31.878  29.196  1.00  0.00    -0.014 A 
BRANCH  36  37
ATOM     37  C   UNL A   1      37.745  31.304  30.020  1.00  0.00     0.031 A 
ATOM     38  C   UNL A   1      38.698  30.346  29.361  1.00  0.00     0.074 A 
ATOM     39  C   UNL A   1      37.956  31.735  31.275  1.00  0.00     0.049 A 
ATOM     40  N   UNL A   1      39.670  29.647  29.884  1.00  0.00    -0.248 NA
ATOM     41  C   UNL A   1      38.530  30.147  27.910  1.00  0.00     0.031 C 
ATOM     42  C   UNL A   1      37.169  32.758  31.965  1.00  0.00     0.029 A 
ATOM     43  N   UNL A   1      38.914  31.376  32.185  1.00  0.00    -0.354 N 
ATOM     44  C   UNL A   1      40.187  28.889  28.842  1.00  0.00     0.074 A 
ATOM     45  C   UNL A   1      39.422  29.204  27.658  1.00  0.00     0.031 C 
ATOM     46  C   UNL A   1      37.686  32.953  33.189  1.00  0.00     0.029 A 
ATOM     47  C   UNL A   1      38.797  32.028  33.387  1.00  0.00     0.049 A 
ATOM     48  H   UNL A   1      39.620  30.716  31.995  1.00  0.00     0.167 HD
ATOM     49  C   UNL A   1      41.212  28.007  28.875  1.00  0.00     0.037 A 
ATOM     50  C   UNL A   1      39.495  31.865  34.526  1.00  0.00     0.037 A 
ATOM     51  C   UNL A   1      41.998  27.749  30.051  1.00  0.00     0.049 A 
ATOM     52  C   UNL A   1      40.600  30.844  34.553  1.00  0.00     0.074 A 
ATOM     53  C   UNL A   1      43.052  26.870  30.212  1.00  0.00     0.029 A 
ATOM     54  N   UNL A   1      41.821  28.396  31.266  1.00  0.00    -0.354 N 
ATOM     55  N   UNL A   1      41.035  30.071  33.586  1.00  0.00    -0.248 NA
ATOM     56  C   UNL A   1      41.303  30.668  35.829  1.00  0.00     0.031 C 
ATOM     57  C   UNL A   1      43.492  26.959  31.537  1.00  0.00     0.029 A 
ATOM     58  C   UNL A   1      42.742  27.929  32.187  1.00  0.00     0.049 A 
ATOM     59  H   UNL A   1      41.141  29.084  31.446  1.00  0.00     0.167 HD
ATOM     60  C   UNL A   1      42.083  29.339  34.128  1.00  0.00     0.074 A 
ATOM     61  C   UNL A   1      42.223  29.771  35.505  1.00  0.00     0.031 C 
ATOM     62  C   UNL A   1      42.862  28.395  33.545  1.00  0.00     0.037 A 
BRANCH  49  63
ATOM     63  C   UNL A   1      41.494  27.231  27.623  1.00  0.00     0.057 A 
ATOM     64  C   UNL A   1      40.917  25.980  27.368  1.00  0.00     0.134 A 
ATOM     65  C   UNL A   1      42.373  27.744  26.661  1.00  0.00     0.134 A 
ATOM     66  F   UNL A   1      40.090  25.417  28.261  1.00  0.00    -0.206 F 
ATOM     67  C   UNL A   1      41.225  25.257  26.212  1.00  0.00     0.040 A 
ATOM     68  C   UNL A   1      42.666  27.045  25.490  1.00  0.00     0.040 A 
ATOM     69  F   UNL A   1      42.964  28.935  26.846  1.00  0.00    -0.206 F 
ATOM     70  C   UNL A   1      42.098  25.793  25.266  1.00  0.00     0.006 A 
ENDBRANCH  49  63
BRANCH  50  71
ATOM     71  C   UNL A   1      39.154  32.662  35.730  1.00  0.00     0.057 A 
ATOM     72  C   UNL A   1      39.693  33.937  35.934  1.00  0.00     0.134 A 
ATOM     73  C   UNL A   1      38.289  32.164  36.712  1.00  0.00     0.134 A 
ATOM     74  F   UNL A   1      40.543  34.462  35.040  1.00  0.00    -0.206 F 
ATOM     75  C   UNL A   1      39.396  34.683  37.077  1.00  0.00     0.040 A 
ATOM     76  C   UNL A   1      37.962  32.908  37.847  1.00  0.00     0.040 A 
ATOM     77  F   UNL A   1      37.737  30.949  36.576  1.00  0.00    -0.206 F 
ATOM     78  C   UNL A   1      38.523  34.169  38.035  1.00  0.00     0.006 A 
ENDBRANCH  50  71
BRANCH  62  79
ATOM     79  C   UNL A   1      43.963  27.814  34.381  1.00  0.00     0.057 A 
ATOM     80  C   UNL A   1      43.790  26.639  35.122  1.00  0.00     0.134 A 
ATOM     81  C   UNL A   1      45.220  28.429  34.420  1.00  0.00     0.134 A 
ATOM     82  F   UNL A   1      42.604  26.011  35.134  1.00  0.00    -0.206 F 
ATOM     83  C   UNL A   1      44.822  26.112  35.899  1.00  0.00     0.040 A 
ATOM     84  C   UNL A   1      46.268  27.897  35.171  1.00  0.00     0.040 A 
ATOM     85  F   UNL A   1      45.452  29.551  33.722  1.00  0.00    -0.206 F 
ATOM     86  C   UNL A   1      46.067  26.740  35.920  1.00  0.00     0.006 A 
ENDBRANCH  62  79
ENDBRANCH  36  37
ENDBRANCH  29  31
ENDBRANCH  28  29
ENDBRANCH  27  28
ENDBRANCH  26  27
ENDBRANCH  25  26
ENDBRANCH   1  25
TORSDOF 18
ENDMDL
