MODEL 1
REMARK VINA RESULT:     -11.4      0.000      0.000
REMARK SMILES C[C@@H]1CCN(c2cncc(C(=O)OCCOCCOC(=O)c3ccc(-c4c5nc(c(-c6c(F)cccc6F)c6ccc([nH]6)c(-c6c(F)cccc6F)c6nc(c(-c7c(F)cccc7F)c7ccc4[nH]7)C=C6)C=C5)cc3)n2)[C@H](C)C1
REMARK SMILES IDX 17 1 16 2 15 3 14 4 13 5 11 6 12 7 10 8 6 9 7 10 76 11 8 12
REMARK SMILES IDX 9 13 5 14 1 15 2 16 3 17 79 18 4 19 77 20 78 21 18 22 19 23
REMARK SMILES IDX 20 24 21 25 22 26 23 27 75 28 24 29 74 30 25 31 26 32 27 33
REMARK SMILES IDX 68 34 28 35 73 36 67 37 69 38 29 39 72 40 66 41 65 42 30 44
REMARK SMILES IDX 56 45 39 46 55 47 40 48 43 49 54 50 70 51 41 52 42 53 53 55
REMARK SMILES IDX 71 56 44 57 31 58 32 59 37 60 33 61 34 62 36 63 38 64 35 65
REMARK SMILES IDX 57 66 58 67 63 68 59 69 60 70 62 71 64 72 61 73 45 74 46 75
REMARK SMILES IDX 51 76 47 77 48 78 50 79 52 80 49 81
REMARK H PARENT 69 43 43 54
REMARK Flexibility Score: inf
ROOT
ATOM      1  C   UNL A   1      44.827  21.255  24.672  1.00  0.00     0.202 C 
ENDROOT
BRANCH   1   2
ATOM      2  O   UNL A   1      43.569  20.945  25.276  1.00  0.00    -0.374 OA
BRANCH   2   3
ATOM      3  C   UNL A   1      43.265  19.558  25.438  1.00  0.00     0.202 C 
BRANCH   3   4
ATOM      4  C   UNL A   1      42.088  19.255  26.372  1.00  0.00     0.261 C 
BRANCH   4   5
ATOM      5  O   UNL A   1      41.187  20.374  26.442  1.00  0.00    -0.458 OA
BRANCH   5   6
ATOM      6  C   UNL A   1      39.962  20.176  25.890  1.00  0.00     0.358 C 
ATOM      7  O   UNL A   1      39.514  19.117  25.475  1.00  0.00    -0.244 OA
BRANCH   6   8
ATOM      8  C   UNL A   1      39.126  21.386  26.047  1.00  0.00     0.169 A 
ATOM      9  C   UNL A   1      37.107  22.509  25.848  1.00  0.00     0.148 A 
ATOM     10  C   UNL A   1      37.802  23.673  26.218  1.00  0.00     0.157 A 
ATOM     11  N   UNL A   1      37.798  21.344  25.745  1.00  0.00    -0.221 NA
ATOM     12  N   UNL A   1      39.129  23.730  26.510  1.00  0.00    -0.258 NA
ATOM     13  C   UNL A   1      39.773  22.548  26.428  1.00  0.00     0.147 A 
BRANCH   9  14
ATOM     14  N   UNL A   1      35.744  22.494  25.616  1.00  0.00    -0.353 N 
ATOM     15  C   UNL A   1      32.077  21.585  25.347  1.00  0.00     0.008 C 
ATOM     16  C   UNL A   1      33.333  20.900  25.896  1.00  0.00    -0.011 C 
ATOM     17  C   UNL A   1      33.954  21.673  27.073  1.00  0.00     0.025 C 
ATOM     18  C   UNL A   1      34.388  20.623  24.811  1.00  0.00     0.028 C 
ATOM     19  C   UNL A   1      34.753  22.893  26.612  1.00  0.00     0.118 C 
ATOM     20  C   UNL A   1      35.257  21.827  24.402  1.00  0.00     0.081 C 
ATOM     21  C   UNL A   1      34.549  22.816  23.480  1.00  0.00     0.031 C 
ENDBRANCH   9  14
ENDBRANCH   6   8
ENDBRANCH   5   6
ENDBRANCH   4   5
ENDBRANCH   3   4
ENDBRANCH   2   3
ENDBRANCH   1   2
BRANCH   1  22
ATOM     22  C   UNL A   1      44.900  22.603  23.948  1.00  0.00     0.261 C 
BRANCH  22  23
ATOM     23  O   UNL A   1      44.015  23.566  24.549  1.00  0.00    -0.460 OA
BRANCH  23  24
ATOM     24  C   UNL A   1      44.622  24.683  25.006  1.00  0.00     0.338 C 
ATOM     25  O   UNL A   1      45.727  25.107  24.693  1.00  0.00    -0.246 OA
BRANCH  24  26
ATOM     26  C   UNL A   1      43.698  25.458  25.856  1.00  0.00     0.060 A 
ATOM     27  C   UNL A   1      43.966  26.824  26.009  1.00  0.00     0.016 A 
ATOM     28  C   UNL A   1      42.646  24.859  26.555  1.00  0.00     0.016 A 
ATOM     29  C   UNL A   1      43.240  27.579  26.924  1.00  0.00     0.010 A 
ATOM     30  C   UNL A   1      41.918  25.619  27.478  1.00  0.00     0.010 A 
ATOM     31  C   UNL A   1      42.249  26.968  27.703  1.00  0.00    -0.014 A 
BRANCH  31  32
ATOM     32  C   UNL A   1      41.712  27.695  28.878  1.00  0.00     0.031 A 
ATOM     33  C   UNL A   1      42.422  27.558  30.199  1.00  0.00     0.074 A 
ATOM     34  C   UNL A   1      40.650  28.512  28.766  1.00  0.00     0.049 A 
ATOM     35  N   UNL A   1      42.149  28.110  31.353  1.00  0.00    -0.248 NA
ATOM     36  C   UNL A   1      43.601  26.677  30.217  1.00  0.00     0.031 C 
ATOM     37  C   UNL A   1      39.898  28.755  27.537  1.00  0.00     0.029 A 
ATOM     38  N   UNL A   1      40.026  29.291  29.707  1.00  0.00    -0.354 N 
ATOM     39  C   UNL A   1      43.119  27.646  32.232  1.00  0.00     0.074 A 
ATOM     40  C   UNL A   1      43.963  26.736  31.490  1.00  0.00     0.031 C 
ATOM     41  C   UNL A   1      38.903  29.622  27.802  1.00  0.00     0.029 A 
ATOM     42  C   UNL A   1      38.942  29.977  29.220  1.00  0.00     0.049 A 
ATOM     43  H   UNL A   1      40.327  29.353  30.642  1.00  0.00     0.167 HD
ATOM     44  C   UNL A   1      43.302  27.959  33.536  1.00  0.00     0.037 A 
ATOM     45  C   UNL A   1      38.073  30.790  29.852  1.00  0.00     0.037 A 
ATOM     46  C   UNL A   1      42.463  28.864  34.277  1.00  0.00     0.049 A 
ATOM     47  C   UNL A   1      38.267  31.089  31.314  1.00  0.00     0.074 A 
ATOM     48  C   UNL A   1      42.562  29.245  35.604  1.00  0.00     0.029 A 
ATOM     49  N   UNL A   1      41.366  29.529  33.750  1.00  0.00    -0.354 N 
ATOM     50  N   UNL A   1      39.197  30.657  32.132  1.00  0.00    -0.248 NA
ATOM     51  C   UNL A   1      37.296  32.000  31.939  1.00  0.00     0.031 C 
ATOM     52  C   UNL A   1      41.501  30.111  35.890  1.00  0.00     0.029 A 
ATOM     53  C   UNL A   1      40.772  30.309  34.729  1.00  0.00     0.049 A 
ATOM     54  H   UNL A   1      41.055  29.456  32.819  1.00  0.00     0.167 HD
ATOM     55  C   UNL A   1      38.944  31.267  33.355  1.00  0.00     0.074 A 
ATOM     56  C   UNL A   1      37.778  32.106  33.170  1.00  0.00     0.031 C 
ATOM     57  C   UNL A   1      39.619  31.148  34.525  1.00  0.00     0.037 A 
BRANCH  44  58
ATOM     58  C   UNL A   1      44.448  27.300  34.246  1.00  0.00     0.057 A 
ATOM     59  C   UNL A   1      44.326  26.028  34.821  1.00  0.00     0.134 A 
ATOM     60  C   UNL A   1      45.688  27.941  34.351  1.00  0.00     0.134 A 
ATOM     61  F   UNL A   1      43.159  25.368  34.771  1.00  0.00    -0.206 F 
ATOM     62  C   UNL A   1      45.390  25.428  35.496  1.00  0.00     0.040 A 
ATOM     63  C   UNL A   1      46.767  27.340  35.001  1.00  0.00     0.040 A 
ATOM     64  F   UNL A   1      45.873  29.160  33.821  1.00  0.00    -0.206 F 
ATOM     65  C   UNL A   1      46.617  26.083  35.582  1.00  0.00     0.006 A 
ENDBRANCH  44  58
BRANCH  45  66
ATOM     66  C   UNL A   1      36.937  31.383  29.103  1.00  0.00     0.057 A 
ATOM     67  C   UNL A   1      36.957  32.720  28.688  1.00  0.00     0.134 A 
ATOM     68  C   UNL A   1      35.799  30.628  28.796  1.00  0.00     0.134 A 
ATOM     69  F   UNL A   1      38.010  33.499  28.973  1.00  0.00    -0.206 F 
ATOM     70  C   UNL A   1      35.878  33.289  28.010  1.00  0.00     0.040 A 
ATOM     71  C   UNL A   1      34.723  31.178  28.098  1.00  0.00     0.040 A 
ATOM     72  F   UNL A   1      35.720  29.341  29.165  1.00  0.00    -0.206 F 
ATOM     73  C   UNL A   1      34.758  32.516  27.709  1.00  0.00     0.006 A 
ENDBRANCH  45  66
BRANCH  57  74
ATOM     74  C   UNL A   1      39.144  31.977  35.682  1.00  0.00     0.057 A 
ATOM     75  C   UNL A   1      38.286  31.462  36.662  1.00  0.00     0.134 A 
ATOM     76  C   UNL A   1      39.582  33.298  35.835  1.00  0.00     0.134 A 
ATOM     77  F   UNL A   1      37.822  30.206  36.570  1.00  0.00    -0.206 F 
ATOM     78  C   UNL A   1      37.861  32.241  37.740  1.00  0.00     0.040 A 
ATOM     79  C   UNL A   1      39.184  34.079  36.921  1.00  0.00     0.040 A 
ATOM     80  F   UNL A   1      40.412  33.849  34.938  1.00  0.00    -0.206 F 
ATOM     81  C   UNL A   1      38.315  33.552  37.874  1.00  0.00     0.006 A 
ENDBRANCH  57  74
ENDBRANCH  31  32
ENDBRANCH  24  26
ENDBRANCH  23  24
ENDBRANCH  22  23
ENDBRANCH   1  22
TORSDOF 15
ENDMDL
MODEL 2
REMARK VINA RESULT:     -10.9      1.550      2.810
REMARK SMILES C[C@@H]1CCN(c2cncc(C(=O)OCCOCCOC(=O)c3ccc(-c4c5nc(c(-c6c(F)cccc6F)c6ccc([nH]6)c(-c6c(F)cccc6F)c6nc(c(-c7c(F)cccc7F)c7ccc4[nH]7)C=C6)C=C5)cc3)n2)[C@H](C)C1
REMARK SMILES IDX 17 1 16 2 15 3 14 4 13 5 11 6 12 7 10 8 6 9 7 10 76 11 8 12
REMARK SMILES IDX 9 13 5 14 1 15 2 16 3 17 79 18 4 19 77 20 78 21 18 22 19 23
REMARK SMILES IDX 20 24 21 25 22 26 23 27 75 28 24 29 74 30 25 31 26 32 27 33
REMARK SMILES IDX 68 34 28 35 73 36 67 37 69 38 29 39 72 40 66 41 65 42 30 44
REMARK SMILES IDX 56 45 39 46 55 47 40 48 43 49 54 50 70 51 41 52 42 53 53 55
REMARK SMILES IDX 71 56 44 57 31 58 32 59 37 60 33 61 34 62 36 63 38 64 35 65
REMARK SMILES IDX 57 66 58 67 63 68 59 69 60 70 62 71 64 72 61 73 45 74 46 75
REMARK SMILES IDX 51 76 47 77 48 78 50 79 52 80 49 81
REMARK H PARENT 69 43 43 54
REMARK Flexibility Score: inf
ROOT
ATOM      1  C   UNL A   1      42.976  20.872  26.142  1.00  0.00     0.202 C 
ENDROOT
BRANCH   1   2
ATOM      2  O   UNL A   1      41.742  20.583  25.479  1.00  0.00    -0.374 OA
BRANCH   2   3
ATOM      3  C   UNL A   1      40.579  20.503  26.305  1.00  0.00     0.202 C 
BRANCH   3   4
ATOM      4  C   UNL A   1      39.846  21.831  26.528  1.00  0.00     0.261 C 
BRANCH   4   5
ATOM      5  O   UNL A   1      38.521  21.786  25.969  1.00  0.00    -0.458 OA
BRANCH   5   6
ATOM      6  C   UNL A   1      37.818  22.945  26.037  1.00  0.00     0.358 C 
ATOM      7  O   UNL A   1      38.264  24.054  26.293  1.00  0.00    -0.244 OA
BRANCH   6   8
ATOM      8  C   UNL A   1      36.439  22.739  25.543  1.00  0.00     0.169 A 
ATOM      9  C   UNL A   1      34.320  23.524  25.022  1.00  0.00     0.148 A 
ATOM     10  C   UNL A   1      33.956  22.184  24.806  1.00  0.00     0.157 A 
ATOM     11  N   UNL A   1      35.591  23.797  25.417  1.00  0.00    -0.221 NA
ATOM     12  N   UNL A   1      34.789  21.118  24.940  1.00  0.00    -0.258 NA
ATOM     13  C   UNL A   1      36.050  21.433  25.301  1.00  0.00     0.147 A 
BRANCH   9  14
ATOM     14  N   UNL A   1      33.449  24.578  24.817  1.00  0.00    -0.353 N 
ATOM     15  C   UNL A   1      31.861  27.960  24.197  1.00  0.00     0.008 C 
ATOM     16  C   UNL A   1      33.296  27.428  24.283  1.00  0.00    -0.011 C 
ATOM     17  C   UNL A   1      33.604  26.396  23.184  1.00  0.00     0.025 C 
ATOM     18  C   UNL A   1      33.643  26.863  25.672  1.00  0.00     0.028 C 
ATOM     19  C   UNL A   1      33.015  25.020  23.495  1.00  0.00     0.118 C 
ATOM     20  C   UNL A   1      33.127  25.440  25.962  1.00  0.00     0.081 C 
ATOM     21  C   UNL A   1      31.639  25.378  26.294  1.00  0.00     0.031 C 
ENDBRANCH   9  14
ENDBRANCH   6   8
ENDBRANCH   5   6
ENDBRANCH   4   5
ENDBRANCH   3   4
ENDBRANCH   2   3
ENDBRANCH   1   2
BRANCH   1  22
ATOM     22  C   UNL A   1      43.957  21.750  25.360  1.00  0.00     0.261 C 
BRANCH  22  23
ATOM     23  O   UNL A   1      43.299  22.904  24.808  1.00  0.00    -0.460 OA
BRANCH  23  24
ATOM     24  C   UNL A   1      43.971  24.067  24.962  1.00  0.00     0.338 C 
ATOM     25  O   UNL A   1      45.016  24.394  24.417  1.00  0.00    -0.246 OA
BRANCH  24  26
ATOM     26  C   UNL A   1      43.188  25.007  25.786  1.00  0.00     0.060 A 
ATOM     27  C   UNL A   1      43.757  26.262  26.035  1.00  0.00     0.016 A 
ATOM     28  C   UNL A   1      41.970  24.651  26.373  1.00  0.00     0.016 A 
ATOM     29  C   UNL A   1      43.156  27.134  26.938  1.00  0.00     0.010 A 
ATOM     30  C   UNL A   1      41.367  25.528  27.283  1.00  0.00     0.010 A 
ATOM     31  C   UNL A   1      41.987  26.749  27.607  1.00  0.00    -0.014 A 
BRANCH  31  32
ATOM     32  C   UNL A   1      41.541  27.538  28.781  1.00  0.00     0.031 A 
ATOM     33  C   UNL A   1      42.315  27.421  30.067  1.00  0.00     0.074 A 
ATOM     34  C   UNL A   1      40.506  28.391  28.693  1.00  0.00     0.049 A 
ATOM     35  N   UNL A   1      42.125  28.024  31.212  1.00  0.00    -0.248 NA
ATOM     36  C   UNL A   1      43.461  26.496  30.057  1.00  0.00     0.031 C 
ATOM     37  C   UNL A   1      39.699  28.619  27.496  1.00  0.00     0.029 A 
ATOM     38  N   UNL A   1      39.963  29.227  29.634  1.00  0.00    -0.354 N 
ATOM     39  C   UNL A   1      43.122  27.554  32.056  1.00  0.00     0.074 A 
ATOM     40  C   UNL A   1      43.892  26.586  31.306  1.00  0.00     0.031 C 
ATOM     41  C   UNL A   1      38.753  29.533  27.780  1.00  0.00     0.029 A 
ATOM     42  C   UNL A   1      38.880  29.937  29.179  1.00  0.00     0.049 A 
ATOM     43  H   UNL A   1      40.315  29.311  30.550  1.00  0.00     0.167 HD
ATOM     44  C   UNL A   1      43.387  27.907  33.336  1.00  0.00     0.037 A 
ATOM     45  C   UNL A   1      38.077  30.805  29.824  1.00  0.00     0.037 A 
ATOM     46  C   UNL A   1      42.622  28.869  34.085  1.00  0.00     0.049 A 
ATOM     47  C   UNL A   1      38.360  31.149  31.262  1.00  0.00     0.074 A 
ATOM     48  C   UNL A   1      42.806  29.294  35.389  1.00  0.00     0.029 A 
ATOM     49  N   UNL A   1      41.524  29.557  33.591  1.00  0.00    -0.354 N 
ATOM     50  N   UNL A   1      39.315  30.711  32.046  1.00  0.00    -0.248 NA
ATOM     51  C   UNL A   1      37.458  32.119  31.901  1.00  0.00     0.031 C 
ATOM     52  C   UNL A   1      41.795  30.211  35.697  1.00  0.00     0.029 A 
ATOM     53  C   UNL A   1      41.012  30.395  34.569  1.00  0.00     0.049 A 
ATOM     54  H   UNL A   1      41.161  29.464  32.681  1.00  0.00     0.167 HD
ATOM     55  C   UNL A   1      39.150  31.373  33.256  1.00  0.00     0.074 A 
ATOM     56  C   UNL A   1      38.008  32.250  33.100  1.00  0.00     0.031 C 
ATOM     57  C   UNL A   1      39.882  31.270  34.393  1.00  0.00     0.037 A 
BRANCH  44  58
ATOM     58  C   UNL A   1      44.543  27.230  34.010  1.00  0.00     0.057 A 
ATOM     59  C   UNL A   1      45.826  27.797  34.022  1.00  0.00     0.134 A 
ATOM     60  C   UNL A   1      44.373  26.002  34.661  1.00  0.00     0.134 A 
ATOM     61  F   UNL A   1      46.059  28.963  33.402  1.00  0.00    -0.206 F 
ATOM     62  C   UNL A   1      46.902  27.153  34.635  1.00  0.00     0.040 A 
ATOM     63  C   UNL A   1      45.436  25.361  35.300  1.00  0.00     0.040 A 
ATOM     64  F   UNL A   1      43.172  25.406  34.688  1.00  0.00    -0.206 F 
ATOM     65  C   UNL A   1      46.706  25.934  35.281  1.00  0.00     0.006 A 
ENDBRANCH  44  58
BRANCH  45  66
ATOM     66  C   UNL A   1      36.925  31.414  29.113  1.00  0.00     0.057 A 
ATOM     67  C   UNL A   1      35.766  30.679  28.839  1.00  0.00     0.134 A 
ATOM     68  C   UNL A   1      36.964  32.744  28.677  1.00  0.00     0.134 A 
ATOM     69  F   UNL A   1      35.680  29.393  29.212  1.00  0.00    -0.206 F 
ATOM     70  C   UNL A   1      34.693  31.238  28.144  1.00  0.00     0.040 A 
ATOM     71  C   UNL A   1      35.889  33.324  28.001  1.00  0.00     0.040 A 
ATOM     72  F   UNL A   1      38.046  33.501  28.909  1.00  0.00    -0.206 F 
ATOM     73  C   UNL A   1      34.752  32.567  27.727  1.00  0.00     0.006 A 
ENDBRANCH  45  66
BRANCH  57  74
ATOM     74  C   UNL A   1      39.500  32.158  35.542  1.00  0.00     0.057 A 
ATOM     75  C   UNL A   1      40.044  33.438  35.704  1.00  0.00     0.134 A 
ATOM     76  C   UNL A   1      38.546  31.738  36.477  1.00  0.00     0.134 A 
ATOM     77  F   UNL A   1      40.970  33.898  34.848  1.00  0.00    -0.206 F 
ATOM     78  C   UNL A   1      39.672  34.258  36.771  1.00  0.00     0.040 A 
ATOM     79  C   UNL A   1      38.147  32.557  37.533  1.00  0.00     0.040 A 
ATOM     80  F   UNL A   1      37.978  30.527  36.373  1.00  0.00    -0.206 F 
ATOM     81  C   UNL A   1      38.716  33.820  37.686  1.00  0.00     0.006 A 
ENDBRANCH  57  74
ENDBRANCH  31  32
ENDBRANCH  24  26
ENDBRANCH  23  24
ENDBRANCH  22  23
ENDBRANCH   1  22
TORSDOF 15
ENDMDL
MODEL 3
REMARK VINA RESULT:     -10.7      5.577     10.462
REMARK SMILES C[C@@H]1CCN(c2cncc(C(=O)OCCOCCOC(=O)c3ccc(-c4c5nc(c(-c6c(F)cccc6F)c6ccc([nH]6)c(-c6c(F)cccc6F)c6nc(c(-c7c(F)cccc7F)c7ccc4[nH]7)C=C6)C=C5)cc3)n2)[C@H](C)C1
REMARK SMILES IDX 17 1 16 2 15 3 14 4 13 5 11 6 12 7 10 8 6 9 7 10 76 11 8 12
REMARK SMILES IDX 9 13 5 14 1 15 2 16 3 17 79 18 4 19 77 20 78 21 18 22 19 23
REMARK SMILES IDX 20 24 21 25 22 26 23 27 75 28 24 29 74 30 25 31 26 32 27 33
REMARK SMILES IDX 68 34 28 35 73 36 67 37 69 38 29 39 72 40 66 41 65 42 30 44
REMARK SMILES IDX 56 45 39 46 55 47 40 48 43 49 54 50 70 51 41 52 42 53 53 55
REMARK SMILES IDX 71 56 44 57 31 58 32 59 37 60 33 61 34 62 36 63 38 64 35 65
REMARK SMILES IDX 57 66 58 67 63 68 59 69 60 70 62 71 64 72 61 73 45 74 46 75
REMARK SMILES IDX 51 76 47 77 48 78 50 79 52 80 49 81
REMARK H PARENT 69 43 43 54
REMARK Flexibility Score: inf
ROOT
ATOM      1  C   UNL A   1      34.348  33.663  30.316  1.00  0.00     0.202 C 
ENDROOT
BRANCH   1   2
ATOM      2  O   UNL A   1      35.441  33.439  29.422  1.00  0.00    -0.374 OA
BRANCH   2   3
ATOM      3  C   UNL A   1      35.116  32.879  28.148  1.00  0.00     0.202 C 
BRANCH   3   4
ATOM      4  C   UNL A   1      33.620  32.658  27.896  1.00  0.00     0.261 C 
BRANCH   4   5
ATOM      5  O   UNL A   1      33.370  31.316  27.440  1.00  0.00    -0.458 OA
BRANCH   5   6
ATOM      6  C   UNL A   1      32.125  31.089  26.947  1.00  0.00     0.358 C 
ATOM      7  O   UNL A   1      31.283  31.933  26.679  1.00  0.00    -0.244 OA
BRANCH   6   8
ATOM      8  C   UNL A   1      31.977  29.668  26.562  1.00  0.00     0.169 A 
ATOM      9  C   UNL A   1      31.902  27.985  24.969  1.00  0.00     0.148 A 
ATOM     10  C   UNL A   1      31.518  27.120  26.007  1.00  0.00     0.157 A 
ATOM     11  N   UNL A   1      32.118  29.294  25.260  1.00  0.00    -0.221 NA
ATOM     12  N   UNL A   1      31.362  27.483  27.308  1.00  0.00    -0.258 NA
ATOM     13  C   UNL A   1      31.617  28.783  27.562  1.00  0.00     0.147 A 
BRANCH   9  14
ATOM     14  N   UNL A   1      32.102  27.553  23.671  1.00  0.00    -0.353 N 
ATOM     15  C   UNL A   1      32.719  25.523  20.533  1.00  0.00     0.008 C 
ATOM     16  C   UNL A   1      32.554  25.205  22.023  1.00  0.00    -0.011 C 
ATOM     17  C   UNL A   1      31.160  25.588  22.552  1.00  0.00     0.025 C 
ATOM     18  C   UNL A   1      33.656  25.829  22.896  1.00  0.00     0.028 C 
ATOM     19  C   UNL A   1      31.024  27.090  22.801  1.00  0.00     0.118 C 
ATOM     20  C   UNL A   1      33.482  27.325  23.224  1.00  0.00     0.081 C 
ATOM     21  C   UNL A   1      33.846  28.257  22.072  1.00  0.00     0.031 C 
ENDBRANCH   9  14
ENDBRANCH   6   8
ENDBRANCH   5   6
ENDBRANCH   4   5
ENDBRANCH   3   4
ENDBRANCH   2   3
ENDBRANCH   1   2
BRANCH   1  22
ATOM     22  C   UNL A   1      34.700  33.656  31.807  1.00  0.00     0.261 C 
BRANCH  22  23
ATOM     23  O   UNL A   1      34.893  32.315  32.291  1.00  0.00    -0.460 OA
BRANCH  23  24
ATOM     24  C   UNL A   1      36.039  32.121  32.980  1.00  0.00     0.338 C 
ATOM     25  O   UNL A   1      36.284  32.479  34.124  1.00  0.00    -0.246 OA
BRANCH  24  26
ATOM     26  C   UNL A   1      36.957  31.255  32.216  1.00  0.00     0.060 A 
ATOM     27  C   UNL A   1      38.125  30.835  32.865  1.00  0.00     0.016 A 
ATOM     28  C   UNL A   1      36.734  30.928  30.876  1.00  0.00     0.016 A 
ATOM     29  C   UNL A   1      39.112  30.159  32.156  1.00  0.00     0.010 A 
ATOM     30  C   UNL A   1      37.729  30.250  30.162  1.00  0.00     0.010 A 
ATOM     31  C   UNL A   1      38.943  29.911  30.787  1.00  0.00    -0.014 A 
BRANCH  31  32
ATOM     32  C   UNL A   1      40.116  29.484  29.987  1.00  0.00     0.031 A 
ATOM     33  C   UNL A   1      41.231  30.468  29.757  1.00  0.00     0.074 A 
ATOM     34  C   UNL A   1      40.220  28.227  29.523  1.00  0.00     0.049 A 
ATOM     35  N   UNL A   1      42.357  30.315  29.108  1.00  0.00    -0.248 NA
ATOM     36  C   UNL A   1      41.050  31.808  30.340  1.00  0.00     0.031 C 
ATOM     37  C   UNL A   1      39.226  27.172  29.707  1.00  0.00     0.029 A 
ATOM     38  N   UNL A   1      41.222  27.627  28.803  1.00  0.00    -0.354 N 
ATOM     39  C   UNL A   1      43.016  31.534  29.204  1.00  0.00     0.074 A 
ATOM     40  C   UNL A   1      42.149  32.429  29.939  1.00  0.00     0.031 C 
ATOM     41  C   UNL A   1      39.664  26.052  29.105  1.00  0.00     0.029 A 
ATOM     42  C   UNL A   1      40.959  26.319  28.481  1.00  0.00     0.049 A 
ATOM     43  H   UNL A   1      42.050  28.090  28.541  1.00  0.00     0.167 HD
ATOM     44  C   UNL A   1      44.240  31.875  28.739  1.00  0.00     0.037 A 
ATOM     45  C   UNL A   1      41.679  25.441  27.755  1.00  0.00     0.037 A 
ATOM     46  C   UNL A   1      45.105  30.987  28.007  1.00  0.00     0.049 A 
ATOM     47  C   UNL A   1      43.017  25.856  27.206  1.00  0.00     0.074 A 
ATOM     48  C   UNL A   1      46.363  31.238  27.488  1.00  0.00     0.029 A 
ATOM     49  N   UNL A   1      44.796  29.673  27.690  1.00  0.00    -0.354 N 
ATOM     50  N   UNL A   1      43.639  27.005  27.316  1.00  0.00    -0.248 NA
ATOM     51  C   UNL A   1      43.762  24.844  26.440  1.00  0.00     0.031 C 
ATOM     52  C   UNL A   1      46.800  30.087  26.824  1.00  0.00     0.029 A 
ATOM     53  C   UNL A   1      45.835  29.103  26.973  1.00  0.00     0.049 A 
ATOM     54  H   UNL A   1      43.962  29.213  27.938  1.00  0.00     0.167 HD
ATOM     55  C   UNL A   1      44.856  26.846  26.665  1.00  0.00     0.074 A 
ATOM     56  C   UNL A   1      44.889  25.486  26.169  1.00  0.00     0.031 C 
ATOM     57  C   UNL A   1      45.858  27.744  26.497  1.00  0.00     0.037 A 
BRANCH  44  58
ATOM     58  C   UNL A   1      44.705  33.279  28.994  1.00  0.00     0.057 A 
ATOM     59  C   UNL A   1      44.424  34.323  28.102  1.00  0.00     0.134 A 
ATOM     60  C   UNL A   1      45.436  33.592  30.146  1.00  0.00     0.134 A 
ATOM     61  F   UNL A   1      43.743  34.086  26.971  1.00  0.00    -0.206 F 
ATOM     62  C   UNL A   1      44.874  35.623  28.336  1.00  0.00     0.040 A 
ATOM     63  C   UNL A   1      45.870  34.893  30.404  1.00  0.00     0.040 A 
ATOM     64  F   UNL A   1      45.738  32.640  31.042  1.00  0.00    -0.206 F 
ATOM     65  C   UNL A   1      45.596  35.912  29.493  1.00  0.00     0.006 A 
ENDBRANCH  44  58
BRANCH  45  66
ATOM     66  C   UNL A   1      41.148  24.078  27.506  1.00  0.00     0.057 A 
ATOM     67  C   UNL A   1      40.118  23.855  26.584  1.00  0.00     0.134 A 
ATOM     68  C   UNL A   1      41.649  22.967  28.195  1.00  0.00     0.134 A 
ATOM     69  F   UNL A   1      39.582  24.882  25.910  1.00  0.00    -0.206 F 
ATOM     70  C   UNL A   1      39.595  22.579  26.369  1.00  0.00     0.040 A 
ATOM     71  C   UNL A   1      41.151  21.683  27.973  1.00  0.00     0.040 A 
ATOM     72  F   UNL A   1      42.636  23.116  29.090  1.00  0.00    -0.206 F 
ATOM     73  C   UNL A   1      40.116  21.487  27.062  1.00  0.00     0.006 A 
ENDBRANCH  45  66
BRANCH  57  74
ATOM     74  C   UNL A   1      47.094  27.272  25.788  1.00  0.00     0.057 A 
ATOM     75  C   UNL A   1      48.122  26.596  26.458  1.00  0.00     0.134 A 
ATOM     76  C   UNL A   1      47.239  27.465  24.409  1.00  0.00     0.134 A 
ATOM     77  F   UNL A   1      48.050  26.387  27.782  1.00  0.00    -0.206 F 
ATOM     78  C   UNL A   1      49.262  26.153  25.784  1.00  0.00     0.040 A 
ATOM     79  C   UNL A   1      48.361  27.004  23.720  1.00  0.00     0.040 A 
ATOM     80  F   UNL A   1      46.287  28.096  23.706  1.00  0.00    -0.206 F 
ATOM     81  C   UNL A   1      49.381  26.352  24.409  1.00  0.00     0.006 A 
ENDBRANCH  57  74
ENDBRANCH  31  32
ENDBRANCH  24  26
ENDBRANCH  23  24
ENDBRANCH  22  23
ENDBRANCH   1  22
TORSDOF 15
ENDMDL
