MODEL 1
REMARK VINA RESULT:     -10.0      0.000      0.000
REMARK SMILES CC[C@@H](C)NC(=O)Cn1cccc1C(=O)OCCOCCOC(=O)c1ccc(-c2c3nc(c(-c4c(F)cccc4F)c4ccc([nH]4)c(-c4c(F)cccc4F)c4nc(c(-c5c(F)cccc5F)c5ccc2[nH]5)C=C4)C=C3)cc1
REMARK SMILES IDX 18 1 17 2 16 3 14 4 15 5 13 6 9 7 10 8 11 9 12 10 8 11 6 12
REMARK SMILES IDX 5 13 7 15 3 16 4 17 2 18 1 19 19 20 20 21 21 22 22 23 23 24
REMARK SMILES IDX 24 25 25 26 26 27 78 28 27 29 77 30 28 31 29 32 30 33 71 34
REMARK SMILES IDX 31 35 76 36 70 37 72 38 32 39 75 40 69 41 68 42 33 44 59 45
REMARK SMILES IDX 42 46 58 47 43 48 46 49 57 50 73 51 44 52 45 53 56 55 74 56
REMARK SMILES IDX 47 57 34 58 35 59 40 60 36 61 37 62 39 63 41 64 38 65 60 66
REMARK SMILES IDX 61 67 66 68 62 69 63 70 65 71 67 72 64 73 48 74 49 75 54 76
REMARK SMILES IDX 50 77 51 78 53 79 55 80 52 81
REMARK H PARENT 5 14 72 43 46 54
REMARK Flexibility Score: inf
ROOT
ATOM      1  C   UNL A   1      32.386  29.926  26.423  1.00  0.00     0.202 C 
ENDROOT
BRANCH   1   2
ATOM      2  C   UNL A   1      33.106  29.383  25.194  1.00  0.00     0.261 C 
BRANCH   2   3
ATOM      3  O   UNL A   1      33.897  28.221  25.479  1.00  0.00    -0.459 OA
BRANCH   3   4
ATOM      4  C   UNL A   1      33.759  27.230  24.557  1.00  0.00     0.355 C 
ATOM      5  O   UNL A   1      33.705  27.416  23.352  1.00  0.00    -0.244 OA
BRANCH   4   6
ATOM      6  C   UNL A   1      33.752  25.922  25.181  1.00  0.00     0.128 A 
ATOM      7  N   UNL A   1      32.838  25.368  26.060  1.00  0.00    -0.333 N 
ATOM      8  C   UNL A   1      33.216  24.075  26.354  1.00  0.00     0.087 A 
ATOM      9  C   UNL A   1      34.337  23.769  25.621  1.00  0.00     0.020 A 
ATOM     10  C   UNL A   1      34.666  24.919  24.880  1.00  0.00     0.035 A 
BRANCH   7  11
ATOM     11  C   UNL A   1      31.617  25.964  26.590  1.00  0.00     0.222 C 
BRANCH  11  12
ATOM     12  C   UNL A   1      30.351  25.226  26.189  1.00  0.00     0.240 C 
ATOM     13  N   UNL A   1      29.684  25.548  25.038  1.00  0.00    -0.352 N 
ATOM     14  H   UNL A   1      28.805  25.120  24.924  1.00  0.00     0.163 HD
ATOM     15  O   UNL A   1      29.858  24.367  26.923  1.00  0.00    -0.273 OA
BRANCH  13  16
ATOM     16  C   UNL A   1      30.094  26.435  23.954  1.00  0.00     0.078 C 
ATOM     17  C   UNL A   1      28.915  27.264  23.462  1.00  0.00     0.031 C 
BRANCH  16  18
ATOM     18  C   UNL A   1      30.779  25.618  22.848  1.00  0.00     0.021 C 
ATOM     19  C   UNL A   1      30.965  24.142  23.168  1.00  0.00     0.006 C 
ENDBRANCH  16  18
ENDBRANCH  13  16
ENDBRANCH  11  12
ENDBRANCH   7  11
ENDBRANCH   4   6
ENDBRANCH   3   4
ENDBRANCH   2   3
ENDBRANCH   1   2
BRANCH   1  20
ATOM     20  O   UNL A   1      33.141  30.378  27.542  1.00  0.00    -0.374 OA
BRANCH  20  21
ATOM     21  C   UNL A   1      33.618  31.710  27.659  1.00  0.00     0.202 C 
BRANCH  21  22
ATOM     22  C   UNL A   1      32.666  32.899  27.723  1.00  0.00     0.261 C 
BRANCH  22  23
ATOM     23  O   UNL A   1      33.267  34.164  27.514  1.00  0.00    -0.460 OA
BRANCH  23  24
ATOM     24  C   UNL A   1      33.143  34.921  28.626  1.00  0.00     0.338 C 
ATOM     25  O   UNL A   1      32.314  35.785  28.856  1.00  0.00    -0.246 OA
BRANCH  24  26
ATOM     26  C   UNL A   1      34.294  34.731  29.489  1.00  0.00     0.060 A 
ATOM     27  C   UNL A   1      35.533  34.753  28.844  1.00  0.00     0.016 A 
ATOM     28  C   UNL A   1      34.076  34.105  30.723  1.00  0.00     0.016 A 
ATOM     29  C   UNL A   1      36.539  33.980  29.362  1.00  0.00     0.010 A 
ATOM     30  C   UNL A   1      35.070  33.297  31.217  1.00  0.00     0.010 A 
ATOM     31  C   UNL A   1      36.275  33.220  30.509  1.00  0.00    -0.014 A 
BRANCH  31  32
ATOM     32  C   UNL A   1      37.389  32.468  31.069  1.00  0.00     0.031 A 
ATOM     33  C   UNL A   1      37.580  31.175  30.259  1.00  0.00     0.074 A 
ATOM     34  C   UNL A   1      37.956  33.018  32.186  1.00  0.00     0.049 A 
ATOM     35  N   UNL A   1      38.078  30.036  30.616  1.00  0.00    -0.248 NA
ATOM     36  C   UNL A   1      37.064  31.108  28.855  1.00  0.00     0.031 C 
ATOM     37  C   UNL A   1      37.582  34.326  32.783  1.00  0.00     0.029 A 
ATOM     38  N   UNL A   1      38.938  32.605  33.056  1.00  0.00    -0.354 N 
ATOM     39  C   UNL A   1      38.148  29.228  29.462  1.00  0.00     0.074 A 
ATOM     40  C   UNL A   1      37.392  29.884  28.447  1.00  0.00     0.031 C 
ATOM     41  C   UNL A   1      38.252  34.544  33.937  1.00  0.00     0.029 A 
ATOM     42  C   UNL A   1      39.137  33.427  34.199  1.00  0.00     0.049 A 
ATOM     43  H   UNL A   1      39.468  31.791  32.897  1.00  0.00     0.167 HD
ATOM     44  C   UNL A   1      38.963  28.138  29.376  1.00  0.00     0.037 A 
ATOM     45  C   UNL A   1      39.923  33.183  35.296  1.00  0.00     0.037 A 
ATOM     46  C   UNL A   1      39.590  27.909  30.632  1.00  0.00     0.049 A 
ATOM     47  C   UNL A   1      40.630  31.938  34.967  1.00  0.00     0.074 A 
ATOM     48  C   UNL A   1      39.097  27.451  31.824  1.00  0.00     0.029 A 
ATOM     49  N   UNL A   1      40.781  28.557  30.850  1.00  0.00    -0.354 N 
ATOM     50  N   UNL A   1      41.604  31.844  34.113  1.00  0.00    -0.248 NA
ATOM     51  C   UNL A   1      40.129  30.681  35.535  1.00  0.00     0.031 C 
ATOM     52  C   UNL A   1      39.760  28.251  32.776  1.00  0.00     0.029 A 
ATOM     53  C   UNL A   1      40.782  28.981  32.156  1.00  0.00     0.049 A 
ATOM     54  H   UNL A   1      41.500  28.694  30.192  1.00  0.00     0.167 HD
ATOM     55  C   UNL A   1      41.589  30.506  33.804  1.00  0.00     0.074 A 
ATOM     56  C   UNL A   1      40.936  29.832  34.905  1.00  0.00     0.031 C 
ATOM     57  C   UNL A   1      41.609  30.111  32.505  1.00  0.00     0.037 A 
BRANCH  44  58
ATOM     58  C   UNL A   1      39.470  27.371  28.193  1.00  0.00     0.057 A 
ATOM     59  C   UNL A   1      39.522  25.962  28.294  1.00  0.00     0.134 A 
ATOM     60  C   UNL A   1      40.224  27.940  27.161  1.00  0.00     0.134 A 
ATOM     61  F   UNL A   1      38.790  25.308  29.210  1.00  0.00    -0.206 F 
ATOM     62  C   UNL A   1      40.387  25.188  27.522  1.00  0.00     0.040 A 
ATOM     63  C   UNL A   1      41.059  27.164  26.348  1.00  0.00     0.040 A 
ATOM     64  F   UNL A   1      40.261  29.263  26.962  1.00  0.00    -0.206 F 
ATOM     65  C   UNL A   1      41.180  25.793  26.559  1.00  0.00     0.006 A 
ENDBRANCH  44  58
BRANCH  45  66
ATOM     66  C   UNL A   1      40.171  33.742  36.681  1.00  0.00     0.057 A 
ATOM     67  C   UNL A   1      39.203  34.049  37.640  1.00  0.00     0.134 A 
ATOM     68  C   UNL A   1      41.505  33.958  37.136  1.00  0.00     0.134 A 
ATOM     69  F   UNL A   1      37.899  34.026  37.342  1.00  0.00    -0.206 F 
ATOM     70  C   UNL A   1      39.536  34.424  38.961  1.00  0.00     0.040 A 
ATOM     71  C   UNL A   1      41.852  34.286  38.450  1.00  0.00     0.040 A 
ATOM     72  F   UNL A   1      42.562  33.861  36.317  1.00  0.00    -0.206 F 
ATOM     73  C   UNL A   1      40.860  34.505  39.381  1.00  0.00     0.006 A 
ENDBRANCH  45  66
BRANCH  57  74
ATOM     74  C   UNL A   1      42.195  31.133  31.547  1.00  0.00     0.057 A 
ATOM     75  C   UNL A   1      43.549  31.479  31.640  1.00  0.00     0.134 A 
ATOM     76  C   UNL A   1      41.449  31.877  30.621  1.00  0.00     0.134 A 
ATOM     77  F   UNL A   1      44.354  30.815  32.483  1.00  0.00    -0.206 F 
ATOM     78  C   UNL A   1      44.114  32.512  30.879  1.00  0.00     0.040 A 
ATOM     79  C   UNL A   1      41.994  32.912  29.849  1.00  0.00     0.040 A 
ATOM     80  F   UNL A   1      40.154  31.632  30.432  1.00  0.00    -0.206 F 
ATOM     81  C   UNL A   1      43.335  33.239  29.983  1.00  0.00     0.006 A 
ENDBRANCH  57  74
ENDBRANCH  31  32
ENDBRANCH  24  26
ENDBRANCH  23  24
ENDBRANCH  22  23
ENDBRANCH  21  22
ENDBRANCH  20  21
ENDBRANCH   1  20
TORSDOF 18
ENDMDL
MODEL 2
REMARK VINA RESULT:      -9.9      1.455      2.633
REMARK SMILES CC[C@@H](C)NC(=O)Cn1cccc1C(=O)OCCOCCOC(=O)c1ccc(-c2c3nc(c(-c4c(F)cccc4F)c4ccc([nH]4)c(-c4c(F)cccc4F)c4nc(c(-c5c(F)cccc5F)c5ccc2[nH]5)C=C4)C=C3)cc1
REMARK SMILES IDX 18 1 17 2 16 3 14 4 15 5 13 6 9 7 10 8 11 9 12 10 8 11 6 12
REMARK SMILES IDX 5 13 7 15 3 16 4 17 2 18 1 19 19 20 20 21 21 22 22 23 23 24
REMARK SMILES IDX 24 25 25 26 26 27 78 28 27 29 77 30 28 31 29 32 30 33 71 34
REMARK SMILES IDX 31 35 76 36 70 37 72 38 32 39 75 40 69 41 68 42 33 44 59 45
REMARK SMILES IDX 42 46 58 47 43 48 46 49 57 50 73 51 44 52 45 53 56 55 74 56
REMARK SMILES IDX 47 57 34 58 35 59 40 60 36 61 37 62 39 63 41 64 38 65 60 66
REMARK SMILES IDX 61 67 66 68 62 69 63 70 65 71 67 72 64 73 48 74 49 75 54 76
REMARK SMILES IDX 50 77 51 78 53 79 55 80 52 81
REMARK H PARENT 5 14 72 43 46 54
REMARK Flexibility Score: inf
ROOT
ATOM      1  C   UNL A   1      33.689  29.873  26.848  1.00  0.00     0.202 C 
ENDROOT
BRANCH   1   2
ATOM      2  C   UNL A   1      33.752  28.836  25.733  1.00  0.00     0.261 C 
BRANCH   2   3
ATOM      3  O   UNL A   1      32.915  27.698  25.980  1.00  0.00    -0.459 OA
BRANCH   3   4
ATOM      4  C   UNL A   1      32.655  26.963  24.865  1.00  0.00     0.355 C 
ATOM      5  O   UNL A   1      33.513  26.527  24.115  1.00  0.00    -0.244 OA
BRANCH   4   6
ATOM      6  C   UNL A   1      31.237  26.704  24.718  1.00  0.00     0.128 A 
ATOM      7  N   UNL A   1      30.397  26.972  23.650  1.00  0.00    -0.333 N 
ATOM      8  C   UNL A   1      29.132  26.506  23.940  1.00  0.00     0.087 A 
ATOM      9  C   UNL A   1      29.163  25.884  25.164  1.00  0.00     0.020 A 
ATOM     10  C   UNL A   1      30.481  25.997  25.645  1.00  0.00     0.035 A 
BRANCH   7  11
ATOM     11  C   UNL A   1      30.729  27.588  22.371  1.00  0.00     0.222 C 
BRANCH  11  12
ATOM     12  C   UNL A   1      31.026  29.074  22.467  1.00  0.00     0.240 C 
ATOM     13  N   UNL A   1      30.053  30.004  22.216  1.00  0.00    -0.352 N 
ATOM     14  H   UNL A   1      30.362  30.937  22.164  1.00  0.00     0.163 HD
ATOM     15  O   UNL A   1      32.166  29.479  22.708  1.00  0.00    -0.273 OA
BRANCH  13  16
ATOM     16  C   UNL A   1      28.621  29.806  22.015  1.00  0.00     0.078 C 
ATOM     17  C   UNL A   1      28.111  30.681  20.878  1.00  0.00     0.031 C 
BRANCH  16  18
ATOM     18  C   UNL A   1      27.878  30.022  23.343  1.00  0.00     0.021 C 
ATOM     19  C   UNL A   1      27.630  31.480  23.704  1.00  0.00     0.006 C 
ENDBRANCH  16  18
ENDBRANCH  13  16
ENDBRANCH  11  12
ENDBRANCH   7  11
ENDBRANCH   4   6
ENDBRANCH   3   4
ENDBRANCH   2   3
ENDBRANCH   1   2
BRANCH   1  20
ATOM     20  O   UNL A   1      32.427  30.389  27.262  1.00  0.00    -0.374 OA
BRANCH  20  21
ATOM     21  C   UNL A   1      31.811  31.504  26.634  1.00  0.00     0.202 C 
BRANCH  21  22
ATOM     22  C   UNL A   1      32.027  32.927  27.138  1.00  0.00     0.261 C 
BRANCH  22  23
ATOM     23  O   UNL A   1      33.302  33.181  27.700  1.00  0.00    -0.460 OA
BRANCH  23  24
ATOM     24  C   UNL A   1      33.233  34.242  28.533  1.00  0.00     0.338 C 
ATOM     25  O   UNL A   1      32.469  35.192  28.475  1.00  0.00    -0.246 OA
BRANCH  24  26
ATOM     26  C   UNL A   1      34.366  34.239  29.439  1.00  0.00     0.060 A 
ATOM     27  C   UNL A   1      35.611  34.440  28.838  1.00  0.00     0.016 A 
ATOM     28  C   UNL A   1      34.199  33.603  30.676  1.00  0.00     0.016 A 
ATOM     29  C   UNL A   1      36.701  33.835  29.405  1.00  0.00     0.010 A 
ATOM     30  C   UNL A   1      35.284  32.961  31.219  1.00  0.00     0.010 A 
ATOM     31  C   UNL A   1      36.512  33.058  30.555  1.00  0.00    -0.014 A 
BRANCH  31  32
ATOM     32  C   UNL A   1      37.705  32.490  31.169  1.00  0.00     0.031 A 
ATOM     33  C   UNL A   1      38.053  31.170  30.460  1.00  0.00     0.074 A 
ATOM     34  C   UNL A   1      38.195  33.189  32.237  1.00  0.00     0.049 A 
ATOM     35  N   UNL A   1      38.681  30.130  30.904  1.00  0.00    -0.248 NA
ATOM     36  C   UNL A   1      37.556  30.933  29.068  1.00  0.00     0.031 C 
ATOM     37  C   UNL A   1      37.665  34.485  32.732  1.00  0.00     0.029 A 
ATOM     38  N   UNL A   1      39.215  32.964  33.133  1.00  0.00    -0.354 N 
ATOM     39  C   UNL A   1      38.854  29.248  29.815  1.00  0.00     0.074 A 
ATOM     40  C   UNL A   1      38.031  29.729  28.756  1.00  0.00     0.031 C 
ATOM     41  C   UNL A   1      38.298  34.870  33.863  1.00  0.00     0.029 A 
ATOM     42  C   UNL A   1      39.308  33.891  34.208  1.00  0.00     0.049 A 
ATOM     43  H   UNL A   1      39.840  32.210  33.035  1.00  0.00     0.167 HD
ATOM     44  C   UNL A   1      39.793  28.261  29.811  1.00  0.00     0.037 A 
ATOM     45  C   UNL A   1      40.112  33.829  35.318  1.00  0.00     0.037 A 
ATOM     46  C   UNL A   1      40.436  28.206  31.079  1.00  0.00     0.049 A 
ATOM     47  C   UNL A   1      40.964  32.655  35.083  1.00  0.00     0.074 A 
ATOM     48  C   UNL A   1      39.994  27.787  32.305  1.00  0.00     0.029 A 
ATOM     49  N   UNL A   1      41.540  29.007  31.242  1.00  0.00    -0.354 N 
ATOM     50  N   UNL A   1      41.947  32.612  34.236  1.00  0.00    -0.248 NA
ATOM     51  C   UNL A   1      40.613  31.395  35.750  1.00  0.00     0.031 C 
ATOM     52  C   UNL A   1      40.551  28.732  33.190  1.00  0.00     0.029 A 
ATOM     53  C   UNL A   1      41.483  29.527  32.510  1.00  0.00     0.049 A 
ATOM     54  H   UNL A   1      42.241  29.177  30.572  1.00  0.00     0.167 HD
ATOM     55  C   UNL A   1      42.093  31.261  34.032  1.00  0.00     0.074 A 
ATOM     56  C   UNL A   1      41.519  30.602  35.184  1.00  0.00     0.031 C 
ATOM     57  C   UNL A   1      42.168  30.772  32.767  1.00  0.00     0.037 A 
BRANCH  44  58
ATOM     58  C   UNL A   1      40.394  27.470  28.690  1.00  0.00     0.057 A 
ATOM     59  C   UNL A   1      41.176  28.165  27.739  1.00  0.00     0.134 A 
ATOM     60  C   UNL A   1      39.954  26.198  28.309  1.00  0.00     0.134 A 
ATOM     61  F   UNL A   1      41.701  29.369  28.022  1.00  0.00    -0.206 F 
ATOM     62  C   UNL A   1      41.372  27.693  26.442  1.00  0.00     0.040 A 
ATOM     63  C   UNL A   1      40.189  25.693  27.024  1.00  0.00     0.040 A 
ATOM     64  F   UNL A   1      39.204  25.441  29.120  1.00  0.00    -0.206 F 
ATOM     65  C   UNL A   1      40.855  26.460  26.072  1.00  0.00     0.006 A 
ENDBRANCH  44  58
BRANCH  45  66
ATOM     66  C   UNL A   1      40.283  34.519  36.654  1.00  0.00     0.057 A 
ATOM     67  C   UNL A   1      41.416  35.206  37.096  1.00  0.00     0.134 A 
ATOM     68  C   UNL A   1      39.203  34.552  37.584  1.00  0.00     0.134 A 
ATOM     69  F   UNL A   1      42.561  35.172  36.407  1.00  0.00    -0.206 F 
ATOM     70  C   UNL A   1      41.431  35.950  38.298  1.00  0.00     0.040 A 
ATOM     71  C   UNL A   1      39.187  35.316  38.755  1.00  0.00     0.040 A 
ATOM     72  F   UNL A   1      38.087  33.831  37.407  1.00  0.00    -0.206 F 
ATOM     73  C   UNL A   1      40.304  36.040  39.111  1.00  0.00     0.006 A 
ENDBRANCH  45  66
BRANCH  57  74
ATOM     74  C   UNL A   1      42.633  31.779  31.731  1.00  0.00     0.057 A 
ATOM     75  C   UNL A   1      43.928  32.306  31.804  1.00  0.00     0.134 A 
ATOM     76  C   UNL A   1      41.813  32.339  30.740  1.00  0.00     0.134 A 
ATOM     77  F   UNL A   1      44.798  31.827  32.706  1.00  0.00    -0.206 F 
ATOM     78  C   UNL A   1      44.368  33.338  30.963  1.00  0.00     0.040 A 
ATOM     79  C   UNL A   1      42.233  33.369  29.887  1.00  0.00     0.040 A 
ATOM     80  F   UNL A   1      40.565  31.911  30.563  1.00  0.00    -0.206 F 
ATOM     81  C   UNL A   1      43.517  33.879  30.003  1.00  0.00     0.006 A 
ENDBRANCH  57  74
ENDBRANCH  31  32
ENDBRANCH  24  26
ENDBRANCH  23  24
ENDBRANCH  22  23
ENDBRANCH  21  22
ENDBRANCH  20  21
ENDBRANCH   1  20
TORSDOF 18
ENDMDL
MODEL 3
REMARK VINA RESULT:      -9.6      5.125     10.038
REMARK SMILES CC[C@@H](C)NC(=O)Cn1cccc1C(=O)OCCOCCOC(=O)c1ccc(-c2c3nc(c(-c4c(F)cccc4F)c4ccc([nH]4)c(-c4c(F)cccc4F)c4nc(c(-c5c(F)cccc5F)c5ccc2[nH]5)C=C4)C=C3)cc1
REMARK SMILES IDX 18 1 17 2 16 3 14 4 15 5 13 6 9 7 10 8 11 9 12 10 8 11 6 12
REMARK SMILES IDX 5 13 7 15 3 16 4 17 2 18 1 19 19 20 20 21 21 22 22 23 23 24
REMARK SMILES IDX 24 25 25 26 26 27 78 28 27 29 77 30 28 31 29 32 30 33 71 34
REMARK SMILES IDX 31 35 76 36 70 37 72 38 32 39 75 40 69 41 68 42 33 44 59 45
REMARK SMILES IDX 42 46 58 47 43 48 46 49 57 50 73 51 44 52 45 53 56 55 74 56
REMARK SMILES IDX 47 57 34 58 35 59 40 60 36 61 37 62 39 63 41 64 38 65 60 66
REMARK SMILES IDX 61 67 66 68 62 69 63 70 65 71 67 72 64 73 48 74 49 75 54 76
REMARK SMILES IDX 50 77 51 78 53 79 55 80 52 81
REMARK H PARENT 5 14 72 43 46 54
REMARK Flexibility Score: inf
ROOT
ATOM      1  C   UNL A   1      37.399  21.741  25.568  1.00  0.00     0.202 C 
ENDROOT
BRANCH   1   2
ATOM      2  C   UNL A   1      36.093  22.495  25.790  1.00  0.00     0.261 C 
BRANCH   2   3
ATOM      3  O   UNL A   1      35.946  23.626  24.921  1.00  0.00    -0.459 OA
BRANCH   3   4
ATOM      4  C   UNL A   1      35.604  23.292  23.647  1.00  0.00     0.355 C 
ATOM      5  O   UNL A   1      36.407  23.019  22.769  1.00  0.00    -0.244 OA
BRANCH   4   6
ATOM      6  C   UNL A   1      34.165  23.232  23.481  1.00  0.00     0.128 A 
ATOM      7  N   UNL A   1      33.288  24.205  23.034  1.00  0.00    -0.333 N 
ATOM      8  C   UNL A   1      32.012  23.683  22.998  1.00  0.00     0.087 A 
ATOM      9  C   UNL A   1      32.069  22.360  23.360  1.00  0.00     0.020 A 
ATOM     10  C   UNL A   1      33.416  22.075  23.652  1.00  0.00     0.035 A 
BRANCH   7  11
ATOM     11  C   UNL A   1      33.589  25.563  22.597  1.00  0.00     0.222 C 
BRANCH  11  12
ATOM     12  C   UNL A   1      32.787  26.009  21.387  1.00  0.00     0.240 C 
ATOM     13  N   UNL A   1      31.695  26.822  21.527  1.00  0.00    -0.352 N 
ATOM     14  H   UNL A   1      31.154  26.949  20.714  1.00  0.00     0.163 HD
ATOM     15  O   UNL A   1      33.059  25.594  20.257  1.00  0.00    -0.273 OA
BRANCH  13  16
ATOM     16  C   UNL A   1      31.221  27.530  22.712  1.00  0.00     0.078 C 
ATOM     17  C   UNL A   1      30.050  26.792  23.347  1.00  0.00     0.031 C 
BRANCH  16  18
ATOM     18  C   UNL A   1      30.909  28.991  22.351  1.00  0.00     0.021 C 
ATOM     19  C   UNL A   1      29.498  29.445  22.695  1.00  0.00     0.006 C 
ENDBRANCH  16  18
ENDBRANCH  13  16
ENDBRANCH  11  12
ENDBRANCH   7  11
ENDBRANCH   4   6
ENDBRANCH   3   4
ENDBRANCH   2   3
ENDBRANCH   1   2
BRANCH   1  20
ATOM     20  O   UNL A   1      37.368  20.395  25.104  1.00  0.00    -0.374 OA
BRANCH  20  21
ATOM     21  C   UNL A   1      38.511  19.552  25.117  1.00  0.00     0.202 C 
BRANCH  21  22
ATOM     22  C   UNL A   1      39.793  19.952  25.838  1.00  0.00     0.261 C 
BRANCH  22  23
ATOM     23  O   UNL A   1      40.780  18.940  25.917  1.00  0.00    -0.460 OA
BRANCH  23  24
ATOM     24  C   UNL A   1      41.996  19.499  26.108  1.00  0.00     0.338 C 
ATOM     25  O   UNL A   1      43.080  18.942  26.135  1.00  0.00    -0.246 OA
BRANCH  24  26
ATOM     26  C   UNL A   1      41.849  20.888  26.505  1.00  0.00     0.060 A 
ATOM     27  C   UNL A   1      42.055  21.823  25.489  1.00  0.00     0.016 A 
ATOM     28  C   UNL A   1      41.984  21.184  27.867  1.00  0.00     0.016 A 
ATOM     29  C   UNL A   1      42.578  23.041  25.835  1.00  0.00     0.010 A 
ATOM     30  C   UNL A   1      42.549  22.388  28.209  1.00  0.00     0.010 A 
ATOM     31  C   UNL A   1      42.870  23.284  27.183  1.00  0.00    -0.014 A 
BRANCH  31  32
ATOM     32  C   UNL A   1      43.358  24.614  27.521  1.00  0.00     0.031 A 
ATOM     33  C   UNL A   1      42.158  25.557  27.707  1.00  0.00     0.074 A 
ATOM     34  C   UNL A   1      44.720  24.745  27.532  1.00  0.00     0.049 A 
ATOM     35  N   UNL A   1      42.076  26.838  27.552  1.00  0.00    -0.248 NA
ATOM     36  C   UNL A   1      40.817  24.979  28.039  1.00  0.00     0.031 C 
ATOM     37  C   UNL A   1      45.691  23.641  27.322  1.00  0.00     0.029 A 
ATOM     38  N   UNL A   1      45.570  25.813  27.704  1.00  0.00    -0.354 N 
ATOM     39  C   UNL A   1      40.790  27.231  27.980  1.00  0.00     0.074 A 
ATOM     40  C   UNL A   1      40.021  26.041  28.138  1.00  0.00     0.031 C 
ATOM     41  C   UNL A   1      46.960  24.108  27.291  1.00  0.00     0.029 A 
ATOM     42  C   UNL A   1      46.951  25.542  27.497  1.00  0.00     0.049 A 
ATOM     43  H   UNL A   1      45.243  26.707  27.954  1.00  0.00     0.167 HD
ATOM     44  C   UNL A   1      40.491  28.515  28.327  1.00  0.00     0.037 A 
ATOM     45  C   UNL A   1      47.994  26.431  27.446  1.00  0.00     0.037 A 
ATOM     46  C   UNL A   1      41.610  29.354  28.070  1.00  0.00     0.049 A 
ATOM     47  C   UNL A   1      47.388  27.723  27.792  1.00  0.00     0.074 A 
ATOM     48  C   UNL A   1      42.166  29.795  26.898  1.00  0.00     0.029 A 
ATOM     49  N   UNL A   1      42.526  29.483  29.085  1.00  0.00    -0.354 N 
ATOM     50  N   UNL A   1      47.011  28.068  28.986  1.00  0.00    -0.248 NA
ATOM     51  C   UNL A   1      47.057  28.651  26.704  1.00  0.00     0.031 C 
ATOM     52  C   UNL A   1      43.550  29.727  27.151  1.00  0.00     0.029 A 
ATOM     53  C   UNL A   1      43.774  29.482  28.512  1.00  0.00     0.049 A 
ATOM     54  H   UNL A   1      42.326  29.561  30.046  1.00  0.00     0.167 HD
ATOM     55  C   UNL A   1      46.115  29.076  28.727  1.00  0.00     0.074 A 
ATOM     56  C   UNL A   1      46.436  29.589  27.413  1.00  0.00     0.031 C 
ATOM     57  C   UNL A   1      44.894  29.066  29.321  1.00  0.00     0.037 A 
BRANCH  44  58
ATOM     58  C   UNL A   1      39.360  29.088  29.125  1.00  0.00     0.057 A 
ATOM     59  C   UNL A   1      39.293  28.765  30.500  1.00  0.00     0.134 A 
ATOM     60  C   UNL A   1      38.188  29.601  28.559  1.00  0.00     0.134 A 
ATOM     61  F   UNL A   1      40.376  28.321  31.159  1.00  0.00    -0.206 F 
ATOM     62  C   UNL A   1      38.100  28.802  31.221  1.00  0.00     0.040 A 
ATOM     63  C   UNL A   1      36.997  29.690  29.289  1.00  0.00     0.040 A 
ATOM     64  F   UNL A   1      38.122  29.943  27.266  1.00  0.00    -0.206 F 
ATOM     65  C   UNL A   1      36.938  29.244  30.607  1.00  0.00     0.006 A 
ENDBRANCH  44  58
BRANCH  45  66
ATOM     66  C   UNL A   1      49.459  26.464  27.065  1.00  0.00     0.057 A 
ATOM     67  C   UNL A   1      50.544  26.554  27.940  1.00  0.00     0.134 A 
ATOM     68  C   UNL A   1      49.844  26.349  25.697  1.00  0.00     0.134 A 
ATOM     69  F   UNL A   1      50.367  26.792  29.244  1.00  0.00    -0.206 F 
ATOM     70  C   UNL A   1      51.883  26.425  27.504  1.00  0.00     0.040 A 
ATOM     71  C   UNL A   1      51.160  26.178  25.255  1.00  0.00     0.040 A 
ATOM     72  F   UNL A   1      48.952  26.400  24.699  1.00  0.00    -0.206 F 
ATOM     73  C   UNL A   1      52.192  26.198  26.167  1.00  0.00     0.006 A 
ENDBRANCH  45  66
BRANCH  57  74
ATOM     74  C   UNL A   1      44.832  28.271  30.613  1.00  0.00     0.057 A 
ATOM     75  C   UNL A   1      45.571  28.691  31.726  1.00  0.00     0.134 A 
ATOM     76  C   UNL A   1      44.170  27.043  30.761  1.00  0.00     0.134 A 
ATOM     77  F   UNL A   1      46.227  29.861  31.694  1.00  0.00    -0.206 F 
ATOM     78  C   UNL A   1      45.663  27.927  32.898  1.00  0.00     0.040 A 
ATOM     79  C   UNL A   1      44.246  26.265  31.925  1.00  0.00     0.040 A 
ATOM     80  F   UNL A   1      43.424  26.545  29.778  1.00  0.00    -0.206 F 
ATOM     81  C   UNL A   1      45.005  26.704  33.000  1.00  0.00     0.006 A 
ENDBRANCH  57  74
ENDBRANCH  31  32
ENDBRANCH  24  26
ENDBRANCH  23  24
ENDBRANCH  22  23
ENDBRANCH  21  22
ENDBRANCH  20  21
ENDBRANCH   1  20
TORSDOF 18
ENDMDL
