MODEL 1
REMARK VINA RESULT:     -11.0      0.000      0.000
REMARK SMILES O=C(CC1CCN(S(=O)(=O)c2cc[nH]c2)CC1)OCCOCCOC(=O)c1ccc(-c2c3nc(c(-c4c(F)cccc4F)c4ccc([nH]4)c(-c4c(F)cccc4F)c4nc(c(-c5c(F)cccc5F)c5ccc2[nH]5)C=C4)C=C3)cc1
REMARK SMILES IDX 20 1 19 2 18 3 2 4 1 5 3 6 4 7 5 8 17 9 6 10 16 11 7 12 8 13
REMARK SMILES IDX 9 14 10 15 11 16 12 17 15 18 13 19 14 20 21 22 22 23 23 24
REMARK SMILES IDX 24 25 25 26 26 27 27 28 28 29 80 30 29 31 79 32 30 33 31 34
REMARK SMILES IDX 32 35 73 36 33 37 78 38 72 39 74 40 34 41 77 42 71 43 70 44
REMARK SMILES IDX 35 46 61 47 44 48 60 49 45 50 48 51 59 52 75 53 46 54 47 55
REMARK SMILES IDX 58 57 76 58 49 59 36 60 37 61 42 62 38 63 39 64 41 65 43 66
REMARK SMILES IDX 40 67 62 68 63 69 68 70 64 71 65 72 67 73 69 74 66 75 50 76
REMARK SMILES IDX 51 77 56 78 52 79 53 80 55 81 57 82 54 83
REMARK H PARENT 14 21 74 45 48 56
REMARK Flexibility Score: inf
ROOT
ATOM      1  C   UNL A   1      37.073  22.548  24.077  1.00  0.00     0.202 C 
ENDROOT
BRANCH   1   2
ATOM      2  C   UNL A   1      35.686  23.093  23.886  1.00  0.00     0.261 C 
BRANCH   2   3
ATOM      3  O   UNL A   1      35.308  24.043  24.877  1.00  0.00    -0.463 OA
BRANCH   3   4
ATOM      4  C   UNL A   1      34.023  24.475  24.870  1.00  0.00     0.306 C 
ATOM      5  O   UNL A   1      33.481  24.791  23.815  1.00  0.00    -0.252 OA
BRANCH   4   6
ATOM      6  C   UNL A   1      33.347  24.683  26.215  1.00  0.00     0.126 C 
BRANCH   6   7
ATOM      7  C   UNL A   1      32.588  23.532  26.917  1.00  0.00     0.003 C 
ATOM      8  C   UNL A   1      33.492  22.465  27.549  1.00  0.00     0.021 C 
ATOM      9  C   UNL A   1      31.429  22.841  26.205  1.00  0.00     0.021 C 
ATOM     10  C   UNL A   1      33.889  21.290  26.663  1.00  0.00     0.103 C 
ATOM     11  C   UNL A   1      31.772  21.671  25.288  1.00  0.00     0.103 C 
ATOM     12  N   UNL A   1      32.795  20.730  25.799  1.00  0.00    -0.198 NA
BRANCH  12  13
ATOM     13  S   UNL A   1      33.482  19.654  24.616  1.00  0.00     0.244 S 
ATOM     14  O   UNL A   1      32.777  19.866  23.369  1.00  0.00    -0.207 OA
ATOM     15  O   UNL A   1      34.922  19.793  24.679  1.00  0.00    -0.207 OA
BRANCH  13  16
ATOM     16  C   UNL A   1      33.176  17.974  24.896  1.00  0.00     0.100 A 
ATOM     17  C   UNL A   1      33.680  16.876  24.149  1.00  0.00     0.041 A 
ATOM     18  C   UNL A   1      32.592  17.445  26.034  1.00  0.00     0.104 A 
ATOM     19  C   UNL A   1      33.330  15.722  24.816  1.00  0.00     0.083 A 
ATOM     20  N   UNL A   1      32.673  16.080  25.964  1.00  0.00    -0.366 N 
ATOM     21  H   UNL A   1      32.315  15.454  26.634  1.00  0.00     0.165 HD
ENDBRANCH  13  16
ENDBRANCH  12  13
ENDBRANCH   6   7
ENDBRANCH   4   6
ENDBRANCH   3   4
ENDBRANCH   2   3
ENDBRANCH   1   2
BRANCH   1  22
ATOM     22  O   UNL A   1      37.247  21.979  25.375  1.00  0.00    -0.374 OA
BRANCH  22  23
ATOM     23  C   UNL A   1      38.600  21.815  25.790  1.00  0.00     0.202 C 
BRANCH  23  24
ATOM     24  C   UNL A   1      39.226  20.441  25.553  1.00  0.00     0.261 C 
BRANCH  24  25
ATOM     25  O   UNL A   1      40.083  20.020  26.594  1.00  0.00    -0.460 OA
BRANCH  25  26
ATOM     26  C   UNL A   1      41.286  19.516  26.216  1.00  0.00     0.338 C 
ATOM     27  O   UNL A   1      41.533  18.428  25.759  1.00  0.00    -0.246 OA
BRANCH  26  28
ATOM     28  C   UNL A   1      42.289  20.529  26.586  1.00  0.00     0.060 A 
ATOM     29  C   UNL A   1      42.319  20.938  27.919  1.00  0.00     0.016 A 
ATOM     30  C   UNL A   1      42.833  21.293  25.548  1.00  0.00     0.016 A 
ATOM     31  C   UNL A   1      42.640  22.250  28.171  1.00  0.00     0.010 A 
ATOM     32  C   UNL A   1      43.013  22.626  25.771  1.00  0.00     0.010 A 
ATOM     33  C   UNL A   1      42.875  23.092  27.078  1.00  0.00    -0.014 A 
BRANCH  33  34
ATOM     34  C   UNL A   1      43.146  24.499  27.327  1.00  0.00     0.031 A 
ATOM     35  C   UNL A   1      41.785  25.229  27.440  1.00  0.00     0.074 A 
ATOM     36  C   UNL A   1      44.486  24.816  27.349  1.00  0.00     0.049 A 
ATOM     37  N   UNL A   1      41.482  26.446  27.130  1.00  0.00    -0.248 NA
ATOM     38  C   UNL A   1      40.548  24.494  27.871  1.00  0.00     0.031 C 
ATOM     39  C   UNL A   1      45.613  23.838  27.290  1.00  0.00     0.029 A 
ATOM     40  N   UNL A   1      45.197  25.994  27.421  1.00  0.00    -0.354 N 
ATOM     41  C   UNL A   1      40.162  26.689  27.572  1.00  0.00     0.074 A 
ATOM     42  C   UNL A   1      39.587  25.419  27.861  1.00  0.00     0.031 C 
ATOM     43  C   UNL A   1      46.814  24.463  27.208  1.00  0.00     0.029 A 
ATOM     44  C   UNL A   1      46.613  25.897  27.228  1.00  0.00     0.049 A 
ATOM     45  H   UNL A   1      44.756  26.856  27.597  1.00  0.00     0.167 HD
ATOM     46  C   UNL A   1      39.723  27.949  27.857  1.00  0.00     0.037 A 
ATOM     47  C   UNL A   1      47.522  26.915  27.046  1.00  0.00     0.037 A 
ATOM     48  C   UNL A   1      40.761  28.870  27.534  1.00  0.00     0.049 A 
ATOM     49  C   UNL A   1      46.734  28.120  27.310  1.00  0.00     0.074 A 
ATOM     50  C   UNL A   1      41.296  29.224  26.322  1.00  0.00     0.029 A 
ATOM     51  N   UNL A   1      41.668  29.124  28.537  1.00  0.00    -0.354 N 
ATOM     52  N   UNL A   1      46.348  28.499  28.490  1.00  0.00    -0.248 NA
ATOM     53  C   UNL A   1      46.212  28.875  26.166  1.00  0.00     0.031 C 
ATOM     54  C   UNL A   1      42.677  29.162  26.582  1.00  0.00     0.029 A 
ATOM     55  C   UNL A   1      42.910  29.166  27.962  1.00  0.00     0.049 A 
ATOM     56  H   UNL A   1      41.463  29.251  29.492  1.00  0.00     0.167 HD
ATOM     57  C   UNL A   1      45.262  29.280  28.190  1.00  0.00     0.074 A 
ATOM     58  C   UNL A   1      45.446  29.740  26.825  1.00  0.00     0.031 C 
ATOM     59  C   UNL A   1      44.072  29.031  28.800  1.00  0.00     0.037 A 
BRANCH  46  60
ATOM     60  C   UNL A   1      38.585  28.471  28.685  1.00  0.00     0.057 A 
ATOM     61  C   UNL A   1      37.855  29.566  28.164  1.00  0.00     0.134 A 
ATOM     62  C   UNL A   1      38.428  28.232  30.052  1.00  0.00     0.134 A 
ATOM     63  F   UNL A   1      37.875  29.851  26.851  1.00  0.00    -0.206 F 
ATOM     64  C   UNL A   1      37.166  30.466  28.975  1.00  0.00     0.040 A 
ATOM     65  C   UNL A   1      37.690  29.098  30.869  1.00  0.00     0.040 A 
ATOM     66  F   UNL A   1      39.051  27.218  30.667  1.00  0.00    -0.206 F 
ATOM     67  C   UNL A   1      37.103  30.245  30.342  1.00  0.00     0.006 A 
ENDBRANCH  46  60
BRANCH  47  68
ATOM     68  C   UNL A   1      48.955  27.175  26.607  1.00  0.00     0.057 A 
ATOM     69  C   UNL A   1      49.899  27.977  27.247  1.00  0.00     0.134 A 
ATOM     70  C   UNL A   1      49.479  26.495  25.462  1.00  0.00     0.134 A 
ATOM     71  F   UNL A   1      49.547  28.784  28.255  1.00  0.00    -0.206 F 
ATOM     72  C   UNL A   1      51.263  27.997  26.857  1.00  0.00     0.040 A 
ATOM     73  C   UNL A   1      50.830  26.457  25.103  1.00  0.00     0.040 A 
ATOM     74  F   UNL A   1      48.695  25.819  24.611  1.00  0.00    -0.206 F 
ATOM     75  C   UNL A   1      51.740  27.200  25.818  1.00  0.00     0.006 A 
ENDBRANCH  47  68
BRANCH  59  76
ATOM     76  C   UNL A   1      44.169  28.319  30.141  1.00  0.00     0.057 A 
ATOM     77  C   UNL A   1      44.911  28.901  31.180  1.00  0.00     0.134 A 
ATOM     78  C   UNL A   1      43.664  27.037  30.415  1.00  0.00     0.134 A 
ATOM     79  F   UNL A   1      45.407  30.139  31.037  1.00  0.00    -0.206 F 
ATOM     80  C   UNL A   1      45.169  28.239  32.389  1.00  0.00     0.040 A 
ATOM     81  C   UNL A   1      43.915  26.357  31.619  1.00  0.00     0.040 A 
ATOM     82  F   UNL A   1      42.901  26.396  29.528  1.00  0.00    -0.206 F 
ATOM     83  C   UNL A   1      44.680  26.956  32.610  1.00  0.00     0.006 A 
ENDBRANCH  59  76
ENDBRANCH  33  34
ENDBRANCH  26  28
ENDBRANCH  25  26
ENDBRANCH  24  25
ENDBRANCH  23  24
ENDBRANCH  22  23
ENDBRANCH   1  22
TORSDOF 17
ENDMDL
MODEL 2
REMARK VINA RESULT:     -10.8      2.982      4.595
REMARK SMILES O=C(CC1CCN(S(=O)(=O)c2cc[nH]c2)CC1)OCCOCCOC(=O)c1ccc(-c2c3nc(c(-c4c(F)cccc4F)c4ccc([nH]4)c(-c4c(F)cccc4F)c4nc(c(-c5c(F)cccc5F)c5ccc2[nH]5)C=C4)C=C3)cc1
REMARK SMILES IDX 20 1 19 2 18 3 2 4 1 5 3 6 4 7 5 8 17 9 6 10 16 11 7 12 8 13
REMARK SMILES IDX 9 14 10 15 11 16 12 17 15 18 13 19 14 20 21 22 22 23 23 24
REMARK SMILES IDX 24 25 25 26 26 27 27 28 28 29 80 30 29 31 79 32 30 33 31 34
REMARK SMILES IDX 32 35 73 36 33 37 78 38 72 39 74 40 34 41 77 42 71 43 70 44
REMARK SMILES IDX 35 46 61 47 44 48 60 49 45 50 48 51 59 52 75 53 46 54 47 55
REMARK SMILES IDX 58 57 76 58 49 59 36 60 37 61 42 62 38 63 39 64 41 65 43 66
REMARK SMILES IDX 40 67 62 68 63 69 68 70 64 71 65 72 67 73 69 74 66 75 50 76
REMARK SMILES IDX 51 77 56 78 52 79 53 80 55 81 57 82 54 83
REMARK H PARENT 14 21 74 45 48 56
REMARK Flexibility Score: inf
ROOT
ATOM      1  C   UNL A   1      35.104  21.944  25.412  1.00  0.00     0.202 C 
ENDROOT
BRANCH   1   2
ATOM      2  C   UNL A   1      33.943  22.789  25.854  1.00  0.00     0.261 C 
BRANCH   2   3
ATOM      3  O   UNL A   1      33.236  23.393  24.774  1.00  0.00    -0.463 OA
BRANCH   3   4
ATOM      4  C   UNL A   1      33.578  24.661  24.436  1.00  0.00     0.306 C 
ATOM      5  O   UNL A   1      33.524  25.027  23.267  1.00  0.00    -0.252 OA
BRANCH   4   6
ATOM      6  C   UNL A   1      34.156  25.544  25.530  1.00  0.00     0.126 C 
BRANCH   6   7
ATOM      7  C   UNL A   1      33.406  26.804  26.022  1.00  0.00     0.003 C 
ATOM      8  C   UNL A   1      31.956  26.551  26.460  1.00  0.00     0.021 C 
ATOM      9  C   UNL A   1      33.459  28.090  25.203  1.00  0.00     0.021 C 
ATOM     10  C   UNL A   1      30.884  26.674  25.383  1.00  0.00     0.103 C 
ATOM     11  C   UNL A   1      32.421  28.256  24.098  1.00  0.00     0.103 C 
ATOM     12  N   UNL A   1      31.044  27.830  24.437  1.00  0.00    -0.198 NA
BRANCH  12  13
ATOM     13  S   UNL A   1      29.967  27.627  23.085  1.00  0.00     0.244 S 
ATOM     14  O   UNL A   1      30.746  27.116  21.977  1.00  0.00    -0.207 OA
ATOM     15  O   UNL A   1      28.800  26.911  23.556  1.00  0.00    -0.207 OA
BRANCH  13  16
ATOM     16  C   UNL A   1      29.354  29.101  22.416  1.00  0.00     0.100 A 
ATOM     17  C   UNL A   1      28.015  29.574  22.472  1.00  0.00     0.041 A 
ATOM     18  C   UNL A   1      30.125  30.146  21.941  1.00  0.00     0.104 A 
ATOM     19  C   UNL A   1      28.006  30.856  21.968  1.00  0.00     0.083 A 
ATOM     20  N   UNL A   1      29.296  31.197  21.653  1.00  0.00    -0.366 N 
ATOM     21  H   UNL A   1      29.580  32.062  21.280  1.00  0.00     0.165 HD
ENDBRANCH  13  16
ENDBRANCH  12  13
ENDBRANCH   6   7
ENDBRANCH   4   6
ENDBRANCH   3   4
ENDBRANCH   2   3
ENDBRANCH   1   2
BRANCH   1  22
ATOM     22  O   UNL A   1      36.329  22.676  25.423  1.00  0.00    -0.374 OA
BRANCH  22  23
ATOM     23  C   UNL A   1      37.363  22.143  24.602  1.00  0.00     0.202 C 
BRANCH  23  24
ATOM     24  C   UNL A   1      37.929  20.783  25.011  1.00  0.00     0.261 C 
BRANCH  24  25
ATOM     25  O   UNL A   1      38.902  20.857  26.033  1.00  0.00    -0.460 OA
BRANCH  25  26
ATOM     26  C   UNL A   1      39.940  19.988  25.938  1.00  0.00     0.338 C 
ATOM     27  O   UNL A   1      39.916  18.820  25.636  1.00  0.00    -0.246 OA
BRANCH  26  28
ATOM     28  C   UNL A   1      41.132  20.720  26.399  1.00  0.00     0.060 A 
ATOM     29  C   UNL A   1      41.190  21.051  27.753  1.00  0.00     0.016 A 
ATOM     30  C   UNL A   1      41.888  21.380  25.425  1.00  0.00     0.016 A 
ATOM     31  C   UNL A   1      41.794  22.239  28.088  1.00  0.00     0.010 A 
ATOM     32  C   UNL A   1      42.361  22.622  25.727  1.00  0.00     0.010 A 
ATOM     33  C   UNL A   1      42.272  23.051  27.051  1.00  0.00    -0.014 A 
BRANCH  33  34
ATOM     34  C   UNL A   1      42.850  24.342  27.386  1.00  0.00     0.031 A 
ATOM     35  C   UNL A   1      41.683  25.327  27.650  1.00  0.00     0.074 A 
ATOM     36  C   UNL A   1      44.225  24.370  27.336  1.00  0.00     0.049 A 
ATOM     37  N   UNL A   1      41.630  26.602  27.456  1.00  0.00    -0.248 NA
ATOM     38  C   UNL A   1      40.343  24.829  28.111  1.00  0.00     0.031 C 
ATOM     39  C   UNL A   1      45.113  23.188  27.124  1.00  0.00     0.029 A 
ATOM     40  N   UNL A   1      45.174  25.364  27.446  1.00  0.00    -0.354 N 
ATOM     41  C   UNL A   1      40.417  27.074  28.007  1.00  0.00     0.074 A 
ATOM     42  C   UNL A   1      39.602  25.931  28.240  1.00  0.00     0.031 C 
ATOM     43  C   UNL A   1      46.413  23.555  27.004  1.00  0.00     0.029 A 
ATOM     44  C   UNL A   1      46.524  24.992  27.147  1.00  0.00     0.049 A 
ATOM     45  H   UNL A   1      44.937  26.280  27.718  1.00  0.00     0.167 HD
ATOM     46  C   UNL A   1      40.274  28.367  28.418  1.00  0.00     0.037 A 
ATOM     47  C   UNL A   1      47.618  25.811  26.978  1.00  0.00     0.037 A 
ATOM     48  C   UNL A   1      41.465  29.077  28.092  1.00  0.00     0.049 A 
ATOM     49  C   UNL A   1      47.120  27.125  27.388  1.00  0.00     0.074 A 
ATOM     50  C   UNL A   1      41.998  29.419  26.875  1.00  0.00     0.029 A 
ATOM     51  N   UNL A   1      42.458  29.047  29.045  1.00  0.00    -0.354 N 
ATOM     52  N   UNL A   1      46.888  27.469  28.618  1.00  0.00    -0.248 NA
ATOM     53  C   UNL A   1      46.710  28.071  26.344  1.00  0.00     0.031 C 
ATOM     54  C   UNL A   1      43.346  29.048  27.031  1.00  0.00     0.029 A 
ATOM     55  C   UNL A   1      43.647  28.881  28.388  1.00  0.00     0.049 A 
ATOM     56  H   UNL A   1      42.336  29.129  30.019  1.00  0.00     0.167 HD
ATOM     57  C   UNL A   1      45.979  28.483  28.455  1.00  0.00     0.074 A 
ATOM     58  C   UNL A   1      46.183  29.014  27.120  1.00  0.00     0.031 C 
ATOM     59  C   UNL A   1      44.798  28.433  29.128  1.00  0.00     0.037 A 
BRANCH  46  60
ATOM     60  C   UNL A   1      39.319  29.039  29.361  1.00  0.00     0.057 A 
ATOM     61  C   UNL A   1      39.284  28.563  30.694  1.00  0.00     0.134 A 
ATOM     62  C   UNL A   1      38.222  29.806  28.961  1.00  0.00     0.134 A 
ATOM     63  F   UNL A   1      40.313  27.871  31.211  1.00  0.00    -0.206 F 
ATOM     64  C   UNL A   1      38.159  28.688  31.509  1.00  0.00     0.040 A 
ATOM     65  C   UNL A   1      37.110  29.986  29.794  1.00  0.00     0.040 A 
ATOM     66  F   UNL A   1      38.138  30.328  27.731  1.00  0.00    -0.206 F 
ATOM     67  C   UNL A   1      37.054  29.383  31.047  1.00  0.00     0.006 A 
ENDBRANCH  46  60
BRANCH  47  68
ATOM     68  C   UNL A   1      49.047  25.805  26.459  1.00  0.00     0.057 A 
ATOM     69  C   UNL A   1      49.497  26.281  25.226  1.00  0.00     0.134 A 
ATOM     70  C   UNL A   1      50.107  25.344  27.303  1.00  0.00     0.134 A 
ATOM     71  F   UNL A   1      48.632  26.627  24.266  1.00  0.00    -0.206 F 
ATOM     72  C   UNL A   1      50.877  26.402  24.921  1.00  0.00     0.040 A 
ATOM     73  C   UNL A   1      51.470  25.514  27.041  1.00  0.00     0.040 A 
ATOM     74  F   UNL A   1      49.874  24.690  28.449  1.00  0.00    -0.206 F 
ATOM     75  C   UNL A   1      51.865  26.067  25.845  1.00  0.00     0.006 A 
ENDBRANCH  47  68
BRANCH  59  76
ATOM     76  C   UNL A   1      44.812  27.600  30.401  1.00  0.00     0.057 A 
ATOM     77  C   UNL A   1      45.721  27.915  31.422  1.00  0.00     0.134 A 
ATOM     78  C   UNL A   1      44.055  26.437  30.615  1.00  0.00     0.134 A 
ATOM     79  F   UNL A   1      46.468  29.026  31.335  1.00  0.00    -0.206 F 
ATOM     80  C   UNL A   1      45.896  27.108  32.555  1.00  0.00     0.040 A 
ATOM     81  C   UNL A   1      44.219  25.613  31.743  1.00  0.00     0.040 A 
ATOM     82  F   UNL A   1      43.121  26.055  29.743  1.00  0.00    -0.206 F 
ATOM     83  C   UNL A   1      45.151  25.945  32.716  1.00  0.00     0.006 A 
ENDBRANCH  59  76
ENDBRANCH  33  34
ENDBRANCH  26  28
ENDBRANCH  25  26
ENDBRANCH  24  25
ENDBRANCH  23  24
ENDBRANCH  22  23
ENDBRANCH   1  22
TORSDOF 17
ENDMDL
MODEL 3
REMARK VINA RESULT:     -10.7      2.044      3.634
REMARK SMILES O=C(CC1CCN(S(=O)(=O)c2cc[nH]c2)CC1)OCCOCCOC(=O)c1ccc(-c2c3nc(c(-c4c(F)cccc4F)c4ccc([nH]4)c(-c4c(F)cccc4F)c4nc(c(-c5c(F)cccc5F)c5ccc2[nH]5)C=C4)C=C3)cc1
REMARK SMILES IDX 20 1 19 2 18 3 2 4 1 5 3 6 4 7 5 8 17 9 6 10 16 11 7 12 8 13
REMARK SMILES IDX 9 14 10 15 11 16 12 17 15 18 13 19 14 20 21 22 22 23 23 24
REMARK SMILES IDX 24 25 25 26 26 27 27 28 28 29 80 30 29 31 79 32 30 33 31 34
REMARK SMILES IDX 32 35 73 36 33 37 78 38 72 39 74 40 34 41 77 42 71 43 70 44
REMARK SMILES IDX 35 46 61 47 44 48 60 49 45 50 48 51 59 52 75 53 46 54 47 55
REMARK SMILES IDX 58 57 76 58 49 59 36 60 37 61 42 62 38 63 39 64 41 65 43 66
REMARK SMILES IDX 40 67 62 68 63 69 68 70 64 71 65 72 67 73 69 74 66 75 50 76
REMARK SMILES IDX 51 77 56 78 52 79 53 80 55 81 57 82 54 83
REMARK H PARENT 14 21 74 45 48 56
REMARK Flexibility Score: inf
ROOT
ATOM      1  C   UNL A   1      37.075  22.727  25.387  1.00  0.00     0.202 C 
ENDROOT
BRANCH   1   2
ATOM      2  C   UNL A   1      35.604  22.823  25.674  1.00  0.00     0.261 C 
BRANCH   2   3
ATOM      3  O   UNL A   1      34.897  23.644  24.749  1.00  0.00    -0.463 OA
BRANCH   3   4
ATOM      4  C   UNL A   1      34.385  23.044  23.646  1.00  0.00     0.306 C 
ATOM      5  O   UNL A   1      34.685  23.444  22.526  1.00  0.00    -0.252 OA
BRANCH   4   6
ATOM      6  C   UNL A   1      33.331  21.970  23.861  1.00  0.00     0.126 C 
BRANCH   6   7
ATOM      7  C   UNL A   1      31.875  22.338  24.232  1.00  0.00     0.003 C 
ATOM      8  C   UNL A   1      31.281  23.490  23.408  1.00  0.00     0.021 C 
ATOM      9  C   UNL A   1      31.486  22.523  25.695  1.00  0.00     0.021 C 
ATOM     10  C   UNL A   1      31.481  24.898  23.955  1.00  0.00     0.103 C 
ATOM     11  C   UNL A   1      31.686  23.909  26.299  1.00  0.00     0.103 C 
ATOM     12  N   UNL A   1      31.300  25.051  25.438  1.00  0.00    -0.198 NA
BRANCH  12  13
ATOM     13  S   UNL A   1      31.898  26.606  25.940  1.00  0.00     0.244 S 
ATOM     14  O   UNL A   1      31.278  26.924  27.210  1.00  0.00    -0.207 OA
ATOM     15  O   UNL A   1      33.339  26.585  25.810  1.00  0.00    -0.207 OA
BRANCH  13  16
ATOM     16  C   UNL A   1      31.374  27.936  24.966  1.00  0.00     0.100 A 
ATOM     17  C   UNL A   1      30.364  27.919  23.967  1.00  0.00     0.041 A 
ATOM     18  C   UNL A   1      31.694  29.264  25.184  1.00  0.00     0.104 A 
ATOM     19  C   UNL A   1      30.153  29.220  23.566  1.00  0.00     0.083 A 
ATOM     20  N   UNL A   1      30.964  30.032  24.317  1.00  0.00    -0.366 N 
ATOM     21  H   UNL A   1      31.012  31.012  24.244  1.00  0.00     0.165 HD
ENDBRANCH  13  16
ENDBRANCH  12  13
ENDBRANCH   6   7
ENDBRANCH   4   6
ENDBRANCH   3   4
ENDBRANCH   2   3
ENDBRANCH   1   2
BRANCH   1  22
ATOM     22  O   UNL A   1      37.387  21.589  24.583  1.00  0.00    -0.374 OA
BRANCH  22  23
ATOM     23  C   UNL A   1      38.155  20.579  25.232  1.00  0.00     0.202 C 
BRANCH  23  24
ATOM     24  C   UNL A   1      39.454  21.031  25.898  1.00  0.00     0.261 C 
BRANCH  24  25
ATOM     25  O   UNL A   1      40.063  20.032  26.691  1.00  0.00    -0.460 OA
BRANCH  25  26
ATOM     26  C   UNL A   1      41.257  19.559  26.249  1.00  0.00     0.338 C 
ATOM     27  O   UNL A   1      41.499  18.493  25.738  1.00  0.00    -0.246 OA
BRANCH  26  28
ATOM     28  C   UNL A   1      42.262  20.568  26.624  1.00  0.00     0.060 A 
ATOM     29  C   UNL A   1      42.286  20.977  27.957  1.00  0.00     0.016 A 
ATOM     30  C   UNL A   1      42.815  21.329  25.588  1.00  0.00     0.016 A 
ATOM     31  C   UNL A   1      42.611  22.288  28.211  1.00  0.00     0.010 A 
ATOM     32  C   UNL A   1      42.999  22.661  25.812  1.00  0.00     0.010 A 
ATOM     33  C   UNL A   1      42.856  23.129  27.118  1.00  0.00    -0.014 A 
BRANCH  33  34
ATOM     34  C   UNL A   1      43.131  24.535  27.368  1.00  0.00     0.031 A 
ATOM     35  C   UNL A   1      41.772  25.271  27.472  1.00  0.00     0.074 A 
ATOM     36  C   UNL A   1      44.472  24.846  27.397  1.00  0.00     0.049 A 
ATOM     37  N   UNL A   1      41.475  26.488  27.160  1.00  0.00    -0.248 NA
ATOM     38  C   UNL A   1      40.529  24.541  27.897  1.00  0.00     0.031 C 
ATOM     39  C   UNL A   1      45.595  23.864  27.346  1.00  0.00     0.029 A 
ATOM     40  N   UNL A   1      45.187  26.022  27.473  1.00  0.00    -0.354 N 
ATOM     41  C   UNL A   1      40.153  26.737  27.594  1.00  0.00     0.074 A 
ATOM     42  C   UNL A   1      39.572  25.469  27.881  1.00  0.00     0.031 C 
ATOM     43  C   UNL A   1      46.798  24.484  27.271  1.00  0.00     0.029 A 
ATOM     44  C   UNL A   1      46.604  25.919  27.289  1.00  0.00     0.049 A 
ATOM     45  H   UNL A   1      44.748  26.886  27.646  1.00  0.00     0.167 HD
ATOM     46  C   UNL A   1      39.718  27.999  27.876  1.00  0.00     0.037 A 
ATOM     47  C   UNL A   1      47.518  26.934  27.112  1.00  0.00     0.037 A 
ATOM     48  C   UNL A   1      40.762  28.915  27.558  1.00  0.00     0.049 A 
ATOM     49  C   UNL A   1      46.733  28.142  27.371  1.00  0.00     0.074 A 
ATOM     50  C   UNL A   1      41.306  29.267  26.350  1.00  0.00     0.029 A 
ATOM     51  N   UNL A   1      41.664  29.166  28.567  1.00  0.00    -0.354 N 
ATOM     52  N   UNL A   1      46.342  28.523  28.548  1.00  0.00    -0.248 NA
ATOM     53  C   UNL A   1      46.220  28.898  26.223  1.00  0.00     0.031 C 
ATOM     54  C   UNL A   1      42.685  29.199  26.618  1.00  0.00     0.029 A 
ATOM     55  C   UNL A   1      42.909  29.203  27.999  1.00  0.00     0.049 A 
ATOM     56  H   UNL A   1      41.453  29.295  29.521  1.00  0.00     0.167 HD
ATOM     57  C   UNL A   1      45.261  29.308  28.241  1.00  0.00     0.074 A 
ATOM     58  C   UNL A   1      45.454  29.766  26.877  1.00  0.00     0.031 C 
ATOM     59  C   UNL A   1      44.066  29.064  28.844  1.00  0.00     0.037 A 
BRANCH  46  60
ATOM     60  C   UNL A   1      38.577  28.526  28.697  1.00  0.00     0.057 A 
ATOM     61  C   UNL A   1      37.865  29.634  28.178  1.00  0.00     0.134 A 
ATOM     62  C   UNL A   1      38.403  28.275  30.060  1.00  0.00     0.134 A 
ATOM     63  F   UNL A   1      37.902  29.931  26.869  1.00  0.00    -0.206 F 
ATOM     64  C   UNL A   1      37.177  30.534  28.991  1.00  0.00     0.040 A 
ATOM     65  C   UNL A   1      37.666  29.142  30.877  1.00  0.00     0.040 A 
ATOM     66  F   UNL A   1      39.009  27.250  30.672  1.00  0.00    -0.206 F 
ATOM     67  C   UNL A   1      37.098  30.301  30.355  1.00  0.00     0.006 A 
ENDBRANCH  46  60
BRANCH  47  68
ATOM     68  C   UNL A   1      48.954  27.187  26.681  1.00  0.00     0.057 A 
ATOM     69  C   UNL A   1      49.935  27.883  27.388  1.00  0.00     0.134 A 
ATOM     70  C   UNL A   1      49.440  26.614  25.462  1.00  0.00     0.134 A 
ATOM     71  F   UNL A   1      49.624  28.590  28.481  1.00  0.00    -0.206 F 
ATOM     72  C   UNL A   1      51.294  27.896  26.982  1.00  0.00     0.040 A 
ATOM     73  C   UNL A   1      50.785  26.567  25.082  1.00  0.00     0.040 A 
ATOM     74  F   UNL A   1      48.622  26.062  24.557  1.00  0.00    -0.206 F 
ATOM     75  C   UNL A   1      51.729  27.196  25.857  1.00  0.00     0.006 A 
ENDBRANCH  47  68
BRANCH  59  76
ATOM     76  C   UNL A   1      44.152  28.352  30.186  1.00  0.00     0.057 A 
ATOM     77  C   UNL A   1      44.894  28.929  31.227  1.00  0.00     0.134 A 
ATOM     78  C   UNL A   1      43.636  27.075  30.459  1.00  0.00     0.134 A 
ATOM     79  F   UNL A   1      45.401  30.164  31.086  1.00  0.00    -0.206 F 
ATOM     80  C   UNL A   1      45.142  28.266  32.438  1.00  0.00     0.040 A 
ATOM     81  C   UNL A   1      43.877  26.393  31.664  1.00  0.00     0.040 A 
ATOM     82  F   UNL A   1      42.872  26.439  29.570  1.00  0.00    -0.206 F 
ATOM     83  C   UNL A   1      44.642  26.987  32.658  1.00  0.00     0.006 A 
ENDBRANCH  59  76
ENDBRANCH  33  34
ENDBRANCH  26  28
ENDBRANCH  25  26
ENDBRANCH  24  25
ENDBRANCH  23  24
ENDBRANCH  22  23
ENDBRANCH   1  22
TORSDOF 17
ENDMDL
