MODEL 1
REMARK VINA RESULT:      -9.1      0.000      0.000
REMARK SMILES Cc1cc(Br)cc2c1O[C@H](C(F)(F)F)C(C(=O)OCCOCCOC(=O)c1ccc(-c3c4nc(c(-c5c(F)cccc5F)c5ccc([nH]5)c(-c5c(F)cccc5F)c5nc(c(-c6c(F)cccc6F)c6ccc3[nH]6)C=C5)C=C4)cc1)=C2
REMARK SMILES IDX 22 1 21 2 20 3 19 4 18 5 16 6 17 7 15 8 1 9 2 10 3 11 8 12
REMARK SMILES IDX 4 13 7 14 9 15 5 16 6 17 81 18 10 19 11 20 12 21 13 22 14 23
REMARK SMILES IDX 23 24 24 25 25 26 26 27 27 28 28 29 80 30 29 31 79 32 30 33
REMARK SMILES IDX 31 34 32 35 73 36 33 37 78 38 72 39 74 40 34 41 77 42 71 43
REMARK SMILES IDX 70 44 35 46 61 47 44 48 60 49 45 50 48 51 59 52 75 53 46 54
REMARK SMILES IDX 47 55 58 57 76 58 49 59 36 60 37 61 42 62 38 63 39 64 41 65
REMARK SMILES IDX 43 66 40 67 62 68 63 69 68 70 64 71 65 72 67 73 69 74 66 75
REMARK SMILES IDX 50 76 51 77 56 78 52 79 53 80 55 81 57 82 54 83
REMARK H PARENT 74 45 48 56
REMARK Flexibility Score: inf
ROOT
ATOM      1  C   UNL A   1      32.497  36.954  31.889  1.00  0.00     0.202 C 
ENDROOT
BRANCH   1   2
ATOM      2  O   UNL A   1      33.098  36.827  33.179  1.00  0.00    -0.374 OA
BRANCH   2   3
ATOM      3  C   UNL A   1      34.484  36.493  33.230  1.00  0.00     0.202 C 
BRANCH   3   4
ATOM      4  C   UNL A   1      34.813  35.051  33.625  1.00  0.00     0.261 C 
BRANCH   4   5
ATOM      5  O   UNL A   1      36.143  34.950  34.160  1.00  0.00    -0.460 OA
BRANCH   5   6
ATOM      6  C   UNL A   1      36.288  34.038  35.148  1.00  0.00     0.338 C 
ATOM      7  O   UNL A   1      35.561  33.889  36.119  1.00  0.00    -0.246 OA
BRANCH   6   8
ATOM      8  C   UNL A   1      37.413  33.136  34.838  1.00  0.00     0.087 C 
ATOM      9  C   UNL A   1      41.770  30.390  34.831  1.00  0.00     0.048 C 
ATOM     10  C   UNL A   1      40.400  30.277  34.222  1.00  0.00    -0.007 A 
ATOM     11  C   UNL A   1      40.089  29.127  33.477  1.00  0.00     0.023 A 
ATOM     12  C   UNL A   1      39.431  31.284  34.361  1.00  0.00     0.130 A 
ATOM     13  C   UNL A   1      38.831  28.982  32.897  1.00  0.00     0.019 A 
ATOM     14  C   UNL A   1      38.157  31.113  33.805  1.00  0.00     0.019 A 
ATOM     15  O   UNL A   1      39.793  32.417  35.038  1.00  0.00    -0.475 OA
ATOM     16  Br  UNL A   1      38.425  27.425  31.904  1.00  0.00    -0.051 Br
ATOM     17  C   UNL A   1      37.862  29.966  33.060  1.00  0.00     0.027 A 
ATOM     18  C   UNL A   1      37.119  32.096  34.049  1.00  0.00     0.027 C 
ATOM     19  C   UNL A   1      38.777  33.389  35.412  1.00  0.00     0.316 C 
BRANCH  19  20
ATOM     20  C   UNL A   1      38.767  33.504  36.944  1.00  0.00     0.430 C 
ATOM     21  F   UNL A   1      37.921  32.602  37.498  1.00  0.00    -0.167 F 
ATOM     22  F   UNL A   1      39.989  33.262  37.475  1.00  0.00    -0.167 F 
ATOM     23  F   UNL A   1      38.381  34.732  37.359  1.00  0.00    -0.167 F 
ENDBRANCH  19  20
ENDBRANCH   6   8
ENDBRANCH   5   6
ENDBRANCH   4   5
ENDBRANCH   3   4
ENDBRANCH   2   3
ENDBRANCH   1   2
BRANCH   1  24
ATOM     24  C   UNL A   1      32.428  35.679  31.040  1.00  0.00     0.261 C 
BRANCH  24  25
ATOM     25  O   UNL A   1      33.460  35.645  30.038  1.00  0.00    -0.460 OA
BRANCH  25  26
ATOM     26  C   UNL A   1      33.388  34.596  29.183  1.00  0.00     0.338 C 
ATOM     27  O   UNL A   1      32.526  34.380  28.346  1.00  0.00    -0.246 OA
BRANCH  26  28
ATOM     28  C   UNL A   1      34.620  33.793  29.265  1.00  0.00     0.060 A 
ATOM     29  C   UNL A   1      34.809  33.018  30.416  1.00  0.00     0.016 A 
ATOM     30  C   UNL A   1      35.613  33.869  28.287  1.00  0.00     0.016 A 
ATOM     31  C   UNL A   1      36.017  32.355  30.618  1.00  0.00     0.010 A 
ATOM     32  C   UNL A   1      36.831  33.213  28.498  1.00  0.00     0.010 A 
ATOM     33  C   UNL A   1      37.050  32.486  29.682  1.00  0.00    -0.014 A 
BRANCH  33  34
ATOM     34  C   UNL A   1      38.406  31.996  30.027  1.00  0.00     0.031 A 
ATOM     35  C   UNL A   1      38.856  30.665  29.491  1.00  0.00     0.074 A 
ATOM     36  C   UNL A   1      39.246  32.750  30.759  1.00  0.00     0.049 A 
ATOM     37  N   UNL A   1      39.992  30.041  29.668  1.00  0.00    -0.248 NA
ATOM     38  C   UNL A   1      37.898  29.942  28.639  1.00  0.00     0.031 C 
ATOM     39  C   UNL A   1      38.946  34.079  31.286  1.00  0.00     0.029 A 
ATOM     40  N   UNL A   1      40.528  32.500  31.179  1.00  0.00    -0.354 N 
ATOM     41  C   UNL A   1      39.889  28.860  28.945  1.00  0.00     0.074 A 
ATOM     42  C   UNL A   1      38.569  28.836  28.353  1.00  0.00     0.031 C 
ATOM     43  C   UNL A   1      40.017  34.529  31.962  1.00  0.00     0.029 A 
ATOM     44  C   UNL A   1      41.064  33.510  31.939  1.00  0.00     0.049 A 
ATOM     45  H   UNL A   1      41.017  31.675  30.956  1.00  0.00     0.167 HD
ATOM     46  C   UNL A   1      40.817  27.889  28.778  1.00  0.00     0.037 A 
ATOM     47  C   UNL A   1      42.259  33.593  32.555  1.00  0.00     0.037 A 
ATOM     48  C   UNL A   1      42.128  27.910  29.368  1.00  0.00     0.049 A 
ATOM     49  C   UNL A   1      43.239  32.457  32.431  1.00  0.00     0.074 A 
ATOM     50  C   UNL A   1      43.137  26.969  29.256  1.00  0.00     0.029 A 
ATOM     51  N   UNL A   1      42.609  28.922  30.183  1.00  0.00    -0.354 N 
ATOM     52  N   UNL A   1      43.132  31.345  31.744  1.00  0.00    -0.248 NA
ATOM     53  C   UNL A   1      44.502  32.584  33.172  1.00  0.00     0.031 C 
ATOM     54  C   UNL A   1      44.216  27.393  30.039  1.00  0.00     0.029 A 
ATOM     55  C   UNL A   1      43.893  28.617  30.601  1.00  0.00     0.049 A 
ATOM     56  H   UNL A   1      42.113  29.735  30.428  1.00  0.00     0.167 HD
ATOM     57  C   UNL A   1      44.319  30.653  31.951  1.00  0.00     0.074 A 
ATOM     58  C   UNL A   1      45.136  31.473  32.820  1.00  0.00     0.031 C 
ATOM     59  C   UNL A   1      44.696  29.446  31.465  1.00  0.00     0.037 A 
BRANCH  46  60
ATOM     60  C   UNL A   1      40.443  26.712  27.928  1.00  0.00     0.057 A 
ATOM     61  C   UNL A   1      39.574  25.717  28.392  1.00  0.00     0.134 A 
ATOM     62  C   UNL A   1      40.913  26.600  26.613  1.00  0.00     0.134 A 
ATOM     63  F   UNL A   1      39.102  25.759  29.648  1.00  0.00    -0.206 F 
ATOM     64  C   UNL A   1      39.192  24.647  27.582  1.00  0.00     0.040 A 
ATOM     65  C   UNL A   1      40.521  25.547  25.787  1.00  0.00     0.040 A 
ATOM     66  F   UNL A   1      41.746  27.522  26.108  1.00  0.00    -0.206 F 
ATOM     67  C   UNL A   1      39.659  24.565  26.271  1.00  0.00     0.006 A 
ENDBRANCH  46  60
BRANCH  47  68
ATOM     68  C   UNL A   1      42.597  34.798  33.352  1.00  0.00     0.057 A 
ATOM     69  C   UNL A   1      43.036  35.975  32.734  1.00  0.00     0.134 A 
ATOM     70  C   UNL A   1      42.491  34.802  34.748  1.00  0.00     0.134 A 
ATOM     71  F   UNL A   1      43.180  36.023  31.402  1.00  0.00    -0.206 F 
ATOM     72  C   UNL A   1      43.365  37.110  33.476  1.00  0.00     0.040 A 
ATOM     73  C   UNL A   1      42.795  35.938  35.500  1.00  0.00     0.040 A 
ATOM     74  F   UNL A   1      42.077  33.705  35.398  1.00  0.00    -0.206 F 
ATOM     75  C   UNL A   1      43.238  37.095  34.864  1.00  0.00     0.006 A 
ENDBRANCH  47  68
BRANCH  59  76
ATOM     76  C   UNL A   1      46.056  28.939  31.842  1.00  0.00     0.057 A 
ATOM     77  C   UNL A   1      47.193  29.260  31.091  1.00  0.00     0.134 A 
ATOM     78  C   UNL A   1      46.241  28.186  33.009  1.00  0.00     0.134 A 
ATOM     79  F   UNL A   1      47.081  29.971  29.959  1.00  0.00    -0.206 F 
ATOM     80  C   UNL A   1      48.467  28.842  31.482  1.00  0.00     0.040 A 
ATOM     81  C   UNL A   1      47.510  27.781  33.421  1.00  0.00     0.040 A 
ATOM     82  F   UNL A   1      45.192  27.853  33.778  1.00  0.00    -0.206 F 
ATOM     83  C   UNL A   1      48.627  28.108  32.656  1.00  0.00     0.006 A 
ENDBRANCH  59  76
ENDBRANCH  33  34
ENDBRANCH  26  28
ENDBRANCH  25  26
ENDBRANCH  24  25
ENDBRANCH   1  24
TORSDOF 15
ENDMDL
MODEL 2
REMARK VINA RESULT:      -9.0      5.147     11.117
REMARK SMILES Cc1cc(Br)cc2c1O[C@H](C(F)(F)F)C(C(=O)OCCOCCOC(=O)c1ccc(-c3c4nc(c(-c5c(F)cccc5F)c5ccc([nH]5)c(-c5c(F)cccc5F)c5nc(c(-c6c(F)cccc6F)c6ccc3[nH]6)C=C5)C=C4)cc1)=C2
REMARK SMILES IDX 22 1 21 2 20 3 19 4 18 5 16 6 17 7 15 8 1 9 2 10 3 11 8 12
REMARK SMILES IDX 4 13 7 14 9 15 5 16 6 17 81 18 10 19 11 20 12 21 13 22 14 23
REMARK SMILES IDX 23 24 24 25 25 26 26 27 27 28 28 29 80 30 29 31 79 32 30 33
REMARK SMILES IDX 31 34 32 35 73 36 33 37 78 38 72 39 74 40 34 41 77 42 71 43
REMARK SMILES IDX 70 44 35 46 61 47 44 48 60 49 45 50 48 51 59 52 75 53 46 54
REMARK SMILES IDX 47 55 58 57 76 58 49 59 36 60 37 61 42 62 38 63 39 64 41 65
REMARK SMILES IDX 43 66 40 67 62 68 63 69 68 70 64 71 65 72 67 73 69 74 66 75
REMARK SMILES IDX 50 76 51 77 56 78 52 79 53 80 55 81 57 82 54 83
REMARK H PARENT 74 45 48 56
REMARK Flexibility Score: inf
ROOT
ATOM      1  C   UNL A   1      41.825  20.811  26.115  1.00  0.00     0.202 C 
ENDROOT
BRANCH   1   2
ATOM      2  O   UNL A   1      40.715  21.471  26.729  1.00  0.00    -0.374 OA
BRANCH   2   3
ATOM      3  C   UNL A   1      39.444  21.353  26.090  1.00  0.00     0.202 C 
BRANCH   3   4
ATOM      4  C   UNL A   1      38.723  22.668  25.785  1.00  0.00     0.261 C 
BRANCH   4   5
ATOM      5  O   UNL A   1      37.297  22.512  25.884  1.00  0.00    -0.460 OA
BRANCH   5   6
ATOM      6  C   UNL A   1      36.632  22.631  24.713  1.00  0.00     0.338 C 
ATOM      7  O   UNL A   1      37.023  22.275  23.610  1.00  0.00    -0.246 OA
BRANCH   6   8
ATOM      8  C   UNL A   1      35.278  23.161  24.955  1.00  0.00     0.087 C 
ATOM      9  C   UNL A   1      30.309  23.853  26.123  1.00  0.00     0.048 C 
ATOM     10  C   UNL A   1      31.553  24.696  26.073  1.00  0.00    -0.007 A 
ATOM     11  C   UNL A   1      31.474  26.035  26.493  1.00  0.00     0.023 A 
ATOM     12  C   UNL A   1      32.782  24.195  25.612  1.00  0.00     0.130 A 
ATOM     13  C   UNL A   1      32.603  26.849  26.465  1.00  0.00     0.019 A 
ATOM     14  C   UNL A   1      33.920  25.011  25.622  1.00  0.00     0.019 A 
ATOM     15  O   UNL A   1      32.804  22.907  25.152  1.00  0.00    -0.475 OA
ATOM     16  Br  UNL A   1      32.483  28.646  27.040  1.00  0.00    -0.051 Br
ATOM     17  C   UNL A   1      33.827  26.345  26.037  1.00  0.00     0.027 A 
ATOM     18  C   UNL A   1      35.213  24.462  25.262  1.00  0.00     0.027 C 
ATOM     19  C   UNL A   1      34.078  22.260  24.879  1.00  0.00     0.316 C 
BRANCH  19  20
ATOM     20  C   UNL A   1      34.197  21.032  25.793  1.00  0.00     0.430 C 
ATOM     21  F   UNL A   1      35.033  20.105  25.264  1.00  0.00    -0.167 F 
ATOM     22  F   UNL A   1      34.700  21.355  27.008  1.00  0.00    -0.167 F 
ATOM     23  F   UNL A   1      33.002  20.432  25.997  1.00  0.00    -0.167 F 
ENDBRANCH  19  20
ENDBRANCH   6   8
ENDBRANCH   5   6
ENDBRANCH   4   5
ENDBRANCH   3   4
ENDBRANCH   2   3
ENDBRANCH   1   2
BRANCH   1  24
ATOM     24  C   UNL A   1      43.049  21.680  25.807  1.00  0.00     0.261 C 
BRANCH  24  25
ATOM     25  O   UNL A   1      42.713  22.801  24.969  1.00  0.00    -0.460 OA
BRANCH  25  26
ATOM     26  C   UNL A   1      43.498  23.893  25.139  1.00  0.00     0.338 C 
ATOM     27  O   UNL A   1      44.554  24.140  24.578  1.00  0.00    -0.246 OA
BRANCH  26  28
ATOM     28  C   UNL A   1      42.815  24.878  25.994  1.00  0.00     0.060 A 
ATOM     29  C   UNL A   1      43.468  26.096  26.223  1.00  0.00     0.016 A 
ATOM     30  C   UNL A   1      41.611  24.584  26.635  1.00  0.00     0.016 A 
ATOM     31  C   UNL A   1      42.944  27.006  27.138  1.00  0.00     0.010 A 
ATOM     32  C   UNL A   1      41.093  25.494  27.565  1.00  0.00     0.010 A 
ATOM     33  C   UNL A   1      41.778  26.689  27.846  1.00  0.00    -0.014 A 
BRANCH  33  34
ATOM     34  C   UNL A   1      41.375  27.537  28.993  1.00  0.00     0.031 A 
ATOM     35  C   UNL A   1      42.149  27.437  30.279  1.00  0.00     0.074 A 
ATOM     36  C   UNL A   1      40.370  28.424  28.876  1.00  0.00     0.049 A 
ATOM     37  N   UNL A   1      41.970  28.077  31.406  1.00  0.00    -0.248 NA
ATOM     38  C   UNL A   1      43.279  26.493  30.294  1.00  0.00     0.031 C 
ATOM     39  C   UNL A   1      39.583  28.652  27.665  1.00  0.00     0.029 A 
ATOM     40  N   UNL A   1      39.846  29.301  29.791  1.00  0.00    -0.354 N 
ATOM     41  C   UNL A   1      42.966  27.621  32.260  1.00  0.00     0.074 A 
ATOM     42  C   UNL A   1      43.726  26.626  31.534  1.00  0.00     0.031 C 
ATOM     43  C   UNL A   1      38.673  29.609  27.914  1.00  0.00     0.029 A 
ATOM     44  C   UNL A   1      38.796  30.039  29.306  1.00  0.00     0.049 A 
ATOM     45  H   UNL A   1      40.192  29.392  30.708  1.00  0.00     0.167 HD
ATOM     46  C   UNL A   1      43.231  28.006  33.530  1.00  0.00     0.037 A 
ATOM     47  C   UNL A   1      38.015  30.948  29.921  1.00  0.00     0.037 A 
ATOM     48  C   UNL A   1      42.474  28.991  34.253  1.00  0.00     0.049 A 
ATOM     49  C   UNL A   1      38.271  31.291  31.364  1.00  0.00     0.074 A 
ATOM     50  C   UNL A   1      42.667  29.447  35.545  1.00  0.00     0.029 A 
ATOM     51  N   UNL A   1      41.377  29.671  33.746  1.00  0.00    -0.354 N 
ATOM     52  N   UNL A   1      39.216  30.854  32.161  1.00  0.00    -0.248 NA
ATOM     53  C   UNL A   1      37.350  32.248  31.994  1.00  0.00     0.031 C 
ATOM     54  C   UNL A   1      41.660  30.373  35.836  1.00  0.00     0.029 A 
ATOM     55  C   UNL A   1      40.868  30.525  34.709  1.00  0.00     0.049 A 
ATOM     56  H   UNL A   1      41.014  29.562  32.838  1.00  0.00     0.167 HD
ATOM     57  C   UNL A   1      39.018  31.499  33.377  1.00  0.00     0.074 A 
ATOM     58  C   UNL A   1      37.869  32.363  33.210  1.00  0.00     0.031 C 
ATOM     59  C   UNL A   1      39.724  31.382  34.527  1.00  0.00     0.037 A 
BRANCH  46  60
ATOM     60  C   UNL A   1      44.386  27.351  34.226  1.00  0.00     0.057 A 
ATOM     61  C   UNL A   1      45.667  27.916  34.215  1.00  0.00     0.134 A 
ATOM     62  C   UNL A   1      44.203  26.173  34.961  1.00  0.00     0.134 A 
ATOM     63  F   UNL A   1      45.910  29.036  33.516  1.00  0.00    -0.206 F 
ATOM     64  C   UNL A   1      46.729  27.327  34.903  1.00  0.00     0.040 A 
ATOM     65  C   UNL A   1      45.252  25.588  35.671  1.00  0.00     0.040 A 
ATOM     66  F   UNL A   1      42.999  25.584  35.015  1.00  0.00    -0.206 F 
ATOM     67  C   UNL A   1      46.520  26.164  35.642  1.00  0.00     0.006 A 
ENDBRANCH  46  60
BRANCH  47  68
ATOM     68  C   UNL A   1      36.909  31.598  29.175  1.00  0.00     0.057 A 
ATOM     69  C   UNL A   1      37.031  32.907  28.696  1.00  0.00     0.134 A 
ATOM     70  C   UNL A   1      35.705  30.928  28.926  1.00  0.00     0.134 A 
ATOM     71  F   UNL A   1      38.152  33.607  28.925  1.00  0.00    -0.206 F 
ATOM     72  C   UNL A   1      35.993  33.530  28.001  1.00  0.00     0.040 A 
ATOM     73  C   UNL A   1      34.668  31.531  28.213  1.00  0.00     0.040 A 
ATOM     74  F   UNL A   1      35.527  29.672  29.361  1.00  0.00    -0.206 F 
ATOM     75  C   UNL A   1      34.809  32.838  27.753  1.00  0.00     0.006 A 
ENDBRANCH  47  68
BRANCH  59  76
ATOM     76  C   UNL A   1      39.293  32.218  35.695  1.00  0.00     0.057 A 
ATOM     77  C   UNL A   1      39.781  33.516  35.889  1.00  0.00     0.134 A 
ATOM     78  C   UNL A   1      38.324  31.749  36.592  1.00  0.00     0.134 A 
ATOM     79  F   UNL A   1      40.717  34.019  35.070  1.00  0.00    -0.206 F 
ATOM     80  C   UNL A   1      39.328  34.315  36.940  1.00  0.00     0.040 A 
ATOM     81  C   UNL A   1      37.847  32.547  37.632  1.00  0.00     0.040 A 
ATOM     82  F   UNL A   1      37.809  30.518  36.455  1.00  0.00    -0.206 F 
ATOM     83  C   UNL A   1      38.351  33.834  37.809  1.00  0.00     0.006 A 
ENDBRANCH  59  76
ENDBRANCH  33  34
ENDBRANCH  26  28
ENDBRANCH  25  26
ENDBRANCH  24  25
ENDBRANCH   1  24
TORSDOF 15
ENDMDL
MODEL 3
REMARK VINA RESULT:      -8.9      4.310      9.467
REMARK SMILES Cc1cc(Br)cc2c1O[C@H](C(F)(F)F)C(C(=O)OCCOCCOC(=O)c1ccc(-c3c4nc(c(-c5c(F)cccc5F)c5ccc([nH]5)c(-c5c(F)cccc5F)c5nc(c(-c6c(F)cccc6F)c6ccc3[nH]6)C=C5)C=C4)cc1)=C2
REMARK SMILES IDX 22 1 21 2 20 3 19 4 18 5 16 6 17 7 15 8 1 9 2 10 3 11 8 12
REMARK SMILES IDX 4 13 7 14 9 15 5 16 6 17 81 18 10 19 11 20 12 21 13 22 14 23
REMARK SMILES IDX 23 24 24 25 25 26 26 27 27 28 28 29 80 30 29 31 79 32 30 33
REMARK SMILES IDX 31 34 32 35 73 36 33 37 78 38 72 39 74 40 34 41 77 42 71 43
REMARK SMILES IDX 70 44 35 46 61 47 44 48 60 49 45 50 48 51 59 52 75 53 46 54
REMARK SMILES IDX 47 55 58 57 76 58 49 59 36 60 37 61 42 62 38 63 39 64 41 65
REMARK SMILES IDX 43 66 40 67 62 68 63 69 68 70 64 71 65 72 67 73 69 74 66 75
REMARK SMILES IDX 50 76 51 77 56 78 52 79 53 80 55 81 57 82 54 83
REMARK H PARENT 74 45 48 56
REMARK Flexibility Score: inf
ROOT
ATOM      1  C   UNL A   1      31.384  31.816  26.872  1.00  0.00     0.202 C 
ENDROOT
BRANCH   1   2
ATOM      2  O   UNL A   1      30.989  31.313  25.594  1.00  0.00    -0.374 OA
BRANCH   2   3
ATOM      3  C   UNL A   1      31.545  30.067  25.176  1.00  0.00     0.202 C 
BRANCH   3   4
ATOM      4  C   UNL A   1      32.382  29.323  26.219  1.00  0.00     0.261 C 
BRANCH   4   5
ATOM      5  O   UNL A   1      32.625  27.965  25.816  1.00  0.00    -0.460 OA
BRANCH   5   6
ATOM      6  C   UNL A   1      31.889  27.040  26.474  1.00  0.00     0.338 C 
ATOM      7  O   UNL A   1      31.004  27.253  27.290  1.00  0.00    -0.246 OA
BRANCH   6   8
ATOM      8  C   UNL A   1      32.221  25.690  25.982  1.00  0.00     0.087 C 
ATOM      9  C   UNL A   1      32.422  21.167  23.526  1.00  0.00     0.048 C 
ATOM     10  C   UNL A   1      33.384  22.066  24.252  1.00  0.00    -0.007 A 
ATOM     11  C   UNL A   1      34.743  21.709  24.284  1.00  0.00     0.023 A 
ATOM     12  C   UNL A   1      32.970  23.238  24.906  1.00  0.00     0.130 A 
ATOM     13  C   UNL A   1      35.667  22.515  24.943  1.00  0.00     0.019 A 
ATOM     14  C   UNL A   1      33.912  24.060  25.535  1.00  0.00     0.019 A 
ATOM     15  O   UNL A   1      31.630  23.517  24.908  1.00  0.00    -0.475 OA
ATOM     16  Br  UNL A   1      37.493  22.025  24.970  1.00  0.00    -0.051 Br
ATOM     17  C   UNL A   1      35.261  23.691  25.565  1.00  0.00     0.027 A 
ATOM     18  C   UNL A   1      33.504  25.330  26.106  1.00  0.00     0.027 C 
ATOM     19  C   UNL A   1      31.166  24.819  25.363  1.00  0.00     0.316 C 
BRANCH  19  20
ATOM     20  C   UNL A   1      30.438  25.502  24.196  1.00  0.00     0.430 C 
ATOM     21  F   UNL A   1      31.294  26.240  23.449  1.00  0.00    -0.167 F 
ATOM     22  F   UNL A   1      29.874  24.601  23.357  1.00  0.00    -0.167 F 
ATOM     23  F   UNL A   1      29.456  26.328  24.623  1.00  0.00    -0.167 F 
ENDBRANCH  19  20
ENDBRANCH   6   8
ENDBRANCH   5   6
ENDBRANCH   4   5
ENDBRANCH   3   4
ENDBRANCH   2   3
ENDBRANCH   1   2
BRANCH   1  24
ATOM     24  C   UNL A   1      32.119  33.160  26.878  1.00  0.00     0.261 C 
BRANCH  24  25
ATOM     25  O   UNL A   1      32.293  33.669  28.214  1.00  0.00    -0.460 OA
BRANCH  25  26
ATOM     26  C   UNL A   1      33.386  34.452  28.385  1.00  0.00     0.338 C 
ATOM     27  O   UNL A   1      33.419  35.669  28.477  1.00  0.00    -0.246 OA
BRANCH  26  28
ATOM     28  C   UNL A   1      34.572  33.614  28.632  1.00  0.00     0.060 A 
ATOM     29  C   UNL A   1      34.362  32.345  29.186  1.00  0.00     0.016 A 
ATOM     30  C   UNL A   1      35.866  34.092  28.418  1.00  0.00     0.016 A 
ATOM     31  C   UNL A   1      35.448  31.568  29.579  1.00  0.00     0.010 A 
ATOM     32  C   UNL A   1      36.957  33.315  28.826  1.00  0.00     0.010 A 
ATOM     33  C   UNL A   1      36.749  32.068  29.442  1.00  0.00    -0.014 A 
BRANCH  33  34
ATOM     34  C   UNL A   1      37.872  31.352  30.093  1.00  0.00     0.031 A 
ATOM     35  C   UNL A   1      38.169  31.630  31.541  1.00  0.00     0.074 A 
ATOM     36  C   UNL A   1      38.582  30.428  29.422  1.00  0.00     0.049 A 
ATOM     37  N   UNL A   1      39.102  31.126  32.307  1.00  0.00    -0.248 NA
ATOM     38  C   UNL A   1      37.295  32.603  32.216  1.00  0.00     0.031 C 
ATOM     39  C   UNL A   1      38.354  30.032  28.034  1.00  0.00     0.029 A 
ATOM     40  N   UNL A   1      39.639  29.652  29.826  1.00  0.00    -0.354 N 
ATOM     41  C   UNL A   1      38.922  31.712  33.553  1.00  0.00     0.074 A 
ATOM     42  C   UNL A   1      37.814  32.634  33.435  1.00  0.00     0.031 C 
ATOM     43  C   UNL A   1      39.247  29.084  27.701  1.00  0.00     0.029 A 
ATOM     44  C   UNL A   1      40.125  28.829  28.841  1.00  0.00     0.049 A 
ATOM     45  H   UNL A   1      40.013  29.683  30.736  1.00  0.00     0.167 HD
ATOM     46  C   UNL A   1      39.611  31.490  34.698  1.00  0.00     0.037 A 
ATOM     47  C   UNL A   1      41.169  27.978  28.856  1.00  0.00     0.037 A 
ATOM     48  C   UNL A   1      40.715  30.577  34.816  1.00  0.00     0.049 A 
ATOM     49  C   UNL A   1      41.978  27.819  30.115  1.00  0.00     0.074 A 
ATOM     50  C   UNL A   1      41.476  30.287  35.934  1.00  0.00     0.029 A 
ATOM     51  N   UNL A   1      41.217  29.809  33.777  1.00  0.00    -0.354 N 
ATOM     52  N   UNL A   1      41.800  28.377  31.288  1.00  0.00    -0.248 NA
ATOM     53  C   UNL A   1      43.138  26.917  30.051  1.00  0.00     0.031 C 
ATOM     54  C   UNL A   1      42.467  29.373  35.562  1.00  0.00     0.029 A 
ATOM     55  C   UNL A   1      42.293  29.061  34.224  1.00  0.00     0.049 A 
ATOM     56  H   UNL A   1      40.861  29.796  32.859  1.00  0.00     0.167 HD
ATOM     57  C   UNL A   1      42.806  27.879  32.106  1.00  0.00     0.074 A 
ATOM     58  C   UNL A   1      43.588  26.966  31.299  1.00  0.00     0.031 C 
ATOM     59  C   UNL A   1      43.060  28.155  33.408  1.00  0.00     0.037 A 
BRANCH  46  60
ATOM     60  C   UNL A   1      39.197  32.259  35.915  1.00  0.00     0.057 A 
ATOM     61  C   UNL A   1      39.685  33.546  36.173  1.00  0.00     0.134 A 
ATOM     62  C   UNL A   1      38.258  31.731  36.811  1.00  0.00     0.134 A 
ATOM     63  F   UNL A   1      40.598  34.102  35.362  1.00  0.00    -0.206 F 
ATOM     64  C   UNL A   1      39.261  34.277  37.284  1.00  0.00     0.040 A 
ATOM     65  C   UNL A   1      37.811  32.461  37.912  1.00  0.00     0.040 A 
ATOM     66  F   UNL A   1      37.749  30.505  36.618  1.00  0.00    -0.206 F 
ATOM     67  C   UNL A   1      38.314  33.738  38.153  1.00  0.00     0.006 A 
ENDBRANCH  46  60
BRANCH  47  68
ATOM     68  C   UNL A   1      41.514  27.209  27.635  1.00  0.00     0.057 A 
ATOM     69  C   UNL A   1      42.335  27.757  26.642  1.00  0.00     0.134 A 
ATOM     70  C   UNL A   1      41.031  25.911  27.430  1.00  0.00     0.134 A 
ATOM     71  F   UNL A   1      42.807  29.005  26.772  1.00  0.00    -0.206 F 
ATOM     72  C   UNL A   1      42.657  27.045  25.486  1.00  0.00     0.040 A 
ATOM     73  C   UNL A   1      41.364  25.179  26.289  1.00  0.00     0.040 A 
ATOM     74  F   UNL A   1      40.239  25.332  28.344  1.00  0.00    -0.206 F 
ATOM     75  C   UNL A   1      42.175  25.748  25.311  1.00  0.00     0.006 A 
ENDBRANCH  47  68
BRANCH  59  76
ATOM     76  C   UNL A   1      44.217  27.453  34.054  1.00  0.00     0.057 A 
ATOM     77  C   UNL A   1      44.078  26.184  34.630  1.00  0.00     0.134 A 
ATOM     78  C   UNL A   1      45.499  28.018  34.033  1.00  0.00     0.134 A 
ATOM     79  F   UNL A   1      42.875  25.593  34.689  1.00  0.00    -0.206 F 
ATOM     80  C   UNL A   1      45.172  25.506  35.172  1.00  0.00     0.040 A 
ATOM     81  C   UNL A   1      46.603  27.340  34.551  1.00  0.00     0.040 A 
ATOM     82  F   UNL A   1      45.702  29.227  33.487  1.00  0.00    -0.206 F 
ATOM     83  C   UNL A   1      46.440  26.081  35.124  1.00  0.00     0.006 A 
ENDBRANCH  59  76
ENDBRANCH  33  34
ENDBRANCH  26  28
ENDBRANCH  25  26
ENDBRANCH  24  25
ENDBRANCH   1  24
TORSDOF 15
ENDMDL
