MODEL 1
REMARK VINA RESULT:     -11.7      0.000      0.000
REMARK SMILES C[C@@](CC(=O)Nc1ccc(NC(=O)c2ccco2)cc1)(C(=O)OCCOCCOC(=O)c1ccc(-c2c3nc(c(-c4c(F)cccc4F)c4ccc([nH]4)c(-c4c(F)cccc4F)c4nc(c(-c5c(F)cccc5F)c5ccc2[nH]5)C=C4)C=C3)cc1)c1ccccc1
REMARK SMILES IDX 24 1 23 2 21 3 22 4 2 5 1 6 3 7 4 8 5 9 6 10 7 12 8 13 20 14
REMARK SMILES IDX 9 15 19 16 10 17 11 18 12 19 13 21 14 22 15 23 18 24 16 25
REMARK SMILES IDX 17 26 86 27 87 28 91 29 88 30 90 31 89 32 25 33 26 34 27 35
REMARK SMILES IDX 28 36 29 37 30 38 31 39 32 40 33 41 85 42 34 43 84 44 35 45
REMARK SMILES IDX 36 46 37 47 78 48 38 49 83 50 77 51 79 52 39 53 82 54 76 55
REMARK SMILES IDX 75 56 40 58 66 59 49 60 65 61 50 62 53 63 64 64 80 65 51 66
REMARK SMILES IDX 52 67 63 69 81 70 54 71 41 72 42 73 47 74 43 75 44 76 46 77
REMARK SMILES IDX 48 78 45 79 67 80 68 81 73 82 69 83 70 84 72 85 74 86 71 87
REMARK SMILES IDX 55 88 56 89 61 90 57 91 58 92 60 93 62 94 59 95
REMARK H PARENT 6 11 11 20 79 57 53 68
REMARK Flexibility Score: inf
ROOT
ATOM      1  C   UNL A   1      33.179  29.309  24.561  1.00  0.00     0.261 C 
ENDROOT
BRANCH   1   2
ATOM      2  O   UNL A   1      33.601  27.936  24.568  1.00  0.00    -0.463 OA
BRANCH   2   3
ATOM      3  C   UNL A   1      32.719  27.034  24.057  1.00  0.00     0.316 C 
ATOM      4  O   UNL A   1      32.132  27.175  22.992  1.00  0.00    -0.251 OA
BRANCH   3   5
ATOM      5  C   UNL A   1      32.578  25.810  24.993  1.00  0.00     0.099 C 
ATOM      6  C   UNL A   1      32.743  26.162  26.487  1.00  0.00     0.029 C 
BRANCH   5   7
ATOM      7  C   UNL A   1      31.147  25.235  24.797  1.00  0.00     0.123 C 
BRANCH   7   8
ATOM      8  C   UNL A   1      30.377  24.857  26.073  1.00  0.00     0.225 C 
ATOM      9  O   UNL A   1      29.448  25.570  26.466  1.00  0.00    -0.275 OA
ATOM     10  N   UNL A   1      30.606  23.689  26.757  1.00  0.00    -0.326 N 
ATOM     11  H   UNL A   1      29.983  23.501  27.496  1.00  0.00     0.169 HD
BRANCH  10  12
ATOM     12  C   UNL A   1      31.599  22.733  26.550  1.00  0.00     0.041 A 
ATOM     13  C   UNL A   1      31.569  21.936  25.420  1.00  0.00     0.028 A 
ATOM     14  C   UNL A   1      32.567  22.482  27.511  1.00  0.00     0.028 A 
ATOM     15  C   UNL A   1      32.645  21.082  25.147  1.00  0.00     0.028 A 
ATOM     16  C   UNL A   1      33.675  21.686  27.212  1.00  0.00     0.028 A 
ATOM     17  C   UNL A   1      33.764  21.039  25.979  1.00  0.00     0.041 A 
BRANCH  17  18
ATOM     18  N   UNL A   1      35.006  20.453  25.671  1.00  0.00    -0.319 N 
ATOM     19  C   UNL A   1      35.382  19.334  24.958  1.00  0.00     0.291 C 
ATOM     20  H   UNL A   1      35.771  20.948  26.047  1.00  0.00     0.170 HD
ATOM     21  O   UNL A   1      36.583  19.198  24.716  1.00  0.00    -0.265 OA
BRANCH  19  22
ATOM     22  C   UNL A   1      34.395  18.378  24.535  1.00  0.00     0.191 A 
ATOM     23  C   UNL A   1      34.108  17.089  24.942  1.00  0.00     0.056 A 
ATOM     24  O   UNL A   1      33.557  18.737  23.516  1.00  0.00    -0.459 OA
ATOM     25  C   UNL A   1      33.080  16.619  24.086  1.00  0.00     0.043 A 
ATOM     26  C   UNL A   1      32.763  17.670  23.256  1.00  0.00     0.196 A 
ENDBRANCH  19  22
ENDBRANCH  17  18
ENDBRANCH  10  12
ENDBRANCH   7   8
ENDBRANCH   5   7
BRANCH   5  27
ATOM     27  C   UNL A   1      33.766  24.835  24.794  1.00  0.00    -0.030 A 
ATOM     28  C   UNL A   1      33.862  24.133  23.565  1.00  0.00     0.005 A 
ATOM     29  C   UNL A   1      34.861  24.773  25.665  1.00  0.00     0.005 A 
ATOM     30  C   UNL A   1      35.028  23.473  23.187  1.00  0.00     0.000 A 
ATOM     31  C   UNL A   1      36.025  24.091  25.289  1.00  0.00     0.000 A 
ATOM     32  C   UNL A   1      36.117  23.464  24.046  1.00  0.00     0.000 A 
ENDBRANCH   5  27
ENDBRANCH   3   5
ENDBRANCH   2   3
ENDBRANCH   1   2
BRANCH   1  33
ATOM     33  C   UNL A   1      32.984  29.759  26.012  1.00  0.00     0.202 C 
BRANCH  33  34
ATOM     34  O   UNL A   1      31.668  30.209  26.359  1.00  0.00    -0.374 OA
BRANCH  34  35
ATOM     35  C   UNL A   1      31.496  31.604  26.588  1.00  0.00     0.202 C 
BRANCH  35  36
ATOM     36  C   UNL A   1      32.731  32.386  27.064  1.00  0.00     0.261 C 
BRANCH  36  37
ATOM     37  O   UNL A   1      32.458  33.765  27.357  1.00  0.00    -0.460 OA
BRANCH  37  38
ATOM     38  C   UNL A   1      33.108  34.228  28.452  1.00  0.00     0.338 C 
ATOM     39  O   UNL A   1      32.717  35.083  29.240  1.00  0.00    -0.246 OA
BRANCH  38  40
ATOM     40  C   UNL A   1      34.336  33.455  28.692  1.00  0.00     0.060 A 
ATOM     41  C   UNL A   1      34.188  32.169  29.228  1.00  0.00     0.016 A 
ATOM     42  C   UNL A   1      35.606  33.999  28.488  1.00  0.00     0.016 A 
ATOM     43  C   UNL A   1      35.311  31.440  29.611  1.00  0.00     0.010 A 
ATOM     44  C   UNL A   1      36.734  33.269  28.883  1.00  0.00     0.010 A 
ATOM     45  C   UNL A   1      36.587  32.003  29.480  1.00  0.00    -0.014 A 
BRANCH  45  46
ATOM     46  C   UNL A   1      37.742  31.323  30.115  1.00  0.00     0.031 A 
ATOM     47  C   UNL A   1      38.051  31.606  31.560  1.00  0.00     0.074 A 
ATOM     48  C   UNL A   1      38.476  30.428  29.432  1.00  0.00     0.049 A 
ATOM     49  N   UNL A   1      39.005  31.125  32.316  1.00  0.00    -0.248 NA
ATOM     50  C   UNL A   1      37.161  32.558  32.246  1.00  0.00     0.031 C 
ATOM     51  C   UNL A   1      38.252  30.035  28.043  1.00  0.00     0.029 A 
ATOM     52  N   UNL A   1      39.561  29.683  29.822  1.00  0.00    -0.354 N 
ATOM     53  C   UNL A   1      38.833  31.714  33.562  1.00  0.00     0.074 A 
ATOM     54  C   UNL A   1      37.703  32.611  33.455  1.00  0.00     0.031 C 
ATOM     55  C   UNL A   1      39.177  29.126  27.692  1.00  0.00     0.029 A 
ATOM     56  C   UNL A   1      40.071  28.892  28.825  1.00  0.00     0.049 A 
ATOM     57  H   UNL A   1      39.937  29.716  30.732  1.00  0.00     0.167 HD
ATOM     58  C   UNL A   1      39.544  31.518  34.697  1.00  0.00     0.037 A 
ATOM     59  C   UNL A   1      41.147  28.080  28.824  1.00  0.00     0.037 A 
ATOM     60  C   UNL A   1      40.666  30.624  34.807  1.00  0.00     0.049 A 
ATOM     61  C   UNL A   1      41.962  27.928  30.081  1.00  0.00     0.074 A 
ATOM     62  C   UNL A   1      41.443  30.347  35.918  1.00  0.00     0.029 A 
ATOM     63  N   UNL A   1      41.173  29.864  33.764  1.00  0.00    -0.354 N 
ATOM     64  N   UNL A   1      41.778  28.473  31.258  1.00  0.00    -0.248 NA
ATOM     65  C   UNL A   1      43.136  27.043  30.007  1.00  0.00     0.031 C 
ATOM     66  C   UNL A   1      42.448  29.450  35.537  1.00  0.00     0.029 A 
ATOM     67  C   UNL A   1      42.268  29.136  34.200  1.00  0.00     0.049 A 
ATOM     68  H   UNL A   1      40.811  29.846  32.850  1.00  0.00     0.167 HD
ATOM     69  C   UNL A   1      42.790  27.977  32.071  1.00  0.00     0.074 A 
ATOM     70  C   UNL A   1      43.582  27.081  31.256  1.00  0.00     0.031 C 
ATOM     71  C   UNL A   1      43.040  28.239  33.378  1.00  0.00     0.037 A 
BRANCH  58  72
ATOM     72  C   UNL A   1      39.141  32.303  35.908  1.00  0.00     0.057 A 
ATOM     73  C   UNL A   1      39.562  33.624  36.106  1.00  0.00     0.134 A 
ATOM     74  C   UNL A   1      38.293  31.742  36.873  1.00  0.00     0.134 A 
ATOM     75  F   UNL A   1      40.387  34.213  35.228  1.00  0.00    -0.206 F 
ATOM     76  C   UNL A   1      39.171  34.353  37.232  1.00  0.00     0.040 A 
ATOM     77  C   UNL A   1      37.877  32.468  37.989  1.00  0.00     0.040 A 
ATOM     78  F   UNL A   1      37.851  30.482  36.740  1.00  0.00    -0.206 F 
ATOM     79  C   UNL A   1      38.321  33.776  38.173  1.00  0.00     0.006 A 
ENDBRANCH  58  72
BRANCH  59  80
ATOM     80  C   UNL A   1      41.526  27.352  27.588  1.00  0.00     0.057 A 
ATOM     81  C   UNL A   1      41.127  26.028  27.372  1.00  0.00     0.134 A 
ATOM     82  C   UNL A   1      42.316  27.957  26.603  1.00  0.00     0.134 A 
ATOM     83  F   UNL A   1      40.391  25.386  28.292  1.00  0.00    -0.206 F 
ATOM     84  C   UNL A   1      41.513  25.325  26.229  1.00  0.00     0.040 A 
ATOM     85  C   UNL A   1      42.689  27.275  25.444  1.00  0.00     0.040 A 
ATOM     86  F   UNL A   1      42.731  29.224  26.751  1.00  0.00    -0.206 F 
ATOM     87  C   UNL A   1      42.292  25.951  25.258  1.00  0.00     0.006 A 
ENDBRANCH  59  80
BRANCH  71  88
ATOM     88  C   UNL A   1      44.192  27.524  34.017  1.00  0.00     0.057 A 
ATOM     89  C   UNL A   1      44.040  26.269  34.619  1.00  0.00     0.134 A 
ATOM     90  C   UNL A   1      45.478  28.078  33.989  1.00  0.00     0.134 A 
ATOM     91  F   UNL A   1      42.832  25.690  34.689  1.00  0.00    -0.206 F 
ATOM     92  C   UNL A   1      45.125  25.598  35.188  1.00  0.00     0.040 A 
ATOM     93  C   UNL A   1      46.575  27.406  34.533  1.00  0.00     0.040 A 
ATOM     94  F   UNL A   1      45.693  29.274  33.419  1.00  0.00    -0.206 F 
ATOM     95  C   UNL A   1      46.398  26.165  35.138  1.00  0.00     0.006 A 
ENDBRANCH  71  88
ENDBRANCH  45  46
ENDBRANCH  38  40
ENDBRANCH  37  38
ENDBRANCH  36  37
ENDBRANCH  35  36
ENDBRANCH  34  35
ENDBRANCH  33  34
ENDBRANCH   1  33
TORSDOF 20
ENDMDL
MODEL 2
REMARK VINA RESULT:     -11.7      2.368      5.265
REMARK SMILES C[C@@](CC(=O)Nc1ccc(NC(=O)c2ccco2)cc1)(C(=O)OCCOCCOC(=O)c1ccc(-c2c3nc(c(-c4c(F)cccc4F)c4ccc([nH]4)c(-c4c(F)cccc4F)c4nc(c(-c5c(F)cccc5F)c5ccc2[nH]5)C=C4)C=C3)cc1)c1ccccc1
REMARK SMILES IDX 24 1 23 2 21 3 22 4 2 5 1 6 3 7 4 8 5 9 6 10 7 12 8 13 20 14
REMARK SMILES IDX 9 15 19 16 10 17 11 18 12 19 13 21 14 22 15 23 18 24 16 25
REMARK SMILES IDX 17 26 86 27 87 28 91 29 88 30 90 31 89 32 25 33 26 34 27 35
REMARK SMILES IDX 28 36 29 37 30 38 31 39 32 40 33 41 85 42 34 43 84 44 35 45
REMARK SMILES IDX 36 46 37 47 78 48 38 49 83 50 77 51 79 52 39 53 82 54 76 55
REMARK SMILES IDX 75 56 40 58 66 59 49 60 65 61 50 62 53 63 64 64 80 65 51 66
REMARK SMILES IDX 52 67 63 69 81 70 54 71 41 72 42 73 47 74 43 75 44 76 46 77
REMARK SMILES IDX 48 78 45 79 67 80 68 81 73 82 69 83 70 84 72 85 74 86 71 87
REMARK SMILES IDX 55 88 56 89 61 90 57 91 58 92 60 93 62 94 59 95
REMARK H PARENT 6 11 11 20 79 57 53 68
REMARK Flexibility Score: inf
ROOT
ATOM      1  C   UNL A   1      32.132  28.023  25.903  1.00  0.00     0.261 C 
ENDROOT
BRANCH   1   2
ATOM      2  O   UNL A   1      32.918  27.172  25.054  1.00  0.00    -0.463 OA
BRANCH   2   3
ATOM      3  C   UNL A   1      32.752  25.833  25.225  1.00  0.00     0.316 C 
ATOM      4  O   UNL A   1      32.269  25.323  26.229  1.00  0.00    -0.251 OA
BRANCH   3   5
ATOM      5  C   UNL A   1      33.237  25.052  23.980  1.00  0.00     0.099 C 
ATOM      6  C   UNL A   1      32.157  24.126  23.382  1.00  0.00     0.029 C 
BRANCH   5   7
ATOM      7  C   UNL A   1      33.619  26.098  22.895  1.00  0.00     0.123 C 
BRANCH   7   8
ATOM      8  C   UNL A   1      32.861  26.011  21.560  1.00  0.00     0.225 C 
ATOM      9  O   UNL A   1      33.269  25.262  20.667  1.00  0.00    -0.275 OA
ATOM     10  N   UNL A   1      31.671  26.660  21.342  1.00  0.00    -0.326 N 
ATOM     11  H   UNL A   1      31.221  26.448  20.492  1.00  0.00     0.169 HD
BRANCH  10  12
ATOM     12  C   UNL A   1      31.011  27.578  22.157  1.00  0.00     0.041 A 
ATOM     13  C   UNL A   1      31.499  28.865  22.287  1.00  0.00     0.028 A 
ATOM     14  C   UNL A   1      29.927  27.199  22.936  1.00  0.00     0.028 A 
ATOM     15  C   UNL A   1      30.753  29.821  22.990  1.00  0.00     0.028 A 
ATOM     16  C   UNL A   1      29.144  28.161  23.577  1.00  0.00     0.028 A 
ATOM     17  C   UNL A   1      29.510  29.507  23.538  1.00  0.00     0.041 A 
BRANCH  17  18
ATOM     18  N   UNL A   1      28.552  30.426  24.006  1.00  0.00    -0.319 N 
ATOM     19  C   UNL A   1      27.679  31.294  23.382  1.00  0.00     0.291 C 
ATOM     20  H   UNL A   1      28.495  30.458  24.989  1.00  0.00     0.170 HD
ATOM     21  O   UNL A   1      26.828  31.839  24.089  1.00  0.00    -0.265 OA
BRANCH  19  22
ATOM     22  C   UNL A   1      27.786  31.541  21.971  1.00  0.00     0.191 A 
ATOM     23  C   UNL A   1      27.992  30.705  20.889  1.00  0.00     0.056 A 
ATOM     24  O   UNL A   1      27.702  32.837  21.543  1.00  0.00    -0.459 OA
ATOM     25  C   UNL A   1      28.097  31.545  19.751  1.00  0.00     0.043 A 
ATOM     26  C   UNL A   1      27.886  32.828  20.200  1.00  0.00     0.196 A 
ENDBRANCH  19  22
ENDBRANCH  17  18
ENDBRANCH  10  12
ENDBRANCH   7   8
ENDBRANCH   5   7
BRANCH   5  27
ATOM     27  C   UNL A   1      34.318  24.015  24.377  1.00  0.00    -0.030 A 
ATOM     28  C   UNL A   1      35.246  24.365  25.391  1.00  0.00     0.005 A 
ATOM     29  C   UNL A   1      34.295  22.682  23.949  1.00  0.00     0.005 A 
ATOM     30  C   UNL A   1      36.052  23.412  26.008  1.00  0.00     0.000 A 
ATOM     31  C   UNL A   1      35.121  21.730  24.559  1.00  0.00     0.000 A 
ATOM     32  C   UNL A   1      35.979  22.088  25.599  1.00  0.00     0.000 A 
ENDBRANCH   5  27
ENDBRANCH   3   5
ENDBRANCH   2   3
ENDBRANCH   1   2
BRANCH   1  33
ATOM     33  C   UNL A   1      33.042  29.121  26.458  1.00  0.00     0.202 C 
BRANCH  33  34
ATOM     34  O   UNL A   1      32.784  30.450  25.987  1.00  0.00    -0.374 OA
BRANCH  34  35
ATOM     35  C   UNL A   1      31.518  31.021  26.306  1.00  0.00     0.202 C 
BRANCH  35  36
ATOM     36  C   UNL A   1      31.532  32.317  27.134  1.00  0.00     0.261 C 
BRANCH  36  37
ATOM     37  O   UNL A   1      32.658  33.163  26.854  1.00  0.00    -0.460 OA
BRANCH  37  38
ATOM     38  C   UNL A   1      33.239  33.680  27.964  1.00  0.00     0.338 C 
ATOM     39  O   UNL A   1      32.765  34.515  28.729  1.00  0.00    -0.246 OA
BRANCH  38  40
ATOM     40  C   UNL A   1      34.508  32.995  28.253  1.00  0.00     0.060 A 
ATOM     41  C   UNL A   1      34.436  31.648  28.629  1.00  0.00     0.016 A 
ATOM     42  C   UNL A   1      35.731  33.668  28.248  1.00  0.00     0.016 A 
ATOM     43  C   UNL A   1      35.582  30.980  29.053  1.00  0.00     0.010 A 
ATOM     44  C   UNL A   1      36.881  32.998  28.684  1.00  0.00     0.010 A 
ATOM     45  C   UNL A   1      36.803  31.663  29.123  1.00  0.00    -0.014 A 
BRANCH  45  46
ATOM     46  C   UNL A   1      37.951  31.018  29.805  1.00  0.00     0.031 A 
ATOM     47  C   UNL A   1      38.216  31.339  31.250  1.00  0.00     0.074 A 
ATOM     48  C   UNL A   1      38.718  30.120  29.162  1.00  0.00     0.049 A 
ATOM     49  N   UNL A   1      39.157  30.892  32.042  1.00  0.00    -0.248 NA
ATOM     50  C   UNL A   1      37.293  32.291  31.890  1.00  0.00     0.031 C 
ATOM     51  C   UNL A   1      38.537  29.692  27.777  1.00  0.00     0.029 A 
ATOM     52  N   UNL A   1      39.803  29.403  29.599  1.00  0.00    -0.354 N 
ATOM     53  C   UNL A   1      38.942  31.507  33.269  1.00  0.00     0.074 A 
ATOM     54  C   UNL A   1      37.800  32.381  33.111  1.00  0.00     0.031 C 
ATOM     55  C   UNL A   1      39.487  28.790  27.473  1.00  0.00     0.029 A 
ATOM     56  C   UNL A   1      40.354  28.598  28.634  1.00  0.00     0.049 A 
ATOM     57  H   UNL A   1      40.154  29.463  30.517  1.00  0.00     0.167 HD
ATOM     58  C   UNL A   1      39.625  31.348  34.427  1.00  0.00     0.037 A 
ATOM     59  C   UNL A   1      41.442  27.804  28.681  1.00  0.00     0.037 A 
ATOM     60  C   UNL A   1      40.758  30.476  34.587  1.00  0.00     0.049 A 
ATOM     61  C   UNL A   1      42.225  27.695  29.962  1.00  0.00     0.074 A 
ATOM     62  C   UNL A   1      41.509  30.238  35.726  1.00  0.00     0.029 A 
ATOM     63  N   UNL A   1      41.306  29.701  33.577  1.00  0.00    -0.354 N 
ATOM     64  N   UNL A   1      42.001  28.264  31.121  1.00  0.00    -0.248 NA
ATOM     65  C   UNL A   1      43.415  26.829  29.941  1.00  0.00     0.031 C 
ATOM     66  C   UNL A   1      42.538  29.350  35.393  1.00  0.00     0.029 A 
ATOM     67  C   UNL A   1      42.400  29.002  34.059  1.00  0.00     0.049 A 
ATOM     68  H   UNL A   1      40.968  29.656  32.654  1.00  0.00     0.167 HD
ATOM     69  C   UNL A   1      42.998  27.804  31.972  1.00  0.00     0.074 A 
ATOM     70  C   UNL A   1      43.826  26.903  31.199  1.00  0.00     0.031 C 
ATOM     71  C   UNL A   1      43.208  28.100  33.278  1.00  0.00     0.037 A 
BRANCH  58  72
ATOM     72  C   UNL A   1      39.176  32.154  35.608  1.00  0.00     0.057 A 
ATOM     73  C   UNL A   1      39.580  33.482  35.793  1.00  0.00     0.134 A 
ATOM     74  C   UNL A   1      38.302  31.605  36.556  1.00  0.00     0.134 A 
ATOM     75  F   UNL A   1      40.428  34.061  34.930  1.00  0.00    -0.206 F 
ATOM     76  C   UNL A   1      39.147  34.230  36.890  1.00  0.00     0.040 A 
ATOM     77  C   UNL A   1      37.844  32.350  37.643  1.00  0.00     0.040 A 
ATOM     78  F   UNL A   1      37.875  30.340  36.435  1.00  0.00    -0.206 F 
ATOM     79  C   UNL A   1      38.271  33.666  37.815  1.00  0.00     0.006 A 
ENDBRANCH  58  72
BRANCH  59  80
ATOM     80  C   UNL A   1      41.866  27.054  27.473  1.00  0.00     0.057 A 
ATOM     81  C   UNL A   1      41.493  25.720  27.276  1.00  0.00     0.134 A 
ATOM     82  C   UNL A   1      42.676  27.649  26.497  1.00  0.00     0.134 A 
ATOM     83  F   UNL A   1      40.739  25.089  28.188  1.00  0.00    -0.206 F 
ATOM     84  C   UNL A   1      41.920  24.998  26.160  1.00  0.00     0.040 A 
ATOM     85  C   UNL A   1      43.091  26.947  25.365  1.00  0.00     0.040 A 
ATOM     86  F   UNL A   1      43.069  28.925  26.627  1.00  0.00    -0.206 F 
ATOM     87  C   UNL A   1      42.718  25.614  25.198  1.00  0.00     0.006 A 
ENDBRANCH  59  80
BRANCH  71  88
ATOM     88  C   UNL A   1      44.354  27.419  33.965  1.00  0.00     0.057 A 
ATOM     89  C   UNL A   1      45.622  28.008  34.047  1.00  0.00     0.134 A 
ATOM     90  C   UNL A   1      44.174  26.179  34.590  1.00  0.00     0.134 A 
ATOM     91  F   UNL A   1      45.862  29.189  33.459  1.00  0.00    -0.206 F 
ATOM     92  C   UNL A   1      46.676  27.378  34.712  1.00  0.00     0.040 A 
ATOM     93  C   UNL A   1      45.213  25.550  35.278  1.00  0.00     0.040 A 
ATOM     94  F   UNL A   1      42.981  25.565  34.555  1.00  0.00    -0.206 F 
ATOM     95  C   UNL A   1      46.470  26.148  35.336  1.00  0.00     0.006 A 
ENDBRANCH  71  88
ENDBRANCH  45  46
ENDBRANCH  38  40
ENDBRANCH  37  38
ENDBRANCH  36  37
ENDBRANCH  35  36
ENDBRANCH  34  35
ENDBRANCH  33  34
ENDBRANCH   1  33
TORSDOF 20
ENDMDL
MODEL 3
REMARK VINA RESULT:     -11.6      4.040      7.357
REMARK SMILES C[C@@](CC(=O)Nc1ccc(NC(=O)c2ccco2)cc1)(C(=O)OCCOCCOC(=O)c1ccc(-c2c3nc(c(-c4c(F)cccc4F)c4ccc([nH]4)c(-c4c(F)cccc4F)c4nc(c(-c5c(F)cccc5F)c5ccc2[nH]5)C=C4)C=C3)cc1)c1ccccc1
REMARK SMILES IDX 24 1 23 2 21 3 22 4 2 5 1 6 3 7 4 8 5 9 6 10 7 12 8 13 20 14
REMARK SMILES IDX 9 15 19 16 10 17 11 18 12 19 13 21 14 22 15 23 18 24 16 25
REMARK SMILES IDX 17 26 86 27 87 28 91 29 88 30 90 31 89 32 25 33 26 34 27 35
REMARK SMILES IDX 28 36 29 37 30 38 31 39 32 40 33 41 85 42 34 43 84 44 35 45
REMARK SMILES IDX 36 46 37 47 78 48 38 49 83 50 77 51 79 52 39 53 82 54 76 55
REMARK SMILES IDX 75 56 40 58 66 59 49 60 65 61 50 62 53 63 64 64 80 65 51 66
REMARK SMILES IDX 52 67 63 69 81 70 54 71 41 72 42 73 47 74 43 75 44 76 46 77
REMARK SMILES IDX 48 78 45 79 67 80 68 81 73 82 69 83 70 84 72 85 74 86 71 87
REMARK SMILES IDX 55 88 56 89 61 90 57 91 58 92 60 93 62 94 59 95
REMARK H PARENT 6 11 11 20 79 57 53 68
REMARK Flexibility Score: inf
ROOT
ATOM      1  C   UNL A   1      32.925  29.585  25.250  1.00  0.00     0.261 C 
ENDROOT
BRANCH   1   2
ATOM      2  O   UNL A   1      33.438  28.281  24.934  1.00  0.00    -0.463 OA
BRANCH   2   3
ATOM      3  C   UNL A   1      32.572  27.424  24.330  1.00  0.00     0.316 C 
ATOM      4  O   UNL A   1      31.869  27.720  23.372  1.00  0.00    -0.251 OA
BRANCH   3   5
ATOM      5  C   UNL A   1      32.611  26.032  25.006  1.00  0.00     0.099 C 
ATOM      6  C   UNL A   1      32.878  26.098  26.524  1.00  0.00     0.029 C 
BRANCH   5   7
ATOM      7  C   UNL A   1      31.219  25.373  24.797  1.00  0.00     0.123 C 
BRANCH   7   8
ATOM      8  C   UNL A   1      30.447  24.980  26.068  1.00  0.00     0.225 C 
ATOM      9  O   UNL A   1      29.534  25.702  26.482  1.00  0.00    -0.275 OA
ATOM     10  N   UNL A   1      30.655  23.792  26.722  1.00  0.00    -0.326 N 
ATOM     11  H   UNL A   1      30.031  23.598  27.459  1.00  0.00     0.169 HD
BRANCH  10  12
ATOM     12  C   UNL A   1      31.627  22.821  26.487  1.00  0.00     0.041 A 
ATOM     13  C   UNL A   1      31.619  22.103  25.305  1.00  0.00     0.028 A 
ATOM     14  C   UNL A   1      32.549  22.475  27.465  1.00  0.00     0.028 A 
ATOM     15  C   UNL A   1      32.680  21.235  25.015  1.00  0.00     0.028 A 
ATOM     16  C   UNL A   1      33.644  21.667  27.153  1.00  0.00     0.028 A 
ATOM     17  C   UNL A   1      33.763  21.101  25.884  1.00  0.00     0.041 A 
BRANCH  17  18
ATOM     18  N   UNL A   1      34.999  20.498  25.583  1.00  0.00    -0.319 N 
ATOM     19  C   UNL A   1      35.359  19.320  24.963  1.00  0.00     0.291 C 
ATOM     20  H   UNL A   1      35.772  21.032  25.881  1.00  0.00     0.170 HD
ATOM     21  O   UNL A   1      36.552  19.171  24.688  1.00  0.00    -0.265 OA
BRANCH  19  22
ATOM     22  C   UNL A   1      34.368  18.321  24.671  1.00  0.00     0.191 A 
ATOM     23  C   UNL A   1      34.193  17.463  23.601  1.00  0.00     0.056 A 
ATOM     24  O   UNL A   1      33.354  18.148  25.572  1.00  0.00    -0.459 OA
ATOM     25  C   UNL A   1      32.976  16.774  23.838  1.00  0.00     0.043 A 
ATOM     26  C   UNL A   1      32.521  17.208  25.062  1.00  0.00     0.196 A 
ENDBRANCH  19  22
ENDBRANCH  17  18
ENDBRANCH  10  12
ENDBRANCH   7   8
ENDBRANCH   5   7
BRANCH   5  27
ATOM     27  C   UNL A   1      33.851  25.233  24.530  1.00  0.00    -0.030 A 
ATOM     28  C   UNL A   1      34.899  25.001  25.458  1.00  0.00     0.005 A 
ATOM     29  C   UNL A   1      33.898  24.546  23.311  1.00  0.00     0.005 A 
ATOM     30  C   UNL A   1      35.899  24.063  25.215  1.00  0.00     0.000 A 
ATOM     31  C   UNL A   1      34.916  23.617  23.063  1.00  0.00     0.000 A 
ATOM     32  C   UNL A   1      35.899  23.360  24.020  1.00  0.00     0.000 A 
ENDBRANCH   5  27
ENDBRANCH   3   5
ENDBRANCH   2   3
ENDBRANCH   1   2
BRANCH   1  33
ATOM     33  C   UNL A   1      33.068  29.805  26.759  1.00  0.00     0.202 C 
BRANCH  33  34
ATOM     34  O   UNL A   1      34.365  30.215  27.214  1.00  0.00    -0.374 OA
BRANCH  34  35
ATOM     35  C   UNL A   1      34.535  31.589  27.546  1.00  0.00     0.202 C 
BRANCH  35  36
ATOM     36  C   UNL A   1      34.728  31.924  29.034  1.00  0.00     0.261 C 
BRANCH  36  37
ATOM     37  O   UNL A   1      36.106  32.001  29.430  1.00  0.00    -0.460 OA
BRANCH  37  38
ATOM     38  C   UNL A   1      36.464  31.062  30.339  1.00  0.00     0.338 C 
ATOM     39  O   UNL A   1      35.853  30.741  31.353  1.00  0.00    -0.246 OA
BRANCH  38  40
ATOM     40  C   UNL A   1      37.655  30.328  29.885  1.00  0.00     0.060 A 
ATOM     41  C   UNL A   1      38.518  29.836  30.874  1.00  0.00     0.016 A 
ATOM     42  C   UNL A   1      37.976  30.199  28.532  1.00  0.00     0.016 A 
ATOM     43  C   UNL A   1      39.732  29.257  30.514  1.00  0.00     0.010 A 
ATOM     44  C   UNL A   1      39.202  29.625  28.173  1.00  0.00     0.010 A 
ATOM     45  C   UNL A   1      40.100  29.187  29.164  1.00  0.00    -0.014 A 
BRANCH  45  46
ATOM     46  C   UNL A   1      41.488  28.799  28.815  1.00  0.00     0.031 A 
ATOM     47  C   UNL A   1      41.767  27.379  28.405  1.00  0.00     0.074 A 
ATOM     48  C   UNL A   1      42.478  29.710  28.811  1.00  0.00     0.049 A 
ATOM     49  N   UNL A   1      42.900  26.823  28.056  1.00  0.00    -0.248 NA
ATOM     50  C   UNL A   1      40.614  26.465  28.383  1.00  0.00     0.031 C 
ATOM     51  C   UNL A   1      42.327  31.124  29.146  1.00  0.00     0.029 A 
ATOM     52  N   UNL A   1      43.810  29.574  28.511  1.00  0.00    -0.354 N 
ATOM     53  C   UNL A   1      42.597  25.496  27.775  1.00  0.00     0.074 A 
ATOM     54  C   UNL A   1      41.182  25.322  28.023  1.00  0.00     0.031 C 
ATOM     55  C   UNL A   1      43.524  31.726  29.040  1.00  0.00     0.029 A 
ATOM     56  C   UNL A   1      44.526  30.735  28.654  1.00  0.00     0.049 A 
ATOM     57  H   UNL A   1      44.213  28.723  28.221  1.00  0.00     0.167 HD
ATOM     58  C   UNL A   1      43.420  24.514  27.339  1.00  0.00     0.037 A 
ATOM     59  C   UNL A   1      45.845  30.967  28.502  1.00  0.00     0.037 A 
ATOM     60  C   UNL A   1      44.827  24.686  27.088  1.00  0.00     0.049 A 
ATOM     61  C   UNL A   1      46.752  29.842  28.080  1.00  0.00     0.074 A 
ATOM     62  C   UNL A   1      45.741  23.753  26.632  1.00  0.00     0.029 A 
ATOM     63  N   UNL A   1      45.522  25.870  27.277  1.00  0.00    -0.354 N 
ATOM     64  N   UNL A   1      46.452  28.598  27.797  1.00  0.00    -0.248 NA
ATOM     65  C   UNL A   1      48.184  30.157  27.953  1.00  0.00     0.031 C 
ATOM     66  C   UNL A   1      47.000  24.362  26.585  1.00  0.00     0.029 A 
ATOM     67  C   UNL A   1      46.859  25.686  26.969  1.00  0.00     0.049 A 
ATOM     68  H   UNL A   1      45.124  26.716  27.585  1.00  0.00     0.167 HD
ATOM     69  C   UNL A   1      47.647  27.991  27.432  1.00  0.00     0.074 A 
ATOM     70  C   UNL A   1      48.677  29.004  27.521  1.00  0.00     0.031 C 
ATOM     71  C   UNL A   1      47.871  26.708  27.053  1.00  0.00     0.037 A 
BRANCH  58  72
ATOM     72  C   UNL A   1      42.821  23.157  27.125  1.00  0.00     0.057 A 
ATOM     73  C   UNL A   1      42.545  22.664  25.843  1.00  0.00     0.134 A 
ATOM     74  C   UNL A   1      42.548  22.318  28.213  1.00  0.00     0.134 A 
ATOM     75  F   UNL A   1      42.769  23.424  24.760  1.00  0.00    -0.206 F 
ATOM     76  C   UNL A   1      41.999  21.393  25.652  1.00  0.00     0.040 A 
ATOM     77  C   UNL A   1      42.024  21.037  28.034  1.00  0.00     0.040 A 
ATOM     78  F   UNL A   1      42.794  22.728  29.467  1.00  0.00    -0.206 F 
ATOM     79  C   UNL A   1      41.744  20.574  26.750  1.00  0.00     0.006 A 
ENDBRANCH  58  72
BRANCH  59  80
ATOM     80  C   UNL A   1      46.395  32.321  28.762  1.00  0.00     0.057 A 
ATOM     81  C   UNL A   1      46.793  32.710  30.045  1.00  0.00     0.134 A 
ATOM     82  C   UNL A   1      46.514  33.265  27.734  1.00  0.00     0.134 A 
ATOM     83  F   UNL A   1      46.680  31.859  31.075  1.00  0.00    -0.206 F 
ATOM     84  C   UNL A   1      47.276  33.995  30.302  1.00  0.00     0.040 A 
ATOM     85  C   UNL A   1      47.016  34.545  27.972  1.00  0.00     0.040 A 
ATOM     86  F   UNL A   1      46.148  32.953  26.482  1.00  0.00    -0.206 F 
ATOM     87  C   UNL A   1      47.393  34.915  29.262  1.00  0.00     0.006 A 
ENDBRANCH  59  80
BRANCH  71  88
ATOM     88  C   UNL A   1      49.273  26.336  26.674  1.00  0.00     0.057 A 
ATOM     89  C   UNL A   1      50.131  25.679  27.565  1.00  0.00     0.134 A 
ATOM     90  C   UNL A   1      49.755  26.597  25.385  1.00  0.00     0.134 A 
ATOM     91  F   UNL A   1      49.733  25.410  28.817  1.00  0.00    -0.206 F 
ATOM     92  C   UNL A   1      51.425  25.311  27.192  1.00  0.00     0.040 A 
ATOM     93  C   UNL A   1      51.039  26.214  24.993  1.00  0.00     0.040 A 
ATOM     94  F   UNL A   1      48.980  27.216  24.480  1.00  0.00    -0.206 F 
ATOM     95  C   UNL A   1      51.879  25.574  25.900  1.00  0.00     0.006 A 
ENDBRANCH  71  88
ENDBRANCH  45  46
ENDBRANCH  38  40
ENDBRANCH  37  38
ENDBRANCH  36  37
ENDBRANCH  35  36
ENDBRANCH  34  35
ENDBRANCH  33  34
ENDBRANCH   1  33
TORSDOF 20
ENDMDL
