MODEL 1
REMARK VINA RESULT:     -10.1      0.000      0.000
REMARK SMILES CC[C@H]1SC[C@H](C(=O)OCCOCCOC(=O)c2ccc(-c3c4nc(c(-c5c(F)cccc5F)c5ccc([nH]5)c(-c5c(F)cccc5F)c5nc(c(-c6c(F)cccc6F)c6ccc3[nH]6)C=C5)C=C4)cc2)N1C(=O)C[C@@H]1CSCC[NH2+]1
REMARK SMILES IDX 11 1 10 2 9 3 7 4 8 5 6 6 3 7 4 8 72 9 5 10 2 11 1 12 73 13
REMARK SMILES IDX 74 14 75 15 76 16 77 17 81 18 78 19 80 20 79 23 12 24 13 25
REMARK SMILES IDX 14 26 15 27 16 28 17 29 18 30 19 31 71 32 20 33 70 34 21 35
REMARK SMILES IDX 22 36 23 37 64 38 24 39 69 40 63 41 65 42 25 43 68 44 62 45
REMARK SMILES IDX 61 46 26 48 52 49 35 50 51 51 36 52 39 53 50 54 66 55 37 56
REMARK SMILES IDX 38 57 49 59 67 60 40 61 27 62 28 63 33 64 29 65 30 66 32 67
REMARK SMILES IDX 34 68 31 69 53 70 54 71 59 72 55 73 56 74 58 75 60 76 57 77
REMARK SMILES IDX 41 78 42 79 47 80 43 81 44 82 46 83 48 84 45 85
REMARK H PARENT 81 21 81 22 65 47 39 58
REMARK Flexibility Score: inf
ROOT
ATOM      1  C   UNL A   1      39.530  22.335  26.395  1.00  0.00     0.202 C 
ENDROOT
BRANCH   1   2
ATOM      2  C   UNL A   1      38.406  21.569  25.685  1.00  0.00     0.261 C 
BRANCH   2   3
ATOM      3  O   UNL A   1      37.125  22.227  25.703  1.00  0.00    -0.462 OA
BRANCH   3   4
ATOM      4  C   UNL A   1      36.523  22.325  24.484  1.00  0.00     0.329 C 
ATOM      5  O   UNL A   1      37.080  22.760  23.476  1.00  0.00    -0.250 OA
BRANCH   4   6
ATOM      6  C   UNL A   1      35.145  21.652  24.397  1.00  0.00     0.206 C 
ATOM      7  C   UNL A   1      32.760  21.920  24.959  1.00  0.00     0.144 C 
ATOM      8  S   UNL A   1      33.594  21.614  26.561  1.00  0.00    -0.134 SA
ATOM      9  N   UNL A   1      33.901  22.439  24.192  1.00  0.00    -0.316 N 
ATOM     10  C   UNL A   1      34.990  20.836  25.697  1.00  0.00     0.109 C 
BRANCH   7  11
ATOM     11  C   UNL A   1      32.247  20.517  24.502  1.00  0.00     0.033 C 
ATOM     12  C   UNL A   1      32.276  20.205  23.014  1.00  0.00     0.007 C 
ENDBRANCH   7  11
BRANCH   9  13
ATOM     13  C   UNL A   1      33.953  23.475  23.280  1.00  0.00     0.230 C 
ATOM     14  O   UNL A   1      34.166  23.236  22.087  1.00  0.00    -0.275 OA
BRANCH  13  15
ATOM     15  C   UNL A   1      33.840  24.923  23.717  1.00  0.00     0.166 C 
BRANCH  15  16
ATOM     16  C   UNL A   1      32.806  25.794  22.959  1.00  0.00     0.201 C 
ATOM     17  C   UNL A   1      32.470  27.108  23.671  1.00  0.00     0.135 C 
ATOM     18  N   UNL A   1      31.623  25.123  22.393  1.00  0.00    -0.342 N 
ATOM     19  S   UNL A   1      31.337  26.921  25.077  1.00  0.00    -0.150 SA
ATOM     20  C   UNL A   1      30.530  24.853  23.337  1.00  0.00     0.271 C 
ATOM     21  H   UNL A   1      31.927  24.230  22.002  1.00  0.00     0.346 HD
ATOM     22  H   UNL A   1      31.241  25.770  21.704  1.00  0.00     0.346 HD
ATOM     23  C   UNL A   1      30.031  26.022  24.195  1.00  0.00     0.131 C 
ENDBRANCH  15  16
ENDBRANCH  13  15
ENDBRANCH   9  13
ENDBRANCH   4   6
ENDBRANCH   3   4
ENDBRANCH   2   3
ENDBRANCH   1   2
BRANCH   1  24
ATOM     24  O   UNL A   1      40.604  21.595  26.972  1.00  0.00    -0.374 OA
BRANCH  24  25
ATOM     25  C   UNL A   1      41.666  21.199  26.114  1.00  0.00     0.202 C 
BRANCH  25  26
ATOM     26  C   UNL A   1      42.883  22.125  26.003  1.00  0.00     0.261 C 
BRANCH  26  27
ATOM     27  O   UNL A   1      42.693  23.198  25.067  1.00  0.00    -0.460 OA
BRANCH  27  28
ATOM     28  C   UNL A   1      43.489  24.269  25.285  1.00  0.00     0.338 C 
ATOM     29  O   UNL A   1      44.593  24.487  24.801  1.00  0.00    -0.246 OA
BRANCH  28  30
ATOM     30  C   UNL A   1      42.797  25.273  26.108  1.00  0.00     0.060 A 
ATOM     31  C   UNL A   1      43.452  26.493  26.318  1.00  0.00     0.016 A 
ATOM     32  C   UNL A   1      41.610  24.974  26.779  1.00  0.00     0.016 A 
ATOM     33  C   UNL A   1      42.964  27.390  27.262  1.00  0.00     0.010 A 
ATOM     34  C   UNL A   1      41.126  25.873  27.735  1.00  0.00     0.010 A 
ATOM     35  C   UNL A   1      41.831  27.058  28.017  1.00  0.00    -0.014 A 
BRANCH  35  36
ATOM     36  C   UNL A   1      41.515  27.854  29.226  1.00  0.00     0.031 A 
ATOM     37  C   UNL A   1      40.332  28.784  29.189  1.00  0.00     0.074 A 
ATOM     38  C   UNL A   1      42.229  27.710  30.355  1.00  0.00     0.049 A 
ATOM     39  N   UNL A   1      39.869  29.579  30.119  1.00  0.00    -0.248 NA
ATOM     40  C   UNL A   1      39.567  28.821  27.932  1.00  0.00     0.031 C 
ATOM     41  C   UNL A   1      43.363  26.806  30.527  1.00  0.00     0.029 A 
ATOM     42  N   UNL A   1      42.098  28.328  31.572  1.00  0.00    -0.354 N 
ATOM     43  C   UNL A   1      38.766  30.212  29.561  1.00  0.00     0.074 A 
ATOM     44  C   UNL A   1      38.645  29.734  28.201  1.00  0.00     0.031 C 
ATOM     45  C   UNL A   1      43.832  26.932  31.781  1.00  0.00     0.029 A 
ATOM     46  C   UNL A   1      43.047  27.942  32.487  1.00  0.00     0.049 A 
ATOM     47  H   UNL A   1      41.393  28.984  31.771  1.00  0.00     0.167 HD
ATOM     48  C   UNL A   1      37.922  31.104  30.132  1.00  0.00     0.037 A 
ATOM     49  C   UNL A   1      43.260  28.369  33.746  1.00  0.00     0.037 A 
ATOM     50  C   UNL A   1      38.041  31.576  31.485  1.00  0.00     0.049 A 
ATOM     51  C   UNL A   1      42.344  29.407  34.341  1.00  0.00     0.074 A 
ATOM     52  C   UNL A   1      37.237  32.479  32.158  1.00  0.00     0.029 A 
ATOM     53  N   UNL A   1      39.031  31.181  32.373  1.00  0.00    -0.354 N 
ATOM     54  N   UNL A   1      41.299  29.992  33.806  1.00  0.00    -0.248 NA
ATOM     55  C   UNL A   1      42.634  29.836  35.716  1.00  0.00     0.031 C 
ATOM     56  C   UNL A   1      37.763  32.660  33.443  1.00  0.00     0.029 A 
ATOM     57  C   UNL A   1      38.867  31.834  33.583  1.00  0.00     0.049 A 
ATOM     58  H   UNL A   1      39.743  30.534  32.171  1.00  0.00     0.167 HD
ATOM     59  C   UNL A   1      40.787  30.830  34.790  1.00  0.00     0.074 A 
ATOM     60  C   UNL A   1      41.635  30.674  35.954  1.00  0.00     0.031 C 
ATOM     61  C   UNL A   1      39.711  31.653  34.735  1.00  0.00     0.037 A 
BRANCH  48  62
ATOM     62  C   UNL A   1      36.811  31.644  29.281  1.00  0.00     0.057 A 
ATOM     63  C   UNL A   1      35.658  30.896  29.009  1.00  0.00     0.134 A 
ATOM     64  C   UNL A   1      36.885  32.935  28.745  1.00  0.00     0.134 A 
ATOM     65  F   UNL A   1      35.532  29.646  29.479  1.00  0.00    -0.206 F 
ATOM     66  C   UNL A   1      34.628  31.406  28.215  1.00  0.00     0.040 A 
ATOM     67  C   UNL A   1      35.853  33.465  27.970  1.00  0.00     0.040 A 
ATOM     68  F   UNL A   1      37.962  33.706  28.969  1.00  0.00    -0.206 F 
ATOM     69  C   UNL A   1      34.722  32.697  27.699  1.00  0.00     0.006 A 
ENDBRANCH  48  62
BRANCH  49  70
ATOM     70  C   UNL A   1      44.391  27.820  34.535  1.00  0.00     0.057 A 
ATOM     71  C   UNL A   1      44.237  26.677  35.327  1.00  0.00     0.134 A 
ATOM     72  C   UNL A   1      45.648  28.438  34.528  1.00  0.00     0.134 A 
ATOM     73  F   UNL A   1      43.050  26.056  35.392  1.00  0.00    -0.206 F 
ATOM     74  C   UNL A   1      45.286  26.177  36.099  1.00  0.00     0.040 A 
ATOM     75  C   UNL A   1      46.713  27.934  35.277  1.00  0.00     0.040 A 
ATOM     76  F   UNL A   1      45.860  29.534  33.787  1.00  0.00    -0.206 F 
ATOM     77  C   UNL A   1      46.530  26.805  36.071  1.00  0.00     0.006 A 
ENDBRANCH  49  70
BRANCH  61  78
ATOM     78  C   UNL A   1      39.360  32.409  35.983  1.00  0.00     0.057 A 
ATOM     79  C   UNL A   1      39.926  33.655  36.280  1.00  0.00     0.134 A 
ATOM     80  C   UNL A   1      38.414  31.896  36.880  1.00  0.00     0.134 A 
ATOM     81  F   UNL A   1      40.847  34.195  35.468  1.00  0.00    -0.206 F 
ATOM     82  C   UNL A   1      39.579  34.355  37.438  1.00  0.00     0.040 A 
ATOM     83  C   UNL A   1      38.040  32.598  38.027  1.00  0.00     0.040 A 
ATOM     84  F   UNL A   1      37.827  30.712  36.649  1.00  0.00    -0.206 F 
ATOM     85  C   UNL A   1      38.629  33.828  38.312  1.00  0.00     0.006 A 
ENDBRANCH  61  78
ENDBRANCH  35  36
ENDBRANCH  28  30
ENDBRANCH  27  28
ENDBRANCH  26  27
ENDBRANCH  25  26
ENDBRANCH  24  25
ENDBRANCH   1  24
TORSDOF 18
ENDMDL
MODEL 2
REMARK VINA RESULT:     -10.1      4.799      9.708
REMARK SMILES CC[C@H]1SC[C@H](C(=O)OCCOCCOC(=O)c2ccc(-c3c4nc(c(-c5c(F)cccc5F)c5ccc([nH]5)c(-c5c(F)cccc5F)c5nc(c(-c6c(F)cccc6F)c6ccc3[nH]6)C=C5)C=C4)cc2)N1C(=O)C[C@@H]1CSCC[NH2+]1
REMARK SMILES IDX 11 1 10 2 9 3 7 4 8 5 6 6 3 7 4 8 72 9 5 10 2 11 1 12 73 13
REMARK SMILES IDX 74 14 75 15 76 16 77 17 81 18 78 19 80 20 79 23 12 24 13 25
REMARK SMILES IDX 14 26 15 27 16 28 17 29 18 30 19 31 71 32 20 33 70 34 21 35
REMARK SMILES IDX 22 36 23 37 64 38 24 39 69 40 63 41 65 42 25 43 68 44 62 45
REMARK SMILES IDX 61 46 26 48 52 49 35 50 51 51 36 52 39 53 50 54 66 55 37 56
REMARK SMILES IDX 38 57 49 59 67 60 40 61 27 62 28 63 33 64 29 65 30 66 32 67
REMARK SMILES IDX 34 68 31 69 53 70 54 71 59 72 55 73 56 74 58 75 60 76 57 77
REMARK SMILES IDX 41 78 42 79 47 80 43 81 44 82 46 83 48 84 45 85
REMARK H PARENT 81 21 81 22 65 47 39 58
REMARK Flexibility Score: inf
ROOT
ATOM      1  C   UNL A   1      33.590  30.830  27.418  1.00  0.00     0.202 C 
ENDROOT
BRANCH   1   2
ATOM      2  C   UNL A   1      34.314  29.478  27.374  1.00  0.00     0.261 C 
BRANCH   2   3
ATOM      3  O   UNL A   1      33.445  28.329  27.386  1.00  0.00    -0.462 OA
BRANCH   3   4
ATOM      4  C   UNL A   1      33.342  27.688  26.188  1.00  0.00     0.329 C 
ATOM      5  O   UNL A   1      34.049  26.736  25.854  1.00  0.00    -0.250 OA
BRANCH   4   6
ATOM      6  C   UNL A   1      32.126  28.101  25.345  1.00  0.00     0.206 C 
ATOM      7  C   UNL A   1      30.703  27.437  23.445  1.00  0.00     0.144 C 
ATOM      8  S   UNL A   1      32.291  27.954  22.692  1.00  0.00    -0.134 SA
ATOM      9  N   UNL A   1      31.179  27.097  24.793  1.00  0.00    -0.316 N 
ATOM     10  C   UNL A   1      32.687  28.930  24.171  1.00  0.00     0.109 C 
BRANCH   7  11
ATOM     11  C   UNL A   1      29.795  28.707  23.371  1.00  0.00     0.033 C 
ATOM     12  C   UNL A   1      29.885  29.567  22.121  1.00  0.00     0.007 C 
ENDBRANCH   7  11
BRANCH   9  13
ATOM     13  C   UNL A   1      30.819  26.050  25.618  1.00  0.00     0.230 C 
ATOM     14  O   UNL A   1      30.433  26.277  26.769  1.00  0.00    -0.275 OA
BRANCH  13  15
ATOM     15  C   UNL A   1      30.964  24.606  25.176  1.00  0.00     0.166 C 
BRANCH  15  16
ATOM     16  C   UNL A   1      31.368  23.586  26.271  1.00  0.00     0.201 C 
ATOM     17  C   UNL A   1      32.820  23.727  26.736  1.00  0.00     0.135 C 
ATOM     18  N   UNL A   1      30.948  22.185  26.096  1.00  0.00    -0.342 N 
ATOM     19  S   UNL A   1      34.038  23.028  25.584  1.00  0.00    -0.150 SA
ATOM     20  C   UNL A   1      31.784  21.376  25.199  1.00  0.00     0.271 C 
ATOM     21  H   UNL A   1      29.998  22.187  25.722  1.00  0.00     0.346 HD
ATOM     22  H   UNL A   1      31.031  21.755  27.016  1.00  0.00     0.346 HD
ATOM     23  C   UNL A   1      33.297  21.377  25.449  1.00  0.00     0.131 C 
ENDBRANCH  15  16
ENDBRANCH  13  15
ENDBRANCH   9  13
ENDBRANCH   4   6
ENDBRANCH   3   4
ENDBRANCH   2   3
ENDBRANCH   1   2
BRANCH   1  24
ATOM     24  O   UNL A   1      34.369  32.024  27.451  1.00  0.00    -0.374 OA
BRANCH  24  25
ATOM     25  C   UNL A   1      34.053  32.988  28.448  1.00  0.00     0.202 C 
BRANCH  25  26
ATOM     26  C   UNL A   1      34.697  32.832  29.829  1.00  0.00     0.261 C 
BRANCH  26  27
ATOM     27  O   UNL A   1      36.042  32.331  29.772  1.00  0.00    -0.460 OA
BRANCH  27  28
ATOM     28  C   UNL A   1      36.307  31.354  30.668  1.00  0.00     0.338 C 
ATOM     29  O   UNL A   1      35.718  31.127  31.718  1.00  0.00    -0.246 OA
BRANCH  28  30
ATOM     30  C   UNL A   1      37.350  30.449  30.160  1.00  0.00     0.060 A 
ATOM     31  C   UNL A   1      38.140  29.784  31.106  1.00  0.00     0.016 A 
ATOM     32  C   UNL A   1      37.647  30.370  28.798  1.00  0.00     0.016 A 
ATOM     33  C   UNL A   1      39.281  29.098  30.701  1.00  0.00     0.010 A 
ATOM     34  C   UNL A   1      38.800  29.687  28.393  1.00  0.00     0.010 A 
ATOM     35  C   UNL A   1      39.647  29.097  29.349  1.00  0.00    -0.014 A 
BRANCH  35  36
ATOM     36  C   UNL A   1      41.011  28.653  28.976  1.00  0.00     0.031 A 
ATOM     37  C   UNL A   1      42.139  29.648  29.051  1.00  0.00     0.074 A 
ATOM     38  C   UNL A   1      41.254  27.377  28.633  1.00  0.00     0.049 A 
ATOM     39  N   UNL A   1      43.407  29.489  28.771  1.00  0.00    -0.248 NA
ATOM     40  C   UNL A   1      41.788  31.003  29.505  1.00  0.00     0.031 C 
ATOM     41  C   UNL A   1      40.254  26.314  28.574  1.00  0.00     0.029 A 
ATOM     42  N   UNL A   1      42.426  26.762  28.274  1.00  0.00    -0.354 N 
ATOM     43  C   UNL A   1      44.002  30.722  29.009  1.00  0.00     0.074 A 
ATOM     44  C   UNL A   1      42.954  31.627  29.427  1.00  0.00     0.031 C 
ATOM     45  C   UNL A   1      40.855  25.173  28.191  1.00  0.00     0.029 A 
ATOM     46  C   UNL A   1      42.274  25.435  27.957  1.00  0.00     0.049 A 
ATOM     47  H   UNL A   1      43.292  27.228  28.246  1.00  0.00     0.167 HD
ATOM     48  C   UNL A   1      45.308  31.067  28.900  1.00  0.00     0.037 A 
ATOM     49  C   UNL A   1      43.179  24.542  27.515  1.00  0.00     0.037 A 
ATOM     50  C   UNL A   1      46.350  30.165  28.488  1.00  0.00     0.049 A 
ATOM     51  C   UNL A   1      44.615  24.963  27.345  1.00  0.00     0.074 A 
ATOM     52  C   UNL A   1      47.703  30.417  28.346  1.00  0.00     0.029 A 
ATOM     53  N   UNL A   1      46.152  28.835  28.151  1.00  0.00    -0.354 N 
ATOM     54  N   UNL A   1      45.168  26.129  27.581  1.00  0.00    -0.248 NA
ATOM     55  C   UNL A   1      45.551  23.944  26.853  1.00  0.00     0.031 C 
ATOM     56  C   UNL A   1      48.319  29.248  27.886  1.00  0.00     0.029 A 
ATOM     57  C   UNL A   1      47.356  28.257  27.786  1.00  0.00     0.049 A 
ATOM     58  H   UNL A   1      45.284  28.372  28.167  1.00  0.00     0.167 HD
ATOM     59  C   UNL A   1      46.520  25.972  27.302  1.00  0.00     0.074 A 
ATOM     60  C   UNL A   1      46.703  24.599  26.882  1.00  0.00     0.031 C 
ATOM     61  C   UNL A   1      47.521  26.883  27.387  1.00  0.00     0.037 A 
BRANCH  48  62
ATOM     62  C   UNL A   1      45.672  32.489  29.209  1.00  0.00     0.057 A 
ATOM     63  C   UNL A   1      45.646  33.489  28.228  1.00  0.00     0.134 A 
ATOM     64  C   UNL A   1      46.031  32.867  30.509  1.00  0.00     0.134 A 
ATOM     65  F   UNL A   1      45.326  33.189  26.961  1.00  0.00    -0.206 F 
ATOM     66  C   UNL A   1      45.987  34.810  28.525  1.00  0.00     0.040 A 
ATOM     67  C   UNL A   1      46.351  34.188  30.823  1.00  0.00     0.040 A 
ATOM     68  F   UNL A   1      46.073  31.958  31.496  1.00  0.00    -0.206 F 
ATOM     69  C   UNL A   1      46.335  35.164  29.827  1.00  0.00     0.006 A 
ENDBRANCH  48  62
BRANCH  49  70
ATOM     70  C   UNL A   1      42.758  23.153  27.199  1.00  0.00     0.057 A 
ATOM     71  C   UNL A   1      42.534  22.745  25.880  1.00  0.00     0.134 A 
ATOM     72  C   UNL A   1      42.552  22.209  28.213  1.00  0.00     0.134 A 
ATOM     73  F   UNL A   1      42.693  23.611  24.869  1.00  0.00    -0.206 F 
ATOM     74  C   UNL A   1      42.104  21.451  25.580  1.00  0.00     0.040 A 
ATOM     75  C   UNL A   1      42.144  20.905  27.924  1.00  0.00     0.040 A 
ATOM     76  F   UNL A   1      42.751  22.539  29.497  1.00  0.00    -0.206 F 
ATOM     77  C   UNL A   1      41.912  20.527  26.604  1.00  0.00     0.006 A 
ENDBRANCH  49  70
BRANCH  61  78
ATOM     78  C   UNL A   1      48.909  26.411  27.068  1.00  0.00     0.057 A 
ATOM     79  C   UNL A   1      49.742  25.842  28.039  1.00  0.00     0.134 A 
ATOM     80  C   UNL A   1      49.403  26.494  25.759  1.00  0.00     0.134 A 
ATOM     81  F   UNL A   1      49.332  25.744  29.313  1.00  0.00    -0.206 F 
ATOM     82  C   UNL A   1      51.026  25.393  27.725  1.00  0.00     0.040 A 
ATOM     83  C   UNL A   1      50.675  26.026  25.428  1.00  0.00     0.040 A 
ATOM     84  F   UNL A   1      48.652  27.019  24.779  1.00  0.00    -0.206 F 
ATOM     85  C   UNL A   1      51.493  25.479  26.415  1.00  0.00     0.006 A 
ENDBRANCH  61  78
ENDBRANCH  35  36
ENDBRANCH  28  30
ENDBRANCH  27  28
ENDBRANCH  26  27
ENDBRANCH  25  26
ENDBRANCH  24  25
ENDBRANCH   1  24
TORSDOF 18
ENDMDL
MODEL 3
REMARK VINA RESULT:      -9.7      3.156      8.428
REMARK SMILES CC[C@H]1SC[C@H](C(=O)OCCOCCOC(=O)c2ccc(-c3c4nc(c(-c5c(F)cccc5F)c5ccc([nH]5)c(-c5c(F)cccc5F)c5nc(c(-c6c(F)cccc6F)c6ccc3[nH]6)C=C5)C=C4)cc2)N1C(=O)C[C@@H]1CSCC[NH2+]1
REMARK SMILES IDX 11 1 10 2 9 3 7 4 8 5 6 6 3 7 4 8 72 9 5 10 2 11 1 12 73 13
REMARK SMILES IDX 74 14 75 15 76 16 77 17 81 18 78 19 80 20 79 23 12 24 13 25
REMARK SMILES IDX 14 26 15 27 16 28 17 29 18 30 19 31 71 32 20 33 70 34 21 35
REMARK SMILES IDX 22 36 23 37 64 38 24 39 69 40 63 41 65 42 25 43 68 44 62 45
REMARK SMILES IDX 61 46 26 48 52 49 35 50 51 51 36 52 39 53 50 54 66 55 37 56
REMARK SMILES IDX 38 57 49 59 67 60 40 61 27 62 28 63 33 64 29 65 30 66 32 67
REMARK SMILES IDX 34 68 31 69 53 70 54 71 59 72 55 73 56 74 58 75 60 76 57 77
REMARK SMILES IDX 41 78 42 79 47 80 43 81 44 82 46 83 48 84 45 85
REMARK H PARENT 81 21 81 22 65 47 39 58
REMARK Flexibility Score: inf
ROOT
ATOM      1  C   UNL A   1      33.761  30.549  27.604  1.00  0.00     0.202 C 
ENDROOT
BRANCH   1   2
ATOM      2  C   UNL A   1      33.252  29.391  26.735  1.00  0.00     0.261 C 
BRANCH   2   3
ATOM      3  O   UNL A   1      34.230  28.845  25.829  1.00  0.00    -0.462 OA
BRANCH   3   4
ATOM      4  C   UNL A   1      33.734  28.493  24.609  1.00  0.00     0.329 C 
ATOM      5  O   UNL A   1      34.349  28.628  23.552  1.00  0.00    -0.250 OA
BRANCH   4   6
ATOM      6  C   UNL A   1      32.413  27.709  24.660  1.00  0.00     0.206 C 
ATOM      7  C   UNL A   1      31.222  25.754  23.744  1.00  0.00     0.144 C 
ATOM      8  S   UNL A   1      31.270  26.968  22.372  1.00  0.00    -0.134 SA
ATOM      9  N   UNL A   1      32.375  26.230  24.521  1.00  0.00    -0.316 N 
ATOM     10  C   UNL A   1      31.517  28.319  23.561  1.00  0.00     0.109 C 
BRANCH   7  11
ATOM     11  C   UNL A   1      29.834  25.978  24.426  1.00  0.00     0.033 C 
ATOM     12  C   UNL A   1      29.679  25.534  25.871  1.00  0.00     0.007 C 
ENDBRANCH   7  11
BRANCH   9  13
ATOM     13  C   UNL A   1      33.351  25.509  25.182  1.00  0.00     0.230 C 
ATOM     14  O   UNL A   1      33.286  25.365  26.407  1.00  0.00    -0.275 OA
BRANCH  13  15
ATOM     15  C   UNL A   1      34.559  24.953  24.452  1.00  0.00     0.166 C 
BRANCH  15  16
ATOM     16  C   UNL A   1      34.438  23.502  23.923  1.00  0.00     0.201 C 
ATOM     17  C   UNL A   1      33.773  22.540  24.912  1.00  0.00     0.135 C 
ATOM     18  N   UNL A   1      35.607  22.917  23.243  1.00  0.00    -0.342 N 
ATOM     19  S   UNL A   1      34.859  21.997  26.261  1.00  0.00    -0.150 SA
ATOM     20  C   UNL A   1      36.656  22.386  24.122  1.00  0.00     0.271 C 
ATOM     21  H   UNL A   1      36.025  23.643  22.660  1.00  0.00     0.346 HD
ATOM     22  H   UNL A   1      35.251  22.118  22.719  1.00  0.00     0.346 HD
ATOM     23  C   UNL A   1      36.228  21.409  25.225  1.00  0.00     0.131 C 
ENDBRANCH  15  16
ENDBRANCH  13  15
ENDBRANCH   9  13
ENDBRANCH   4   6
ENDBRANCH   3   4
ENDBRANCH   2   3
ENDBRANCH   1   2
BRANCH   1  24
ATOM     24  O   UNL A   1      33.710  31.873  27.079  1.00  0.00    -0.374 OA
BRANCH  24  25
ATOM     25  C   UNL A   1      32.563  32.658  27.383  1.00  0.00     0.202 C 
BRANCH  25  26
ATOM     26  C   UNL A   1      32.769  34.148  27.674  1.00  0.00     0.261 C 
BRANCH  26  27
ATOM     27  O   UNL A   1      32.486  34.503  29.037  1.00  0.00    -0.460 OA
BRANCH  27  28
ATOM     28  C   UNL A   1      33.554  34.972  29.719  1.00  0.00     0.338 C 
ATOM     29  O   UNL A   1      33.629  36.012  30.363  1.00  0.00    -0.246 OA
BRANCH  28  30
ATOM     30  C   UNL A   1      34.644  33.985  29.724  1.00  0.00     0.060 A 
ATOM     31  C   UNL A   1      34.455  32.822  30.481  1.00  0.00     0.016 A 
ATOM     32  C   UNL A   1      35.877  34.257  29.127  1.00  0.00     0.016 A 
ATOM     33  C   UNL A   1      35.523  31.961  30.712  1.00  0.00     0.010 A 
ATOM     34  C   UNL A   1      36.953  33.395  29.369  1.00  0.00     0.010 A 
ATOM     35  C   UNL A   1      36.791  32.275  30.205  1.00  0.00    -0.014 A 
BRANCH  35  36
ATOM     36  C   UNL A   1      37.972  31.542  30.720  1.00  0.00     0.031 A 
ATOM     37  C   UNL A   1      38.439  31.822  32.124  1.00  0.00     0.074 A 
ATOM     38  C   UNL A   1      38.580  30.602  29.977  1.00  0.00     0.049 A 
ATOM     39  N   UNL A   1      39.445  31.308  32.783  1.00  0.00    -0.248 NA
ATOM     40  C   UNL A   1      37.665  32.816  32.885  1.00  0.00     0.031 C 
ATOM     41  C   UNL A   1      38.189  30.208  28.627  1.00  0.00     0.029 A 
ATOM     42  N   UNL A   1      39.661  29.807  30.264  1.00  0.00    -0.354 N 
ATOM     43  C   UNL A   1      39.428  31.917  34.031  1.00  0.00     0.074 A 
ATOM     44  C   UNL A   1      38.333  32.861  34.029  1.00  0.00     0.031 C 
ATOM     45  C   UNL A   1      39.024  29.247  28.195  1.00  0.00     0.029 A 
ATOM     46  C   UNL A   1      40.021  28.979  29.230  1.00  0.00     0.049 A 
ATOM     47  H   UNL A   1      40.133  29.829  31.127  1.00  0.00     0.167 HD
ATOM     48  C   UNL A   1      40.246  31.702  35.090  1.00  0.00     0.037 A 
ATOM     49  C   UNL A   1      41.047  28.113  29.131  1.00  0.00     0.037 A 
ATOM     50  C   UNL A   1      41.334  30.761  35.092  1.00  0.00     0.049 A 
ATOM     51  C   UNL A   1      41.980  27.933  30.300  1.00  0.00     0.074 A 
ATOM     52  C   UNL A   1      42.220  30.468  36.114  1.00  0.00     0.029 A 
ATOM     53  N   UNL A   1      41.682  29.958  34.017  1.00  0.00    -0.354 N 
ATOM     54  N   UNL A   1      41.949  28.509  31.479  1.00  0.00    -0.248 NA
ATOM     55  C   UNL A   1      43.084  26.980  30.126  1.00  0.00     0.031 C 
ATOM     56  C   UNL A   1      43.130  29.515  35.643  1.00  0.00     0.029 A 
ATOM     57  C   UNL A   1      42.781  29.181  34.345  1.00  0.00     0.049 A 
ATOM     58  H   UNL A   1      41.218  29.943  33.150  1.00  0.00     0.167 HD
ATOM     59  C   UNL A   1      43.006  27.961  32.197  1.00  0.00     0.074 A 
ATOM     60  C   UNL A   1      43.654  27.006  31.322  1.00  0.00     0.031 C 
ATOM     61  C   UNL A   1      43.402  28.224  33.466  1.00  0.00     0.037 A 
BRANCH  48  62
ATOM     62  C   UNL A   1      40.006  32.522  36.323  1.00  0.00     0.057 A 
ATOM     63  C   UNL A   1      40.787  33.644  36.629  1.00  0.00     0.134 A 
ATOM     64  C   UNL A   1      38.967  32.197  37.204  1.00  0.00     0.134 A 
ATOM     65  F   UNL A   1      41.808  33.999  35.834  1.00  0.00    -0.206 F 
ATOM     66  C   UNL A   1      40.556  34.401  37.779  1.00  0.00     0.040 A 
ATOM     67  C   UNL A   1      38.712  32.960  38.344  1.00  0.00     0.040 A 
ATOM     68  F   UNL A   1      38.180  31.136  36.968  1.00  0.00    -0.206 F 
ATOM     69  C   UNL A   1      39.512  34.063  38.637  1.00  0.00     0.006 A 
ENDBRANCH  48  62
BRANCH  49  70
ATOM     70  C   UNL A   1      41.253  27.347  27.876  1.00  0.00     0.057 A 
ATOM     71  C   UNL A   1      40.769  26.042  27.735  1.00  0.00     0.134 A 
ATOM     72  C   UNL A   1      41.957  27.896  26.798  1.00  0.00     0.134 A 
ATOM     73  F   UNL A   1      40.108  25.454  28.742  1.00  0.00    -0.206 F 
ATOM     74  C   UNL A   1      40.991  25.303  26.572  1.00  0.00     0.040 A 
ATOM     75  C   UNL A   1      42.166  27.177  25.619  1.00  0.00     0.040 A 
ATOM     76  F   UNL A   1      42.444  29.143  26.871  1.00  0.00    -0.206 F 
ATOM     77  C   UNL A   1      41.688  25.873  25.508  1.00  0.00     0.006 A 
ENDBRANCH  49  70
BRANCH  61  78
ATOM     78  C   UNL A   1      44.559  27.433  34.003  1.00  0.00     0.057 A 
ATOM     79  C   UNL A   1      44.388  26.174  34.591  1.00  0.00     0.134 A 
ATOM     80  C   UNL A   1      45.866  27.926  33.894  1.00  0.00     0.134 A 
ATOM     81  F   UNL A   1      43.161  25.651  34.736  1.00  0.00    -0.206 F 
ATOM     82  C   UNL A   1      45.475  25.442  35.073  1.00  0.00     0.040 A 
ATOM     83  C   UNL A   1      46.962  27.192  34.349  1.00  0.00     0.040 A 
ATOM     84  F   UNL A   1      46.099  29.121  33.331  1.00  0.00    -0.206 F 
ATOM     85  C   UNL A   1      46.768  25.949  34.946  1.00  0.00     0.006 A 
ENDBRANCH  61  78
ENDBRANCH  35  36
ENDBRANCH  28  30
ENDBRANCH  27  28
ENDBRANCH  26  27
ENDBRANCH  25  26
ENDBRANCH  24  25
ENDBRANCH   1  24
TORSDOF 18
ENDMDL
