MODEL 1
REMARK VINA RESULT:     -12.1      0.000      0.000
REMARK SMILES O=C(OCCOCCOC(=O)[C@H]1CC=CC[C@@H]1C(=O)Nc1ccccc1C(=O)NCc1ccco1)c1ccc(-c2c3nc(c(-c4c(F)cccc4F)c4ccc([nH]4)c(-c4c(F)cccc4F)c4nc(c(-c5c(F)cccc5F)c5ccc2[nH]5)C=C4)C=C3)cc1
REMARK SMILES IDX 7 1 6 2 5 3 4 4 3 5 2 6 1 7 36 8 37 9 89 10 38 11 88 12
REMARK SMILES IDX 39 13 40 14 41 15 82 16 42 17 87 18 81 19 83 20 43 21 86 22
REMARK SMILES IDX 80 23 79 24 44 26 70 27 53 28 69 29 54 30 57 31 68 32 84 33
REMARK SMILES IDX 55 34 56 35 67 37 85 38 58 39 45 40 46 41 51 42 47 43 48 44
REMARK SMILES IDX 50 45 52 46 49 47 71 48 72 49 77 50 73 51 74 52 76 53 78 54
REMARK SMILES IDX 75 55 59 56 60 57 65 58 61 59 62 60 64 61 66 62 63 63 8 64
REMARK SMILES IDX 9 65 10 66 11 67 12 68 13 69 17 70 14 71 16 72 15 73 18 74
REMARK SMILES IDX 19 75 20 76 21 78 22 79 26 80 23 81 25 82 24 83 27 84 28 85
REMARK SMILES IDX 29 86 30 88 31 89 32 90 35 91 33 92 34 93
REMARK H PARENT 83 25 57 36 20 77 29 87
REMARK Flexibility Score: inf
ROOT
ATOM      1  C   UNL A   1      30.872  28.943  22.355  1.00  0.00     0.202 C 
ENDROOT
BRANCH   1   2
ATOM      2  O   UNL A   1      31.660  29.335  23.489  1.00  0.00    -0.374 OA
BRANCH   2   3
ATOM      3  C   UNL A   1      30.923  29.764  24.627  1.00  0.00     0.202 C 
BRANCH   3   4
ATOM      4  C   UNL A   1      31.583  29.553  25.990  1.00  0.00     0.261 C 
BRANCH   4   5
ATOM      5  O   UNL A   1      32.906  30.125  26.056  1.00  0.00    -0.460 OA
BRANCH   5   6
ATOM      6  C   UNL A   1      33.293  31.011  27.031  1.00  0.00     0.338 C 
ATOM      7  O   UNL A   1      32.558  31.860  27.483  1.00  0.00    -0.246 OA
BRANCH   6   8
ATOM      8  C   UNL A   1      34.694  30.881  27.488  1.00  0.00     0.060 A 
ATOM      9  C   UNL A   1      35.152  29.613  27.783  1.00  0.00     0.016 A 
ATOM     10  C   UNL A   1      35.482  31.987  27.769  1.00  0.00     0.016 A 
ATOM     11  C   UNL A   1      36.222  29.450  28.634  1.00  0.00     0.010 A 
ATOM     12  C   UNL A   1      36.712  31.792  28.418  1.00  0.00     0.010 A 
ATOM     13  C   UNL A   1      37.077  30.519  28.899  1.00  0.00    -0.014 A 
BRANCH  13  14
ATOM     14  C   UNL A   1      38.332  30.275  29.664  1.00  0.00     0.031 A 
ATOM     15  C   UNL A   1      39.455  29.503  29.035  1.00  0.00     0.074 A 
ATOM     16  C   UNL A   1      38.491  30.766  30.913  1.00  0.00     0.049 A 
ATOM     17  N   UNL A   1      40.433  28.859  29.613  1.00  0.00    -0.248 NA
ATOM     18  C   UNL A   1      39.466  29.417  27.566  1.00  0.00     0.031 C 
ATOM     19  C   UNL A   1      37.534  31.613  31.634  1.00  0.00     0.029 A 
ATOM     20  N   UNL A   1      39.534  30.648  31.798  1.00  0.00    -0.354 N 
ATOM     21  C   UNL A   1      41.105  28.199  28.593  1.00  0.00     0.074 A 
ATOM     22  C   UNL A   1      40.453  28.559  27.353  1.00  0.00     0.031 C 
ATOM     23  C   UNL A   1      38.076  32.026  32.786  1.00  0.00     0.029 A 
ATOM     24  C   UNL A   1      39.323  31.311  32.983  1.00  0.00     0.049 A 
ATOM     25  H   UNL A   1      40.353  30.138  31.602  1.00  0.00     0.167 HD
ATOM     26  C   UNL A   1      42.148  27.343  28.708  1.00  0.00     0.037 A 
ATOM     27  C   UNL A   1      39.995  31.272  34.148  1.00  0.00     0.037 A 
ATOM     28  C   UNL A   1      42.814  27.073  29.956  1.00  0.00     0.049 A 
ATOM     29  C   UNL A   1      41.139  30.316  34.262  1.00  0.00     0.074 A 
ATOM     30  C   UNL A   1      43.828  26.172  30.229  1.00  0.00     0.029 A 
ATOM     31  N   UNL A   1      42.550  27.748  31.140  1.00  0.00    -0.354 N 
ATOM     32  N   UNL A   1      41.641  29.521  33.348  1.00  0.00    -0.248 NA
ATOM     33  C   UNL A   1      41.771  30.201  35.581  1.00  0.00     0.031 C 
ATOM     34  C   UNL A   1      44.173  26.299  31.581  1.00  0.00     0.029 A 
ATOM     35  C   UNL A   1      43.393  27.299  32.142  1.00  0.00     0.049 A 
ATOM     36  H   UNL A   1      41.864  28.445  31.251  1.00  0.00     0.167 HD
ATOM     37  C   UNL A   1      42.637  28.798  33.982  1.00  0.00     0.074 A 
ATOM     38  C   UNL A   1      42.692  29.276  35.351  1.00  0.00     0.031 C 
ATOM     39  C   UNL A   1      43.421  27.809  33.488  1.00  0.00     0.037 A 
BRANCH  26  40
ATOM     40  C   UNL A   1      42.566  26.596  27.477  1.00  0.00     0.057 A 
ATOM     41  C   UNL A   1      42.024  25.353  27.127  1.00  0.00     0.134 A 
ATOM     42  C   UNL A   1      43.547  27.131  26.630  1.00  0.00     0.134 A 
ATOM     43  F   UNL A   1      41.099  24.773  27.906  1.00  0.00    -0.206 F 
ATOM     44  C   UNL A   1      42.459  24.659  25.995  1.00  0.00     0.040 A 
ATOM     45  C   UNL A   1      43.974  26.457  25.484  1.00  0.00     0.040 A 
ATOM     46  F   UNL A   1      44.111  28.317  26.905  1.00  0.00    -0.206 F 
ATOM     47  C   UNL A   1      43.436  25.213  25.169  1.00  0.00     0.006 A 
ENDBRANCH  26  40
BRANCH  27  48
ATOM     48  C   UNL A   1      39.518  32.066  35.311  1.00  0.00     0.057 A 
ATOM     49  C   UNL A   1      38.604  31.530  36.224  1.00  0.00     0.134 A 
ATOM     50  C   UNL A   1      39.991  33.362  35.562  1.00  0.00     0.134 A 
ATOM     51  F   UNL A   1      38.092  30.307  36.028  1.00  0.00    -0.206 F 
ATOM     52  C   UNL A   1      38.183  32.251  37.344  1.00  0.00     0.040 A 
ATOM     53  C   UNL A   1      39.607  34.078  36.695  1.00  0.00     0.040 A 
ATOM     54  F   UNL A   1      40.870  33.937  34.727  1.00  0.00    -0.206 F 
ATOM     55  C   UNL A   1      38.696  33.524  37.590  1.00  0.00     0.006 A 
ENDBRANCH  27  48
BRANCH  39  56
ATOM     56  C   UNL A   1      44.414  27.221  34.437  1.00  0.00     0.057 A 
ATOM     57  C   UNL A   1      44.106  26.099  35.216  1.00  0.00     0.134 A 
ATOM     58  C   UNL A   1      45.686  27.786  34.573  1.00  0.00     0.134 A 
ATOM     59  F   UNL A   1      42.893  25.530  35.141  1.00  0.00    -0.206 F 
ATOM     60  C   UNL A   1      45.030  25.568  36.115  1.00  0.00     0.040 A 
ATOM     61  C   UNL A   1      46.623  27.253  35.457  1.00  0.00     0.040 A 
ATOM     62  F   UNL A   1      46.033  28.865  33.854  1.00  0.00    -0.206 F 
ATOM     63  C   UNL A   1      46.293  26.144  36.234  1.00  0.00     0.006 A 
ENDBRANCH  39  56
ENDBRANCH  13  14
ENDBRANCH   6   8
ENDBRANCH   5   6
ENDBRANCH   4   5
ENDBRANCH   3   4
ENDBRANCH   2   3
ENDBRANCH   1   2
BRANCH   1  64
ATOM     64  C   UNL A   1      29.759  28.015  22.842  1.00  0.00     0.261 C 
BRANCH  64  65
ATOM     65  O   UNL A   1      30.315  26.695  22.910  1.00  0.00    -0.463 OA
BRANCH  65  66
ATOM     66  C   UNL A   1      30.279  26.090  24.122  1.00  0.00     0.310 C 
ATOM     67  O   UNL A   1      29.319  26.133  24.882  1.00  0.00    -0.252 OA
BRANCH  66  68
ATOM     68  C   UNL A   1      31.582  25.350  24.442  1.00  0.00     0.116 C 
ATOM     69  C   UNL A   1      32.690  25.975  23.560  1.00  0.00     0.043 C 
ATOM     70  C   UNL A   1      31.914  25.248  25.953  1.00  0.00     0.097 C 
ATOM     71  C   UNL A   1      33.853  26.601  24.266  1.00  0.00    -0.030 C 
ATOM     72  C   UNL A   1      32.872  26.304  26.524  1.00  0.00     0.041 C 
ATOM     73  C   UNL A   1      33.940  26.751  25.589  1.00  0.00    -0.030 C 
BRANCH  70  74
ATOM     74  C   UNL A   1      32.187  23.891  26.595  1.00  0.00     0.228 C 
ATOM     75  O   UNL A   1      31.376  23.470  27.438  1.00  0.00    -0.274 OA
ATOM     76  N   UNL A   1      33.225  23.054  26.363  1.00  0.00    -0.325 N 
ATOM     77  H   UNL A   1      33.226  22.252  26.934  1.00  0.00     0.169 HD
BRANCH  76  78
ATOM     78  C   UNL A   1      34.292  23.112  25.470  1.00  0.00     0.054 A 
ATOM     79  C   UNL A   1      35.455  23.683  26.034  1.00  0.00     0.027 A 
ATOM     80  C   UNL A   1      34.295  22.693  24.131  1.00  0.00     0.063 A 
ATOM     81  C   UNL A   1      36.661  23.714  25.341  1.00  0.00     0.002 A 
ATOM     82  C   UNL A   1      35.544  22.729  23.458  1.00  0.00     0.016 A 
ATOM     83  C   UNL A   1      36.713  23.209  24.055  1.00  0.00     0.001 A 
BRANCH  80  84
ATOM     84  C   UNL A   1      33.177  22.200  23.260  1.00  0.00     0.253 C 
ATOM     85  O   UNL A   1      32.930  22.834  22.227  1.00  0.00    -0.269 OA
ATOM     86  N   UNL A   1      32.352  21.145  23.503  1.00  0.00    -0.345 N 
ATOM     87  H   UNL A   1      31.655  21.047  22.813  1.00  0.00     0.164 HD
BRANCH  86  88
ATOM     88  C   UNL A   1      32.256  20.137  24.528  1.00  0.00     0.191 C 
BRANCH  88  89
ATOM     89  C   UNL A   1      33.077  18.950  24.165  1.00  0.00     0.122 A 
ATOM     90  C   UNL A   1      32.794  17.803  23.453  1.00  0.00     0.047 A 
ATOM     91  O   UNL A   1      34.353  18.889  24.655  1.00  0.00    -0.467 OA
ATOM     92  C   UNL A   1      33.965  17.009  23.491  1.00  0.00     0.042 A 
ATOM     93  C   UNL A   1      34.883  17.713  24.233  1.00  0.00     0.195 A 
ENDBRANCH  88  89
ENDBRANCH  86  88
ENDBRANCH  80  84
ENDBRANCH  76  78
ENDBRANCH  70  74
ENDBRANCH  66  68
ENDBRANCH  65  66
ENDBRANCH  64  65
ENDBRANCH   1  64
TORSDOF 19
ENDMDL
MODEL 2
REMARK VINA RESULT:     -11.9      3.675      8.447
REMARK SMILES O=C(OCCOCCOC(=O)[C@H]1CC=CC[C@@H]1C(=O)Nc1ccccc1C(=O)NCc1ccco1)c1ccc(-c2c3nc(c(-c4c(F)cccc4F)c4ccc([nH]4)c(-c4c(F)cccc4F)c4nc(c(-c5c(F)cccc5F)c5ccc2[nH]5)C=C4)C=C3)cc1
REMARK SMILES IDX 7 1 6 2 5 3 4 4 3 5 2 6 1 7 36 8 37 9 89 10 38 11 88 12
REMARK SMILES IDX 39 13 40 14 41 15 82 16 42 17 87 18 81 19 83 20 43 21 86 22
REMARK SMILES IDX 80 23 79 24 44 26 70 27 53 28 69 29 54 30 57 31 68 32 84 33
REMARK SMILES IDX 55 34 56 35 67 37 85 38 58 39 45 40 46 41 51 42 47 43 48 44
REMARK SMILES IDX 50 45 52 46 49 47 71 48 72 49 77 50 73 51 74 52 76 53 78 54
REMARK SMILES IDX 75 55 59 56 60 57 65 58 61 59 62 60 64 61 66 62 63 63 8 64
REMARK SMILES IDX 9 65 10 66 11 67 12 68 13 69 17 70 14 71 16 72 15 73 18 74
REMARK SMILES IDX 19 75 20 76 21 78 22 79 26 80 23 81 25 82 24 83 27 84 28 85
REMARK SMILES IDX 29 86 30 88 31 89 32 90 35 91 33 92 34 93
REMARK H PARENT 83 25 57 36 20 77 29 87
REMARK Flexibility Score: inf
ROOT
ATOM      1  C   UNL A   1      35.514  33.248  28.700  1.00  0.00     0.202 C 
ENDROOT
BRANCH   1   2
ATOM      2  O   UNL A   1      34.853  34.306  29.410  1.00  0.00    -0.374 OA
BRANCH   2   3
ATOM      3  C   UNL A   1      33.647  34.778  28.820  1.00  0.00     0.202 C 
BRANCH   3   4
ATOM      4  C   UNL A   1      33.009  36.011  29.460  1.00  0.00     0.261 C 
BRANCH   4   5
ATOM      5  O   UNL A   1      32.280  35.692  30.664  1.00  0.00    -0.460 OA
BRANCH   5   6
ATOM      6  C   UNL A   1      32.643  36.156  31.905  1.00  0.00     0.338 C 
ATOM      7  O   UNL A   1      32.213  37.184  32.379  1.00  0.00    -0.246 OA
BRANCH   6   8
ATOM      8  C   UNL A   1      33.627  35.323  32.631  1.00  0.00     0.060 A 
ATOM      9  C   UNL A   1      34.902  35.830  32.781  1.00  0.00     0.016 A 
ATOM     10  C   UNL A   1      33.348  34.019  33.012  1.00  0.00     0.016 A 
ATOM     11  C   UNL A   1      35.959  34.976  32.997  1.00  0.00     0.010 A 
ATOM     12  C   UNL A   1      34.399  33.215  33.482  1.00  0.00     0.010 A 
ATOM     13  C   UNL A   1      35.731  33.673  33.438  1.00  0.00    -0.014 A 
BRANCH  13  14
ATOM     14  C   UNL A   1      36.889  32.830  33.849  1.00  0.00     0.031 A 
ATOM     15  C   UNL A   1      37.460  32.963  35.231  1.00  0.00     0.074 A 
ATOM     16  C   UNL A   1      37.418  31.918  33.004  1.00  0.00     0.049 A 
ATOM     17  N   UNL A   1      38.650  32.640  35.662  1.00  0.00    -0.248 NA
ATOM     18  C   UNL A   1      36.593  33.566  36.256  1.00  0.00     0.031 C 
ATOM     19  C   UNL A   1      36.923  31.599  31.659  1.00  0.00     0.029 A 
ATOM     20  N   UNL A   1      38.482  31.064  33.157  1.00  0.00    -0.354 N 
ATOM     21  C   UNL A   1      38.716  33.103  36.969  1.00  0.00     0.074 A 
ATOM     22  C   UNL A   1      37.429  33.686  37.279  1.00  0.00     0.031 C 
ATOM     23  C   UNL A   1      37.600  30.557  31.166  1.00  0.00     0.029 A 
ATOM     24  C   UNL A   1      38.707  30.268  32.059  1.00  0.00     0.049 A 
ATOM     25  H   UNL A   1      39.030  31.025  33.974  1.00  0.00     0.167 HD
ATOM     26  C   UNL A   1      39.779  33.066  37.806  1.00  0.00     0.037 A 
ATOM     27  C   UNL A   1      39.742  29.470  31.745  1.00  0.00     0.037 A 
ATOM     28  C   UNL A   1      41.018  32.406  37.481  1.00  0.00     0.049 A 
ATOM     29  C   UNL A   1      40.914  29.447  32.675  1.00  0.00     0.074 A 
ATOM     30  C   UNL A   1      42.199  32.360  38.201  1.00  0.00     0.029 A 
ATOM     31  N   UNL A   1      41.213  31.633  36.344  1.00  0.00    -0.354 N 
ATOM     32  N   UNL A   1      41.066  30.066  33.821  1.00  0.00    -0.248 NA
ATOM     33  C   UNL A   1      42.080  28.668  32.245  1.00  0.00     0.031 C 
ATOM     34  C   UNL A   1      43.109  31.564  37.494  1.00  0.00     0.029 A 
ATOM     35  C   UNL A   1      42.485  31.091  36.350  1.00  0.00     0.049 A 
ATOM     36  H   UNL A   1      40.542  31.491  35.638  1.00  0.00     0.167 HD
ATOM     37  C   UNL A   1      42.350  29.768  34.243  1.00  0.00     0.074 A 
ATOM     38  C   UNL A   1      42.921  28.882  33.247  1.00  0.00     0.031 C 
ATOM     39  C   UNL A   1      43.011  30.206  35.343  1.00  0.00     0.037 A 
BRANCH  26  40
ATOM     40  C   UNL A   1      39.666  33.818  39.098  1.00  0.00     0.057 A 
ATOM     41  C   UNL A   1      39.135  33.246  40.261  1.00  0.00     0.134 A 
ATOM     42  C   UNL A   1      40.087  35.153  39.173  1.00  0.00     0.134 A 
ATOM     43  F   UNL A   1      38.691  31.980  40.253  1.00  0.00    -0.206 F 
ATOM     44  C   UNL A   1      39.004  33.980  41.442  1.00  0.00     0.040 A 
ATOM     45  C   UNL A   1      39.981  35.891  40.354  1.00  0.00     0.040 A 
ATOM     46  F   UNL A   1      40.603  35.765  38.097  1.00  0.00    -0.206 F 
ATOM     47  C   UNL A   1      39.430  35.307  41.491  1.00  0.00     0.006 A 
ENDBRANCH  26  40
BRANCH  27  48
ATOM     48  C   UNL A   1      39.758  28.744  30.447  1.00  0.00     0.057 A 
ATOM     49  C   UNL A   1      39.148  27.493  30.313  1.00  0.00     0.134 A 
ATOM     50  C   UNL A   1      40.349  29.296  29.302  1.00  0.00     0.134 A 
ATOM     51  F   UNL A   1      38.589  26.896  31.376  1.00  0.00    -0.206 F 
ATOM     52  C   UNL A   1      39.118  26.822  29.088  1.00  0.00     0.040 A 
ATOM     53  C   UNL A   1      40.295  28.655  28.065  1.00  0.00     0.040 A 
ATOM     54  F   UNL A   1      40.950  30.494  29.359  1.00  0.00    -0.206 F 
ATOM     55  C   UNL A   1      39.682  27.410  27.956  1.00  0.00     0.006 A 
ENDBRANCH  27  48
BRANCH  39  56
ATOM     56  C   UNL A   1      44.404  29.695  35.519  1.00  0.00     0.057 A 
ATOM     57  C   UNL A   1      44.668  28.520  36.232  1.00  0.00     0.134 A 
ATOM     58  C   UNL A   1      45.489  30.390  34.972  1.00  0.00     0.134 A 
ATOM     59  F   UNL A   1      43.667  27.827  36.795  1.00  0.00    -0.206 F 
ATOM     60  C   UNL A   1      45.972  28.061  36.411  1.00  0.00     0.040 A 
ATOM     61  C   UNL A   1      46.795  29.931  35.131  1.00  0.00     0.040 A 
ATOM     62  F   UNL A   1      45.293  31.525  34.283  1.00  0.00    -0.206 F 
ATOM     63  C   UNL A   1      47.039  28.766  35.857  1.00  0.00     0.006 A 
ENDBRANCH  39  56
ENDBRANCH  13  14
ENDBRANCH   6   8
ENDBRANCH   5   6
ENDBRANCH   4   5
ENDBRANCH   3   4
ENDBRANCH   2   3
ENDBRANCH   1   2
BRANCH   1  64
ATOM     64  C   UNL A   1      34.573  32.044  28.649  1.00  0.00     0.261 C 
BRANCH  64  65
ATOM     65  O   UNL A   1      34.829  31.365  27.412  1.00  0.00    -0.463 OA
BRANCH  65  66
ATOM     66  C   UNL A   1      34.753  30.013  27.442  1.00  0.00     0.310 C 
ATOM     67  O   UNL A   1      35.351  29.310  28.248  1.00  0.00    -0.252 OA
BRANCH  66  68
ATOM     68  C   UNL A   1      33.838  29.457  26.346  1.00  0.00     0.116 C 
ATOM     69  C   UNL A   1      34.242  27.981  26.119  1.00  0.00     0.043 C 
ATOM     70  C   UNL A   1      32.325  29.704  26.579  1.00  0.00     0.097 C 
ATOM     71  C   UNL A   1      33.192  26.941  26.358  1.00  0.00    -0.030 C 
ATOM     72  C   UNL A   1      31.530  28.561  27.230  1.00  0.00     0.041 C 
ATOM     73  C   UNL A   1      31.979  27.194  26.854  1.00  0.00    -0.030 C 
BRANCH  70  74
ATOM     74  C   UNL A   1      31.478  30.389  25.510  1.00  0.00     0.228 C 
ATOM     75  O   UNL A   1      30.992  31.502  25.776  1.00  0.00    -0.274 OA
ATOM     76  N   UNL A   1      31.177  29.936  24.271  1.00  0.00    -0.325 N 
ATOM     77  H   UNL A   1      30.568  30.525  23.770  1.00  0.00     0.169 HD
BRANCH  76  78
ATOM     78  C   UNL A   1      31.565  28.798  23.571  1.00  0.00     0.054 A 
ATOM     79  C   UNL A   1      32.825  28.936  22.945  1.00  0.00     0.027 A 
ATOM     80  C   UNL A   1      30.839  27.606  23.428  1.00  0.00     0.063 A 
ATOM     81  C   UNL A   1      33.441  27.867  22.303  1.00  0.00     0.002 A 
ATOM     82  C   UNL A   1      31.502  26.533  22.776  1.00  0.00     0.016 A 
ATOM     83  C   UNL A   1      32.788  26.650  22.243  1.00  0.00     0.001 A 
BRANCH  80  84
ATOM     84  C   UNL A   1      29.444  27.256  23.855  1.00  0.00     0.253 C 
ATOM     85  O   UNL A   1      29.310  26.454  24.787  1.00  0.00    -0.269 OA
ATOM     86  N   UNL A   1      28.281  27.686  23.291  1.00  0.00    -0.345 N 
ATOM     87  H   UNL A   1      27.488  27.277  23.708  1.00  0.00     0.164 HD
BRANCH  86  88
ATOM     88  C   UNL A   1      27.936  28.599  22.231  1.00  0.00     0.191 C 
BRANCH  88  89
ATOM     89  C   UNL A   1      28.131  30.005  22.675  1.00  0.00     0.122 A 
ATOM     90  C   UNL A   1      27.530  30.764  23.658  1.00  0.00     0.047 A 
ATOM     91  O   UNL A   1      29.018  30.775  21.972  1.00  0.00    -0.467 OA
ATOM     92  C   UNL A   1      28.096  32.058  23.566  1.00  0.00     0.042 A 
ATOM     93  C   UNL A   1      28.994  32.013  22.526  1.00  0.00     0.195 A 
ENDBRANCH  88  89
ENDBRANCH  86  88
ENDBRANCH  80  84
ENDBRANCH  76  78
ENDBRANCH  70  74
ENDBRANCH  66  68
ENDBRANCH  65  66
ENDBRANCH  64  65
ENDBRANCH   1  64
TORSDOF 19
ENDMDL
MODEL 3
REMARK VINA RESULT:     -11.6      2.883      7.810
REMARK SMILES O=C(OCCOCCOC(=O)[C@H]1CC=CC[C@@H]1C(=O)Nc1ccccc1C(=O)NCc1ccco1)c1ccc(-c2c3nc(c(-c4c(F)cccc4F)c4ccc([nH]4)c(-c4c(F)cccc4F)c4nc(c(-c5c(F)cccc5F)c5ccc2[nH]5)C=C4)C=C3)cc1
REMARK SMILES IDX 7 1 6 2 5 3 4 4 3 5 2 6 1 7 36 8 37 9 89 10 38 11 88 12
REMARK SMILES IDX 39 13 40 14 41 15 82 16 42 17 87 18 81 19 83 20 43 21 86 22
REMARK SMILES IDX 80 23 79 24 44 26 70 27 53 28 69 29 54 30 57 31 68 32 84 33
REMARK SMILES IDX 55 34 56 35 67 37 85 38 58 39 45 40 46 41 51 42 47 43 48 44
REMARK SMILES IDX 50 45 52 46 49 47 71 48 72 49 77 50 73 51 74 52 76 53 78 54
REMARK SMILES IDX 75 55 59 56 60 57 65 58 61 59 62 60 64 61 66 62 63 63 8 64
REMARK SMILES IDX 9 65 10 66 11 67 12 68 13 69 17 70 14 71 16 72 15 73 18 74
REMARK SMILES IDX 19 75 20 76 21 78 22 79 26 80 23 81 25 82 24 83 27 84 28 85
REMARK SMILES IDX 29 86 30 88 31 89 32 90 35 91 33 92 34 93
REMARK H PARENT 83 25 57 36 20 77 29 87
REMARK Flexibility Score: inf
ROOT
ATOM      1  C   UNL A   1      35.372  33.171  28.530  1.00  0.00     0.202 C 
ENDROOT
BRANCH   1   2
ATOM      2  O   UNL A   1      34.801  34.261  29.269  1.00  0.00    -0.374 OA
BRANCH   2   3
ATOM      3  C   UNL A   1      34.018  35.172  28.507  1.00  0.00     0.202 C 
BRANCH   3   4
ATOM      4  C   UNL A   1      33.294  36.270  29.286  1.00  0.00     0.261 C 
BRANCH   4   5
ATOM      5  O   UNL A   1      32.543  35.749  30.403  1.00  0.00    -0.460 OA
BRANCH   5   6
ATOM      6  C   UNL A   1      32.755  36.148  31.700  1.00  0.00     0.338 C 
ATOM      7  O   UNL A   1      32.226  37.122  32.188  1.00  0.00    -0.246 OA
BRANCH   6   8
ATOM      8  C   UNL A   1      33.706  35.317  32.472  1.00  0.00     0.060 A 
ATOM      9  C   UNL A   1      34.992  35.794  32.621  1.00  0.00     0.016 A 
ATOM     10  C   UNL A   1      33.385  34.037  32.898  1.00  0.00     0.016 A 
ATOM     11  C   UNL A   1      36.022  34.919  32.885  1.00  0.00     0.010 A 
ATOM     12  C   UNL A   1      34.406  33.222  33.414  1.00  0.00     0.010 A 
ATOM     13  C   UNL A   1      35.751  33.642  33.373  1.00  0.00    -0.014 A 
BRANCH  13  14
ATOM     14  C   UNL A   1      36.878  32.784  33.832  1.00  0.00     0.031 A 
ATOM     15  C   UNL A   1      37.413  32.932  35.227  1.00  0.00     0.074 A 
ATOM     16  C   UNL A   1      37.413  31.845  33.020  1.00  0.00     0.049 A 
ATOM     17  N   UNL A   1      38.583  32.593  35.698  1.00  0.00    -0.248 NA
ATOM     18  C   UNL A   1      36.530  33.571  36.216  1.00  0.00     0.031 C 
ATOM     19  C   UNL A   1      36.950  31.510  31.668  1.00  0.00     0.029 A 
ATOM     20  N   UNL A   1      38.453  30.972  33.220  1.00  0.00    -0.354 N 
ATOM     21  C   UNL A   1      38.621  33.079  36.998  1.00  0.00     0.074 A 
ATOM     22  C   UNL A   1      37.338  33.694  37.260  1.00  0.00     0.031 C 
ATOM     23  C   UNL A   1      37.619  30.445  31.213  1.00  0.00     0.029 A 
ATOM     24  C   UNL A   1      38.693  30.151  32.144  1.00  0.00     0.049 A 
ATOM     25  H   UNL A   1      38.977  30.938  34.053  1.00  0.00     0.167 HD
ATOM     26  C   UNL A   1      39.659  33.036  37.866  1.00  0.00     0.037 A 
ATOM     27  C   UNL A   1      39.720  29.326  31.875  1.00  0.00     0.037 A 
ATOM     28  C   UNL A   1      40.893  32.346  37.590  1.00  0.00     0.049 A 
ATOM     29  C   UNL A   1      40.864  29.297  32.839  1.00  0.00     0.074 A 
ATOM     30  C   UNL A   1      42.051  32.290  38.344  1.00  0.00     0.029 A 
ATOM     31  N   UNL A   1      41.103  31.547  36.474  1.00  0.00    -0.354 N 
ATOM     32  N   UNL A   1      40.996  29.935  33.977  1.00  0.00    -0.248 NA
ATOM     33  C   UNL A   1      42.026  28.487  32.457  1.00  0.00     0.031 C 
ATOM     34  C   UNL A   1      42.965  31.461  37.679  1.00  0.00     0.029 A 
ATOM     35  C   UNL A   1      42.364  30.979  36.526  1.00  0.00     0.049 A 
ATOM     36  H   UNL A   1      40.451  31.405  35.750  1.00  0.00     0.167 HD
ATOM     37  C   UNL A   1      42.261  29.620  34.441  1.00  0.00     0.074 A 
ATOM     38  C   UNL A   1      42.842  28.703  33.479  1.00  0.00     0.031 C 
ATOM     39  C   UNL A   1      42.899  30.065  35.551  1.00  0.00     0.037 A 
BRANCH  26  40
ATOM     40  C   UNL A   1      39.525  33.815  39.140  1.00  0.00     0.057 A 
ATOM     41  C   UNL A   1      39.974  35.135  39.270  1.00  0.00     0.134 A 
ATOM     42  C   UNL A   1      38.942  33.220  40.268  1.00  0.00     0.134 A 
ATOM     43  F   UNL A   1      40.562  35.756  38.237  1.00  0.00    -0.206 F 
ATOM     44  C   UNL A   1      39.872  35.826  40.480  1.00  0.00     0.040 A 
ATOM     45  C   UNL A   1      38.815  33.908  41.477  1.00  0.00     0.040 A 
ATOM     46  F   UNL A   1      38.492  31.958  40.216  1.00  0.00    -0.206 F 
ATOM     47  C   UNL A   1      39.289  35.212  41.588  1.00  0.00     0.006 A 
ENDBRANCH  26  40
BRANCH  27  48
ATOM     48  C   UNL A   1      39.758  28.575  30.592  1.00  0.00     0.057 A 
ATOM     49  C   UNL A   1      39.129  27.333  30.465  1.00  0.00     0.134 A 
ATOM     50  C   UNL A   1      40.389  29.095  29.452  1.00  0.00     0.134 A 
ATOM     51  F   UNL A   1      38.531  26.766  31.523  1.00  0.00    -0.206 F 
ATOM     52  C   UNL A   1      39.121  26.639  29.252  1.00  0.00     0.040 A 
ATOM     53  C   UNL A   1      40.357  28.431  28.227  1.00  0.00     0.040 A 
ATOM     54  F   UNL A   1      41.010  30.283  29.504  1.00  0.00    -0.206 F 
ATOM     55  C   UNL A   1      39.725  27.195  28.125  1.00  0.00     0.006 A 
ENDBRANCH  27  48
BRANCH  39  56
ATOM     56  C   UNL A   1      44.276  29.530  35.777  1.00  0.00     0.057 A 
ATOM     57  C   UNL A   1      44.493  28.352  36.502  1.00  0.00     0.134 A 
ATOM     58  C   UNL A   1      45.391  30.203  35.266  1.00  0.00     0.134 A 
ATOM     59  F   UNL A   1      43.461  27.679  37.033  1.00  0.00    -0.206 F 
ATOM     60  C   UNL A   1      45.782  27.870  36.728  1.00  0.00     0.040 A 
ATOM     61  C   UNL A   1      46.683  29.720  35.471  1.00  0.00     0.040 A 
ATOM     62  F   UNL A   1      45.241  31.338  34.567  1.00  0.00    -0.206 F 
ATOM     63  C   UNL A   1      46.880  28.553  36.209  1.00  0.00     0.006 A 
ENDBRANCH  39  56
ENDBRANCH  13  14
ENDBRANCH   6   8
ENDBRANCH   5   6
ENDBRANCH   4   5
ENDBRANCH   3   4
ENDBRANCH   2   3
ENDBRANCH   1   2
BRANCH   1  64
ATOM     64  C   UNL A   1      34.433  31.970  28.644  1.00  0.00     0.261 C 
BRANCH  64  65
ATOM     65  O   UNL A   1      34.398  31.342  27.355  1.00  0.00    -0.463 OA
BRANCH  65  66
ATOM     66  C   UNL A   1      34.542  29.996  27.340  1.00  0.00     0.310 C 
ATOM     67  O   UNL A   1      35.254  29.373  28.118  1.00  0.00    -0.252 OA
BRANCH  66  68
ATOM     68  C   UNL A   1      33.718  29.335  26.229  1.00  0.00     0.116 C 
ATOM     69  C   UNL A   1      34.211  27.874  26.103  1.00  0.00     0.043 C 
ATOM     70  C   UNL A   1      32.184  29.509  26.372  1.00  0.00     0.097 C 
ATOM     71  C   UNL A   1      33.206  26.791  26.342  1.00  0.00    -0.030 C 
ATOM     72  C   UNL A   1      31.416  28.358  27.041  1.00  0.00     0.041 C 
ATOM     73  C   UNL A   1      31.957  27.000  26.762  1.00  0.00    -0.030 C 
BRANCH  70  74
ATOM     74  C   UNL A   1      31.361  30.091  25.226  1.00  0.00     0.228 C 
ATOM     75  O   UNL A   1      30.694  31.117  25.449  1.00  0.00    -0.274 OA
ATOM     76  N   UNL A   1      31.257  29.630  23.958  1.00  0.00    -0.325 N 
ATOM     77  H   UNL A   1      30.623  30.137  23.401  1.00  0.00     0.169 HD
BRANCH  76  78
ATOM     78  C   UNL A   1      31.876  28.576  23.292  1.00  0.00     0.054 A 
ATOM     79  C   UNL A   1      33.106  28.942  22.701  1.00  0.00     0.027 A 
ATOM     80  C   UNL A   1      31.393  27.266  23.153  1.00  0.00     0.063 A 
ATOM     81  C   UNL A   1      33.934  28.000  22.098  1.00  0.00     0.002 A 
ATOM     82  C   UNL A   1      32.268  26.329  22.542  1.00  0.00     0.016 A 
ATOM     83  C   UNL A   1      33.525  26.680  22.043  1.00  0.00     0.001 A 
BRANCH  80  84
ATOM     84  C   UNL A   1      30.077  26.664  23.545  1.00  0.00     0.253 C 
ATOM     85  O   UNL A   1      29.140  27.435  23.789  1.00  0.00    -0.269 OA
ATOM     86  N   UNL A   1      29.797  25.342  23.719  1.00  0.00    -0.345 N 
ATOM     87  H   UNL A   1      28.876  25.191  24.032  1.00  0.00     0.164 HD
BRANCH  86  88
ATOM     88  C   UNL A   1      30.530  24.113  23.550  1.00  0.00     0.191 C 
BRANCH  88  89
ATOM     89  C   UNL A   1      31.224  23.747  24.815  1.00  0.00     0.122 A 
ATOM     90  C   UNL A   1      32.504  23.306  25.082  1.00  0.00     0.047 A 
ATOM     91  O   UNL A   1      30.490  23.768  25.969  1.00  0.00    -0.467 OA
ATOM     92  C   UNL A   1      32.560  23.066  26.476  1.00  0.00     0.042 A 
ATOM     93  C   UNL A   1      31.312  23.361  26.969  1.00  0.00     0.195 A 
ENDBRANCH  88  89
ENDBRANCH  86  88
ENDBRANCH  80  84
ENDBRANCH  76  78
ENDBRANCH  70  74
ENDBRANCH  66  68
ENDBRANCH  65  66
ENDBRANCH  64  65
ENDBRANCH   1  64
TORSDOF 19
ENDMDL
