MODEL 1
REMARK VINA RESULT:     -10.8      0.000      0.000
REMARK SMILES CC[C@@H]1CCCN1C(=O)N1CC[C@@H](C(=O)OCCOCCOC(=O)c2ccc(-c3c4nc(c(-c5c(F)cccc5F)c5ccc([nH]5)c(-c5c(F)cccc5F)c5nc(c(-c6c(F)cccc6F)c6ccc3[nH]6)C=C5)C=C4)cc2)[C@@H]1C
REMARK SMILES IDX 18 1 17 2 16 3 14 4 15 5 13 6 10 7 11 8 79 9 12 10 80 11
REMARK SMILES IDX 8 12 9 13 7 14 3 15 4 16 5 17 6 18 2 19 1 20 19 21 20 22
REMARK SMILES IDX 21 23 22 24 23 25 24 26 25 27 26 28 78 29 27 30 77 31 28 32
REMARK SMILES IDX 29 33 30 34 71 35 31 36 76 37 70 38 72 39 32 40 75 41 69 42
REMARK SMILES IDX 68 43 33 45 59 46 42 47 58 48 43 49 46 50 57 51 73 52 44 53
REMARK SMILES IDX 45 54 56 56 74 57 47 58 34 59 35 60 40 61 36 62 37 63 39 64
REMARK SMILES IDX 41 65 38 66 60 67 61 68 66 69 62 70 63 71 65 72 67 73 64 74
REMARK SMILES IDX 48 75 49 76 54 77 50 78 51 79 53 80 55 81 52 82
REMARK H PARENT 72 44 46 55
REMARK Flexibility Score: inf
ROOT
ATOM      1  C   UNL A   1      41.964  19.992  26.347  1.00  0.00     0.202 C 
ENDROOT
BRANCH   1   2
ATOM      2  C   UNL A   1      40.906  20.939  26.918  1.00  0.00     0.261 C 
BRANCH   2   3
ATOM      3  O   UNL A   1      39.754  20.975  26.053  1.00  0.00    -0.463 OA
BRANCH   3   4
ATOM      4  C   UNL A   1      38.919  22.044  26.131  1.00  0.00     0.311 C 
ATOM      5  O   UNL A   1      39.059  22.992  26.891  1.00  0.00    -0.252 OA
BRANCH   4   6
ATOM      6  C   UNL A   1      37.796  21.952  25.120  1.00  0.00     0.123 C 
ATOM      7  N   UNL A   1      35.458  21.728  25.291  1.00  0.00    -0.321 N 
ATOM      8  C   UNL A   1      35.755  23.108  25.605  1.00  0.00     0.122 C 
ATOM      9  C   UNL A   1      36.679  20.984  25.588  1.00  0.00     0.098 C 
ATOM     10  C   UNL A   1      37.067  23.296  24.873  1.00  0.00     0.039 C 
ATOM     11  C   UNL A   1      36.738  19.609  24.941  1.00  0.00     0.032 C 
BRANCH   7  12
ATOM     12  C   UNL A   1      34.208  21.235  25.560  1.00  0.00     0.320 C 
ATOM     13  O   UNL A   1      33.799  21.157  26.718  1.00  0.00    -0.248 OA
BRANCH  12  14
ATOM     14  N   UNL A   1      33.455  20.835  24.468  1.00  0.00    -0.322 N 
ATOM     15  C   UNL A   1      32.574  19.656  24.273  1.00  0.00     0.086 C 
ATOM     16  C   UNL A   1      32.165  19.787  22.800  1.00  0.00     0.027 C 
ATOM     17  C   UNL A   1      32.022  21.287  22.620  1.00  0.00     0.024 C 
ATOM     18  C   UNL A   1      33.165  21.844  23.453  1.00  0.00     0.122 C 
BRANCH  15  19
ATOM     19  C   UNL A   1      33.107  18.265  24.631  1.00  0.00     0.022 C 
ATOM     20  C   UNL A   1      33.759  17.449  23.524  1.00  0.00     0.006 C 
ENDBRANCH  15  19
ENDBRANCH  12  14
ENDBRANCH   7  12
ENDBRANCH   4   6
ENDBRANCH   3   4
ENDBRANCH   2   3
ENDBRANCH   1   2
BRANCH   1  21
ATOM     21  O   UNL A   1      42.663  20.505  25.211  1.00  0.00    -0.374 OA
BRANCH  21  22
ATOM     22  C   UNL A   1      44.087  20.522  25.306  1.00  0.00     0.202 C 
BRANCH  22  23
ATOM     23  C   UNL A   1      44.699  21.902  25.551  1.00  0.00     0.261 C 
BRANCH  23  24
ATOM     24  O   UNL A   1      43.674  22.908  25.660  1.00  0.00    -0.460 OA
BRANCH  24  25
ATOM     25  C   UNL A   1      44.099  24.171  25.444  1.00  0.00     0.338 C 
ATOM     26  O   UNL A   1      44.895  24.555  24.596  1.00  0.00    -0.246 OA
BRANCH  25  27
ATOM     27  C   UNL A   1      43.347  25.108  26.298  1.00  0.00     0.060 A 
ATOM     28  C   UNL A   1      43.899  26.380  26.498  1.00  0.00     0.016 A 
ATOM     29  C   UNL A   1      42.168  24.735  26.948  1.00  0.00     0.016 A 
ATOM     30  C   UNL A   1      43.311  27.260  27.400  1.00  0.00     0.010 A 
ATOM     31  C   UNL A   1      41.579  25.620  27.857  1.00  0.00     0.010 A 
ATOM     32  C   UNL A   1      42.173  26.869  28.116  1.00  0.00    -0.014 A 
BRANCH  32  33
ATOM     33  C   UNL A   1      41.701  27.706  29.245  1.00  0.00     0.031 A 
ATOM     34  C   UNL A   1      42.399  27.602  30.571  1.00  0.00     0.074 A 
ATOM     35  C   UNL A   1      40.678  28.562  29.082  1.00  0.00     0.049 A 
ATOM     36  N   UNL A   1      42.144  28.224  31.694  1.00  0.00    -0.248 NA
ATOM     37  C   UNL A   1      43.533  26.668  30.641  1.00  0.00     0.031 C 
ATOM     38  C   UNL A   1      39.936  28.764  27.840  1.00  0.00     0.029 A 
ATOM     39  N   UNL A   1      40.082  29.413  29.978  1.00  0.00    -0.354 N 
ATOM     40  C   UNL A   1      43.078  27.748  32.606  1.00  0.00     0.074 A 
ATOM     41  C   UNL A   1      43.883  26.765  31.914  1.00  0.00     0.031 C 
ATOM     42  C   UNL A   1      38.966  29.668  28.057  1.00  0.00     0.029 A 
ATOM     43  C   UNL A   1      39.007  30.088  29.457  1.00  0.00     0.049 A 
ATOM     44  H   UNL A   1      40.396  29.528  30.903  1.00  0.00     0.167 HD
ATOM     45  C   UNL A   1      43.252  28.105  33.901  1.00  0.00     0.037 A 
ATOM     46  C   UNL A   1      38.141  30.931  30.050  1.00  0.00     0.037 A 
ATOM     47  C   UNL A   1      42.452  29.086  34.585  1.00  0.00     0.049 A 
ATOM     48  C   UNL A   1      38.328  31.288  31.499  1.00  0.00     0.074 A 
ATOM     49  C   UNL A   1      42.578  29.551  35.881  1.00  0.00     0.029 A 
ATOM     50  N   UNL A   1      41.367  29.744  34.026  1.00  0.00    -0.354 N 
ATOM     51  N   UNL A   1      39.243  30.871  32.340  1.00  0.00    -0.248 NA
ATOM     52  C   UNL A   1      37.369  32.240  32.078  1.00  0.00     0.031 C 
ATOM     53  C   UNL A   1      41.536  30.454  36.124  1.00  0.00     0.029 A 
ATOM     54  C   UNL A   1      40.792  30.588  34.963  1.00  0.00     0.049 A 
ATOM     55  H   UNL A   1      41.051  29.628  33.101  1.00  0.00     0.167 HD
ATOM     56  C   UNL A   1      38.983  31.519  33.541  1.00  0.00     0.074 A 
ATOM     57  C   UNL A   1      37.831  32.369  33.315  1.00  0.00     0.031 C 
ATOM     58  C   UNL A   1      39.641  31.422  34.723  1.00  0.00     0.037 A 
BRANCH  45  59
ATOM     59  C   UNL A   1      44.332  27.397  34.666  1.00  0.00     0.057 A 
ATOM     60  C   UNL A   1      44.093  26.205  35.363  1.00  0.00     0.134 A 
ATOM     61  C   UNL A   1      45.632  27.918  34.708  1.00  0.00     0.134 A 
ATOM     62  F   UNL A   1      42.867  25.660  35.377  1.00  0.00    -0.206 F 
ATOM     63  C   UNL A   1      45.098  25.577  36.103  1.00  0.00     0.040 A 
ATOM     64  C   UNL A   1      46.651  27.285  35.420  1.00  0.00     0.040 A 
ATOM     65  F   UNL A   1      45.932  29.054  34.059  1.00  0.00    -0.206 F 
ATOM     66  C   UNL A   1      46.383  26.116  36.129  1.00  0.00     0.006 A 
ENDBRANCH  45  59
BRANCH  46  67
ATOM     67  C   UNL A   1      37.010  31.483  29.264  1.00  0.00     0.057 A 
ATOM     68  C   UNL A   1      35.858  30.730  29.016  1.00  0.00     0.134 A 
ATOM     69  C   UNL A   1      37.049  32.790  28.765  1.00  0.00     0.134 A 
ATOM     70  F   UNL A   1      35.771  29.465  29.452  1.00  0.00    -0.206 F 
ATOM     71  C   UNL A   1      34.784  31.256  28.297  1.00  0.00     0.040 A 
ATOM     72  C   UNL A   1      35.975  33.337  28.063  1.00  0.00     0.040 A 
ATOM     73  F   UNL A   1      38.125  33.564  28.974  1.00  0.00    -0.206 F 
ATOM     74  C   UNL A   1      34.838  32.567  27.825  1.00  0.00     0.006 A 
ENDBRANCH  46  67
BRANCH  58  75
ATOM     75  C   UNL A   1      39.144  32.269  35.859  1.00  0.00     0.057 A 
ATOM     76  C   UNL A   1      38.250  31.771  36.816  1.00  0.00     0.134 A 
ATOM     77  C   UNL A   1      39.601  33.583  36.022  1.00  0.00     0.134 A 
ATOM     78  F   UNL A   1      37.766  30.524  36.710  1.00  0.00    -0.206 F 
ATOM     79  C   UNL A   1      37.815  32.557  37.885  1.00  0.00     0.040 A 
ATOM     80  C   UNL A   1      39.193  34.370  37.100  1.00  0.00     0.040 A 
ATOM     81  F   UNL A   1      40.465  34.118  35.145  1.00  0.00    -0.206 F 
ATOM     82  C   UNL A   1      38.293  33.858  38.033  1.00  0.00     0.006 A 
ENDBRANCH  58  75
ENDBRANCH  32  33
ENDBRANCH  25  27
ENDBRANCH  24  25
ENDBRANCH  23  24
ENDBRANCH  22  23
ENDBRANCH  21  22
ENDBRANCH   1  21
TORSDOF 17
ENDMDL
MODEL 2
REMARK VINA RESULT:     -10.3      1.551      2.669
REMARK SMILES CC[C@@H]1CCCN1C(=O)N1CC[C@@H](C(=O)OCCOCCOC(=O)c2ccc(-c3c4nc(c(-c5c(F)cccc5F)c5ccc([nH]5)c(-c5c(F)cccc5F)c5nc(c(-c6c(F)cccc6F)c6ccc3[nH]6)C=C5)C=C4)cc2)[C@@H]1C
REMARK SMILES IDX 18 1 17 2 16 3 14 4 15 5 13 6 10 7 11 8 79 9 12 10 80 11
REMARK SMILES IDX 8 12 9 13 7 14 3 15 4 16 5 17 6 18 2 19 1 20 19 21 20 22
REMARK SMILES IDX 21 23 22 24 23 25 24 26 25 27 26 28 78 29 27 30 77 31 28 32
REMARK SMILES IDX 29 33 30 34 71 35 31 36 76 37 70 38 72 39 32 40 75 41 69 42
REMARK SMILES IDX 68 43 33 45 59 46 42 47 58 48 43 49 46 50 57 51 73 52 44 53
REMARK SMILES IDX 45 54 56 56 74 57 47 58 34 59 35 60 40 61 36 62 37 63 39 64
REMARK SMILES IDX 41 65 38 66 60 67 61 68 66 69 62 70 63 71 65 72 67 73 64 74
REMARK SMILES IDX 48 75 49 76 54 77 50 78 51 79 53 80 55 81 52 82
REMARK H PARENT 72 44 46 55
REMARK Flexibility Score: inf
ROOT
ATOM      1  C   UNL A   1      39.811  21.066  26.266  1.00  0.00     0.202 C 
ENDROOT
BRANCH   1   2
ATOM      2  C   UNL A   1      38.675  22.006  25.853  1.00  0.00     0.261 C 
BRANCH   2   3
ATOM      3  O   UNL A   1      37.739  21.310  25.008  1.00  0.00    -0.463 OA
BRANCH   3   4
ATOM      4  C   UNL A   1      36.861  22.043  24.273  1.00  0.00     0.311 C 
ATOM      5  O   UNL A   1      37.048  22.420  23.125  1.00  0.00    -0.252 OA
BRANCH   4   6
ATOM      6  C   UNL A   1      35.580  22.309  25.034  1.00  0.00     0.123 C 
ATOM      7  N   UNL A   1      33.310  22.431  24.420  1.00  0.00    -0.321 N 
ATOM      8  C   UNL A   1      33.645  21.023  24.452  1.00  0.00     0.122 C 
ATOM      9  C   UNL A   1      34.571  23.131  24.192  1.00  0.00     0.098 C 
ATOM     10  C   UNL A   1      34.807  21.024  25.423  1.00  0.00     0.039 C 
ATOM     11  C   UNL A   1      34.529  24.609  24.543  1.00  0.00     0.032 C 
BRANCH   7  12
ATOM     12  C   UNL A   1      32.131  22.824  23.844  1.00  0.00     0.320 C 
ATOM     13  O   UNL A   1      31.792  22.388  22.745  1.00  0.00    -0.248 OA
BRANCH  12  14
ATOM     14  N   UNL A   1      31.366  23.729  24.562  1.00  0.00    -0.322 N 
ATOM     15  C   UNL A   1      31.368  24.076  26.005  1.00  0.00     0.086 C 
ATOM     16  C   UNL A   1      30.193  25.056  26.113  1.00  0.00     0.027 C 
ATOM     17  C   UNL A   1      30.279  25.834  24.814  1.00  0.00     0.024 C 
ATOM     18  C   UNL A   1      30.680  24.771  23.803  1.00  0.00     0.122 C 
BRANCH  15  19
ATOM     19  C   UNL A   1      31.310  22.946  27.039  1.00  0.00     0.022 C 
ATOM     20  C   UNL A   1      32.588  22.611  27.794  1.00  0.00     0.006 C 
ENDBRANCH  15  19
ENDBRANCH  12  14
ENDBRANCH   7  12
ENDBRANCH   4   6
ENDBRANCH   3   4
ENDBRANCH   2   3
ENDBRANCH   1   2
BRANCH   1  21
ATOM     21  O   UNL A   1      41.070  21.714  26.459  1.00  0.00    -0.374 OA
BRANCH  21  22
ATOM     22  C   UNL A   1      42.218  21.003  25.999  1.00  0.00     0.202 C 
BRANCH  22  23
ATOM     23  C   UNL A   1      43.406  21.883  25.607  1.00  0.00     0.261 C 
BRANCH  23  24
ATOM     24  O   UNL A   1      42.964  23.060  24.905  1.00  0.00    -0.460 OA
BRANCH  24  25
ATOM     25  C   UNL A   1      43.720  24.159  25.116  1.00  0.00     0.338 C 
ATOM     26  O   UNL A   1      44.787  24.442  24.584  1.00  0.00    -0.246 OA
BRANCH  25  27
ATOM     27  C   UNL A   1      43.009  25.099  26.000  1.00  0.00     0.060 A 
ATOM     28  C   UNL A   1      43.594  26.354  26.208  1.00  0.00     0.016 A 
ATOM     29  C   UNL A   1      41.835  24.743  26.669  1.00  0.00     0.016 A 
ATOM     30  C   UNL A   1      43.046  27.233  27.136  1.00  0.00     0.010 A 
ATOM     31  C   UNL A   1      41.286  25.626  27.604  1.00  0.00     0.010 A 
ATOM     32  C   UNL A   1      41.914  26.857  27.870  1.00  0.00    -0.014 A 
BRANCH  32  33
ATOM     33  C   UNL A   1      41.486  27.686  29.021  1.00  0.00     0.031 A 
ATOM     34  C   UNL A   1      42.217  27.556  30.327  1.00  0.00     0.074 A 
ATOM     35  C   UNL A   1      40.471  28.559  28.897  1.00  0.00     0.049 A 
ATOM     36  N   UNL A   1      42.003  28.166  31.464  1.00  0.00    -0.248 NA
ATOM     37  C   UNL A   1      43.340  26.604  30.354  1.00  0.00     0.031 C 
ATOM     38  C   UNL A   1      39.699  28.788  27.678  1.00  0.00     0.029 A 
ATOM     39  N   UNL A   1      39.913  29.408  29.819  1.00  0.00    -0.354 N 
ATOM     40  C   UNL A   1      42.954  27.666  32.344  1.00  0.00     0.074 A 
ATOM     41  C   UNL A   1      43.725  26.680  31.618  1.00  0.00     0.031 C 
ATOM     42  C   UNL A   1      38.749  29.703  27.933  1.00  0.00     0.029 A 
ATOM     43  C   UNL A   1      38.835  30.104  29.337  1.00  0.00     0.049 A 
ATOM     44  H   UNL A   1      40.254  29.506  30.737  1.00  0.00     0.167 HD
ATOM     45  C   UNL A   1      43.169  28.003  33.638  1.00  0.00     0.037 A 
ATOM     46  C   UNL A   1      37.998  30.953  29.963  1.00  0.00     0.037 A 
ATOM     47  C   UNL A   1      42.403  28.987  34.355  1.00  0.00     0.049 A 
ATOM     48  C   UNL A   1      38.229  31.289  31.411  1.00  0.00     0.074 A 
ATOM     49  C   UNL A   1      42.570  29.434  35.654  1.00  0.00     0.029 A 
ATOM     50  N   UNL A   1      41.312  29.668  33.835  1.00  0.00    -0.354 N 
ATOM     51  N   UNL A   1      39.160  30.847  32.222  1.00  0.00    -0.248 NA
ATOM     52  C   UNL A   1      37.301  32.247  32.028  1.00  0.00     0.031 C 
ATOM     53  C   UNL A   1      41.549  30.348  35.936  1.00  0.00     0.029 A 
ATOM     54  C   UNL A   1      40.776  30.509  34.797  1.00  0.00     0.049 A 
ATOM     55  H   UNL A   1      40.969  29.569  32.917  1.00  0.00     0.167 HD
ATOM     56  C   UNL A   1      38.942  31.483  33.437  1.00  0.00     0.074 A 
ATOM     57  C   UNL A   1      37.798  32.353  33.253  1.00  0.00     0.031 C 
ATOM     58  C   UNL A   1      39.631  31.362  34.599  1.00  0.00     0.037 A 
BRANCH  45  59
ATOM     59  C   UNL A   1      44.258  27.270  34.364  1.00  0.00     0.057 A 
ATOM     60  C   UNL A   1      45.573  27.753  34.420  1.00  0.00     0.134 A 
ATOM     61  C   UNL A   1      43.989  26.059  35.017  1.00  0.00     0.134 A 
ATOM     62  F   UNL A   1      45.903  28.898  33.804  1.00  0.00    -0.206 F 
ATOM     63  C   UNL A   1      46.586  27.041  35.066  1.00  0.00     0.040 A 
ATOM     64  C   UNL A   1      44.986  25.353  35.689  1.00  0.00     0.040 A 
ATOM     65  F   UNL A   1      42.750  25.542  35.006  1.00  0.00    -0.206 F 
ATOM     66  C   UNL A   1      46.292  25.839  35.707  1.00  0.00     0.006 A 
ENDBRANCH  45  59
BRANCH  46  67
ATOM     67  C   UNL A   1      36.854  31.531  29.215  1.00  0.00     0.057 A 
ATOM     68  C   UNL A   1      36.890  32.840  28.726  1.00  0.00     0.134 A 
ATOM     69  C   UNL A   1      35.707  30.773  28.953  1.00  0.00     0.134 A 
ATOM     70  F   UNL A   1      37.954  33.622  28.963  1.00  0.00    -0.206 F 
ATOM     71  C   UNL A   1      35.825  33.378  28.002  1.00  0.00     0.040 A 
ATOM     72  C   UNL A   1      34.643  31.289  28.212  1.00  0.00     0.040 A 
ATOM     73  F   UNL A   1      35.615  29.509  29.392  1.00  0.00    -0.206 F 
ATOM     74  C   UNL A   1      34.699  32.598  27.737  1.00  0.00     0.006 A 
ENDBRANCH  46  67
BRANCH  58  75
ATOM     75  C   UNL A   1      39.177  32.202  35.759  1.00  0.00     0.057 A 
ATOM     76  C   UNL A   1      39.622  33.518  35.936  1.00  0.00     0.134 A 
ATOM     77  C   UNL A   1      38.250  31.701  36.681  1.00  0.00     0.134 A 
ATOM     78  F   UNL A   1      40.519  34.053  35.094  1.00  0.00    -0.206 F 
ATOM     79  C   UNL A   1      39.173  34.301  37.002  1.00  0.00     0.040 A 
ATOM     80  C   UNL A   1      37.774  32.483  37.736  1.00  0.00     0.040 A 
ATOM     81  F   UNL A   1      37.777  30.451  36.564  1.00  0.00    -0.206 F 
ATOM     82  C   UNL A   1      38.240  33.785  37.900  1.00  0.00     0.006 A 
ENDBRANCH  58  75
ENDBRANCH  32  33
ENDBRANCH  25  27
ENDBRANCH  24  25
ENDBRANCH  23  24
ENDBRANCH  22  23
ENDBRANCH  21  22
ENDBRANCH   1  21
TORSDOF 17
ENDMDL
MODEL 3
REMARK VINA RESULT:     -10.3      3.444      8.675
REMARK SMILES CC[C@@H]1CCCN1C(=O)N1CC[C@@H](C(=O)OCCOCCOC(=O)c2ccc(-c3c4nc(c(-c5c(F)cccc5F)c5ccc([nH]5)c(-c5c(F)cccc5F)c5nc(c(-c6c(F)cccc6F)c6ccc3[nH]6)C=C5)C=C4)cc2)[C@@H]1C
REMARK SMILES IDX 18 1 17 2 16 3 14 4 15 5 13 6 10 7 11 8 79 9 12 10 80 11
REMARK SMILES IDX 8 12 9 13 7 14 3 15 4 16 5 17 6 18 2 19 1 20 19 21 20 22
REMARK SMILES IDX 21 23 22 24 23 25 24 26 25 27 26 28 78 29 27 30 77 31 28 32
REMARK SMILES IDX 29 33 30 34 71 35 31 36 76 37 70 38 72 39 32 40 75 41 69 42
REMARK SMILES IDX 68 43 33 45 59 46 42 47 58 48 43 49 46 50 57 51 73 52 44 53
REMARK SMILES IDX 45 54 56 56 74 57 47 58 34 59 35 60 40 61 36 62 37 63 39 64
REMARK SMILES IDX 41 65 38 66 60 67 61 68 66 69 62 70 63 71 65 72 67 73 64 74
REMARK SMILES IDX 48 75 49 76 54 77 50 78 51 79 53 80 55 81 52 82
REMARK H PARENT 72 44 46 55
REMARK Flexibility Score: inf
ROOT
ATOM      1  C   UNL A   1      32.540  29.875  25.802  1.00  0.00     0.202 C 
ENDROOT
BRANCH   1   2
ATOM      2  C   UNL A   1      31.335  29.600  24.898  1.00  0.00     0.261 C 
BRANCH   2   3
ATOM      3  O   UNL A   1      30.969  28.209  24.971  1.00  0.00    -0.463 OA
BRANCH   3   4
ATOM      4  C   UNL A   1      30.750  27.536  23.810  1.00  0.00     0.311 C 
ATOM      5  O   UNL A   1      29.993  27.897  22.920  1.00  0.00    -0.252 OA
BRANCH   4   6
ATOM      6  C   UNL A   1      31.599  26.286  23.719  1.00  0.00     0.123 C 
ATOM      7  N   UNL A   1      31.944  24.439  25.139  1.00  0.00    -0.321 N 
ATOM      8  C   UNL A   1      30.656  24.233  24.513  1.00  0.00     0.122 C 
ATOM      9  C   UNL A   1      32.175  25.880  25.100  1.00  0.00     0.098 C 
ATOM     10  C   UNL A   1      30.819  25.037  23.241  1.00  0.00     0.039 C 
ATOM     11  C   UNL A   1      33.627  26.280  25.308  1.00  0.00     0.032 C 
BRANCH   7  12
ATOM     12  C   UNL A   1      32.300  23.661  26.209  1.00  0.00     0.320 C 
ATOM     13  O   UNL A   1      31.668  23.715  27.263  1.00  0.00    -0.248 OA
BRANCH  12  14
ATOM     14  N   UNL A   1      33.397  22.834  26.031  1.00  0.00    -0.322 N 
ATOM     15  C   UNL A   1      33.953  22.202  24.808  1.00  0.00     0.086 C 
ATOM     16  C   UNL A   1      35.087  21.335  25.368  1.00  0.00     0.027 C 
ATOM     17  C   UNL A   1      35.643  22.188  26.493  1.00  0.00     0.024 C 
ATOM     18  C   UNL A   1      34.396  22.816  27.096  1.00  0.00     0.122 C 
BRANCH  15  19
ATOM     19  C   UNL A   1      33.009  21.436  23.875  1.00  0.00     0.022 C 
ATOM     20  C   UNL A   1      32.153  20.334  24.484  1.00  0.00     0.006 C 
ENDBRANCH  15  19
ENDBRANCH  12  14
ENDBRANCH   7  12
ENDBRANCH   4   6
ENDBRANCH   3   4
ENDBRANCH   2   3
ENDBRANCH   1   2
BRANCH   1  21
ATOM     21  O   UNL A   1      32.299  30.839  26.829  1.00  0.00    -0.374 OA
BRANCH  21  22
ATOM     22  C   UNL A   1      31.380  31.882  26.508  1.00  0.00     0.202 C 
BRANCH  22  23
ATOM     23  C   UNL A   1      31.919  33.299  26.710  1.00  0.00     0.261 C 
BRANCH  23  24
ATOM     24  O   UNL A   1      32.164  33.562  28.104  1.00  0.00    -0.460 OA
BRANCH  24  25
ATOM     25  C   UNL A   1      33.184  34.413  28.346  1.00  0.00     0.338 C 
ATOM     26  O   UNL A   1      33.140  35.636  28.393  1.00  0.00    -0.246 OA
BRANCH  25  27
ATOM     27  C   UNL A   1      34.396  33.656  28.709  1.00  0.00     0.060 A 
ATOM     28  C   UNL A   1      34.217  32.381  29.259  1.00  0.00     0.016 A 
ATOM     29  C   UNL A   1      35.676  34.204  28.586  1.00  0.00     0.016 A 
ATOM     30  C   UNL A   1      35.310  31.674  29.749  1.00  0.00     0.010 A 
ATOM     31  C   UNL A   1      36.774  33.494  29.081  1.00  0.00     0.010 A 
ATOM     32  C   UNL A   1      36.589  32.244  29.701  1.00  0.00    -0.014 A 
BRANCH  32  33
ATOM     33  C   UNL A   1      37.700  31.600  30.440  1.00  0.00     0.031 A 
ATOM     34  C   UNL A   1      38.540  30.569  29.742  1.00  0.00     0.074 A 
ATOM     35  C   UNL A   1      37.969  31.946  31.711  1.00  0.00     0.049 A 
ATOM     36  N   UNL A   1      39.546  29.869  30.199  1.00  0.00    -0.248 NA
ATOM     37  C   UNL A   1      38.195  30.286  28.339  1.00  0.00     0.031 C 
ATOM     38  C   UNL A   1      37.237  32.944  32.487  1.00  0.00     0.029 A 
ATOM     39  N   UNL A   1      38.929  31.480  32.573  1.00  0.00    -0.354 N 
ATOM     40  C   UNL A   1      39.947  29.056  29.147  1.00  0.00     0.074 A 
ATOM     41  C   UNL A   1      39.056  29.327  28.039  1.00  0.00     0.031 C 
ATOM     42  C   UNL A   1      37.763  33.002  33.722  1.00  0.00     0.029 A 
ATOM     43  C   UNL A   1      38.849  32.029  33.827  1.00  0.00     0.049 A 
ATOM     44  H   UNL A   1      39.609  30.817  32.316  1.00  0.00     0.167 HD
ATOM     45  C   UNL A   1      40.969  28.169  29.105  1.00  0.00     0.037 A 
ATOM     46  C   UNL A   1      39.558  31.761  34.940  1.00  0.00     0.037 A 
ATOM     47  C   UNL A   1      41.855  27.904  30.207  1.00  0.00     0.049 A 
ATOM     48  C   UNL A   1      40.667  30.746  34.886  1.00  0.00     0.074 A 
ATOM     49  C   UNL A   1      42.949  27.058  30.252  1.00  0.00     0.029 A 
ATOM     50  N   UNL A   1      41.739  28.475  31.466  1.00  0.00    -0.354 N 
ATOM     51  N   UNL A   1      41.070  30.017  33.873  1.00  0.00    -0.248 NA
ATOM     52  C   UNL A   1      41.425  30.523  36.125  1.00  0.00     0.031 C 
ATOM     53  C   UNL A   1      43.464  27.079  31.553  1.00  0.00     0.029 A 
ATOM     54  C   UNL A   1      42.722  27.976  32.305  1.00  0.00     0.049 A 
ATOM     55  H   UNL A   1      41.058  29.138  31.724  1.00  0.00     0.167 HD
ATOM     56  C   UNL A   1      42.136  29.263  34.345  1.00  0.00     0.074 A 
ATOM     57  C   UNL A   1      42.327  29.633  35.732  1.00  0.00     0.031 C 
ATOM     58  C   UNL A   1      42.893  28.350  33.687  1.00  0.00     0.037 A 
BRANCH  45  59
ATOM     59  C   UNL A   1      41.154  27.397  27.831  1.00  0.00     0.057 A 
ATOM     60  C   UNL A   1      40.550  26.149  27.621  1.00  0.00     0.134 A 
ATOM     61  C   UNL A   1      41.951  27.908  26.799  1.00  0.00     0.134 A 
ATOM     62  F   UNL A   1      39.787  25.595  28.574  1.00  0.00    -0.206 F 
ATOM     63  C   UNL A   1      40.762  25.424  26.447  1.00  0.00     0.040 A 
ATOM     64  C   UNL A   1      42.148  27.206  25.610  1.00  0.00     0.040 A 
ATOM     65  F   UNL A   1      42.556  29.099  26.933  1.00  0.00    -0.206 F 
ATOM     66  C   UNL A   1      41.561  25.955  25.435  1.00  0.00     0.006 A 
ENDBRANCH  45  59
BRANCH  46  67
ATOM     67  C   UNL A   1      39.223  32.464  36.203  1.00  0.00     0.057 A 
ATOM     68  C   UNL A   1      39.799  33.697  36.526  1.00  0.00     0.134 A 
ATOM     69  C   UNL A   1      38.296  31.926  37.103  1.00  0.00     0.134 A 
ATOM     70  F   UNL A   1      40.708  34.253  35.712  1.00  0.00    -0.206 F 
ATOM     71  C   UNL A   1      39.467  34.370  37.703  1.00  0.00     0.040 A 
ATOM     72  C   UNL A   1      37.938  32.597  38.273  1.00  0.00     0.040 A 
ATOM     73  F   UNL A   1      37.707  30.749  36.846  1.00  0.00    -0.206 F 
ATOM     74  C   UNL A   1      38.527  33.823  38.577  1.00  0.00     0.006 A 
ENDBRANCH  46  67
BRANCH  58  75
ATOM     75  C   UNL A   1      44.008  27.699  34.453  1.00  0.00     0.057 A 
ATOM     76  C   UNL A   1      45.273  28.290  34.563  1.00  0.00     0.134 A 
ATOM     77  C   UNL A   1      43.797  26.489  35.128  1.00  0.00     0.134 A 
ATOM     78  F   UNL A   1      45.542  29.443  33.931  1.00  0.00    -0.206 F 
ATOM     79  C   UNL A   1      46.295  27.691  35.301  1.00  0.00     0.040 A 
ATOM     80  C   UNL A   1      44.804  25.894  35.890  1.00  0.00     0.040 A 
ATOM     81  F   UNL A   1      42.606  25.875  35.071  1.00  0.00    -0.206 F 
ATOM     82  C   UNL A   1      46.059  26.493  35.974  1.00  0.00     0.006 A 
ENDBRANCH  58  75
ENDBRANCH  32  33
ENDBRANCH  25  27
ENDBRANCH  24  25
ENDBRANCH  23  24
ENDBRANCH  22  23
ENDBRANCH  21  22
ENDBRANCH   1  21
TORSDOF 17
ENDMDL
