MODEL 1
REMARK VINA RESULT:     -11.4      0.000      0.000
REMARK SMILES O=C(OCCOCCOC(=O)c1nnn(-c2cccc(OC(F)(F)F)c2)c1-c1ccncc1)c1ccc(-c2c3nc(c(-c4c(F)cccc4F)c4ccc([nH]4)c(-c4c(F)cccc4F)c4nc(c(-c5c(F)cccc5F)c5ccc2[nH]5)C=C4)C=C3)cc1
REMARK SMILES IDX 7 1 6 2 5 3 4 4 3 5 2 6 1 7 34 8 35 9 87 10 36 11 86 12
REMARK SMILES IDX 37 13 38 14 39 15 80 16 40 17 85 18 79 19 81 20 41 21 84 22
REMARK SMILES IDX 78 23 77 24 42 26 68 27 51 28 67 29 52 30 55 31 66 32 82 33
REMARK SMILES IDX 53 34 54 35 65 37 83 38 56 39 43 40 44 41 49 42 45 43 46 44
REMARK SMILES IDX 48 45 50 46 47 47 69 48 70 49 75 50 71 51 72 52 74 53 76 54
REMARK SMILES IDX 73 55 57 56 58 57 63 58 59 59 60 60 62 61 64 62 61 63 8 64
REMARK SMILES IDX 9 65 10 66 11 67 12 68 13 69 27 70 14 71 15 72 28 73 29 74
REMARK SMILES IDX 33 75 30 76 32 77 31 78 16 79 17 80 26 81 18 82 20 83 19 84
REMARK SMILES IDX 21 85 22 86 23 87 24 88 25 89
REMARK H PARENT 81 25 55 36
REMARK Flexibility Score: inf
ROOT
ATOM      1  C   UNL A   1      39.215  22.098  26.279  1.00  0.00     0.202 C 
ENDROOT
BRANCH   1   2
ATOM      2  O   UNL A   1      40.487  21.489  26.005  1.00  0.00    -0.374 OA
BRANCH   2   3
ATOM      3  C   UNL A   1      40.940  20.532  26.964  1.00  0.00     0.202 C 
BRANCH   3   4
ATOM      4  C   UNL A   1      42.221  19.789  26.599  1.00  0.00     0.261 C 
BRANCH   4   5
ATOM      5  O   UNL A   1      42.790  20.139  25.318  1.00  0.00    -0.460 OA
BRANCH   5   6
ATOM      6  C   UNL A   1      44.050  20.621  25.213  1.00  0.00     0.338 C 
ATOM      7  O   UNL A   1      44.948  19.999  24.661  1.00  0.00    -0.246 OA
BRANCH   6   8
ATOM      8  C   UNL A   1      44.177  22.071  25.503  1.00  0.00     0.060 A 
ATOM      9  C   UNL A   1      44.997  22.567  26.515  1.00  0.00     0.016 A 
ATOM     10  C   UNL A   1      43.346  22.950  24.794  1.00  0.00     0.016 A 
ATOM     11  C   UNL A   1      44.823  23.850  26.979  1.00  0.00     0.010 A 
ATOM     12  C   UNL A   1      43.210  24.264  25.219  1.00  0.00     0.010 A 
ATOM     13  C   UNL A   1      43.872  24.669  26.377  1.00  0.00    -0.014 A 
BRANCH  13  14
ATOM     14  C   UNL A   1      43.611  25.930  27.051  1.00  0.00     0.031 A 
ATOM     15  C   UNL A   1      44.622  27.003  26.838  1.00  0.00     0.074 A 
ATOM     16  C   UNL A   1      42.523  26.108  27.823  1.00  0.00     0.049 A 
ATOM     17  N   UNL A   1      45.323  27.644  27.719  1.00  0.00    -0.248 NA
ATOM     18  C   UNL A   1      44.960  27.329  25.444  1.00  0.00     0.031 C 
ATOM     19  C   UNL A   1      41.343  25.248  27.942  1.00  0.00     0.029 A 
ATOM     20  N   UNL A   1      42.206  27.179  28.598  1.00  0.00    -0.354 N 
ATOM     21  C   UNL A   1      46.070  28.577  27.002  1.00  0.00     0.074 A 
ATOM     22  C   UNL A   1      45.897  28.260  25.609  1.00  0.00     0.031 C 
ATOM     23  C   UNL A   1      40.349  25.945  28.533  1.00  0.00     0.029 A 
ATOM     24  C   UNL A   1      40.870  27.236  28.950  1.00  0.00     0.049 A 
ATOM     25  H   UNL A   1      42.865  27.853  28.881  1.00  0.00     0.167 HD
ATOM     26  C   UNL A   1      46.620  29.671  27.596  1.00  0.00     0.037 A 
ATOM     27  C   UNL A   1      40.219  28.308  29.457  1.00  0.00     0.037 A 
ATOM     28  C   UNL A   1      46.825  29.470  29.005  1.00  0.00     0.049 A 
ATOM     29  C   UNL A   1      41.232  29.235  30.018  1.00  0.00     0.074 A 
ATOM     30  C   UNL A   1      47.563  28.583  29.764  1.00  0.00     0.029 A 
ATOM     31  N   UNL A   1      45.976  30.087  29.889  1.00  0.00    -0.354 N 
ATOM     32  N   UNL A   1      41.936  28.993  31.089  1.00  0.00    -0.248 NA
ATOM     33  C   UNL A   1      41.767  30.269  29.144  1.00  0.00     0.031 C 
ATOM     34  C   UNL A   1      46.785  28.362  30.938  1.00  0.00     0.029 A 
ATOM     35  C   UNL A   1      45.638  29.148  30.827  1.00  0.00     0.049 A 
ATOM     36  H   UNL A   1      45.670  31.022  29.856  1.00  0.00     0.167 HD
ATOM     37  C   UNL A   1      43.187  29.532  30.823  1.00  0.00     0.074 A 
ATOM     38  C   UNL A   1      42.992  30.389  29.659  1.00  0.00     0.031 C 
ATOM     39  C   UNL A   1      44.316  29.021  31.395  1.00  0.00     0.037 A 
BRANCH  26  40
ATOM     40  C   UNL A   1      46.637  31.042  26.958  1.00  0.00     0.057 A 
ATOM     41  C   UNL A   1      47.834  31.782  26.940  1.00  0.00     0.134 A 
ATOM     42  C   UNL A   1      45.477  31.780  26.643  1.00  0.00     0.134 A 
ATOM     43  F   UNL A   1      49.009  31.201  27.225  1.00  0.00    -0.206 F 
ATOM     44  C   UNL A   1      47.860  33.166  26.720  1.00  0.00     0.040 A 
ATOM     45  C   UNL A   1      45.498  33.150  26.373  1.00  0.00     0.040 A 
ATOM     46  F   UNL A   1      44.251  31.245  26.675  1.00  0.00    -0.206 F 
ATOM     47  C   UNL A   1      46.686  33.857  26.448  1.00  0.00     0.006 A 
ENDBRANCH  26  40
BRANCH  27  48
ATOM     48  C   UNL A   1      38.823  28.707  29.181  1.00  0.00     0.057 A 
ATOM     49  C   UNL A   1      37.864  28.747  30.199  1.00  0.00     0.134 A 
ATOM     50  C   UNL A   1      38.452  29.291  27.955  1.00  0.00     0.134 A 
ATOM     51  F   UNL A   1      38.145  28.262  31.418  1.00  0.00    -0.206 F 
ATOM     52  C   UNL A   1      36.608  29.338  30.011  1.00  0.00     0.040 A 
ATOM     53  C   UNL A   1      37.198  29.871  27.750  1.00  0.00     0.040 A 
ATOM     54  F   UNL A   1      39.323  29.396  26.941  1.00  0.00    -0.206 F 
ATOM     55  C   UNL A   1      36.274  29.907  28.785  1.00  0.00     0.006 A 
ENDBRANCH  27  48
BRANCH  39  56
ATOM     56  C   UNL A   1      44.155  28.023  32.504  1.00  0.00     0.057 A 
ATOM     57  C   UNL A   1      44.034  26.643  32.288  1.00  0.00     0.134 A 
ATOM     58  C   UNL A   1      44.290  28.448  33.831  1.00  0.00     0.134 A 
ATOM     59  F   UNL A   1      44.009  26.136  31.049  1.00  0.00    -0.206 F 
ATOM     60  C   UNL A   1      44.002  25.731  33.347  1.00  0.00     0.040 A 
ATOM     61  C   UNL A   1      44.293  27.545  34.896  1.00  0.00     0.040 A 
ATOM     62  F   UNL A   1      44.476  29.748  34.109  1.00  0.00    -0.206 F 
ATOM     63  C   UNL A   1      44.137  26.181  34.656  1.00  0.00     0.006 A 
ENDBRANCH  39  56
ENDBRANCH  13  14
ENDBRANCH   6   8
ENDBRANCH   5   6
ENDBRANCH   4   5
ENDBRANCH   3   4
ENDBRANCH   2   3
ENDBRANCH   1   2
BRANCH   1  64
ATOM     64  C   UNL A   1      38.001  21.618  25.471  1.00  0.00     0.261 C 
BRANCH  64  65
ATOM     65  O   UNL A   1      36.833  22.404  25.752  1.00  0.00    -0.458 OA
BRANCH  65  66
ATOM     66  C   UNL A   1      35.642  21.891  25.319  1.00  0.00     0.361 C 
ATOM     67  O   UNL A   1      35.098  20.912  25.793  1.00  0.00    -0.244 OA
BRANCH  66  68
ATOM     68  C   UNL A   1      35.032  22.739  24.304  1.00  0.00     0.198 A 
ATOM     69  N   UNL A   1      35.637  22.966  23.086  1.00  0.00    -0.122 NA
ATOM     70  C   UNL A   1      33.785  23.342  24.307  1.00  0.00     0.109 A 
ATOM     71  N   UNL A   1      34.828  23.718  22.351  1.00  0.00    -0.061 NA
ATOM     72  N   UNL A   1      33.828  24.125  23.159  1.00  0.00    -0.212 N 
BRANCH  70  73
ATOM     73  C   UNL A   1      32.663  23.317  25.249  1.00  0.00     0.006 A 
ATOM     74  C   UNL A   1      31.685  22.327  25.176  1.00  0.00     0.030 A 
ATOM     75  C   UNL A   1      32.561  24.286  26.252  1.00  0.00     0.030 A 
ATOM     76  C   UNL A   1      30.655  22.346  26.101  1.00  0.00     0.111 A 
ATOM     77  C   UNL A   1      31.495  24.217  27.135  1.00  0.00     0.111 A 
ATOM     78  N   UNL A   1      30.541  23.267  27.080  1.00  0.00    -0.265 NA
ENDBRANCH  70  73
BRANCH  72  79
ATOM     79  C   UNL A   1      33.173  25.357  22.955  1.00  0.00     0.071 A 
ATOM     80  C   UNL A   1      32.068  25.464  22.115  1.00  0.00     0.029 A 
ATOM     81  C   UNL A   1      33.688  26.480  23.620  1.00  0.00     0.075 A 
ATOM     82  C   UNL A   1      31.424  26.698  22.027  1.00  0.00     0.006 A 
ATOM     83  C   UNL A   1      33.072  27.717  23.503  1.00  0.00     0.131 A 
ATOM     84  C   UNL A   1      31.918  27.812  22.722  1.00  0.00     0.047 A 
BRANCH  83  85
ATOM     85  O   UNL A   1      33.496  28.871  24.096  1.00  0.00    -0.406 OA
BRANCH  85  86
ATOM     86  C   UNL A   1      33.357  28.965  25.510  1.00  0.00     0.573 C 
ATOM     87  F   UNL A   1      32.227  28.358  25.934  1.00  0.00    -0.132 F 
ATOM     88  F   UNL A   1      34.418  28.414  26.141  1.00  0.00    -0.132 F 
ATOM     89  F   UNL A   1      33.290  30.266  25.862  1.00  0.00    -0.132 F 
ENDBRANCH  85  86
ENDBRANCH  83  85
ENDBRANCH  72  79
ENDBRANCH  66  68
ENDBRANCH  65  66
ENDBRANCH  64  65
ENDBRANCH   1  64
TORSDOF 18
ENDMDL
MODEL 2
REMARK VINA RESULT:     -10.9      2.525      3.835
REMARK SMILES O=C(OCCOCCOC(=O)c1nnn(-c2cccc(OC(F)(F)F)c2)c1-c1ccncc1)c1ccc(-c2c3nc(c(-c4c(F)cccc4F)c4ccc([nH]4)c(-c4c(F)cccc4F)c4nc(c(-c5c(F)cccc5F)c5ccc2[nH]5)C=C4)C=C3)cc1
REMARK SMILES IDX 7 1 6 2 5 3 4 4 3 5 2 6 1 7 34 8 35 9 87 10 36 11 86 12
REMARK SMILES IDX 37 13 38 14 39 15 80 16 40 17 85 18 79 19 81 20 41 21 84 22
REMARK SMILES IDX 78 23 77 24 42 26 68 27 51 28 67 29 52 30 55 31 66 32 82 33
REMARK SMILES IDX 53 34 54 35 65 37 83 38 56 39 43 40 44 41 49 42 45 43 46 44
REMARK SMILES IDX 48 45 50 46 47 47 69 48 70 49 75 50 71 51 72 52 74 53 76 54
REMARK SMILES IDX 73 55 57 56 58 57 63 58 59 59 60 60 62 61 64 62 61 63 8 64
REMARK SMILES IDX 9 65 10 66 11 67 12 68 13 69 27 70 14 71 15 72 28 73 29 74
REMARK SMILES IDX 33 75 30 76 32 77 31 78 16 79 17 80 26 81 18 82 20 83 19 84
REMARK SMILES IDX 21 85 22 86 23 87 24 88 25 89
REMARK H PARENT 81 25 55 36
REMARK Flexibility Score: inf
ROOT
ATOM      1  C   UNL A   1      35.497  21.177  24.814  1.00  0.00     0.202 C 
ENDROOT
BRANCH   1   2
ATOM      2  O   UNL A   1      36.419  21.967  25.583  1.00  0.00    -0.374 OA
BRANCH   2   3
ATOM      3  C   UNL A   1      37.723  22.128  25.022  1.00  0.00     0.202 C 
BRANCH   3   4
ATOM      4  C   UNL A   1      38.885  21.800  25.953  1.00  0.00     0.261 C 
BRANCH   4   5
ATOM      5  O   UNL A   1      39.233  22.843  26.891  1.00  0.00    -0.460 OA
BRANCH   5   6
ATOM      6  C   UNL A   1      40.508  23.018  27.311  1.00  0.00     0.338 C 
ATOM      7  O   UNL A   1      41.334  22.114  27.296  1.00  0.00    -0.246 OA
BRANCH   6   8
ATOM      8  C   UNL A   1      40.915  24.438  27.459  1.00  0.00     0.060 A 
ATOM      9  C   UNL A   1      41.926  24.843  28.328  1.00  0.00     0.016 A 
ATOM     10  C   UNL A   1      40.164  25.403  26.772  1.00  0.00     0.016 A 
ATOM     11  C   UNL A   1      42.031  26.164  28.697  1.00  0.00     0.010 A 
ATOM     12  C   UNL A   1      40.307  26.744  27.096  1.00  0.00     0.010 A 
ATOM     13  C   UNL A   1      41.166  27.099  28.135  1.00  0.00    -0.014 A 
BRANCH  13  14
ATOM     14  C   UNL A   1      41.210  28.428  28.723  1.00  0.00     0.031 A 
ATOM     15  C   UNL A   1      42.394  29.258  28.367  1.00  0.00     0.074 A 
ATOM     16  C   UNL A   1      40.238  28.871  29.541  1.00  0.00     0.049 A 
ATOM     17  N   UNL A   1      43.270  29.800  29.152  1.00  0.00    -0.248 NA
ATOM     18  C   UNL A   1      42.686  29.419  26.935  1.00  0.00     0.031 C 
ATOM     19  C   UNL A   1      38.923  28.277  29.797  1.00  0.00     0.029 A 
ATOM     20  N   UNL A   1      40.196  30.032  30.248  1.00  0.00    -0.354 N 
ATOM     21  C   UNL A   1      44.132  30.516  28.322  1.00  0.00     0.074 A 
ATOM     22  C   UNL A   1      43.797  30.151  26.971  1.00  0.00     0.031 C 
ATOM     23  C   UNL A   1      38.133  29.196  30.390  1.00  0.00     0.029 A 
ATOM     24  C   UNL A   1      38.927  30.380  30.673  1.00  0.00     0.049 A 
ATOM     25  H   UNL A   1      40.994  30.576  30.438  1.00  0.00     0.167 HD
ATOM     26  C   UNL A   1      44.929  31.512  28.795  1.00  0.00     0.037 A 
ATOM     27  C   UNL A   1      38.539  31.592  31.132  1.00  0.00     0.037 A 
ATOM     28  C   UNL A   1      45.193  31.365  30.201  1.00  0.00     0.049 A 
ATOM     29  C   UNL A   1      39.753  32.330  31.559  1.00  0.00     0.074 A 
ATOM     30  C   UNL A   1      45.795  30.398  30.982  1.00  0.00     0.029 A 
ATOM     31  N   UNL A   1      44.550  32.196  31.083  1.00  0.00    -0.354 N 
ATOM     32  N   UNL A   1      40.472  32.020  32.601  1.00  0.00    -0.248 NA
ATOM     33  C   UNL A   1      40.415  33.175  30.576  1.00  0.00     0.031 C 
ATOM     34  C   UNL A   1      45.077  30.416  32.214  1.00  0.00     0.029 A 
ATOM     35  C   UNL A   1      44.102  31.408  32.110  1.00  0.00     0.049 A 
ATOM     36  H   UNL A   1      44.432  33.170  30.995  1.00  0.00     0.167 HD
ATOM     37  C   UNL A   1      41.782  32.277  32.220  1.00  0.00     0.074 A 
ATOM     38  C   UNL A   1      41.675  33.079  31.006  1.00  0.00     0.031 C 
ATOM     39  C   UNL A   1      42.827  31.587  32.763  1.00  0.00     0.037 A 
BRANCH  26  40
ATOM     40  C   UNL A   1      45.168  32.807  28.052  1.00  0.00     0.057 A 
ATOM     41  C   UNL A   1      46.483  33.174  27.708  1.00  0.00     0.134 A 
ATOM     42  C   UNL A   1      44.213  33.838  27.936  1.00  0.00     0.134 A 
ATOM     43  F   UNL A   1      47.488  32.288  27.778  1.00  0.00    -0.206 F 
ATOM     44  C   UNL A   1      46.832  34.488  27.368  1.00  0.00     0.040 A 
ATOM     45  C   UNL A   1      44.543  35.139  27.549  1.00  0.00     0.040 A 
ATOM     46  F   UNL A   1      42.931  33.676  28.283  1.00  0.00    -0.206 F 
ATOM     47  C   UNL A   1      45.862  35.479  27.301  1.00  0.00     0.006 A 
ENDBRANCH  26  40
BRANCH  27  48
ATOM     48  C   UNL A   1      37.232  32.246  30.909  1.00  0.00     0.057 A 
ATOM     49  C   UNL A   1      36.946  32.908  29.710  1.00  0.00     0.134 A 
ATOM     50  C   UNL A   1      36.144  32.030  31.774  1.00  0.00     0.134 A 
ATOM     51  F   UNL A   1      37.909  33.112  28.799  1.00  0.00    -0.206 F 
ATOM     52  C   UNL A   1      35.649  33.328  29.387  1.00  0.00     0.040 A 
ATOM     53  C   UNL A   1      34.848  32.457  31.471  1.00  0.00     0.040 A 
ATOM     54  F   UNL A   1      36.281  31.323  32.906  1.00  0.00    -0.206 F 
ATOM     55  C   UNL A   1      34.595  33.099  30.267  1.00  0.00     0.006 A 
ENDBRANCH  27  48
BRANCH  39  56
ATOM     56  C   UNL A   1      42.555  30.716  33.954  1.00  0.00     0.057 A 
ATOM     57  C   UNL A   1      42.592  31.184  35.276  1.00  0.00     0.134 A 
ATOM     58  C   UNL A   1      42.084  29.414  33.755  1.00  0.00     0.134 A 
ATOM     59  F   UNL A   1      42.925  32.451  35.553  1.00  0.00    -0.206 F 
ATOM     60  C   UNL A   1      42.221  30.376  36.355  1.00  0.00     0.040 A 
ATOM     61  C   UNL A   1      41.679  28.607  34.821  1.00  0.00     0.040 A 
ATOM     62  F   UNL A   1      41.959  28.921  32.512  1.00  0.00    -0.206 F 
ATOM     63  C   UNL A   1      41.756  29.084  36.128  1.00  0.00     0.006 A 
ENDBRANCH  39  56
ENDBRANCH  13  14
ENDBRANCH   6   8
ENDBRANCH   5   6
ENDBRANCH   4   5
ENDBRANCH   3   4
ENDBRANCH   2   3
ENDBRANCH   1   2
BRANCH   1  64
ATOM     64  C   UNL A   1      34.337  21.902  24.118  1.00  0.00     0.261 C 
BRANCH  64  65
ATOM     65  O   UNL A   1      34.733  23.196  23.639  1.00  0.00    -0.458 OA
BRANCH  65  66
ATOM     66  C   UNL A   1      33.915  23.771  22.707  1.00  0.00     0.361 C 
ATOM     67  O   UNL A   1      33.547  23.228  21.681  1.00  0.00    -0.244 OA
BRANCH  66  68
ATOM     68  C   UNL A   1      33.424  25.067  23.151  1.00  0.00     0.198 A 
ATOM     69  N   UNL A   1      33.551  26.199  22.374  1.00  0.00    -0.122 NA
ATOM     70  C   UNL A   1      32.696  25.380  24.288  1.00  0.00     0.109 A 
ATOM     71  N   UNL A   1      32.962  27.207  23.006  1.00  0.00    -0.061 NA
ATOM     72  N   UNL A   1      32.652  26.769  24.242  1.00  0.00    -0.212 N 
BRANCH  70  73
ATOM     73  C   UNL A   1      32.141  24.571  25.376  1.00  0.00     0.006 A 
ATOM     74  C   UNL A   1      32.946  24.123  26.422  1.00  0.00     0.030 A 
ATOM     75  C   UNL A   1      30.781  24.242  25.390  1.00  0.00     0.030 A 
ATOM     76  C   UNL A   1      32.364  23.372  27.429  1.00  0.00     0.111 A 
ATOM     77  C   UNL A   1      30.292  23.490  26.446  1.00  0.00     0.111 A 
ATOM     78  N   UNL A   1      31.055  23.050  27.465  1.00  0.00    -0.265 NA
ENDBRANCH  70  73
BRANCH  72  79
ATOM     79  C   UNL A   1      32.608  27.647  25.344  1.00  0.00     0.071 A 
ATOM     80  C   UNL A   1      31.530  27.659  26.224  1.00  0.00     0.029 A 
ATOM     81  C   UNL A   1      33.691  28.524  25.513  1.00  0.00     0.075 A 
ATOM     82  C   UNL A   1      31.595  28.498  27.337  1.00  0.00     0.006 A 
ATOM     83  C   UNL A   1      33.740  29.387  26.598  1.00  0.00     0.131 A 
ATOM     84  C   UNL A   1      32.695  29.348  27.525  1.00  0.00     0.047 A 
BRANCH  83  85
ATOM     85  O   UNL A   1      34.737  30.285  26.849  1.00  0.00    -0.406 OA
BRANCH  85  86
ATOM     86  C   UNL A   1      35.782  29.871  27.723  1.00  0.00     0.573 C 
ATOM     87  F   UNL A   1      36.032  28.549  27.595  1.00  0.00    -0.132 F 
ATOM     88  F   UNL A   1      36.919  30.561  27.483  1.00  0.00    -0.132 F 
ATOM     89  F   UNL A   1      35.410  30.104  28.999  1.00  0.00    -0.132 F 
ENDBRANCH  85  86
ENDBRANCH  83  85
ENDBRANCH  72  79
ENDBRANCH  66  68
ENDBRANCH  65  66
ENDBRANCH  64  65
ENDBRANCH   1  64
TORSDOF 18
ENDMDL
MODEL 3
REMARK VINA RESULT:     -10.8      2.605      7.470
REMARK SMILES O=C(OCCOCCOC(=O)c1nnn(-c2cccc(OC(F)(F)F)c2)c1-c1ccncc1)c1ccc(-c2c3nc(c(-c4c(F)cccc4F)c4ccc([nH]4)c(-c4c(F)cccc4F)c4nc(c(-c5c(F)cccc5F)c5ccc2[nH]5)C=C4)C=C3)cc1
REMARK SMILES IDX 7 1 6 2 5 3 4 4 3 5 2 6 1 7 34 8 35 9 87 10 36 11 86 12
REMARK SMILES IDX 37 13 38 14 39 15 80 16 40 17 85 18 79 19 81 20 41 21 84 22
REMARK SMILES IDX 78 23 77 24 42 26 68 27 51 28 67 29 52 30 55 31 66 32 82 33
REMARK SMILES IDX 53 34 54 35 65 37 83 38 56 39 43 40 44 41 49 42 45 43 46 44
REMARK SMILES IDX 48 45 50 46 47 47 69 48 70 49 75 50 71 51 72 52 74 53 76 54
REMARK SMILES IDX 73 55 57 56 58 57 63 58 59 59 60 60 62 61 64 62 61 63 8 64
REMARK SMILES IDX 9 65 10 66 11 67 12 68 13 69 27 70 14 71 15 72 28 73 29 74
REMARK SMILES IDX 33 75 30 76 32 77 31 78 16 79 17 80 26 81 18 82 20 83 19 84
REMARK SMILES IDX 21 85 22 86 23 87 24 88 25 89
REMARK H PARENT 81 25 55 36
REMARK Flexibility Score: inf
ROOT
ATOM      1  C   UNL A   1      32.413  29.865  27.246  1.00  0.00     0.202 C 
ENDROOT
BRANCH   1   2
ATOM      2  O   UNL A   1      33.487  30.762  26.919  1.00  0.00    -0.374 OA
BRANCH   2   3
ATOM      3  C   UNL A   1      33.713  31.829  27.841  1.00  0.00     0.202 C 
BRANCH   3   4
ATOM      4  C   UNL A   1      34.936  31.677  28.739  1.00  0.00     0.261 C 
BRANCH   4   5
ATOM      5  O   UNL A   1      35.612  30.404  28.643  1.00  0.00    -0.460 OA
BRANCH   5   6
ATOM      6  C   UNL A   1      36.362  29.925  29.663  1.00  0.00     0.338 C 
ATOM      7  O   UNL A   1      35.943  29.856  30.811  1.00  0.00    -0.246 OA
BRANCH   6   8
ATOM      8  C   UNL A   1      37.576  29.185  29.236  1.00  0.00     0.060 A 
ATOM      9  C   UNL A   1      38.195  28.228  30.039  1.00  0.00     0.016 A 
ATOM     10  C   UNL A   1      38.171  29.559  28.022  1.00  0.00     0.016 A 
ATOM     11  C   UNL A   1      39.484  27.832  29.771  1.00  0.00     0.010 A 
ATOM     12  C   UNL A   1      39.449  29.115  27.716  1.00  0.00     0.010 A 
ATOM     13  C   UNL A   1      40.135  28.339  28.650  1.00  0.00    -0.014 A 
BRANCH  13  14
ATOM     14  C   UNL A   1      41.552  28.029  28.551  1.00  0.00     0.031 A 
ATOM     15  C   UNL A   1      41.890  26.736  27.894  1.00  0.00     0.074 A 
ATOM     16  C   UNL A   1      42.493  28.863  29.030  1.00  0.00     0.049 A 
ATOM     17  N   UNL A   1      42.566  25.738  28.368  1.00  0.00    -0.248 NA
ATOM     18  C   UNL A   1      41.310  26.495  26.564  1.00  0.00     0.031 C 
ATOM     19  C   UNL A   1      42.336  30.247  29.484  1.00  0.00     0.029 A 
ATOM     20  N   UNL A   1      43.835  28.661  29.112  1.00  0.00    -0.354 N 
ATOM     21  C   UNL A   1      42.643  24.807  27.334  1.00  0.00     0.074 A 
ATOM     22  C   UNL A   1      41.758  25.271  26.297  1.00  0.00     0.031 C 
ATOM     23  C   UNL A   1      43.552  30.829  29.549  1.00  0.00     0.029 A 
ATOM     24  C   UNL A   1      44.565  29.824  29.277  1.00  0.00     0.049 A 
ATOM     25  H   UNL A   1      44.250  27.769  29.056  1.00  0.00     0.167 HD
ATOM     26  C   UNL A   1      43.581  23.822  27.317  1.00  0.00     0.037 A 
ATOM     27  C   UNL A   1      45.899  29.964  29.102  1.00  0.00     0.037 A 
ATOM     28  C   UNL A   1      44.060  23.515  28.637  1.00  0.00     0.049 A 
ATOM     29  C   UNL A   1      46.516  28.618  29.181  1.00  0.00     0.074 A 
ATOM     30  C   UNL A   1      43.476  23.055  29.802  1.00  0.00     0.029 A 
ATOM     31  N   UNL A   1      45.307  23.953  29.005  1.00  0.00    -0.354 N 
ATOM     32  N   UNL A   1      46.602  27.912  30.274  1.00  0.00    -0.248 NA
ATOM     33  C   UNL A   1      46.671  27.867  27.943  1.00  0.00     0.031 C 
ATOM     34  C   UNL A   1      44.195  23.693  30.855  1.00  0.00     0.029 A 
ATOM     35  C   UNL A   1      45.183  24.480  30.263  1.00  0.00     0.049 A 
ATOM     36  H   UNL A   1      46.131  23.900  28.468  1.00  0.00     0.167 HD
ATOM     37  C   UNL A   1      46.409  26.600  29.867  1.00  0.00     0.074 A 
ATOM     38  C   UNL A   1      46.559  26.625  28.416  1.00  0.00     0.031 C 
ATOM     39  C   UNL A   1      45.874  25.667  30.708  1.00  0.00     0.037 A 
BRANCH  26  40
ATOM     40  C   UNL A   1      44.314  23.394  26.065  1.00  0.00     0.057 A 
ATOM     41  C   UNL A   1      44.335  22.033  25.706  1.00  0.00     0.134 A 
ATOM     42  C   UNL A   1      45.242  24.204  25.379  1.00  0.00     0.134 A 
ATOM     43  F   UNL A   1      43.505  21.153  26.287  1.00  0.00    -0.206 F 
ATOM     44  C   UNL A   1      45.271  21.507  24.807  1.00  0.00     0.040 A 
ATOM     45  C   UNL A   1      46.146  23.697  24.442  1.00  0.00     0.040 A 
ATOM     46  F   UNL A   1      45.397  25.507  25.643  1.00  0.00    -0.206 F 
ATOM     47  C   UNL A   1      46.190  22.339  24.181  1.00  0.00     0.006 A 
ENDBRANCH  26  40
BRANCH  27  48
ATOM     48  C   UNL A   1      46.599  31.143  28.551  1.00  0.00     0.057 A 
ATOM     49  C   UNL A   1      47.664  31.742  29.233  1.00  0.00     0.134 A 
ATOM     50  C   UNL A   1      46.396  31.567  27.224  1.00  0.00     0.134 A 
ATOM     51  F   UNL A   1      47.967  31.365  30.484  1.00  0.00    -0.206 F 
ATOM     52  C   UNL A   1      48.484  32.703  28.629  1.00  0.00     0.040 A 
ATOM     53  C   UNL A   1      47.197  32.535  26.614  1.00  0.00     0.040 A 
ATOM     54  F   UNL A   1      45.467  30.995  26.444  1.00  0.00    -0.206 F 
ATOM     55  C   UNL A   1      48.255  33.099  27.315  1.00  0.00     0.006 A 
ENDBRANCH  27  48
BRANCH  39  56
ATOM     56  C   UNL A   1      45.723  26.028  32.157  1.00  0.00     0.057 A 
ATOM     57  C   UNL A   1      44.556  26.590  32.694  1.00  0.00     0.134 A 
ATOM     58  C   UNL A   1      46.720  25.648  33.063  1.00  0.00     0.134 A 
ATOM     59  F   UNL A   1      43.507  26.883  31.915  1.00  0.00    -0.206 F 
ATOM     60  C   UNL A   1      44.407  26.807  34.067  1.00  0.00     0.040 A 
ATOM     61  C   UNL A   1      46.570  25.829  34.440  1.00  0.00     0.040 A 
ATOM     62  F   UNL A   1      47.837  25.044  32.627  1.00  0.00    -0.206 F 
ATOM     63  C   UNL A   1      45.414  26.420  34.945  1.00  0.00     0.006 A 
ENDBRANCH  39  56
ENDBRANCH  13  14
ENDBRANCH   6   8
ENDBRANCH   5   6
ENDBRANCH   4   5
ENDBRANCH   3   4
ENDBRANCH   2   3
ENDBRANCH   1   2
BRANCH   1  64
ATOM     64  C   UNL A   1      32.736  28.367  27.346  1.00  0.00     0.261 C 
BRANCH  64  65
ATOM     65  O   UNL A   1      31.542  27.572  27.409  1.00  0.00    -0.458 OA
BRANCH  65  66
ATOM     66  C   UNL A   1      31.066  27.103  26.216  1.00  0.00     0.361 C 
ATOM     67  O   UNL A   1      30.666  27.807  25.308  1.00  0.00    -0.244 OA
BRANCH  66  68
ATOM     68  C   UNL A   1      31.220  25.660  26.108  1.00  0.00     0.198 A 
ATOM     69  N   UNL A   1      30.703  24.800  27.053  1.00  0.00    -0.122 NA
ATOM     70  C   UNL A   1      31.767  24.917  25.074  1.00  0.00     0.109 A 
ATOM     71  N   UNL A   1      30.943  23.555  26.662  1.00  0.00    -0.061 NA
ATOM     72  N   UNL A   1      31.770  23.629  25.599  1.00  0.00    -0.212 N 
BRANCH  70  73
ATOM     73  C   UNL A   1      32.316  25.276  23.764  1.00  0.00     0.006 A 
ATOM     74  C   UNL A   1      33.618  25.755  23.637  1.00  0.00     0.030 A 
ATOM     75  C   UNL A   1      31.540  25.131  22.609  1.00  0.00     0.030 A 
ATOM     76  C   UNL A   1      34.088  26.067  22.372  1.00  0.00     0.111 A 
ATOM     77  C   UNL A   1      32.103  25.465  21.387  1.00  0.00     0.111 A 
ATOM     78  N   UNL A   1      33.360  25.929  21.246  1.00  0.00    -0.265 NA
ENDBRANCH  70  73
BRANCH  72  79
ATOM     79  C   UNL A   1      32.698  22.607  25.317  1.00  0.00     0.071 A 
ATOM     80  C   UNL A   1      32.340  21.482  24.579  1.00  0.00     0.029 A 
ATOM     81  C   UNL A   1      33.998  22.758  25.822  1.00  0.00     0.075 A 
ATOM     82  C   UNL A   1      33.334  20.552  24.270  1.00  0.00     0.006 A 
ATOM     83  C   UNL A   1      34.978  21.814  25.550  1.00  0.00     0.131 A 
ATOM     84  C   UNL A   1      34.643  20.722  24.746  1.00  0.00     0.047 A 
BRANCH  83  85
ATOM     85  O   UNL A   1      36.266  21.859  26.000  1.00  0.00    -0.406 OA
BRANCH  85  86
ATOM     86  C   UNL A   1      37.108  22.874  25.464  1.00  0.00     0.573 C 
ATOM     87  F   UNL A   1      36.802  23.135  24.175  1.00  0.00    -0.132 F 
ATOM     88  F   UNL A   1      37.011  24.016  26.181  1.00  0.00    -0.132 F 
ATOM     89  F   UNL A   1      38.391  22.456  25.514  1.00  0.00    -0.132 F 
ENDBRANCH  85  86
ENDBRANCH  83  85
ENDBRANCH  72  79
ENDBRANCH  66  68
ENDBRANCH  65  66
ENDBRANCH  64  65
ENDBRANCH   1  64
TORSDOF 18
ENDMDL
