MODEL 1
REMARK VINA RESULT:      -9.6      0.000      0.000
REMARK SMILES N#Cc1nccn1-c1ccc(F)cc1C(=O)OCCOCCOC(=O)c1ccc(-c2c3nc(c(-c4c(F)cccc4F)c4ccc([nH]4)c(-c4c(F)cccc4F)c4nc(c(-c5c(F)cccc5F)c5ccc2[nH]5)C=C4)C=C3)cc1
REMARK SMILES IDX 20 1 19 2 18 3 17 4 15 5 16 6 14 7 8 8 9 9 10 10 13 11 11 12
REMARK SMILES IDX 12 13 7 14 3 15 4 16 5 17 6 18 2 19 1 20 21 21 22 22 23 23
REMARK SMILES IDX 24 24 25 25 26 26 27 27 79 28 28 29 78 30 29 31 30 32 31 33
REMARK SMILES IDX 72 34 32 35 77 36 71 37 73 38 33 39 76 40 70 41 69 42 34 44
REMARK SMILES IDX 60 45 43 46 59 47 44 48 47 49 58 50 74 51 45 52 46 53 57 55
REMARK SMILES IDX 75 56 48 57 35 58 36 59 41 60 37 61 38 62 40 63 42 64 39 65
REMARK SMILES IDX 61 66 62 67 67 68 63 69 64 70 66 71 68 72 65 73 49 74 50 75
REMARK SMILES IDX 55 76 51 77 52 78 54 79 56 80 53 81
REMARK H PARENT 73 43 47 54
REMARK Flexibility Score: inf
ROOT
ATOM      1  O   UNL A   1      34.075  33.054  31.652  1.00  0.00    -0.374 OA
ENDROOT
BRANCH   1   2
ATOM      2  C   UNL A   1      34.042  33.369  33.044  1.00  0.00     0.202 C 
BRANCH   2   3
ATOM      3  C   UNL A   1      35.284  33.066  33.876  1.00  0.00     0.261 C 
BRANCH   3   4
ATOM      4  O   UNL A   1      36.479  33.055  33.076  1.00  0.00    -0.460 OA
BRANCH   4   5
ATOM      5  C   UNL A   1      37.127  34.241  32.998  1.00  0.00     0.340 C 
ATOM      6  O   UNL A   1      36.770  35.304  33.474  1.00  0.00    -0.246 OA
BRANCH   5   7
ATOM      7  C   UNL A   1      38.461  34.072  32.376  1.00  0.00     0.087 A 
ATOM      8  C   UNL A   1      39.601  33.505  32.980  1.00  0.00     0.062 A 
ATOM      9  C   UNL A   1      40.793  33.405  32.236  1.00  0.00     0.030 A 
ATOM     10  C   UNL A   1      40.866  33.913  30.936  1.00  0.00     0.041 A 
ATOM     11  C   UNL A   1      38.561  34.604  31.077  1.00  0.00     0.057 A 
ATOM     12  C   UNL A   1      39.758  34.530  30.379  1.00  0.00     0.124 A 
ATOM     13  F   UNL A   1      39.842  35.058  29.153  1.00  0.00    -0.207 F 
BRANCH   8  14
ATOM     14  N   UNL A   1      39.605  33.038  34.323  1.00  0.00    -0.291 N 
ATOM     15  C   UNL A   1      39.676  33.804  35.480  1.00  0.00     0.217 A 
ATOM     16  N   UNL A   1      39.578  33.055  36.563  1.00  0.00    -0.227 NA
ATOM     17  C   UNL A   1      39.469  31.769  36.114  1.00  0.00     0.132 A 
ATOM     18  C   UNL A   1      39.517  31.728  34.742  1.00  0.00     0.114 A 
BRANCH  15  19
ATOM     19  C   UNL A   1      39.717  35.235  35.533  1.00  0.00     0.139 C 
ATOM     20  N   UNL A   1      39.771  36.388  35.614  1.00  0.00    -0.189 NA
ENDBRANCH  15  19
ENDBRANCH   8  14
ENDBRANCH   5   7
ENDBRANCH   4   5
ENDBRANCH   3   4
ENDBRANCH   2   3
ENDBRANCH   1   2
BRANCH   1  21
ATOM     21  C   UNL A   1      34.198  34.092  30.688  1.00  0.00     0.202 C 
BRANCH  21  22
ATOM     22  C   UNL A   1      33.920  33.768  29.228  1.00  0.00     0.261 C 
BRANCH  22  23
ATOM     23  O   UNL A   1      34.321  32.455  28.864  1.00  0.00    -0.460 OA
BRANCH  23  24
ATOM     24  C   UNL A   1      35.563  32.412  28.321  1.00  0.00     0.338 C 
ATOM     25  O   UNL A   1      35.963  33.020  27.342  1.00  0.00    -0.246 OA
BRANCH  24  26
ATOM     26  C   UNL A   1      36.321  31.338  28.963  1.00  0.00     0.060 A 
ATOM     27  C   UNL A   1      37.214  31.724  29.962  1.00  0.00     0.016 A 
ATOM     28  C   UNL A   1      36.425  30.109  28.302  1.00  0.00     0.016 A 
ATOM     29  C   UNL A   1      38.374  30.996  30.098  1.00  0.00     0.010 A 
ATOM     30  C   UNL A   1      37.584  29.392  28.429  1.00  0.00     0.010 A 
ATOM     31  C   UNL A   1      38.585  29.905  29.244  1.00  0.00    -0.014 A 
BRANCH  31  32
ATOM     32  C   UNL A   1      39.825  29.172  29.347  1.00  0.00     0.031 A 
ATOM     33  C   UNL A   1      40.130  28.884  30.762  1.00  0.00     0.074 A 
ATOM     34  C   UNL A   1      40.524  28.739  28.279  1.00  0.00     0.049 A 
ATOM     35  N   UNL A   1      41.003  29.489  31.494  1.00  0.00    -0.248 NA
ATOM     36  C   UNL A   1      39.189  28.041  31.522  1.00  0.00     0.031 C 
ATOM     37  C   UNL A   1      40.166  28.787  26.860  1.00  0.00     0.029 A 
ATOM     38  N   UNL A   1      41.714  28.075  28.266  1.00  0.00    -0.354 N 
ATOM     39  C   UNL A   1      40.886  28.908  32.747  1.00  0.00     0.074 A 
ATOM     40  C   UNL A   1      39.615  28.238  32.771  1.00  0.00     0.031 C 
ATOM     41  C   UNL A   1      40.998  27.980  26.158  1.00  0.00     0.029 A 
ATOM     42  C   UNL A   1      42.026  27.470  27.046  1.00  0.00     0.049 A 
ATOM     43  H   UNL A   1      42.306  28.026  29.052  1.00  0.00     0.167 HD
ATOM     44  C   UNL A   1      41.981  28.754  33.534  1.00  0.00     0.037 A 
ATOM     45  C   UNL A   1      43.030  26.569  26.853  1.00  0.00     0.037 A 
ATOM     46  C   UNL A   1      43.065  29.589  33.078  1.00  0.00     0.049 A 
ATOM     47  C   UNL A   1      43.988  26.749  27.978  1.00  0.00     0.074 A 
ATOM     48  C   UNL A   1      43.237  30.951  32.929  1.00  0.00     0.029 A 
ATOM     49  N   UNL A   1      44.018  28.993  32.289  1.00  0.00    -0.354 N 
ATOM     50  N   UNL A   1      44.720  27.818  28.132  1.00  0.00    -0.248 NA
ATOM     51  C   UNL A   1      43.744  25.973  29.184  1.00  0.00     0.031 C 
ATOM     52  C   UNL A   1      43.970  31.102  31.717  1.00  0.00     0.029 A 
ATOM     53  C   UNL A   1      44.294  29.831  31.240  1.00  0.00     0.049 A 
ATOM     54  H   UNL A   1      44.430  28.113  32.448  1.00  0.00     0.167 HD
ATOM     55  C   UNL A   1      44.644  28.096  29.489  1.00  0.00     0.074 A 
ATOM     56  C   UNL A   1      44.069  26.895  30.096  1.00  0.00     0.031 C 
ATOM     57  C   UNL A   1      44.757  29.376  29.949  1.00  0.00     0.037 A 
BRANCH  44  58
ATOM     58  C   UNL A   1      42.193  27.565  34.428  1.00  0.00     0.057 A 
ATOM     59  C   UNL A   1      42.932  26.417  34.067  1.00  0.00     0.134 A 
ATOM     60  C   UNL A   1      41.885  27.673  35.793  1.00  0.00     0.134 A 
ATOM     61  F   UNL A   1      43.420  26.229  32.835  1.00  0.00    -0.206 F 
ATOM     62  C   UNL A   1      43.312  25.438  34.985  1.00  0.00     0.040 A 
ATOM     63  C   UNL A   1      42.312  26.727  36.732  1.00  0.00     0.040 A 
ATOM     64  F   UNL A   1      41.227  28.741  36.265  1.00  0.00    -0.206 F 
ATOM     65  C   UNL A   1      43.024  25.603  36.328  1.00  0.00     0.006 A 
ENDBRANCH  44  58
BRANCH  45  66
ATOM     66  C   UNL A   1      43.043  25.328  26.033  1.00  0.00     0.057 A 
ATOM     67  C   UNL A   1      42.199  24.243  26.322  1.00  0.00     0.134 A 
ATOM     68  C   UNL A   1      44.111  25.054  25.161  1.00  0.00     0.134 A 
ATOM     69  F   UNL A   1      41.176  24.370  27.179  1.00  0.00    -0.206 F 
ATOM     70  C   UNL A   1      42.431  22.957  25.818  1.00  0.00     0.040 A 
ATOM     71  C   UNL A   1      44.356  23.769  24.652  1.00  0.00     0.040 A 
ATOM     72  F   UNL A   1      44.994  26.012  24.843  1.00  0.00    -0.206 F 
ATOM     73  C   UNL A   1      43.523  22.710  24.997  1.00  0.00     0.006 A 
ENDBRANCH  45  66
BRANCH  57  74
ATOM     74  C   UNL A   1      45.206  30.444  28.987  1.00  0.00     0.057 A 
ATOM     75  C   UNL A   1      44.227  31.110  28.243  1.00  0.00     0.134 A 
ATOM     76  C   UNL A   1      46.545  30.696  28.643  1.00  0.00     0.134 A 
ATOM     77  F   UNL A   1      42.927  30.882  28.486  1.00  0.00    -0.206 F 
ATOM     78  C   UNL A   1      44.553  31.971  27.194  1.00  0.00     0.040 A 
ATOM     79  C   UNL A   1      46.886  31.585  27.616  1.00  0.00     0.040 A 
ATOM     80  F   UNL A   1      47.551  30.043  29.240  1.00  0.00    -0.206 F 
ATOM     81  C   UNL A   1      45.887  32.215  26.880  1.00  0.00     0.006 A 
ENDBRANCH  57  74
ENDBRANCH  31  32
ENDBRANCH  24  26
ENDBRANCH  23  24
ENDBRANCH  22  23
ENDBRANCH  21  22
ENDBRANCH   1  21
TORSDOF 16
ENDMDL
MODEL 2
REMARK VINA RESULT:      -9.5      1.422      2.145
REMARK SMILES N#Cc1nccn1-c1ccc(F)cc1C(=O)OCCOCCOC(=O)c1ccc(-c2c3nc(c(-c4c(F)cccc4F)c4ccc([nH]4)c(-c4c(F)cccc4F)c4nc(c(-c5c(F)cccc5F)c5ccc2[nH]5)C=C4)C=C3)cc1
REMARK SMILES IDX 20 1 19 2 18 3 17 4 15 5 16 6 14 7 8 8 9 9 10 10 13 11 11 12
REMARK SMILES IDX 12 13 7 14 3 15 4 16 5 17 6 18 2 19 1 20 21 21 22 22 23 23
REMARK SMILES IDX 24 24 25 25 26 26 27 27 79 28 28 29 78 30 29 31 30 32 31 33
REMARK SMILES IDX 72 34 32 35 77 36 71 37 73 38 33 39 76 40 70 41 69 42 34 44
REMARK SMILES IDX 60 45 43 46 59 47 44 48 47 49 58 50 74 51 45 52 46 53 57 55
REMARK SMILES IDX 75 56 48 57 35 58 36 59 41 60 37 61 38 62 40 63 42 64 39 65
REMARK SMILES IDX 61 66 62 67 67 68 63 69 64 70 66 71 68 72 65 73 49 74 50 75
REMARK SMILES IDX 55 76 51 77 52 78 54 79 56 80 53 81
REMARK H PARENT 73 43 47 54
REMARK Flexibility Score: inf
ROOT
ATOM      1  O   UNL A   1      34.240  33.259  31.736  1.00  0.00    -0.374 OA
ENDROOT
BRANCH   1   2
ATOM      2  C   UNL A   1      34.315  33.954  32.980  1.00  0.00     0.202 C 
BRANCH   2   3
ATOM      3  C   UNL A   1      35.665  34.007  33.691  1.00  0.00     0.261 C 
BRANCH   3   4
ATOM      4  O   UNL A   1      36.757  34.104  32.761  1.00  0.00    -0.460 OA
BRANCH   4   5
ATOM      5  C   UNL A   1      37.939  34.481  33.303  1.00  0.00     0.340 C 
ATOM      6  O   UNL A   1      38.104  35.175  34.291  1.00  0.00    -0.246 OA
BRANCH   5   7
ATOM      7  C   UNL A   1      39.069  33.801  32.628  1.00  0.00     0.087 A 
ATOM      8  C   UNL A   1      39.664  32.583  33.013  1.00  0.00     0.062 A 
ATOM      9  C   UNL A   1      40.725  32.065  32.245  1.00  0.00     0.030 A 
ATOM     10  C   UNL A   1      41.224  32.774  31.150  1.00  0.00     0.041 A 
ATOM     11  C   UNL A   1      39.603  34.515  31.540  1.00  0.00     0.057 A 
ATOM     12  C   UNL A   1      40.676  34.004  30.823  1.00  0.00     0.124 A 
ATOM     13  F   UNL A   1      41.185  34.705  29.804  1.00  0.00    -0.207 F 
BRANCH   8  14
ATOM     14  N   UNL A   1      39.245  31.855  34.161  1.00  0.00    -0.291 N 
ATOM     15  C   UNL A   1      38.204  30.938  34.241  1.00  0.00     0.217 A 
ATOM     16  N   UNL A   1      38.137  30.387  35.440  1.00  0.00    -0.227 NA
ATOM     17  C   UNL A   1      39.132  30.971  36.172  1.00  0.00     0.132 A 
ATOM     18  C   UNL A   1      39.805  31.902  35.419  1.00  0.00     0.114 A 
BRANCH  15  19
ATOM     19  C   UNL A   1      37.374  30.519  33.153  1.00  0.00     0.139 C 
ATOM     20  N   UNL A   1      36.671  30.170  32.301  1.00  0.00    -0.189 NA
ENDBRANCH  15  19
ENDBRANCH   8  14
ENDBRANCH   5   7
ENDBRANCH   4   5
ENDBRANCH   3   4
ENDBRANCH   2   3
ENDBRANCH   1   2
BRANCH   1  21
ATOM     21  C   UNL A   1      34.261  33.984  30.513  1.00  0.00     0.202 C 
BRANCH  21  22
ATOM     22  C   UNL A   1      35.413  33.749  29.546  1.00  0.00     0.261 C 
BRANCH  22  23
ATOM     23  O   UNL A   1      36.163  32.582  29.849  1.00  0.00    -0.460 OA
BRANCH  23  24
ATOM     24  C   UNL A   1      35.869  31.537  29.039  1.00  0.00     0.338 C 
ATOM     25  O   UNL A   1      34.774  31.036  28.846  1.00  0.00    -0.246 OA
BRANCH  24  26
ATOM     26  C   UNL A   1      37.119  30.935  28.573  1.00  0.00     0.060 A 
ATOM     27  C   UNL A   1      37.021  29.660  28.015  1.00  0.00     0.016 A 
ATOM     28  C   UNL A   1      38.326  31.444  29.064  1.00  0.00     0.016 A 
ATOM     29  C   UNL A   1      38.075  28.796  28.206  1.00  0.00     0.010 A 
ATOM     30  C   UNL A   1      39.370  30.582  29.264  1.00  0.00     0.010 A 
ATOM     31  C   UNL A   1      39.187  29.245  28.931  1.00  0.00    -0.014 A 
BRANCH  31  32
ATOM     32  C   UNL A   1      40.272  28.325  29.180  1.00  0.00     0.031 A 
ATOM     33  C   UNL A   1      40.526  28.219  30.630  1.00  0.00     0.074 A 
ATOM     34  C   UNL A   1      40.874  27.606  28.213  1.00  0.00     0.049 A 
ATOM     35  N   UNL A   1      41.499  28.765  31.278  1.00  0.00    -0.248 NA
ATOM     36  C   UNL A   1      39.450  27.695  31.492  1.00  0.00     0.031 C 
ATOM     37  C   UNL A   1      40.524  27.488  26.796  1.00  0.00     0.029 A 
ATOM     38  N   UNL A   1      41.923  26.743  28.336  1.00  0.00    -0.354 N 
ATOM     39  C   UNL A   1      41.283  28.426  32.604  1.00  0.00     0.074 A 
ATOM     40  C   UNL A   1      39.911  28.010  32.703  1.00  0.00     0.031 C 
ATOM     41  C   UNL A   1      41.191  26.441  26.252  1.00  0.00     0.029 A 
ATOM     42  C   UNL A   1      42.112  25.903  27.236  1.00  0.00     0.049 A 
ATOM     43  H   UNL A   1      42.499  26.716  29.134  1.00  0.00     0.167 HD
ATOM     44  C   UNL A   1      42.335  28.205  33.433  1.00  0.00     0.037 A 
ATOM     45  C   UNL A   1      42.933  24.815  27.214  1.00  0.00     0.037 A 
ATOM     46  C   UNL A   1      43.552  28.744  32.877  1.00  0.00     0.049 A 
ATOM     47  C   UNL A   1      43.914  24.998  28.319  1.00  0.00     0.074 A 
ATOM     48  C   UNL A   1      43.969  30.010  32.516  1.00  0.00     0.029 A 
ATOM     49  N   UNL A   1      44.375  27.865  32.216  1.00  0.00    -0.354 N 
ATOM     50  N   UNL A   1      44.830  25.926  28.319  1.00  0.00    -0.248 NA
ATOM     51  C   UNL A   1      43.538  24.484  29.628  1.00  0.00     0.031 C 
ATOM     52  C   UNL A   1      44.712  29.827  31.314  1.00  0.00     0.029 A 
ATOM     53  C   UNL A   1      44.795  28.459  31.054  1.00  0.00     0.049 A 
ATOM     54  H   UNL A   1      44.620  26.962  32.524  1.00  0.00     0.167 HD
ATOM     55  C   UNL A   1      44.813  26.429  29.612  1.00  0.00     0.074 A 
ATOM     56  C   UNL A   1      44.030  25.466  30.388  1.00  0.00     0.031 C 
ATOM     57  C   UNL A   1      45.161  27.724  29.864  1.00  0.00     0.037 A 
BRANCH  44  58
ATOM     58  C   UNL A   1      42.330  27.157  34.510  1.00  0.00     0.057 A 
ATOM     59  C   UNL A   1      42.968  25.901  34.405  1.00  0.00     0.134 A 
ATOM     60  C   UNL A   1      41.910  27.508  35.802  1.00  0.00     0.134 A 
ATOM     61  F   UNL A   1      43.546  25.476  33.276  1.00  0.00    -0.206 F 
ATOM     62  C   UNL A   1      43.150  25.049  35.494  1.00  0.00     0.040 A 
ATOM     63  C   UNL A   1      42.140  26.686  36.911  1.00  0.00     0.040 A 
ATOM     64  F   UNL A   1      41.332  28.695  36.037  1.00  0.00    -0.206 F 
ATOM     65  C   UNL A   1      42.758  25.451  36.758  1.00  0.00     0.006 A 
ENDBRANCH  44  58
BRANCH  45  66
ATOM     66  C   UNL A   1      42.714  23.477  26.604  1.00  0.00     0.057 A 
ATOM     67  C   UNL A   1      41.669  22.636  27.022  1.00  0.00     0.134 A 
ATOM     68  C   UNL A   1      43.721  22.863  25.837  1.00  0.00     0.134 A 
ATOM     69  F   UNL A   1      40.679  23.096  27.799  1.00  0.00    -0.206 F 
ATOM     70  C   UNL A   1      41.652  21.264  26.740  1.00  0.00     0.040 A 
ATOM     71  C   UNL A   1      43.716  21.490  25.551  1.00  0.00     0.040 A 
ATOM     72  F   UNL A   1      44.779  23.569  25.412  1.00  0.00    -0.206 F 
ATOM     73  C   UNL A   1      42.687  20.681  26.020  1.00  0.00     0.006 A 
ENDBRANCH  45  66
BRANCH  57  74
ATOM     74  C   UNL A   1      45.793  28.523  28.756  1.00  0.00     0.057 A 
ATOM     75  C   UNL A   1      47.185  28.660  28.757  1.00  0.00     0.134 A 
ATOM     76  C   UNL A   1      45.081  29.295  27.823  1.00  0.00     0.134 A 
ATOM     77  F   UNL A   1      47.926  27.988  29.652  1.00  0.00    -0.206 F 
ATOM     78  C   UNL A   1      47.844  29.535  27.892  1.00  0.00     0.040 A 
ATOM     79  C   UNL A   1      45.732  30.150  26.925  1.00  0.00     0.040 A 
ATOM     80  F   UNL A   1      43.742  29.297  27.799  1.00  0.00    -0.206 F 
ATOM     81  C   UNL A   1      47.118  30.281  26.968  1.00  0.00     0.006 A 
ENDBRANCH  57  74
ENDBRANCH  31  32
ENDBRANCH  24  26
ENDBRANCH  23  24
ENDBRANCH  22  23
ENDBRANCH  21  22
ENDBRANCH   1  21
TORSDOF 16
ENDMDL
MODEL 3
REMARK VINA RESULT:      -9.5      4.249      7.183
REMARK SMILES N#Cc1nccn1-c1ccc(F)cc1C(=O)OCCOCCOC(=O)c1ccc(-c2c3nc(c(-c4c(F)cccc4F)c4ccc([nH]4)c(-c4c(F)cccc4F)c4nc(c(-c5c(F)cccc5F)c5ccc2[nH]5)C=C4)C=C3)cc1
REMARK SMILES IDX 20 1 19 2 18 3 17 4 15 5 16 6 14 7 8 8 9 9 10 10 13 11 11 12
REMARK SMILES IDX 12 13 7 14 3 15 4 16 5 17 6 18 2 19 1 20 21 21 22 22 23 23
REMARK SMILES IDX 24 24 25 25 26 26 27 27 79 28 28 29 78 30 29 31 30 32 31 33
REMARK SMILES IDX 72 34 32 35 77 36 71 37 73 38 33 39 76 40 70 41 69 42 34 44
REMARK SMILES IDX 60 45 43 46 59 47 44 48 47 49 58 50 74 51 45 52 46 53 57 55
REMARK SMILES IDX 75 56 48 57 35 58 36 59 41 60 37 61 38 62 40 63 42 64 39 65
REMARK SMILES IDX 61 66 62 67 67 68 63 69 64 70 66 71 68 72 65 73 49 74 50 75
REMARK SMILES IDX 55 76 51 77 52 78 54 79 56 80 53 81
REMARK H PARENT 73 43 47 54
REMARK Flexibility Score: inf
ROOT
ATOM      1  O   UNL A   1      31.873  30.105  25.564  1.00  0.00    -0.374 OA
ENDROOT
BRANCH   1   2
ATOM      2  C   UNL A   1      32.667  29.510  24.539  1.00  0.00     0.202 C 
BRANCH   2   3
ATOM      3  C   UNL A   1      33.836  28.624  24.962  1.00  0.00     0.261 C 
BRANCH   3   4
ATOM      4  O   UNL A   1      33.853  27.378  24.245  1.00  0.00    -0.460 OA
BRANCH   4   5
ATOM      5  C   UNL A   1      33.892  26.270  25.021  1.00  0.00     0.340 C 
ATOM      6  O   UNL A   1      33.967  26.230  26.238  1.00  0.00    -0.246 OA
BRANCH   5   7
ATOM      7  C   UNL A   1      33.666  25.051  24.212  1.00  0.00     0.087 A 
ATOM      8  C   UNL A   1      32.428  24.584  23.729  1.00  0.00     0.062 A 
ATOM      9  C   UNL A   1      32.393  23.408  22.954  1.00  0.00     0.030 A 
ATOM     10  C   UNL A   1      33.559  22.678  22.715  1.00  0.00     0.041 A 
ATOM     11  C   UNL A   1      34.826  24.288  23.985  1.00  0.00     0.057 A 
ATOM     12  C   UNL A   1      34.760  23.110  23.253  1.00  0.00     0.124 A 
ATOM     13  F   UNL A   1      35.869  22.386  23.064  1.00  0.00    -0.207 F 
BRANCH   8  14
ATOM     14  N   UNL A   1      31.199  25.246  24.003  1.00  0.00    -0.291 N 
ATOM     15  C   UNL A   1      30.418  25.131  25.146  1.00  0.00     0.217 A 
ATOM     16  N   UNL A   1      29.380  25.946  25.105  1.00  0.00    -0.227 NA
ATOM     17  C   UNL A   1      29.461  26.590  23.903  1.00  0.00     0.132 A 
ATOM     18  C   UNL A   1      30.551  26.153  23.191  1.00  0.00     0.114 A 
BRANCH  15  19
ATOM     19  C   UNL A   1      30.734  24.342  26.297  1.00  0.00     0.139 C 
ATOM     20  N   UNL A   1      31.028  23.725  27.232  1.00  0.00    -0.189 NA
ENDBRANCH  15  19
ENDBRANCH   8  14
ENDBRANCH   5   7
ENDBRANCH   4   5
ENDBRANCH   3   4
ENDBRANCH   2   3
ENDBRANCH   1   2
BRANCH   1  21
ATOM     21  C   UNL A   1      32.361  30.168  26.898  1.00  0.00     0.202 C 
BRANCH  21  22
ATOM     22  C   UNL A   1      33.255  31.335  27.292  1.00  0.00     0.261 C 
BRANCH  22  23
ATOM     23  O   UNL A   1      34.639  31.025  27.218  1.00  0.00    -0.460 OA
BRANCH  23  24
ATOM     24  C   UNL A   1      35.417  31.911  27.886  1.00  0.00     0.338 C 
ATOM     25  O   UNL A   1      35.493  33.114  27.702  1.00  0.00    -0.246 OA
BRANCH  24  26
ATOM     26  C   UNL A   1      36.342  31.171  28.745  1.00  0.00     0.060 A 
ATOM     27  C   UNL A   1      37.438  31.884  29.233  1.00  0.00     0.016 A 
ATOM     28  C   UNL A   1      36.324  29.773  28.695  1.00  0.00     0.016 A 
ATOM     29  C   UNL A   1      38.619  31.200  29.406  1.00  0.00     0.010 A 
ATOM     30  C   UNL A   1      37.502  29.095  28.857  1.00  0.00     0.010 A 
ATOM     31  C   UNL A   1      38.653  29.833  29.103  1.00  0.00    -0.014 A 
BRANCH  31  32
ATOM     32  C   UNL A   1      39.904  29.123  29.233  1.00  0.00     0.031 A 
ATOM     33  C   UNL A   1      40.195  28.861  30.656  1.00  0.00     0.074 A 
ATOM     34  C   UNL A   1      40.624  28.687  28.181  1.00  0.00     0.049 A 
ATOM     35  N   UNL A   1      41.048  29.492  31.390  1.00  0.00    -0.248 NA
ATOM     36  C   UNL A   1      39.259  28.012  31.416  1.00  0.00     0.031 C 
ATOM     37  C   UNL A   1      40.284  28.708  26.757  1.00  0.00     0.029 A 
ATOM     38  N   UNL A   1      41.826  28.044  28.193  1.00  0.00    -0.354 N 
ATOM     39  C   UNL A   1      40.925  28.927  32.650  1.00  0.00     0.074 A 
ATOM     40  C   UNL A   1      39.665  28.235  32.667  1.00  0.00     0.031 C 
ATOM     41  C   UNL A   1      41.140  27.906  26.077  1.00  0.00     0.029 A 
ATOM     42  C   UNL A   1      42.164  27.427  26.986  1.00  0.00     0.049 A 
ATOM     43  H   UNL A   1      42.408  28.017  28.987  1.00  0.00     0.167 HD
ATOM     44  C   UNL A   1      42.012  28.804  33.454  1.00  0.00     0.037 A 
ATOM     45  C   UNL A   1      43.186  26.541  26.819  1.00  0.00     0.037 A 
ATOM     46  C   UNL A   1      43.087  29.651  32.999  1.00  0.00     0.049 A 
ATOM     47  C   UNL A   1      44.126  26.754  27.953  1.00  0.00     0.074 A 
ATOM     48  C   UNL A   1      43.237  31.014  32.832  1.00  0.00     0.029 A 
ATOM     49  N   UNL A   1      44.060  29.061  32.231  1.00  0.00    -0.354 N 
ATOM     50  N   UNL A   1      44.837  27.838  28.101  1.00  0.00    -0.248 NA
ATOM     51  C   UNL A   1      43.880  25.991  29.168  1.00  0.00     0.031 C 
ATOM     52  C   UNL A   1      43.983  31.160  31.627  1.00  0.00     0.029 A 
ATOM     53  C   UNL A   1      44.336  29.888  31.174  1.00  0.00     0.049 A 
ATOM     54  H   UNL A   1      44.486  28.191  32.409  1.00  0.00     0.167 HD
ATOM     55  C   UNL A   1      44.739  28.134  29.453  1.00  0.00     0.074 A 
ATOM     56  C   UNL A   1      44.177  26.932  30.070  1.00  0.00     0.031 C 
ATOM     57  C   UNL A   1      44.824  29.422  29.895  1.00  0.00     0.037 A 
BRANCH  44  58
ATOM     58  C   UNL A   1      42.233  27.631  34.368  1.00  0.00     0.057 A 
ATOM     59  C   UNL A   1      42.979  26.483  34.025  1.00  0.00     0.134 A 
ATOM     60  C   UNL A   1      41.925  27.761  35.730  1.00  0.00     0.134 A 
ATOM     61  F   UNL A   1      43.467  26.277  32.797  1.00  0.00    -0.206 F 
ATOM     62  C   UNL A   1      43.367  25.523  34.960  1.00  0.00     0.040 A 
ATOM     63  C   UNL A   1      42.360  26.834  36.685  1.00  0.00     0.040 A 
ATOM     64  F   UNL A   1      41.260  28.832  36.185  1.00  0.00    -0.206 F 
ATOM     65  C   UNL A   1      43.079  25.709  36.300  1.00  0.00     0.006 A 
ENDBRANCH  44  58
BRANCH  45  66
ATOM     66  C   UNL A   1      43.231  25.288  26.018  1.00  0.00     0.057 A 
ATOM     67  C   UNL A   1      42.395  24.197  26.306  1.00  0.00     0.134 A 
ATOM     68  C   UNL A   1      44.321  25.015  25.172  1.00  0.00     0.134 A 
ATOM     69  F   UNL A   1      41.353  24.323  27.139  1.00  0.00    -0.206 F 
ATOM     70  C   UNL A   1      42.654  22.907  25.825  1.00  0.00     0.040 A 
ATOM     71  C   UNL A   1      44.592  23.727  24.687  1.00  0.00     0.040 A 
ATOM     72  F   UNL A   1      45.199  25.980  24.858  1.00  0.00    -0.206 F 
ATOM     73  C   UNL A   1      43.766  22.663  25.030  1.00  0.00     0.006 A 
ENDBRANCH  45  66
BRANCH  57  74
ATOM     74  C   UNL A   1      45.266  30.484  28.924  1.00  0.00     0.057 A 
ATOM     75  C   UNL A   1      44.288  31.109  28.144  1.00  0.00     0.134 A 
ATOM     76  C   UNL A   1      46.605  30.767  28.607  1.00  0.00     0.134 A 
ATOM     77  F   UNL A   1      42.989  30.850  28.360  1.00  0.00    -0.206 F 
ATOM     78  C   UNL A   1      44.615  31.959  27.086  1.00  0.00     0.040 A 
ATOM     79  C   UNL A   1      46.947  31.645  27.571  1.00  0.00     0.040 A 
ATOM     80  F   UNL A   1      47.614  30.154  29.240  1.00  0.00    -0.206 F 
ATOM     81  C   UNL A   1      45.949  32.233  26.799  1.00  0.00     0.006 A 
ENDBRANCH  57  74
ENDBRANCH  31  32
ENDBRANCH  24  26
ENDBRANCH  23  24
ENDBRANCH  22  23
ENDBRANCH  21  22
ENDBRANCH   1  21
TORSDOF 16
ENDMDL
