MODEL 1
REMARK VINA RESULT:     -10.9      0.000      0.000
REMARK SMILES CC(C)(C)OC(=O)N1C[C@H](Oc2ccncc2)C[C@H]1C(=O)OCCOCCOC(=O)c1ccc(-c2c3nc(c(-c4c(F)cccc4F)c4ccc([nH]4)c(-c4c(F)cccc4F)c4nc(c(-c5c(F)cccc5F)c5ccc2[nH]5)C=C4)C=C3)cc1
REMARK SMILES IDX 24 1 23 2 22 3 20 4 21 5 19 6 8 7 9 8 10 9 18 10 6 11 7 12
REMARK SMILES IDX 5 13 2 14 1 15 3 16 4 17 11 18 12 19 13 20 17 21 14 22 16 23
REMARK SMILES IDX 15 24 25 25 26 26 27 27 28 28 29 29 30 30 31 31 32 32 84 33
REMARK SMILES IDX 33 34 83 35 34 36 35 37 36 38 77 39 37 40 82 41 76 42 78 43
REMARK SMILES IDX 38 44 81 45 75 46 74 47 39 49 65 50 48 51 64 52 49 53 52 54
REMARK SMILES IDX 63 55 79 56 50 57 51 58 62 60 80 61 53 62 40 63 41 64 46 65
REMARK SMILES IDX 42 66 43 67 45 68 47 69 44 70 66 71 67 72 72 73 68 74 69 75
REMARK SMILES IDX 71 76 73 77 70 78 54 79 55 80 60 81 56 82 57 83 59 84 61 85
REMARK SMILES IDX 58 86
REMARK H PARENT 78 48 52 59
REMARK Flexibility Score: inf
ROOT
ATOM      1  C   UNL A   1      34.035  23.423  25.813  1.00  0.00     0.202 C 
ENDROOT
BRANCH   1   2
ATOM      2  C   UNL A   1      33.816  24.597  24.847  1.00  0.00     0.261 C 
BRANCH   2   3
ATOM      3  O   UNL A   1      32.485  25.130  24.846  1.00  0.00    -0.462 OA
BRANCH   3   4
ATOM      4  C   UNL A   1      32.209  25.882  23.739  1.00  0.00     0.329 C 
ATOM      5  O   UNL A   1      32.613  25.598  22.617  1.00  0.00    -0.250 OA
BRANCH   4   6
ATOM      6  C   UNL A   1      31.332  27.109  24.071  1.00  0.00     0.202 C 
ATOM      7  N   UNL A   1      31.931  28.290  23.445  1.00  0.00    -0.291 N 
ATOM      8  C   UNL A   1      31.100  28.834  22.388  1.00  0.00     0.169 C 
ATOM      9  C   UNL A   1      29.689  28.418  22.801  1.00  0.00     0.195 C 
ATOM     10  C   UNL A   1      29.891  27.071  23.520  1.00  0.00     0.084 C 
BRANCH   7  11
ATOM     11  C   UNL A   1      33.061  28.851  23.987  1.00  0.00     0.411 C 
ATOM     12  O   UNL A   1      34.181  28.613  23.557  1.00  0.00    -0.224 OA
BRANCH  11  13
ATOM     13  O   UNL A   1      32.786  29.627  25.062  1.00  0.00    -0.444 OA
BRANCH  13  14
ATOM     14  C   UNL A   1      33.141  29.226  26.415  1.00  0.00     0.106 C 
ATOM     15  C   UNL A   1      31.809  28.852  27.080  1.00  0.00     0.056 C 
ATOM     16  C   UNL A   1      33.742  30.449  27.112  1.00  0.00     0.056 C 
ATOM     17  C   UNL A   1      34.084  28.021  26.538  1.00  0.00     0.056 C 
ENDBRANCH  13  14
ENDBRANCH  11  13
ENDBRANCH   7  11
BRANCH   9  18
ATOM     18  O   UNL A   1      28.945  29.406  23.543  1.00  0.00    -0.488 OA
BRANCH  18  19
ATOM     19  C   UNL A   1      28.669  30.578  22.901  1.00  0.00     0.122 A 
ATOM     20  C   UNL A   1      28.799  31.798  23.551  1.00  0.00     0.066 A 
ATOM     21  C   UNL A   1      28.345  30.546  21.552  1.00  0.00     0.066 A 
ATOM     22  C   UNL A   1      28.469  32.943  22.849  1.00  0.00     0.115 A 
ATOM     23  C   UNL A   1      28.056  31.747  20.930  1.00  0.00     0.115 A 
ATOM     24  N   UNL A   1      28.093  32.944  21.553  1.00  0.00    -0.264 NA
ENDBRANCH  18  19
ENDBRANCH   9  18
ENDBRANCH   4   6
ENDBRANCH   3   4
ENDBRANCH   2   3
ENDBRANCH   1   2
BRANCH   1  25
ATOM     25  O   UNL A   1      35.259  22.700  25.772  1.00  0.00    -0.374 OA
BRANCH  25  26
ATOM     26  C   UNL A   1      35.222  21.299  25.522  1.00  0.00     0.202 C 
BRANCH  26  27
ATOM     27  C   UNL A   1      36.501  20.613  25.030  1.00  0.00     0.261 C 
BRANCH  27  28
ATOM     28  O   UNL A   1      37.615  21.523  24.966  1.00  0.00    -0.460 OA
BRANCH  28  29
ATOM     29  C   UNL A   1      38.672  21.160  25.735  1.00  0.00     0.338 C 
ATOM     30  O   UNL A   1      39.229  20.075  25.764  1.00  0.00    -0.246 OA
BRANCH  29  31
ATOM     31  C   UNL A   1      39.221  22.336  26.432  1.00  0.00     0.060 A 
ATOM     32  C   UNL A   1      38.651  23.580  26.134  1.00  0.00     0.016 A 
ATOM     33  C   UNL A   1      40.336  22.243  27.267  1.00  0.00     0.016 A 
ATOM     34  C   UNL A   1      39.230  24.747  26.624  1.00  0.00     0.010 A 
ATOM     35  C   UNL A   1      40.925  23.418  27.746  1.00  0.00     0.010 A 
ATOM     36  C   UNL A   1      40.401  24.674  27.390  1.00  0.00    -0.014 A 
BRANCH  36  37
ATOM     37  C   UNL A   1      41.166  25.918  27.643  1.00  0.00     0.031 A 
ATOM     38  C   UNL A   1      40.508  27.028  28.417  1.00  0.00     0.074 A 
ATOM     39  C   UNL A   1      42.447  26.033  27.251  1.00  0.00     0.049 A 
ATOM     40  N   UNL A   1      40.985  28.196  28.761  1.00  0.00    -0.248 NA
ATOM     41  C   UNL A   1      39.126  26.786  28.863  1.00  0.00     0.031 C 
ATOM     42  C   UNL A   1      43.210  25.009  26.539  1.00  0.00     0.029 A 
ATOM     43  N   UNL A   1      43.334  27.070  27.405  1.00  0.00    -0.354 N 
ATOM     44  C   UNL A   1      39.964  28.828  29.463  1.00  0.00     0.074 A 
ATOM     45  C   UNL A   1      38.832  27.929  29.467  1.00  0.00     0.031 C 
ATOM     46  C   UNL A   1      44.451  25.473  26.310  1.00  0.00     0.029 A 
ATOM     47  C   UNL A   1      44.560  26.832  26.837  1.00  0.00     0.049 A 
ATOM     48  H   UNL A   1      43.111  27.904  27.878  1.00  0.00     0.167 HD
ATOM     49  C   UNL A   1      39.975  30.042  30.061  1.00  0.00     0.037 A 
ATOM     50  C   UNL A   1      45.641  27.630  26.740  1.00  0.00     0.037 A 
ATOM     51  C   UNL A   1      41.102  30.935  30.062  1.00  0.00     0.049 A 
ATOM     52  C   UNL A   1      45.602  29.005  27.352  1.00  0.00     0.074 A 
ATOM     53  C   UNL A   1      41.213  32.183  30.649  1.00  0.00     0.029 A 
ATOM     54  N   UNL A   1      42.314  30.674  29.443  1.00  0.00    -0.354 N 
ATOM     55  N   UNL A   1      44.639  29.584  28.029  1.00  0.00    -0.248 NA
ATOM     56  C   UNL A   1      46.803  29.838  27.189  1.00  0.00     0.031 C 
ATOM     57  C   UNL A   1      42.479  32.696  30.348  1.00  0.00     0.029 A 
ATOM     58  C   UNL A   1      43.171  31.747  29.613  1.00  0.00     0.049 A 
ATOM     59  H   UNL A   1      42.533  29.848  28.953  1.00  0.00     0.167 HD
ATOM     60  C   UNL A   1      45.128  30.832  28.397  1.00  0.00     0.074 A 
ATOM     61  C   UNL A   1      46.477  30.922  27.879  1.00  0.00     0.031 C 
ATOM     62  C   UNL A   1      44.516  31.816  29.101  1.00  0.00     0.037 A 
BRANCH  49  63
ATOM     63  C   UNL A   1      38.718  30.484  30.750  1.00  0.00     0.057 A 
ATOM     64  C   UNL A   1      37.719  31.200  30.078  1.00  0.00     0.134 A 
ATOM     65  C   UNL A   1      38.488  30.158  32.092  1.00  0.00     0.134 A 
ATOM     66  F   UNL A   1      37.886  31.558  28.795  1.00  0.00    -0.206 F 
ATOM     67  C   UNL A   1      36.543  31.590  30.721  1.00  0.00     0.040 A 
ATOM     68  C   UNL A   1      37.305  30.521  32.739  1.00  0.00     0.040 A 
ATOM     69  F   UNL A   1      39.403  29.472  32.793  1.00  0.00    -0.206 F 
ATOM     70  C   UNL A   1      36.331  31.243  32.054  1.00  0.00     0.006 A 
ENDBRANCH  49  63
BRANCH  50  71
ATOM     71  C   UNL A   1      46.853  27.162  26.022  1.00  0.00     0.057 A 
ATOM     72  C   UNL A   1      47.011  27.370  24.647  1.00  0.00     0.134 A 
ATOM     73  C   UNL A   1      47.866  26.462  26.689  1.00  0.00     0.134 A 
ATOM     74  F   UNL A   1      46.064  28.012  23.948  1.00  0.00    -0.206 F 
ATOM     75  C   UNL A   1      48.121  26.880  23.956  1.00  0.00     0.040 A 
ATOM     76  C   UNL A   1      48.993  25.988  26.016  1.00  0.00     0.040 A 
ATOM     77  F   UNL A   1      47.774  26.230  28.006  1.00  0.00    -0.206 F 
ATOM     78  C   UNL A   1      49.119  26.190  24.643  1.00  0.00     0.006 A 
ENDBRANCH  50  71
BRANCH  62  79
ATOM     79  C   UNL A   1      45.310  33.057  29.385  1.00  0.00     0.057 A 
ATOM     80  C   UNL A   1      46.135  33.166  30.512  1.00  0.00     0.134 A 
ATOM     81  C   UNL A   1      45.282  34.139  28.495  1.00  0.00     0.134 A 
ATOM     82  F   UNL A   1      46.198  32.169  31.408  1.00  0.00    -0.206 F 
ATOM     83  C   UNL A   1      46.886  34.317  30.756  1.00  0.00     0.040 A 
ATOM     84  C   UNL A   1      46.047  35.284  28.716  1.00  0.00     0.040 A 
ATOM     85  F   UNL A   1      44.521  34.094  27.392  1.00  0.00    -0.206 F 
ATOM     86  C   UNL A   1      46.848  35.378  29.853  1.00  0.00     0.006 A 
ENDBRANCH  62  79
ENDBRANCH  36  37
ENDBRANCH  29  31
ENDBRANCH  28  29
ENDBRANCH  27  28
ENDBRANCH  26  27
ENDBRANCH  25  26
ENDBRANCH   1  25
TORSDOF 19
ENDMDL
MODEL 2
REMARK VINA RESULT:     -10.9      2.848      8.164
REMARK SMILES CC(C)(C)OC(=O)N1C[C@H](Oc2ccncc2)C[C@H]1C(=O)OCCOCCOC(=O)c1ccc(-c2c3nc(c(-c4c(F)cccc4F)c4ccc([nH]4)c(-c4c(F)cccc4F)c4nc(c(-c5c(F)cccc5F)c5ccc2[nH]5)C=C4)C=C3)cc1
REMARK SMILES IDX 24 1 23 2 22 3 20 4 21 5 19 6 8 7 9 8 10 9 18 10 6 11 7 12
REMARK SMILES IDX 5 13 2 14 1 15 3 16 4 17 11 18 12 19 13 20 17 21 14 22 16 23
REMARK SMILES IDX 15 24 25 25 26 26 27 27 28 28 29 29 30 30 31 31 32 32 84 33
REMARK SMILES IDX 33 34 83 35 34 36 35 37 36 38 77 39 37 40 82 41 76 42 78 43
REMARK SMILES IDX 38 44 81 45 75 46 74 47 39 49 65 50 48 51 64 52 49 53 52 54
REMARK SMILES IDX 63 55 79 56 50 57 51 58 62 60 80 61 53 62 40 63 41 64 46 65
REMARK SMILES IDX 42 66 43 67 45 68 47 69 44 70 66 71 67 72 72 73 68 74 69 75
REMARK SMILES IDX 71 76 73 77 70 78 54 79 55 80 60 81 56 82 57 83 59 84 61 85
REMARK SMILES IDX 58 86
REMARK H PARENT 78 48 52 59
REMARK Flexibility Score: inf
ROOT
ATOM      1  C   UNL A   1      38.046  21.998  25.539  1.00  0.00     0.202 C 
ENDROOT
BRANCH   1   2
ATOM      2  C   UNL A   1      37.044  23.159  25.616  1.00  0.00     0.261 C 
BRANCH   2   3
ATOM      3  O   UNL A   1      35.768  22.888  25.018  1.00  0.00    -0.462 OA
BRANCH   3   4
ATOM      4  C   UNL A   1      34.720  23.101  25.869  1.00  0.00     0.329 C 
ATOM      5  O   UNL A   1      34.597  24.120  26.540  1.00  0.00    -0.250 OA
BRANCH   4   6
ATOM      6  C   UNL A   1      33.724  21.923  25.875  1.00  0.00     0.202 C 
ATOM      7  N   UNL A   1      32.473  22.369  25.258  1.00  0.00    -0.291 N 
ATOM      8  C   UNL A   1      32.209  21.700  23.999  1.00  0.00     0.169 C 
ATOM      9  C   UNL A   1      32.928  20.361  24.156  1.00  0.00     0.195 C 
ATOM     10  C   UNL A   1      34.141  20.689  25.047  1.00  0.00     0.084 C 
BRANCH   7  11
ATOM     11  C   UNL A   1      31.624  23.194  25.956  1.00  0.00     0.411 C 
ATOM     12  O   UNL A   1      31.585  23.209  27.179  1.00  0.00    -0.224 OA
BRANCH  11  13
ATOM     13  O   UNL A   1      30.822  23.917  25.140  1.00  0.00    -0.444 OA
BRANCH  13  14
ATOM     14  C   UNL A   1      31.032  25.339  24.912  1.00  0.00     0.106 C 
ATOM     15  C   UNL A   1      29.938  25.747  23.916  1.00  0.00     0.056 C 
ATOM     16  C   UNL A   1      32.409  25.500  24.263  1.00  0.00     0.056 C 
ATOM     17  C   UNL A   1      30.909  26.247  26.144  1.00  0.00     0.056 C 
ENDBRANCH  13  14
ENDBRANCH  11  13
ENDBRANCH   7  11
BRANCH   9  18
ATOM     18  O   UNL A   1      32.105  19.268  24.615  1.00  0.00    -0.488 OA
BRANCH  18  19
ATOM     19  C   UNL A   1      32.673  18.027  24.609  1.00  0.00     0.122 A 
ATOM     20  C   UNL A   1      32.504  17.158  25.678  1.00  0.00     0.066 A 
ATOM     21  C   UNL A   1      33.348  17.602  23.474  1.00  0.00     0.066 A 
ATOM     22  C   UNL A   1      33.137  15.929  25.619  1.00  0.00     0.115 A 
ATOM     23  C   UNL A   1      33.927  16.345  23.500  1.00  0.00     0.115 A 
ATOM     24  N   UNL A   1      33.852  15.506  24.555  1.00  0.00    -0.264 NA
ENDBRANCH  18  19
ENDBRANCH   9  18
ENDBRANCH   4   6
ENDBRANCH   3   4
ENDBRANCH   2   3
ENDBRANCH   1   2
BRANCH   1  25
ATOM     25  O   UNL A   1      37.592  20.705  25.159  1.00  0.00    -0.374 OA
BRANCH  25  26
ATOM     26  C   UNL A   1      38.546  19.658  25.010  1.00  0.00     0.202 C 
BRANCH  26  27
ATOM     27  C   UNL A   1      39.649  19.522  26.065  1.00  0.00     0.261 C 
BRANCH  27  28
ATOM     28  O   UNL A   1      40.935  19.254  25.475  1.00  0.00    -0.460 OA
BRANCH  28  29
ATOM     29  C   UNL A   1      41.986  19.557  26.276  1.00  0.00     0.338 C 
ATOM     30  O   UNL A   1      42.975  18.876  26.490  1.00  0.00    -0.246 OA
BRANCH  29  31
ATOM     31  C   UNL A   1      41.888  20.953  26.737  1.00  0.00     0.060 A 
ATOM     32  C   UNL A   1      41.625  21.930  25.769  1.00  0.00     0.016 A 
ATOM     33  C   UNL A   1      42.157  21.312  28.059  1.00  0.00     0.016 A 
ATOM     34  C   UNL A   1      41.688  23.279  26.105  1.00  0.00     0.010 A 
ATOM     35  C   UNL A   1      42.234  22.669  28.391  1.00  0.00     0.010 A 
ATOM     36  C   UNL A   1      42.044  23.656  27.406  1.00  0.00    -0.014 A 
BRANCH  36  37
ATOM     37  C   UNL A   1      42.401  25.070  27.667  1.00  0.00     0.031 A 
ATOM     38  C   UNL A   1      43.738  25.578  27.199  1.00  0.00     0.074 A 
ATOM     39  C   UNL A   1      41.526  25.907  28.252  1.00  0.00     0.049 A 
ATOM     40  N   UNL A   1      44.258  26.772  27.311  1.00  0.00    -0.248 NA
ATOM     41  C   UNL A   1      44.602  24.606  26.508  1.00  0.00     0.031 C 
ATOM     42  C   UNL A   1      40.184  25.547  28.705  1.00  0.00     0.029 A 
ATOM     43  N   UNL A   1      41.642  27.240  28.560  1.00  0.00    -0.354 N 
ATOM     44  C   UNL A   1      45.509  26.696  26.707  1.00  0.00     0.074 A 
ATOM     45  C   UNL A   1      45.683  25.332  26.260  1.00  0.00     0.031 C 
ATOM     46  C   UNL A   1      39.601  26.634  29.242  1.00  0.00     0.029 A 
ATOM     47  C   UNL A   1      40.537  27.755  29.191  1.00  0.00     0.049 A 
ATOM     48  H   UNL A   1      42.441  27.775  28.348  1.00  0.00     0.167 HD
ATOM     49  C   UNL A   1      46.423  27.679  26.530  1.00  0.00     0.037 A 
ATOM     50  C   UNL A   1      40.317  28.988  29.686  1.00  0.00     0.037 A 
ATOM     51  C   UNL A   1      46.248  29.038  26.969  1.00  0.00     0.049 A 
ATOM     52  C   UNL A   1      41.380  30.045  29.539  1.00  0.00     0.074 A 
ATOM     53  C   UNL A   1      47.114  30.107  26.827  1.00  0.00     0.029 A 
ATOM     54  N   UNL A   1      45.132  29.511  27.639  1.00  0.00    -0.354 N 
ATOM     55  N   UNL A   1      42.550  29.967  28.950  1.00  0.00    -0.248 NA
ATOM     56  C   UNL A   1      41.091  31.362  30.124  1.00  0.00     0.031 C 
ATOM     57  C   UNL A   1      46.539  31.220  27.450  1.00  0.00     0.029 A 
ATOM     58  C   UNL A   1      45.295  30.852  27.938  1.00  0.00     0.049 A 
ATOM     59  H   UNL A   1      44.339  28.973  27.869  1.00  0.00     0.167 HD
ATOM     60  C   UNL A   1      43.121  31.229  29.067  1.00  0.00     0.074 A 
ATOM     61  C   UNL A   1      42.165  32.057  29.772  1.00  0.00     0.031 C 
ATOM     62  C   UNL A   1      44.327  31.665  28.630  1.00  0.00     0.037 A 
BRANCH  49  63
ATOM     63  C   UNL A   1      47.706  27.313  25.845  1.00  0.00     0.057 A 
ATOM     64  C   UNL A   1      48.819  26.852  26.559  1.00  0.00     0.134 A 
ATOM     65  C   UNL A   1      47.817  27.388  24.451  1.00  0.00     0.134 A 
ATOM     66  F   UNL A   1      48.783  26.773  27.898  1.00  0.00    -0.206 F 
ATOM     67  C   UNL A   1      50.004  26.494  25.913  1.00  0.00     0.040 A 
ATOM     68  C   UNL A   1      48.988  27.010  23.791  1.00  0.00     0.040 A 
ATOM     69  F   UNL A   1      46.788  27.819  23.708  1.00  0.00    -0.206 F 
ATOM     70  C   UNL A   1      50.087  26.566  24.523  1.00  0.00     0.006 A 
ENDBRANCH  49  63
BRANCH  50  71
ATOM     71  C   UNL A   1      39.043  29.297  30.383  1.00  0.00     0.057 A 
ATOM     72  C   UNL A   1      38.873  29.021  31.745  1.00  0.00     0.134 A 
ATOM     73  C   UNL A   1      37.953  29.842  29.694  1.00  0.00     0.134 A 
ATOM     74  F   UNL A   1      39.873  28.476  32.453  1.00  0.00    -0.206 F 
ATOM     75  C   UNL A   1      37.658  29.254  32.392  1.00  0.00     0.040 A 
ATOM     76  C   UNL A   1      36.741  30.104  30.334  1.00  0.00     0.040 A 
ATOM     77  F   UNL A   1      38.052  30.129  28.388  1.00  0.00    -0.206 F 
ATOM     78  C   UNL A   1      36.588  29.802  31.686  1.00  0.00     0.006 A 
ENDBRANCH  50  71
BRANCH  62  79
ATOM     79  C   UNL A   1      44.667  33.108  28.867  1.00  0.00     0.057 A 
ATOM     80  C   UNL A   1      44.330  34.108  27.945  1.00  0.00     0.134 A 
ATOM     81  C   UNL A   1      45.299  33.504  30.052  1.00  0.00     0.134 A 
ATOM     82  F   UNL A   1      43.733  33.792  26.786  1.00  0.00    -0.206 F 
ATOM     83  C   UNL A   1      44.633  35.449  28.185  1.00  0.00     0.040 A 
ATOM     84  C   UNL A   1      45.583  34.845  30.313  1.00  0.00     0.040 A 
ATOM     85  F   UNL A   1      45.639  32.597  30.981  1.00  0.00    -0.206 F 
ATOM     86  C   UNL A   1      45.255  35.822  29.375  1.00  0.00     0.006 A 
ENDBRANCH  62  79
ENDBRANCH  36  37
ENDBRANCH  29  31
ENDBRANCH  28  29
ENDBRANCH  27  28
ENDBRANCH  26  27
ENDBRANCH  25  26
ENDBRANCH   1  25
TORSDOF 19
ENDMDL
MODEL 3
REMARK VINA RESULT:     -10.8      0.560      6.211
REMARK SMILES CC(C)(C)OC(=O)N1C[C@H](Oc2ccncc2)C[C@H]1C(=O)OCCOCCOC(=O)c1ccc(-c2c3nc(c(-c4c(F)cccc4F)c4ccc([nH]4)c(-c4c(F)cccc4F)c4nc(c(-c5c(F)cccc5F)c5ccc2[nH]5)C=C4)C=C3)cc1
REMARK SMILES IDX 24 1 23 2 22 3 20 4 21 5 19 6 8 7 9 8 10 9 18 10 6 11 7 12
REMARK SMILES IDX 5 13 2 14 1 15 3 16 4 17 11 18 12 19 13 20 17 21 14 22 16 23
REMARK SMILES IDX 15 24 25 25 26 26 27 27 28 28 29 29 30 30 31 31 32 32 84 33
REMARK SMILES IDX 33 34 83 35 34 36 35 37 36 38 77 39 37 40 82 41 76 42 78 43
REMARK SMILES IDX 38 44 81 45 75 46 74 47 39 49 65 50 48 51 64 52 49 53 52 54
REMARK SMILES IDX 63 55 79 56 50 57 51 58 62 60 80 61 53 62 40 63 41 64 46 65
REMARK SMILES IDX 42 66 43 67 45 68 47 69 44 70 66 71 67 72 72 73 68 74 69 75
REMARK SMILES IDX 71 76 73 77 70 78 54 79 55 80 60 81 56 82 57 83 59 84 61 85
REMARK SMILES IDX 58 86
REMARK H PARENT 78 48 52 59
REMARK Flexibility Score: inf
ROOT
ATOM      1  C   UNL A   1      33.141  22.411  25.314  1.00  0.00     0.202 C 
ENDROOT
BRANCH   1   2
ATOM      2  C   UNL A   1      33.218  23.752  24.571  1.00  0.00     0.261 C 
BRANCH   2   3
ATOM      3  O   UNL A   1      32.075  24.600  24.746  1.00  0.00    -0.462 OA
BRANCH   3   4
ATOM      4  C   UNL A   1      31.823  25.392  23.662  1.00  0.00     0.329 C 
ATOM      5  O   UNL A   1      32.112  25.072  22.515  1.00  0.00    -0.250 OA
BRANCH   4   6
ATOM      6  C   UNL A   1      31.131  26.716  24.054  1.00  0.00     0.202 C 
ATOM      7  N   UNL A   1      32.031  27.824  23.729  1.00  0.00    -0.291 N 
ATOM      8  C   UNL A   1      31.514  28.659  22.662  1.00  0.00     0.169 C 
ATOM      9  C   UNL A   1      30.001  28.485  22.783  1.00  0.00     0.195 C 
ATOM     10  C   UNL A   1      29.829  27.042  23.294  1.00  0.00     0.084 C 
BRANCH   7  11
ATOM     11  C   UNL A   1      33.127  28.069  24.521  1.00  0.00     0.411 C 
ATOM     12  O   UNL A   1      34.041  27.264  24.641  1.00  0.00    -0.224 OA
BRANCH  11  13
ATOM     13  O   UNL A   1      33.035  29.250  25.176  1.00  0.00    -0.444 OA
BRANCH  13  14
ATOM     14  C   UNL A   1      32.866  29.322  26.619  1.00  0.00     0.106 C 
ATOM     15  C   UNL A   1      32.172  30.667  26.871  1.00  0.00     0.056 C 
ATOM     16  C   UNL A   1      34.263  29.334  27.244  1.00  0.00     0.056 C 
ATOM     17  C   UNL A   1      32.003  28.221  27.255  1.00  0.00     0.056 C 
ENDBRANCH  13  14
ENDBRANCH  11  13
ENDBRANCH   7  11
BRANCH   9  18
ATOM     18  O   UNL A   1      29.322  29.496  23.556  1.00  0.00    -0.488 OA
BRANCH  18  19
ATOM     19  C   UNL A   1      28.899  30.605  22.883  1.00  0.00     0.122 A 
ATOM     20  C   UNL A   1      28.952  31.862  23.469  1.00  0.00     0.066 A 
ATOM     21  C   UNL A   1      28.499  30.477  21.561  1.00  0.00     0.066 A 
ATOM     22  C   UNL A   1      28.474  32.937  22.741  1.00  0.00     0.115 A 
ATOM     23  C   UNL A   1      28.061  31.614  20.906  1.00  0.00     0.115 A 
ATOM     24  N   UNL A   1      28.022  32.839  21.473  1.00  0.00    -0.264 NA
ENDBRANCH  18  19
ENDBRANCH   9  18
ENDBRANCH   4   6
ENDBRANCH   3   4
ENDBRANCH   2   3
ENDBRANCH   1   2
BRANCH   1  25
ATOM     25  O   UNL A   1      34.132  21.419  25.076  1.00  0.00    -0.374 OA
BRANCH  25  26
ATOM     26  C   UNL A   1      35.406  21.557  25.696  1.00  0.00     0.202 C 
BRANCH  26  27
ATOM     27  C   UNL A   1      36.597  20.807  25.088  1.00  0.00     0.261 C 
BRANCH  27  28
ATOM     28  O   UNL A   1      37.755  21.650  24.947  1.00  0.00    -0.460 OA
BRANCH  28  29
ATOM     29  C   UNL A   1      38.793  21.305  25.748  1.00  0.00     0.338 C 
ATOM     30  O   UNL A   1      39.395  20.244  25.766  1.00  0.00    -0.246 OA
BRANCH  29  31
ATOM     31  C   UNL A   1      39.263  22.479  26.504  1.00  0.00     0.060 A 
ATOM     32  C   UNL A   1      38.601  23.693  26.280  1.00  0.00     0.016 A 
ATOM     33  C   UNL A   1      40.390  22.422  27.326  1.00  0.00     0.016 A 
ATOM     34  C   UNL A   1      39.099  24.870  26.829  1.00  0.00     0.010 A 
ATOM     35  C   UNL A   1      40.898  23.610  27.865  1.00  0.00     0.010 A 
ATOM     36  C   UNL A   1      40.280  24.842  27.582  1.00  0.00    -0.014 A 
BRANCH  36  37
ATOM     37  C   UNL A   1      40.956  26.122  27.898  1.00  0.00     0.031 A 
ATOM     38  C   UNL A   1      42.371  26.328  27.430  1.00  0.00     0.074 A 
ATOM     39  C   UNL A   1      40.302  27.111  28.533  1.00  0.00     0.049 A 
ATOM     40  N   UNL A   1      43.155  27.364  27.586  1.00  0.00    -0.248 NA
ATOM     41  C   UNL A   1      42.983  25.216  26.684  1.00  0.00     0.031 C 
ATOM     42  C   UNL A   1      38.916  27.050  28.992  1.00  0.00     0.029 A 
ATOM     43  N   UNL A   1      40.724  28.365  28.896  1.00  0.00    -0.354 N 
ATOM     44  C   UNL A   1      44.350  27.029  26.959  1.00  0.00     0.074 A 
ATOM     45  C   UNL A   1      44.201  25.684  26.450  1.00  0.00     0.031 C 
ATOM     46  C   UNL A   1      38.603  28.216  29.585  1.00  0.00     0.029 A 
ATOM     47  C   UNL A   1      39.773  29.092  29.567  1.00  0.00     0.049 A 
ATOM     48  H   UNL A   1      41.624  28.710  28.695  1.00  0.00     0.167 HD
ATOM     49  C   UNL A   1      45.465  27.781  26.809  1.00  0.00     0.037 A 
ATOM     50  C   UNL A   1      39.847  30.319  30.119  1.00  0.00     0.037 A 
ATOM     51  C   UNL A   1      45.613  29.122  27.310  1.00  0.00     0.049 A 
ATOM     52  C   UNL A   1      41.125  31.107  30.001  1.00  0.00     0.074 A 
ATOM     53  C   UNL A   1      46.702  29.968  27.200  1.00  0.00     0.029 A 
ATOM     54  N   UNL A   1      44.640  29.809  28.018  1.00  0.00    -0.354 N 
ATOM     55  N   UNL A   1      42.241  30.788  29.389  1.00  0.00    -0.248 NA
ATOM     56  C   UNL A   1      41.152  32.427  30.646  1.00  0.00     0.031 C 
ATOM     57  C   UNL A   1      46.403  31.154  27.880  1.00  0.00     0.029 A 
ATOM     58  C   UNL A   1      45.111  31.061  28.372  1.00  0.00     0.049 A 
ATOM     59  H   UNL A   1      43.746  29.458  28.238  1.00  0.00     0.167 HD
ATOM     60  C   UNL A   1      43.090  31.878  29.552  1.00  0.00     0.074 A 
ATOM     61  C   UNL A   1      42.355  32.870  30.307  1.00  0.00     0.031 C 
ATOM     62  C   UNL A   1      44.362  32.043  29.114  1.00  0.00     0.037 A 
BRANCH  49  63
ATOM     63  C   UNL A   1      46.625  27.161  26.089  1.00  0.00     0.057 A 
ATOM     64  C   UNL A   1      47.529  26.309  26.737  1.00  0.00     0.134 A 
ATOM     65  C   UNL A   1      46.819  27.388  24.721  1.00  0.00     0.134 A 
ATOM     66  F   UNL A   1      47.408  26.064  28.051  1.00  0.00    -0.206 F 
ATOM     67  C   UNL A   1      48.594  25.720  26.055  1.00  0.00     0.040 A 
ATOM     68  C   UNL A   1      47.867  26.785  24.021  1.00  0.00     0.040 A 
ATOM     69  F   UNL A   1      45.989  28.191  24.039  1.00  0.00    -0.206 F 
ATOM     70  C   UNL A   1      48.760  25.951  24.691  1.00  0.00     0.006 A 
ENDBRANCH  49  63
BRANCH  50  71
ATOM     71  C   UNL A   1      38.683  30.881  30.849  1.00  0.00     0.057 A 
ATOM     72  C   UNL A   1      38.483  30.620  32.210  1.00  0.00     0.134 A 
ATOM     73  C   UNL A   1      37.724  31.662  30.194  1.00  0.00     0.134 A 
ATOM     74  F   UNL A   1      39.354  29.858  32.887  1.00  0.00    -0.206 F 
ATOM     75  C   UNL A   1      37.359  31.097  32.888  1.00  0.00     0.040 A 
ATOM     76  C   UNL A   1      36.609  32.166  30.865  1.00  0.00     0.040 A 
ATOM     77  F   UNL A   1      37.858  31.947  28.891  1.00  0.00    -0.206 F 
ATOM     78  C   UNL A   1      36.420  31.877  32.215  1.00  0.00     0.006 A 
ENDBRANCH  50  71
BRANCH  62  79
ATOM     79  C   UNL A   1      45.027  33.355  29.408  1.00  0.00     0.057 A 
ATOM     80  C   UNL A   1      44.907  34.454  28.547  1.00  0.00     0.134 A 
ATOM     81  C   UNL A   1      45.760  33.533  30.588  1.00  0.00     0.134 A 
ATOM     82  F   UNL A   1      44.228  34.345  27.395  1.00  0.00    -0.206 F 
ATOM     83  C   UNL A   1      45.514  35.677  28.839  1.00  0.00     0.040 A 
ATOM     84  C   UNL A   1      46.349  34.758  30.903  1.00  0.00     0.040 A 
ATOM     85  F   UNL A   1      45.904  32.524  31.460  1.00  0.00    -0.206 F 
ATOM     86  C   UNL A   1      46.231  35.834  30.024  1.00  0.00     0.006 A 
ENDBRANCH  62  79
ENDBRANCH  36  37
ENDBRANCH  29  31
ENDBRANCH  28  29
ENDBRANCH  27  28
ENDBRANCH  26  27
ENDBRANCH  25  26
ENDBRANCH   1  25
TORSDOF 19
ENDMDL
