MODEL 1
REMARK VINA RESULT:      -9.9      0.000      0.000
REMARK SMILES COc1ccccc1Nc1snc(C)c1C(=O)OCCOCCOC(=O)c1ccc(-c2c3nc(c(-c4c(F)cccc4F)c4ccc([nH]4)c(-c4c(F)cccc4F)c4nc(c(-c5c(F)cccc5F)c5ccc2[nH]5)C=C4)C=C3)cc1
REMARK SMILES IDX 20 1 19 2 18 3 16 4 17 5 15 6 10 7 11 8 12 9 13 10 14 11
REMARK SMILES IDX 9 12 8 14 3 15 4 16 5 17 7 18 6 19 2 20 1 21 21 22 22 23
REMARK SMILES IDX 23 24 24 25 25 26 26 27 27 28 28 29 80 30 29 31 79 32 30 33
REMARK SMILES IDX 31 34 32 35 73 36 33 37 78 38 72 39 74 40 34 41 77 42 71 43
REMARK SMILES IDX 70 44 35 46 61 47 44 48 60 49 45 50 48 51 59 52 75 53 46 54
REMARK SMILES IDX 47 55 58 57 76 58 49 59 36 60 37 61 42 62 38 63 39 64 41 65
REMARK SMILES IDX 43 66 40 67 62 68 63 69 68 70 64 71 65 72 67 73 69 74 66 75
REMARK SMILES IDX 50 76 51 77 56 78 52 79 53 80 55 81 57 82 54 83
REMARK H PARENT 9 13 74 45 48 56
REMARK Flexibility Score: inf
ROOT
ATOM      1  C   UNL A   1      33.214  29.657  26.388  1.00  0.00     0.202 C 
ENDROOT
BRANCH   1   2
ATOM      2  C   UNL A   1      34.102  28.521  25.875  1.00  0.00     0.261 C 
BRANCH   2   3
ATOM      3  O   UNL A   1      33.674  27.245  26.372  1.00  0.00    -0.460 OA
BRANCH   3   4
ATOM      4  C   UNL A   1      33.407  26.300  25.418  1.00  0.00     0.343 C 
ATOM      5  O   UNL A   1      33.951  26.231  24.335  1.00  0.00    -0.246 OA
BRANCH   4   6
ATOM      6  C   UNL A   1      32.489  25.274  25.897  1.00  0.00     0.117 A 
ATOM      7  C   UNL A   1      32.830  24.064  26.498  1.00  0.00     0.128 A 
ATOM      8  S   UNL A   1      31.360  23.191  26.750  1.00  0.00    -0.017 S 
ATOM      9  N   UNL A   1      30.337  24.359  26.204  1.00  0.00    -0.195 NA
ATOM     10  C   UNL A   1      31.050  25.402  25.784  1.00  0.00     0.068 A 
ATOM     11  C   UNL A   1      30.296  26.557  25.202  1.00  0.00     0.069 C 
BRANCH   7  12
ATOM     12  N   UNL A   1      34.012  23.496  26.873  1.00  0.00    -0.342 N 
ATOM     13  H   UNL A   1      34.180  23.465  27.843  1.00  0.00     0.168 HD
BRANCH  12  14
ATOM     14  C   UNL A   1      35.026  22.946  26.061  1.00  0.00     0.082 A 
ATOM     15  C   UNL A   1      34.930  21.644  25.531  1.00  0.00     0.142 A 
ATOM     16  C   UNL A   1      35.901  21.172  24.636  1.00  0.00     0.048 A 
ATOM     17  C   UNL A   1      36.976  21.976  24.258  1.00  0.00     0.004 A 
ATOM     18  C   UNL A   1      36.167  23.698  25.728  1.00  0.00     0.030 A 
ATOM     19  C   UNL A   1      37.121  23.234  24.823  1.00  0.00     0.002 A 
BRANCH  15  20
ATOM     20  O   UNL A   1      34.031  20.692  25.944  1.00  0.00    -0.495 OA
ATOM     21  C   UNL A   1      33.488  19.858  24.929  1.00  0.00     0.278 C 
ENDBRANCH  15  20
ENDBRANCH  12  14
ENDBRANCH   7  12
ENDBRANCH   4   6
ENDBRANCH   3   4
ENDBRANCH   2   3
ENDBRANCH   1   2
BRANCH   1  22
ATOM     22  O   UNL A   1      33.575  30.280  27.620  1.00  0.00    -0.374 OA
BRANCH  22  23
ATOM     23  C   UNL A   1      34.571  31.292  27.628  1.00  0.00     0.202 C 
BRANCH  23  24
ATOM     24  C   UNL A   1      34.373  32.529  28.493  1.00  0.00     0.261 C 
BRANCH  24  25
ATOM     25  O   UNL A   1      35.442  32.799  29.393  1.00  0.00    -0.460 OA
BRANCH  25  26
ATOM     26  C   UNL A   1      35.303  32.146  30.570  1.00  0.00     0.338 C 
ATOM     27  O   UNL A   1      34.480  32.376  31.441  1.00  0.00    -0.246 OA
BRANCH  26  28
ATOM     28  C   UNL A   1      36.443  31.242  30.768  1.00  0.00     0.060 A 
ATOM     29  C   UNL A   1      37.704  31.837  30.785  1.00  0.00     0.016 A 
ATOM     30  C   UNL A   1      36.291  29.848  30.684  1.00  0.00     0.016 A 
ATOM     31  C   UNL A   1      38.807  31.043  30.558  1.00  0.00     0.010 A 
ATOM     32  C   UNL A   1      37.402  29.052  30.469  1.00  0.00     0.010 A 
ATOM     33  C   UNL A   1      38.645  29.662  30.343  1.00  0.00    -0.014 A 
BRANCH  33  34
ATOM     34  C   UNL A   1      39.856  28.870  30.213  1.00  0.00     0.031 A 
ATOM     35  C   UNL A   1      40.529  28.717  31.522  1.00  0.00     0.074 A 
ATOM     36  C   UNL A   1      40.332  28.319  29.077  1.00  0.00     0.049 A 
ATOM     37  N   UNL A   1      41.577  29.359  31.909  1.00  0.00    -0.248 NA
ATOM     38  C   UNL A   1      39.847  27.973  32.592  1.00  0.00     0.031 C 
ATOM     39  C   UNL A   1      39.674  28.212  27.775  1.00  0.00     0.029 A 
ATOM     40  N   UNL A   1      41.519  27.675  28.869  1.00  0.00    -0.354 N 
ATOM     41  C   UNL A   1      41.837  28.904  33.193  1.00  0.00     0.074 A 
ATOM     42  C   UNL A   1      40.647  28.223  33.631  1.00  0.00     0.031 C 
ATOM     43  C   UNL A   1      40.369  27.352  26.990  1.00  0.00     0.029 A 
ATOM     44  C   UNL A   1      41.593  26.963  27.673  1.00  0.00     0.049 A 
ATOM     45  H   UNL A   1      42.263  27.712  29.513  1.00  0.00     0.167 HD
ATOM     46  C   UNL A   1      43.123  28.850  33.627  1.00  0.00     0.037 A 
ATOM     47  C   UNL A   1      42.578  26.106  27.293  1.00  0.00     0.037 A 
ATOM     48  C   UNL A   1      43.967  29.728  32.846  1.00  0.00     0.049 A 
ATOM     49  C   UNL A   1      43.790  26.450  28.071  1.00  0.00     0.074 A 
ATOM     50  C   UNL A   1      43.973  31.076  32.543  1.00  0.00     0.029 A 
ATOM     51  N   UNL A   1      44.778  29.133  31.912  1.00  0.00    -0.354 N 
ATOM     52  N   UNL A   1      44.482  27.537  27.890  1.00  0.00    -0.248 NA
ATOM     53  C   UNL A   1      43.984  25.788  29.350  1.00  0.00     0.031 C 
ATOM     54  C   UNL A   1      44.415  31.155  31.187  1.00  0.00     0.029 A 
ATOM     55  C   UNL A   1      44.733  29.867  30.760  1.00  0.00     0.049 A 
ATOM     56  H   UNL A   1      45.305  28.313  32.051  1.00  0.00     0.167 HD
ATOM     57  C   UNL A   1      44.793  27.958  29.171  1.00  0.00     0.074 A 
ATOM     58  C   UNL A   1      44.560  26.789  30.020  1.00  0.00     0.031 C 
ATOM     59  C   UNL A   1      44.920  29.288  29.451  1.00  0.00     0.037 A 
BRANCH  46  60
ATOM     60  C   UNL A   1      43.680  27.648  34.360  1.00  0.00     0.057 A 
ATOM     61  C   UNL A   1      44.430  27.864  35.528  1.00  0.00     0.134 A 
ATOM     62  C   UNL A   1      43.805  26.360  33.798  1.00  0.00     0.134 A 
ATOM     63  F   UNL A   1      44.414  29.056  36.145  1.00  0.00    -0.206 F 
ATOM     64  C   UNL A   1      45.314  26.905  36.038  1.00  0.00     0.040 A 
ATOM     65  C   UNL A   1      44.643  25.379  34.330  1.00  0.00     0.040 A 
ATOM     66  F   UNL A   1      43.218  26.005  32.651  1.00  0.00    -0.206 F 
ATOM     67  C   UNL A   1      45.430  25.661  35.432  1.00  0.00     0.006 A 
ENDBRANCH  46  60
BRANCH  47  68
ATOM     68  C   UNL A   1      42.500  24.825  26.543  1.00  0.00     0.057 A 
ATOM     69  C   UNL A   1      43.269  24.619  25.382  1.00  0.00     0.134 A 
ATOM     70  C   UNL A   1      41.940  23.672  27.115  1.00  0.00     0.134 A 
ATOM     71  F   UNL A   1      43.881  25.647  24.776  1.00  0.00    -0.206 F 
ATOM     72  C   UNL A   1      43.507  23.341  24.855  1.00  0.00     0.040 A 
ATOM     73  C   UNL A   1      42.165  22.391  26.594  1.00  0.00     0.040 A 
ATOM     74  F   UNL A   1      41.235  23.738  28.253  1.00  0.00    -0.206 F 
ATOM     75  C   UNL A   1      42.968  22.220  25.473  1.00  0.00     0.006 A 
ENDBRANCH  47  68
BRANCH  59  76
ATOM     76  C   UNL A   1      45.085  30.236  28.294  1.00  0.00     0.057 A 
ATOM     77  C   UNL A   1      44.036  30.789  27.541  1.00  0.00     0.134 A 
ATOM     78  C   UNL A   1      46.379  30.677  27.992  1.00  0.00     0.134 A 
ATOM     79  F   UNL A   1      42.755  30.505  27.813  1.00  0.00    -0.206 F 
ATOM     80  C   UNL A   1      44.278  31.696  26.502  1.00  0.00     0.040 A 
ATOM     81  C   UNL A   1      46.628  31.610  26.985  1.00  0.00     0.040 A 
ATOM     82  F   UNL A   1      47.428  30.227  28.698  1.00  0.00    -0.206 F 
ATOM     83  C   UNL A   1      45.577  32.112  26.224  1.00  0.00     0.006 A 
ENDBRANCH  59  76
ENDBRANCH  33  34
ENDBRANCH  26  28
ENDBRANCH  25  26
ENDBRANCH  24  25
ENDBRANCH  23  24
ENDBRANCH  22  23
ENDBRANCH   1  22
TORSDOF 17
ENDMDL
MODEL 2
REMARK VINA RESULT:      -9.9      1.420      2.181
REMARK SMILES COc1ccccc1Nc1snc(C)c1C(=O)OCCOCCOC(=O)c1ccc(-c2c3nc(c(-c4c(F)cccc4F)c4ccc([nH]4)c(-c4c(F)cccc4F)c4nc(c(-c5c(F)cccc5F)c5ccc2[nH]5)C=C4)C=C3)cc1
REMARK SMILES IDX 20 1 19 2 18 3 16 4 17 5 15 6 10 7 11 8 12 9 13 10 14 11
REMARK SMILES IDX 9 12 8 14 3 15 4 16 5 17 7 18 6 19 2 20 1 21 21 22 22 23
REMARK SMILES IDX 23 24 24 25 25 26 26 27 27 28 28 29 80 30 29 31 79 32 30 33
REMARK SMILES IDX 31 34 32 35 73 36 33 37 78 38 72 39 74 40 34 41 77 42 71 43
REMARK SMILES IDX 70 44 35 46 61 47 44 48 60 49 45 50 48 51 59 52 75 53 46 54
REMARK SMILES IDX 47 55 58 57 76 58 49 59 36 60 37 61 42 62 38 63 39 64 41 65
REMARK SMILES IDX 43 66 40 67 62 68 63 69 68 70 64 71 65 72 67 73 69 74 66 75
REMARK SMILES IDX 50 76 51 77 56 78 52 79 53 80 55 81 57 82 54 83
REMARK H PARENT 9 13 74 45 48 56
REMARK Flexibility Score: inf
ROOT
ATOM      1  C   UNL A   1      32.961  29.299  24.586  1.00  0.00     0.202 C 
ENDROOT
BRANCH   1   2
ATOM      2  C   UNL A   1      33.594  28.133  23.824  1.00  0.00     0.261 C 
BRANCH   2   3
ATOM      3  O   UNL A   1      33.910  27.037  24.695  1.00  0.00    -0.460 OA
BRANCH   3   4
ATOM      4  C   UNL A   1      33.627  25.791  24.202  1.00  0.00     0.343 C 
ATOM      5  O   UNL A   1      34.026  25.356  23.141  1.00  0.00    -0.246 OA
BRANCH   4   6
ATOM      6  C   UNL A   1      32.906  24.966  25.163  1.00  0.00     0.117 A 
ATOM      7  C   UNL A   1      33.459  24.074  26.079  1.00  0.00     0.128 A 
ATOM      8  S   UNL A   1      32.145  23.283  26.874  1.00  0.00    -0.017 S 
ATOM      9  N   UNL A   1      30.934  24.124  26.143  1.00  0.00    -0.195 NA
ATOM     10  C   UNL A   1      31.460  24.976  25.267  1.00  0.00     0.068 A 
ATOM     11  C   UNL A   1      30.509  25.804  24.460  1.00  0.00     0.069 C 
BRANCH   7  12
ATOM     12  N   UNL A   1      34.738  23.738  26.414  1.00  0.00    -0.342 N 
ATOM     13  H   UNL A   1      35.142  24.269  27.139  1.00  0.00     0.168 HD
BRANCH  12  14
ATOM     14  C   UNL A   1      35.561  22.731  25.866  1.00  0.00     0.082 A 
ATOM     15  C   UNL A   1      36.957  22.888  25.759  1.00  0.00     0.142 A 
ATOM     16  C   UNL A   1      37.755  21.823  25.315  1.00  0.00     0.048 A 
ATOM     17  C   UNL A   1      37.186  20.598  24.970  1.00  0.00     0.004 A 
ATOM     18  C   UNL A   1      35.010  21.513  25.428  1.00  0.00     0.030 A 
ATOM     19  C   UNL A   1      35.808  20.450  25.004  1.00  0.00     0.002 A 
BRANCH  15  20
ATOM     20  O   UNL A   1      37.627  24.078  25.897  1.00  0.00    -0.495 OA
ATOM     21  C   UNL A   1      38.906  24.011  26.513  1.00  0.00     0.278 C 
ENDBRANCH  15  20
ENDBRANCH  12  14
ENDBRANCH   7  12
ENDBRANCH   4   6
ENDBRANCH   3   4
ENDBRANCH   2   3
ENDBRANCH   1   2
BRANCH   1  22
ATOM     22  O   UNL A   1      31.889  29.006  25.480  1.00  0.00    -0.374 OA
BRANCH  22  23
ATOM     23  C   UNL A   1      31.776  29.727  26.699  1.00  0.00     0.202 C 
BRANCH  23  24
ATOM     24  C   UNL A   1      32.741  30.870  26.984  1.00  0.00     0.261 C 
BRANCH  24  25
ATOM     25  O   UNL A   1      33.831  30.527  27.832  1.00  0.00    -0.460 OA
BRANCH  25  26
ATOM     26  C   UNL A   1      34.658  31.574  28.059  1.00  0.00     0.338 C 
ATOM     27  O   UNL A   1      34.359  32.757  28.049  1.00  0.00    -0.246 OA
BRANCH  26  28
ATOM     28  C   UNL A   1      36.047  31.102  28.102  1.00  0.00     0.060 A 
ATOM     29  C   UNL A   1      36.262  29.783  27.705  1.00  0.00     0.016 A 
ATOM     30  C   UNL A   1      37.050  31.847  28.744  1.00  0.00     0.016 A 
ATOM     31  C   UNL A   1      37.428  29.161  28.095  1.00  0.00     0.010 A 
ATOM     32  C   UNL A   1      38.226  31.223  29.124  1.00  0.00     0.010 A 
ATOM     33  C   UNL A   1      38.379  29.868  28.853  1.00  0.00    -0.014 A 
BRANCH  33  34
ATOM     34  C   UNL A   1      39.629  29.185  29.143  1.00  0.00     0.031 A 
ATOM     35  C   UNL A   1      39.891  29.162  30.599  1.00  0.00     0.074 A 
ATOM     36  C   UNL A   1      40.459  28.622  28.241  1.00  0.00     0.049 A 
ATOM     37  N   UNL A   1      40.728  29.917  31.225  1.00  0.00    -0.248 NA
ATOM     38  C   UNL A   1      38.979  28.414  31.477  1.00  0.00     0.031 C 
ATOM     39  C   UNL A   1      40.228  28.389  26.815  1.00  0.00     0.029 A 
ATOM     40  N   UNL A   1      41.699  28.081  28.437  1.00  0.00    -0.354 N 
ATOM     41  C   UNL A   1      40.628  29.555  32.559  1.00  0.00     0.074 A 
ATOM     42  C   UNL A   1      39.414  28.791  32.682  1.00  0.00     0.031 C 
ATOM     43  C   UNL A   1      41.185  27.557  26.336  1.00  0.00     0.029 A 
ATOM     44  C   UNL A   1      42.176  27.318  27.373  1.00  0.00     0.049 A 
ATOM     45  H   UNL A   1      42.213  28.219  29.265  1.00  0.00     0.167 HD
ATOM     46  C   UNL A   1      41.726  29.642  33.352  1.00  0.00     0.037 A 
ATOM     47  C   UNL A   1      43.289  26.537  27.363  1.00  0.00     0.037 A 
ATOM     48  C   UNL A   1      42.698  30.552  32.786  1.00  0.00     0.049 A 
ATOM     49  C   UNL A   1      44.187  27.031  28.433  1.00  0.00     0.074 A 
ATOM     50  C   UNL A   1      42.695  31.879  32.397  1.00  0.00     0.029 A 
ATOM     51  N   UNL A   1      43.791  29.988  32.178  1.00  0.00    -0.354 N 
ATOM     52  N   UNL A   1      44.820  28.167  28.378  1.00  0.00    -0.248 NA
ATOM     53  C   UNL A   1      44.040  26.457  29.759  1.00  0.00     0.031 C 
ATOM     54  C   UNL A   1      43.514  31.928  31.227  1.00  0.00     0.029 A 
ATOM     55  C   UNL A   1      44.037  30.654  31.010  1.00  0.00     0.049 A 
ATOM     56  H   UNL A   1      44.312  29.228  32.527  1.00  0.00     0.167 HD
ATOM     57  C   UNL A   1      44.705  28.680  29.659  1.00  0.00     0.074 A 
ATOM     58  C   UNL A   1      44.317  27.540  30.489  1.00  0.00     0.031 C 
ATOM     59  C   UNL A   1      44.646  30.029  29.861  1.00  0.00     0.037 A 
BRANCH  46  60
ATOM     60  C   UNL A   1      42.127  28.536  34.305  1.00  0.00     0.057 A 
ATOM     61  C   UNL A   1      42.406  28.871  35.641  1.00  0.00     0.134 A 
ATOM     62  C   UNL A   1      42.574  27.260  33.902  1.00  0.00     0.134 A 
ATOM     63  F   UNL A   1      42.053  30.066  36.138  1.00  0.00    -0.206 F 
ATOM     64  C   UNL A   1      43.162  28.041  36.478  1.00  0.00     0.040 A 
ATOM     65  C   UNL A   1      43.281  26.403  34.746  1.00  0.00     0.040 A 
ATOM     66  F   UNL A   1      42.454  26.808  32.650  1.00  0.00    -0.206 F 
ATOM     67  C   UNL A   1      43.610  26.806  36.028  1.00  0.00     0.006 A 
ENDBRANCH  46  60
BRANCH  47  68
ATOM     68  C   UNL A   1      43.531  25.218  26.724  1.00  0.00     0.057 A 
ATOM     69  C   UNL A   1      42.784  24.085  27.097  1.00  0.00     0.134 A 
ATOM     70  C   UNL A   1      44.250  25.105  25.524  1.00  0.00     0.134 A 
ATOM     71  F   UNL A   1      42.031  24.098  28.207  1.00  0.00    -0.206 F 
ATOM     72  C   UNL A   1      42.716  22.933  26.300  1.00  0.00     0.040 A 
ATOM     73  C   UNL A   1      44.196  23.957  24.722  1.00  0.00     0.040 A 
ATOM     74  F   UNL A   1      44.952  26.138  25.039  1.00  0.00    -0.206 F 
ATOM     75  C   UNL A   1      43.411  22.874  25.098  1.00  0.00     0.006 A 
ENDBRANCH  47  68
BRANCH  59  76
ATOM     76  C   UNL A   1      45.077  30.927  28.733  1.00  0.00     0.057 A 
ATOM     77  C   UNL A   1      44.303  31.245  27.606  1.00  0.00     0.134 A 
ATOM     78  C   UNL A   1      46.315  31.572  28.851  1.00  0.00     0.134 A 
ATOM     79  F   UNL A   1      43.066  30.754  27.447  1.00  0.00    -0.206 F 
ATOM     80  C   UNL A   1      44.769  32.123  26.620  1.00  0.00     0.040 A 
ATOM     81  C   UNL A   1      46.772  32.479  27.895  1.00  0.00     0.040 A 
ATOM     82  F   UNL A   1      47.092  31.353  29.923  1.00  0.00    -0.206 F 
ATOM     83  C   UNL A   1      46.005  32.746  26.765  1.00  0.00     0.006 A 
ENDBRANCH  59  76
ENDBRANCH  33  34
ENDBRANCH  26  28
ENDBRANCH  25  26
ENDBRANCH  24  25
ENDBRANCH  23  24
ENDBRANCH  22  23
ENDBRANCH   1  22
TORSDOF 17
ENDMDL
MODEL 3
REMARK VINA RESULT:      -9.9      1.588      3.184
REMARK SMILES COc1ccccc1Nc1snc(C)c1C(=O)OCCOCCOC(=O)c1ccc(-c2c3nc(c(-c4c(F)cccc4F)c4ccc([nH]4)c(-c4c(F)cccc4F)c4nc(c(-c5c(F)cccc5F)c5ccc2[nH]5)C=C4)C=C3)cc1
REMARK SMILES IDX 20 1 19 2 18 3 16 4 17 5 15 6 10 7 11 8 12 9 13 10 14 11
REMARK SMILES IDX 9 12 8 14 3 15 4 16 5 17 7 18 6 19 2 20 1 21 21 22 22 23
REMARK SMILES IDX 23 24 24 25 25 26 26 27 27 28 28 29 80 30 29 31 79 32 30 33
REMARK SMILES IDX 31 34 32 35 73 36 33 37 78 38 72 39 74 40 34 41 77 42 71 43
REMARK SMILES IDX 70 44 35 46 61 47 44 48 60 49 45 50 48 51 59 52 75 53 46 54
REMARK SMILES IDX 47 55 58 57 76 58 49 59 36 60 37 61 42 62 38 63 39 64 41 65
REMARK SMILES IDX 43 66 40 67 62 68 63 69 68 70 64 71 65 72 67 73 69 74 66 75
REMARK SMILES IDX 50 76 51 77 56 78 52 79 53 80 55 81 57 82 54 83
REMARK H PARENT 9 13 74 45 48 56
REMARK Flexibility Score: inf
ROOT
ATOM      1  C   UNL A   1      32.183  28.140  25.814  1.00  0.00     0.202 C 
ENDROOT
BRANCH   1   2
ATOM      2  C   UNL A   1      31.697  26.870  26.515  1.00  0.00     0.261 C 
BRANCH   2   3
ATOM      3  O   UNL A   1      32.471  25.723  26.134  1.00  0.00    -0.460 OA
BRANCH   3   4
ATOM      4  C   UNL A   1      31.874  24.510  26.351  1.00  0.00     0.343 C 
ATOM      5  O   UNL A   1      31.094  24.269  27.251  1.00  0.00    -0.246 OA
BRANCH   4   6
ATOM      6  C   UNL A   1      32.158  23.555  25.288  1.00  0.00     0.117 A 
ATOM      7  C   UNL A   1      31.470  23.415  24.085  1.00  0.00     0.128 A 
ATOM      8  S   UNL A   1      32.153  22.057  23.264  1.00  0.00    -0.017 S 
ATOM      9  N   UNL A   1      33.337  21.735  24.360  1.00  0.00    -0.195 NA
ATOM     10  C   UNL A   1      33.235  22.589  25.377  1.00  0.00     0.068 A 
ATOM     11  C   UNL A   1      34.202  22.425  26.508  1.00  0.00     0.069 C 
BRANCH   7  12
ATOM     12  N   UNL A   1      30.437  24.092  23.504  1.00  0.00    -0.342 N 
ATOM     13  H   UNL A   1      29.706  23.533  23.153  1.00  0.00     0.168 HD
BRANCH  12  14
ATOM     14  C   UNL A   1      30.274  25.484  23.340  1.00  0.00     0.082 A 
ATOM     15  C   UNL A   1      31.199  26.261  22.615  1.00  0.00     0.142 A 
ATOM     16  C   UNL A   1      30.946  27.619  22.376  1.00  0.00     0.048 A 
ATOM     17  C   UNL A   1      29.783  28.225  22.850  1.00  0.00     0.004 A 
ATOM     18  C   UNL A   1      29.154  26.144  23.878  1.00  0.00     0.030 A 
ATOM     19  C   UNL A   1      28.896  27.490  23.623  1.00  0.00     0.002 A 
BRANCH  15  20
ATOM     20  O   UNL A   1      32.453  25.844  22.243  1.00  0.00    -0.495 OA
ATOM     21  C   UNL A   1      32.641  25.578  20.859  1.00  0.00     0.278 C 
ENDBRANCH  15  20
ENDBRANCH  12  14
ENDBRANCH   7  12
ENDBRANCH   4   6
ENDBRANCH   3   4
ENDBRANCH   2   3
ENDBRANCH   1   2
BRANCH   1  22
ATOM     22  O   UNL A   1      31.956  29.389  26.466  1.00  0.00    -0.374 OA
BRANCH  22  23
ATOM     23  C   UNL A   1      32.983  30.369  26.480  1.00  0.00     0.202 C 
BRANCH  23  24
ATOM     24  C   UNL A   1      33.046  31.370  27.626  1.00  0.00     0.261 C 
BRANCH  24  25
ATOM     25  O   UNL A   1      34.284  32.064  27.738  1.00  0.00    -0.460 OA
BRANCH  25  26
ATOM     26  C   UNL A   1      34.837  31.937  28.967  1.00  0.00     0.338 C 
ATOM     27  O   UNL A   1      34.421  32.414  30.009  1.00  0.00    -0.246 OA
BRANCH  26  28
ATOM     28  C   UNL A   1      36.163  31.318  28.845  1.00  0.00     0.060 A 
ATOM     29  C   UNL A   1      36.185  29.931  28.704  1.00  0.00     0.016 A 
ATOM     30  C   UNL A   1      37.334  32.046  29.114  1.00  0.00     0.016 A 
ATOM     31  C   UNL A   1      37.354  29.260  28.989  1.00  0.00     0.010 A 
ATOM     32  C   UNL A   1      38.510  31.370  29.388  1.00  0.00     0.010 A 
ATOM     33  C   UNL A   1      38.496  29.980  29.387  1.00  0.00    -0.014 A 
BRANCH  33  34
ATOM     34  C   UNL A   1      39.721  29.220  29.574  1.00  0.00     0.031 A 
ATOM     35  C   UNL A   1      40.121  29.209  30.998  1.00  0.00     0.074 A 
ATOM     36  C   UNL A   1      40.421  28.585  28.611  1.00  0.00     0.049 A 
ATOM     37  N   UNL A   1      41.062  29.917  31.521  1.00  0.00    -0.248 NA
ATOM     38  C   UNL A   1      39.251  28.542  31.979  1.00  0.00     0.031 C 
ATOM     39  C   UNL A   1      40.037  28.339  27.221  1.00  0.00     0.029 A 
ATOM     40  N   UNL A   1      41.635  27.966  28.703  1.00  0.00    -0.354 N 
ATOM     41  C   UNL A   1      41.069  29.589  32.868  1.00  0.00     0.074 A 
ATOM     42  C   UNL A   1      39.825  28.911  33.126  1.00  0.00     0.031 C 
ATOM     43  C   UNL A   1      40.887  27.436  26.674  1.00  0.00     0.029 A 
ATOM     44  C   UNL A   1      41.956  27.151  27.618  1.00  0.00     0.049 A 
ATOM     45  H   UNL A   1      42.236  28.085  29.474  1.00  0.00     0.167 HD
ATOM     46  C   UNL A   1      42.243  29.618  33.550  1.00  0.00     0.037 A 
ATOM     47  C   UNL A   1      43.009  26.296  27.522  1.00  0.00     0.037 A 
ATOM     48  C   UNL A   1      43.212  30.449  32.870  1.00  0.00     0.049 A 
ATOM     49  C   UNL A   1      44.037  26.750  28.488  1.00  0.00     0.074 A 
ATOM     50  C   UNL A   1      43.258  31.765  32.448  1.00  0.00     0.029 A 
ATOM     51  N   UNL A   1      44.201  29.800  32.175  1.00  0.00    -0.354 N 
ATOM     52  N   UNL A   1      44.735  27.839  28.343  1.00  0.00    -0.248 NA
ATOM     53  C   UNL A   1      43.983  26.213  29.837  1.00  0.00     0.031 C 
ATOM     54  C   UNL A   1      43.960  31.736  31.204  1.00  0.00     0.029 A 
ATOM     55  C   UNL A   1      44.375  30.425  30.972  1.00  0.00     0.049 A 
ATOM     56  H   UNL A   1      44.703  29.014  32.492  1.00  0.00     0.167 HD
ATOM     57  C   UNL A   1      44.779  28.384  29.615  1.00  0.00     0.074 A 
ATOM     58  C   UNL A   1      44.400  27.289  30.508  1.00  0.00     0.031 C 
ATOM     59  C   UNL A   1      44.828  29.737  29.786  1.00  0.00     0.037 A 
BRANCH  46  60
ATOM     60  C   UNL A   1      42.660  28.507  34.489  1.00  0.00     0.057 A 
ATOM     61  C   UNL A   1      43.155  28.852  35.758  1.00  0.00     0.134 A 
ATOM     62  C   UNL A   1      42.919  27.179  34.087  1.00  0.00     0.134 A 
ATOM     63  F   UNL A   1      42.993  30.092  36.244  1.00  0.00    -0.206 F 
ATOM     64  C   UNL A   1      43.934  27.975  36.522  1.00  0.00     0.040 A 
ATOM     65  C   UNL A   1      43.649  26.280  34.866  1.00  0.00     0.040 A 
ATOM     66  F   UNL A   1      42.582  26.703  32.884  1.00  0.00    -0.206 F 
ATOM     67  C   UNL A   1      44.191  26.686  36.071  1.00  0.00     0.006 A 
ENDBRANCH  46  60
BRANCH  47  68
ATOM     68  C   UNL A   1      43.102  24.951  26.898  1.00  0.00     0.057 A 
ATOM     69  C   UNL A   1      42.365  23.865  27.406  1.00  0.00     0.134 A 
ATOM     70  C   UNL A   1      43.641  24.774  25.614  1.00  0.00     0.134 A 
ATOM     71  F   UNL A   1      41.776  23.942  28.609  1.00  0.00    -0.206 F 
ATOM     72  C   UNL A   1      42.136  22.698  26.663  1.00  0.00     0.040 A 
ATOM     73  C   UNL A   1      43.424  23.610  24.864  1.00  0.00     0.040 A 
ATOM     74  F   UNL A   1      44.313  25.760  25.004  1.00  0.00    -0.206 F 
ATOM     75  C   UNL A   1      42.653  22.576  25.379  1.00  0.00     0.006 A 
ENDBRANCH  47  68
BRANCH  59  76
ATOM     76  C   UNL A   1      45.205  30.582  28.599  1.00  0.00     0.057 A 
ATOM     77  C   UNL A   1      44.329  30.993  27.583  1.00  0.00     0.134 A 
ATOM     78  C   UNL A   1      46.515  31.076  28.541  1.00  0.00     0.134 A 
ATOM     79  F   UNL A   1      43.032  30.652  27.598  1.00  0.00    -0.206 F 
ATOM     80  C   UNL A   1      44.757  31.813  26.531  1.00  0.00     0.040 A 
ATOM     81  C   UNL A   1      46.941  31.925  27.521  1.00  0.00     0.040 A 
ATOM     82  F   UNL A   1      47.398  30.764  29.502  1.00  0.00    -0.206 F 
ATOM     83  C   UNL A   1      46.065  32.285  26.501  1.00  0.00     0.006 A 
ENDBRANCH  59  76
ENDBRANCH  33  34
ENDBRANCH  26  28
ENDBRANCH  25  26
ENDBRANCH  24  25
ENDBRANCH  23  24
ENDBRANCH  22  23
ENDBRANCH   1  22
TORSDOF 17
ENDMDL
