MODEL 1
REMARK VINA RESULT:      -9.1      0.000      0.000
REMARK SMILES Nc1nnc(S[C@H](F)C(=O)OCCOCCOC(=O)c2ccc(-c3c4nc(c(-c5c(F)cccc5F)c5ccc([nH]5)c(-c5c(F)cccc5F)c5nc(c(-c6c(F)cccc6F)c6ccc3[nH]6)C=C5)C=C4)cc2)s1
REMARK SMILES IDX 13 1 12 2 11 3 9 4 10 5 7 6 8 7 6 8 5 9 2 10 3 11 74 12 4 13
REMARK SMILES IDX 1 14 14 17 15 18 16 19 17 20 18 21 19 22 20 23 21 24 73 25
REMARK SMILES IDX 22 26 72 27 23 28 24 29 25 30 66 31 26 32 71 33 65 34 67 35
REMARK SMILES IDX 27 36 70 37 64 38 63 39 28 41 54 42 37 43 53 44 38 45 41 46
REMARK SMILES IDX 52 47 68 48 39 49 40 50 51 52 69 53 42 54 29 55 30 56 35 57
REMARK SMILES IDX 31 58 32 59 34 60 36 61 33 62 55 63 56 64 61 65 57 66 58 67
REMARK SMILES IDX 60 68 62 69 59 70 43 71 44 72 49 73 45 74 46 75 48 76 50 77
REMARK SMILES IDX 47 78
REMARK H PARENT 1 15 1 16 67 40 41 51
REMARK Flexibility Score: inf
ROOT
ATOM      1  C   UNL A   1      45.619  21.156  24.406  1.00  0.00     0.202 C 
ENDROOT
BRANCH   1   2
ATOM      2  C   UNL A   1      46.308  22.517  24.389  1.00  0.00     0.261 C 
BRANCH   2   3
ATOM      3  O   UNL A   1      46.420  23.055  25.718  1.00  0.00    -0.460 OA
BRANCH   3   4
ATOM      4  C   UNL A   1      46.985  24.293  25.814  1.00  0.00     0.351 C 
ATOM      5  O   UNL A   1      48.062  24.547  26.347  1.00  0.00    -0.248 OA
BRANCH   4   6
ATOM      6  C   UNL A   1      46.123  25.344  25.152  1.00  0.00     0.340 C 
ATOM      7  F   UNL A   1      44.816  25.245  25.555  1.00  0.00    -0.222 F 
BRANCH   6   8
ATOM      8  S   UNL A   1      46.641  27.065  25.360  1.00  0.00    -0.044 SA
BRANCH   8   9
ATOM      9  C   UNL A   1      47.495  27.504  23.907  1.00  0.00     0.179 A 
ATOM     10  C   UNL A   1      48.913  27.691  22.006  1.00  0.00     0.203 A 
ATOM     11  N   UNL A   1      47.836  28.434  21.901  1.00  0.00    -0.120 NA
ATOM     12  S   UNL A   1      49.004  26.808  23.478  1.00  0.00    -0.069 S 
ATOM     13  N   UNL A   1      47.008  28.305  22.991  1.00  0.00    -0.130 NA
BRANCH  10  14
ATOM     14  N   UNL A   1      49.860  27.604  21.064  1.00  0.00    -0.374 N 
ATOM     15  H   UNL A   1      50.664  28.168  21.121  1.00  0.00     0.159 HD
ATOM     16  H   UNL A   1      49.751  26.977  20.312  1.00  0.00     0.159 HD
ENDBRANCH  10  14
ENDBRANCH   8   9
ENDBRANCH   6   8
ENDBRANCH   4   6
ENDBRANCH   3   4
ENDBRANCH   2   3
ENDBRANCH   1   2
BRANCH   1  17
ATOM     17  O   UNL A   1      46.445  20.065  24.810  1.00  0.00    -0.374 OA
BRANCH  17  18
ATOM     18  C   UNL A   1      45.780  18.871  25.223  1.00  0.00     0.202 C 
BRANCH  18  19
ATOM     19  C   UNL A   1      44.266  18.855  24.990  1.00  0.00     0.261 C 
BRANCH  19  20
ATOM     20  O   UNL A   1      43.541  19.113  26.207  1.00  0.00    -0.460 OA
BRANCH  20  21
ATOM     21  C   UNL A   1      42.269  19.538  26.036  1.00  0.00     0.338 C 
ATOM     22  O   UNL A   1      41.324  18.894  25.598  1.00  0.00    -0.246 OA
BRANCH  21  23
ATOM     23  C   UNL A   1      42.104  20.888  26.602  1.00  0.00     0.060 A 
ATOM     24  C   UNL A   1      42.377  21.978  25.764  1.00  0.00     0.016 A 
ATOM     25  C   UNL A   1      41.770  21.091  27.943  1.00  0.00     0.016 A 
ATOM     26  C   UNL A   1      42.382  23.271  26.280  1.00  0.00     0.010 A 
ATOM     27  C   UNL A   1      41.782  22.390  28.462  1.00  0.00     0.010 A 
ATOM     28  C   UNL A   1      42.128  23.478  27.642  1.00  0.00    -0.014 A 
BRANCH  28  29
ATOM     29  C   UNL A   1      42.387  24.812  28.235  1.00  0.00     0.031 A 
ATOM     30  C   UNL A   1      43.760  25.121  28.761  1.00  0.00     0.074 A 
ATOM     31  C   UNL A   1      41.420  25.743  28.283  1.00  0.00     0.049 A 
ATOM     32  N   UNL A   1      44.205  26.208  29.334  1.00  0.00    -0.248 NA
ATOM     33  C   UNL A   1      44.765  24.054  28.627  1.00  0.00     0.031 C 
ATOM     34  C   UNL A   1      40.057  25.571  27.785  1.00  0.00     0.029 A 
ATOM     35  N   UNL A   1      41.440  27.018  28.788  1.00  0.00    -0.354 N 
ATOM     36  C   UNL A   1      45.538  25.957  29.635  1.00  0.00     0.074 A 
ATOM     37  C   UNL A   1      45.819  24.603  29.211  1.00  0.00     0.031 C 
ATOM     38  C   UNL A   1      39.362  26.695  28.030  1.00  0.00     0.029 A 
ATOM     39  C   UNL A   1      40.226  27.653  28.719  1.00  0.00     0.049 A 
ATOM     40  H   UNL A   1      42.248  27.437  29.164  1.00  0.00     0.167 HD
ATOM     41  C   UNL A   1      46.448  26.783  30.205  1.00  0.00     0.037 A 
ATOM     42  C   UNL A   1      39.850  28.860  29.179  1.00  0.00     0.037 A 
ATOM     43  C   UNL A   1      46.166  28.129  30.629  1.00  0.00     0.049 A 
ATOM     44  C   UNL A   1      40.862  29.747  29.853  1.00  0.00     0.074 A 
ATOM     45  C   UNL A   1      47.028  29.058  31.182  1.00  0.00     0.029 A 
ATOM     46  N   UNL A   1      44.920  28.732  30.555  1.00  0.00    -0.354 N 
ATOM     47  N   UNL A   1      42.130  29.517  30.094  1.00  0.00    -0.248 NA
ATOM     48  C   UNL A   1      40.393  31.062  30.310  1.00  0.00     0.031 C 
ATOM     49  C   UNL A   1      46.291  30.208  31.490  1.00  0.00     0.029 A 
ATOM     50  C   UNL A   1      44.981  30.012  31.082  1.00  0.00     0.049 A 
ATOM     51  H   UNL A   1      44.110  28.313  30.184  1.00  0.00     0.167 HD
ATOM     52  C   UNL A   1      42.614  30.662  30.715  1.00  0.00     0.074 A 
ATOM     53  C   UNL A   1      41.505  31.590  30.802  1.00  0.00     0.031 C 
ATOM     54  C   UNL A   1      43.866  30.921  31.170  1.00  0.00     0.037 A 
BRANCH  41  55
ATOM     55  C   UNL A   1      47.825  26.230  30.427  1.00  0.00     0.057 A 
ATOM     56  C   UNL A   1      48.804  26.250  29.424  1.00  0.00     0.134 A 
ATOM     57  C   UNL A   1      48.173  25.661  31.658  1.00  0.00     0.134 A 
ATOM     58  F   UNL A   1      48.529  26.767  28.216  1.00  0.00    -0.206 F 
ATOM     59  C   UNL A   1      50.068  25.694  29.627  1.00  0.00     0.040 A 
ATOM     60  C   UNL A   1      49.443  25.125  31.881  1.00  0.00     0.040 A 
ATOM     61  F   UNL A   1      47.285  25.613  32.662  1.00  0.00    -0.206 F 
ATOM     62  C   UNL A   1      50.391  25.132  30.860  1.00  0.00     0.006 A 
ENDBRANCH  41  55
BRANCH  42  63
ATOM     63  C   UNL A   1      38.439  29.290  29.024  1.00  0.00     0.057 A 
ATOM     64  C   UNL A   1      37.944  29.734  27.794  1.00  0.00     0.134 A 
ATOM     65  C   UNL A   1      37.546  29.240  30.102  1.00  0.00     0.134 A 
ATOM     66  F   UNL A   1      38.757  29.825  26.731  1.00  0.00    -0.206 F 
ATOM     67  C   UNL A   1      36.610  30.116  27.640  1.00  0.00     0.040 A 
ATOM     68  C   UNL A   1      36.205  29.597  29.957  1.00  0.00     0.040 A 
ATOM     69  F   UNL A   1      37.963  28.820  31.306  1.00  0.00    -0.206 F 
ATOM     70  C   UNL A   1      35.735  30.039  28.723  1.00  0.00     0.006 A 
ENDBRANCH  42  63
BRANCH  54  71
ATOM     71  C   UNL A   1      44.107  32.266  31.790  1.00  0.00     0.057 A 
ATOM     72  C   UNL A   1      44.528  33.363  31.028  1.00  0.00     0.134 A 
ATOM     73  C   UNL A   1      43.872  32.477  33.154  1.00  0.00     0.134 A 
ATOM     74  F   UNL A   1      44.781  33.225  29.718  1.00  0.00    -0.206 F 
ATOM     75  C   UNL A   1      44.725  34.620  31.606  1.00  0.00     0.040 A 
ATOM     76  C   UNL A   1      44.043  33.733  33.739  1.00  0.00     0.040 A 
ATOM     77  F   UNL A   1      43.459  31.470  33.938  1.00  0.00    -0.206 F 
ATOM     78  C   UNL A   1      44.475  34.808  32.964  1.00  0.00     0.006 A 
ENDBRANCH  54  71
ENDBRANCH  28  29
ENDBRANCH  21  23
ENDBRANCH  20  21
ENDBRANCH  19  20
ENDBRANCH  18  19
ENDBRANCH  17  18
ENDBRANCH   1  17
TORSDOF 17
ENDMDL
MODEL 2
REMARK VINA RESULT:      -9.0      5.739     11.198
REMARK SMILES Nc1nnc(S[C@H](F)C(=O)OCCOCCOC(=O)c2ccc(-c3c4nc(c(-c5c(F)cccc5F)c5ccc([nH]5)c(-c5c(F)cccc5F)c5nc(c(-c6c(F)cccc6F)c6ccc3[nH]6)C=C5)C=C4)cc2)s1
REMARK SMILES IDX 13 1 12 2 11 3 9 4 10 5 7 6 8 7 6 8 5 9 2 10 3 11 74 12 4 13
REMARK SMILES IDX 1 14 14 17 15 18 16 19 17 20 18 21 19 22 20 23 21 24 73 25
REMARK SMILES IDX 22 26 72 27 23 28 24 29 25 30 66 31 26 32 71 33 65 34 67 35
REMARK SMILES IDX 27 36 70 37 64 38 63 39 28 41 54 42 37 43 53 44 38 45 41 46
REMARK SMILES IDX 52 47 68 48 39 49 40 50 51 52 69 53 42 54 29 55 30 56 35 57
REMARK SMILES IDX 31 58 32 59 34 60 36 61 33 62 55 63 56 64 61 65 57 66 58 67
REMARK SMILES IDX 60 68 62 69 59 70 43 71 44 72 49 73 45 74 46 75 48 76 50 77
REMARK SMILES IDX 47 78
REMARK H PARENT 1 15 1 16 67 40 41 51
REMARK Flexibility Score: inf
ROOT
ATOM      1  C   UNL A   1      32.925  35.948  29.703  1.00  0.00     0.202 C 
ENDROOT
BRANCH   1   2
ATOM      2  C   UNL A   1      32.875  36.310  31.185  1.00  0.00     0.261 C 
BRANCH   2   3
ATOM      3  O   UNL A   1      33.182  35.170  32.005  1.00  0.00    -0.460 OA
BRANCH   3   4
ATOM      4  C   UNL A   1      34.135  35.363  32.962  1.00  0.00     0.351 C 
ATOM      5  O   UNL A   1      34.422  36.441  33.475  1.00  0.00    -0.248 OA
BRANCH   4   6
ATOM      6  C   UNL A   1      34.800  34.062  33.347  1.00  0.00     0.340 C 
ATOM      7  F   UNL A   1      34.323  33.016  32.598  1.00  0.00    -0.222 F 
BRANCH   6   8
ATOM      8  S   UNL A   1      36.607  34.023  33.271  1.00  0.00    -0.044 SA
BRANCH   8   9
ATOM      9  C   UNL A   1      37.129  32.884  34.481  1.00  0.00     0.179 A 
ATOM     10  C   UNL A   1      38.163  31.187  35.790  1.00  0.00     0.203 A 
ATOM     11  N   UNL A   1      37.495  32.048  36.523  1.00  0.00    -0.120 NA
ATOM     12  S   UNL A   1      38.095  31.515  34.104  1.00  0.00    -0.069 S 
ATOM     13  N   UNL A   1      36.919  33.039  35.765  1.00  0.00    -0.130 NA
BRANCH  10  14
ATOM     14  N   UNL A   1      38.848  30.150  36.286  1.00  0.00    -0.374 N 
ATOM     15  H   UNL A   1      39.000  30.079  37.255  1.00  0.00     0.159 HD
ATOM     16  H   UNL A   1      39.202  29.459  35.679  1.00  0.00     0.159 HD
ENDBRANCH  10  14
ENDBRANCH   8   9
ENDBRANCH   6   8
ENDBRANCH   4   6
ENDBRANCH   3   4
ENDBRANCH   2   3
ENDBRANCH   1   2
BRANCH   1  17
ATOM     17  O   UNL A   1      32.797  34.556  29.417  1.00  0.00    -0.374 OA
BRANCH  17  18
ATOM     18  C   UNL A   1      33.720  34.003  28.478  1.00  0.00     0.202 C 
BRANCH  18  19
ATOM     19  C   UNL A   1      34.954  33.335  29.094  1.00  0.00     0.261 C 
BRANCH  19  20
ATOM     20  O   UNL A   1      34.662  31.999  29.546  1.00  0.00    -0.460 OA
BRANCH  20  21
ATOM     21  C   UNL A   1      34.677  31.053  28.581  1.00  0.00     0.338 C 
ATOM     22  O   UNL A   1      33.837  30.871  27.707  1.00  0.00    -0.246 OA
BRANCH  21  23
ATOM     23  C   UNL A   1      35.954  30.319  28.608  1.00  0.00     0.060 A 
ATOM     24  C   UNL A   1      36.320  29.701  29.811  1.00  0.00     0.016 A 
ATOM     25  C   UNL A   1      36.818  30.301  27.510  1.00  0.00     0.016 A 
ATOM     26  C   UNL A   1      37.577  29.119  29.943  1.00  0.00     0.010 A 
ATOM     27  C   UNL A   1      38.084  29.722  27.646  1.00  0.00     0.010 A 
ATOM     28  C   UNL A   1      38.482  29.167  28.875  1.00  0.00    -0.014 A 
BRANCH  28  29
ATOM     29  C   UNL A   1      39.895  28.783  29.101  1.00  0.00     0.031 A 
ATOM     30  C   UNL A   1      40.821  29.766  29.761  1.00  0.00     0.074 A 
ATOM     31  C   UNL A   1      40.344  27.568  28.746  1.00  0.00     0.049 A 
ATOM     32  N   UNL A   1      42.093  29.652  30.041  1.00  0.00    -0.248 NA
ATOM     33  C   UNL A   1      40.230  31.056  30.153  1.00  0.00     0.031 C 
ATOM     34  C   UNL A   1      39.539  26.521  28.120  1.00  0.00     0.029 A 
ATOM     35  N   UNL A   1      41.595  27.017  28.854  1.00  0.00    -0.354 N 
ATOM     36  C   UNL A   1      42.457  30.854  30.635  1.00  0.00     0.074 A 
ATOM     37  C   UNL A   1      41.280  31.694  30.645  1.00  0.00     0.031 C 
ATOM     38  C   UNL A   1      40.324  25.458  27.879  1.00  0.00     0.029 A 
ATOM     39  C   UNL A   1      41.688  25.759  28.314  1.00  0.00     0.049 A 
ATOM     40  H   UNL A   1      42.354  27.479  29.278  1.00  0.00     0.167 HD
ATOM     41  C   UNL A   1      43.662  31.220  31.135  1.00  0.00     0.037 A 
ATOM     42  C   UNL A   1      42.756  24.953  28.167  1.00  0.00     0.037 A 
ATOM     43  C   UNL A   1      44.832  30.383  31.122  1.00  0.00     0.049 A 
ATOM     44  C   UNL A   1      44.097  25.395  28.686  1.00  0.00     0.074 A 
ATOM     45  C   UNL A   1      46.089  30.648  31.636  1.00  0.00     0.029 A 
ATOM     46  N   UNL A   1      44.891  29.121  30.552  1.00  0.00    -0.354 N 
ATOM     47  N   UNL A   1      44.422  26.516  29.284  1.00  0.00    -0.248 NA
ATOM     48  C   UNL A   1      45.217  24.459  28.515  1.00  0.00     0.031 C 
ATOM     49  C   UNL A   1      46.922  29.564  31.334  1.00  0.00     0.029 A 
ATOM     50  C   UNL A   1      46.170  28.604  30.674  1.00  0.00     0.049 A 
ATOM     51  H   UNL A   1      44.135  28.658  30.123  1.00  0.00     0.167 HD
ATOM     52  C   UNL A   1      45.777  26.414  29.576  1.00  0.00     0.074 A 
ATOM     53  C   UNL A   1      46.210  25.115  29.100  1.00  0.00     0.031 C 
ATOM     54  C   UNL A   1      46.588  27.314  30.186  1.00  0.00     0.037 A 
BRANCH  41  55
ATOM     55  C   UNL A   1      43.769  32.603  31.709  1.00  0.00     0.057 A 
ATOM     56  C   UNL A   1      44.115  33.708  30.919  1.00  0.00     0.134 A 
ATOM     57  C   UNL A   1      43.532  32.829  33.069  1.00  0.00     0.134 A 
ATOM     58  F   UNL A   1      44.372  33.556  29.611  1.00  0.00    -0.206 F 
ATOM     59  C   UNL A   1      44.255  34.983  31.471  1.00  0.00     0.040 A 
ATOM     60  C   UNL A   1      43.642  34.104  33.627  1.00  0.00     0.040 A 
ATOM     61  F   UNL A   1      43.192  31.816  33.880  1.00  0.00    -0.206 F 
ATOM     62  C   UNL A   1      44.015  35.184  32.829  1.00  0.00     0.006 A 
ENDBRANCH  41  55
BRANCH  42  63
ATOM     63  C   UNL A   1      42.592  23.647  27.484  1.00  0.00     0.057 A 
ATOM     64  C   UNL A   1      42.262  22.489  28.196  1.00  0.00     0.134 A 
ATOM     65  C   UNL A   1      42.737  23.535  26.096  1.00  0.00     0.134 A 
ATOM     66  F   UNL A   1      42.131  22.531  29.530  1.00  0.00    -0.206 F 
ATOM     67  C   UNL A   1      42.083  21.264  27.552  1.00  0.00     0.040 A 
ATOM     68  C   UNL A   1      42.540  22.321  25.436  1.00  0.00     0.040 A 
ATOM     69  F   UNL A   1      43.051  24.611  25.360  1.00  0.00    -0.206 F 
ATOM     70  C   UNL A   1      42.214  21.181  26.167  1.00  0.00     0.006 A 
ENDBRANCH  42  63
BRANCH  54  71
ATOM     71  C   UNL A   1      48.022  26.920  30.388  1.00  0.00     0.057 A 
ATOM     72  C   UNL A   1      49.025  27.306  29.491  1.00  0.00     0.134 A 
ATOM     73  C   UNL A   1      48.409  26.184  31.515  1.00  0.00     0.134 A 
ATOM     74  F   UNL A   1      48.719  28.002  28.386  1.00  0.00    -0.206 F 
ATOM     75  C   UNL A   1      50.362  26.959  29.699  1.00  0.00     0.040 A 
ATOM     76  C   UNL A   1      49.745  25.851  31.746  1.00  0.00     0.040 A 
ATOM     77  F   UNL A   1      47.498  25.790  32.417  1.00  0.00    -0.206 F 
ATOM     78  C   UNL A   1      50.725  26.235  30.833  1.00  0.00     0.006 A 
ENDBRANCH  54  71
ENDBRANCH  28  29
ENDBRANCH  21  23
ENDBRANCH  20  21
ENDBRANCH  19  20
ENDBRANCH  18  19
ENDBRANCH  17  18
ENDBRANCH   1  17
TORSDOF 17
ENDMDL
MODEL 3
REMARK VINA RESULT:      -8.8      5.438      9.704
REMARK SMILES Nc1nnc(S[C@H](F)C(=O)OCCOCCOC(=O)c2ccc(-c3c4nc(c(-c5c(F)cccc5F)c5ccc([nH]5)c(-c5c(F)cccc5F)c5nc(c(-c6c(F)cccc6F)c6ccc3[nH]6)C=C5)C=C4)cc2)s1
REMARK SMILES IDX 13 1 12 2 11 3 9 4 10 5 7 6 8 7 6 8 5 9 2 10 3 11 74 12 4 13
REMARK SMILES IDX 1 14 14 17 15 18 16 19 17 20 18 21 19 22 20 23 21 24 73 25
REMARK SMILES IDX 22 26 72 27 23 28 24 29 25 30 66 31 26 32 71 33 65 34 67 35
REMARK SMILES IDX 27 36 70 37 64 38 63 39 28 41 54 42 37 43 53 44 38 45 41 46
REMARK SMILES IDX 52 47 68 48 39 49 40 50 51 52 69 53 42 54 29 55 30 56 35 57
REMARK SMILES IDX 31 58 32 59 34 60 36 61 33 62 55 63 56 64 61 65 57 66 58 67
REMARK SMILES IDX 60 68 62 69 59 70 43 71 44 72 49 73 45 74 46 75 48 76 50 77
REMARK SMILES IDX 47 78
REMARK H PARENT 1 15 1 16 67 40 41 51
REMARK Flexibility Score: inf
ROOT
ATOM      1  C   UNL A   1      34.754  24.038  25.423  1.00  0.00     0.202 C 
ENDROOT
BRANCH   1   2
ATOM      2  C   UNL A   1      33.346  24.208  24.859  1.00  0.00     0.261 C 
BRANCH   2   3
ATOM      3  O   UNL A   1      33.389  24.580  23.471  1.00  0.00    -0.460 OA
BRANCH   3   4
ATOM      4  C   UNL A   1      33.065  23.598  22.580  1.00  0.00     0.351 C 
ATOM      5  O   UNL A   1      33.492  23.508  21.432  1.00  0.00    -0.248 OA
BRANCH   4   6
ATOM      6  C   UNL A   1      32.114  22.595  23.190  1.00  0.00     0.340 C 
ATOM      7  F   UNL A   1      30.818  23.042  23.140  1.00  0.00    -0.222 F 
BRANCH   6   8
ATOM      8  S   UNL A   1      32.153  20.921  22.505  1.00  0.00    -0.044 SA
BRANCH   8   9
ATOM      9  C   UNL A   1      32.359  19.839  23.855  1.00  0.00     0.179 A 
ATOM     10  C   UNL A   1      32.899  18.092  25.377  1.00  0.00     0.203 A 
ATOM     11  N   UNL A   1      32.528  19.193  25.989  1.00  0.00    -0.120 NA
ATOM     12  S   UNL A   1      32.879  18.214  23.663  1.00  0.00    -0.069 S 
ATOM     13  N   UNL A   1      32.240  20.206  25.107  1.00  0.00    -0.130 NA
BRANCH  10  14
ATOM     14  N   UNL A   1      33.270  16.971  26.006  1.00  0.00    -0.374 N 
ATOM     15  H   UNL A   1      34.113  16.948  26.515  1.00  0.00     0.159 HD
ATOM     16  H   UNL A   1      32.701  16.168  25.959  1.00  0.00     0.159 HD
ENDBRANCH  10  14
ENDBRANCH   8   9
ENDBRANCH   6   8
ENDBRANCH   4   6
ENDBRANCH   3   4
ENDBRANCH   2   3
ENDBRANCH   1   2
BRANCH   1  17
ATOM     17  O   UNL A   1      35.492  22.942  24.887  1.00  0.00    -0.374 OA
BRANCH  17  18
ATOM     18  C   UNL A   1      35.471  21.724  25.631  1.00  0.00     0.202 C 
BRANCH  18  19
ATOM     19  C   UNL A   1      36.535  20.697  25.231  1.00  0.00     0.261 C 
BRANCH  19  20
ATOM     20  O   UNL A   1      37.794  21.328  24.931  1.00  0.00    -0.460 OA
BRANCH  20  21
ATOM     21  C   UNL A   1      38.813  20.990  25.751  1.00  0.00     0.338 C 
ATOM     22  O   UNL A   1      39.332  19.887  25.874  1.00  0.00    -0.246 OA
BRANCH  21  23
ATOM     23  C   UNL A   1      39.358  22.191  26.408  1.00  0.00     0.060 A 
ATOM     24  C   UNL A   1      38.812  23.429  26.046  1.00  0.00     0.016 A 
ATOM     25  C   UNL A   1      40.433  22.122  27.298  1.00  0.00     0.016 A 
ATOM     26  C   UNL A   1      39.381  24.608  26.520  1.00  0.00     0.010 A 
ATOM     27  C   UNL A   1      41.007  23.307  27.769  1.00  0.00     0.010 A 
ATOM     28  C   UNL A   1      40.510  24.553  27.347  1.00  0.00    -0.014 A 
BRANCH  28  29
ATOM     29  C   UNL A   1      41.261  25.797  27.636  1.00  0.00     0.031 A 
ATOM     30  C   UNL A   1      40.579  26.902  28.391  1.00  0.00     0.074 A 
ATOM     31  C   UNL A   1      42.542  25.933  27.252  1.00  0.00     0.049 A 
ATOM     32  N   UNL A   1      41.035  28.078  28.736  1.00  0.00    -0.248 NA
ATOM     33  C   UNL A   1      39.191  26.646  28.807  1.00  0.00     0.031 C 
ATOM     34  C   UNL A   1      43.319  24.925  26.534  1.00  0.00     0.029 A 
ATOM     35  N   UNL A   1      43.407  26.986  27.405  1.00  0.00    -0.354 N 
ATOM     36  C   UNL A   1      39.990  28.705  29.405  1.00  0.00     0.074 A 
ATOM     37  C   UNL A   1      38.868  27.793  29.386  1.00  0.00     0.031 C 
ATOM     38  C   UNL A   1      44.545  25.418  26.289  1.00  0.00     0.029 A 
ATOM     39  C   UNL A   1      44.628  26.780  26.814  1.00  0.00     0.049 A 
ATOM     40  H   UNL A   1      43.176  27.809  27.892  1.00  0.00     0.167 HD
ATOM     41  C   UNL A   1      39.971  29.928  29.988  1.00  0.00     0.037 A 
ATOM     42  C   UNL A   1      45.684  27.606  26.690  1.00  0.00     0.037 A 
ATOM     43  C   UNL A   1      41.087  30.835  30.003  1.00  0.00     0.049 A 
ATOM     44  C   UNL A   1      45.629  28.979  27.304  1.00  0.00     0.074 A 
ATOM     45  C   UNL A   1      41.180  32.080  30.599  1.00  0.00     0.029 A 
ATOM     46  N   UNL A   1      42.303  30.598  29.381  1.00  0.00    -0.354 N 
ATOM     47  N   UNL A   1      44.652  29.546  27.970  1.00  0.00    -0.248 NA
ATOM     48  C   UNL A   1      46.823  29.822  27.155  1.00  0.00     0.031 C 
ATOM     49  C   UNL A   1      42.437  32.617  30.295  1.00  0.00     0.029 A 
ATOM     50  C   UNL A   1      43.144  31.685  29.551  1.00  0.00     0.049 A 
ATOM     51  H   UNL A   1      42.536  29.777  28.889  1.00  0.00     0.167 HD
ATOM     52  C   UNL A   1      45.119  30.804  28.334  1.00  0.00     0.074 A 
ATOM     53  C   UNL A   1      46.471  30.911  27.824  1.00  0.00     0.031 C 
ATOM     54  C   UNL A   1      44.484  31.780  29.029  1.00  0.00     0.037 A 
BRANCH  41  55
ATOM     55  C   UNL A   1      38.683  30.356  30.630  1.00  0.00     0.057 A 
ATOM     56  C   UNL A   1      37.737  31.133  29.947  1.00  0.00     0.134 A 
ATOM     57  C   UNL A   1      38.391  29.994  31.950  1.00  0.00     0.134 A 
ATOM     58  F   UNL A   1      37.965  31.527  28.684  1.00  0.00    -0.206 F 
ATOM     59  C   UNL A   1      36.563  31.563  30.566  1.00  0.00     0.040 A 
ATOM     60  C   UNL A   1      37.207  30.396  32.571  1.00  0.00     0.040 A 
ATOM     61  F   UNL A   1      39.251  29.248  32.658  1.00  0.00    -0.206 F 
ATOM     62  C   UNL A   1      36.294  31.191  31.883  1.00  0.00     0.006 A 
ENDBRANCH  41  55
BRANCH  42  63
ATOM     63  C   UNL A   1      46.879  27.151  25.941  1.00  0.00     0.057 A 
ATOM     64  C   UNL A   1      47.013  27.386  24.569  1.00  0.00     0.134 A 
ATOM     65  C   UNL A   1      47.931  26.491  26.591  1.00  0.00     0.134 A 
ATOM     66  F   UNL A   1      46.030  27.994  23.889  1.00  0.00    -0.206 F 
ATOM     67  C   UNL A   1      48.149  26.979  23.867  1.00  0.00     0.040 A 
ATOM     68  C   UNL A   1      49.081  26.099  25.906  1.00  0.00     0.040 A 
ATOM     69  F   UNL A   1      47.860  26.240  27.906  1.00  0.00    -0.206 F 
ATOM     70  C   UNL A   1      49.191  26.342  24.539  1.00  0.00     0.006 A 
ENDBRANCH  42  63
BRANCH  54  71
ATOM     71  C   UNL A   1      45.250  33.044  29.293  1.00  0.00     0.057 A 
ATOM     72  C   UNL A   1      45.166  34.149  28.438  1.00  0.00     0.134 A 
ATOM     73  C   UNL A   1      46.044  33.172  30.440  1.00  0.00     0.134 A 
ATOM     74  F   UNL A   1      44.433  34.088  27.316  1.00  0.00    -0.206 F 
ATOM     75  C   UNL A   1      45.861  35.331  28.704  1.00  0.00     0.040 A 
ATOM     76  C   UNL A   1      46.724  34.356  30.729  1.00  0.00     0.040 A 
ATOM     77  F   UNL A   1      46.160  32.153  31.305  1.00  0.00    -0.206 F 
ATOM     78  C   UNL A   1      46.637  35.439  29.856  1.00  0.00     0.006 A 
ENDBRANCH  54  71
ENDBRANCH  28  29
ENDBRANCH  21  23
ENDBRANCH  20  21
ENDBRANCH  19  20
ENDBRANCH  18  19
ENDBRANCH  17  18
ENDBRANCH   1  17
TORSDOF 17
ENDMDL
