MODEL 1
REMARK VINA RESULT:     -11.8      0.000      0.000
REMARK SMILES COC(=O)c1c(NC(=O)[C@@H]2[C@H]3CC[C@H](CC3)[C@H]2C(=O)OCCOCCOC(=O)c2ccc(-c3c4nc(c(-c5c(F)cccc5F)c5ccc([nH]5)c(-c5c(F)cccc5F)c5nc(c(-c6c(F)cccc6F)c6ccc3[nH]6)C=C5)C=C4)cc2)sc(C)c1-c1ccc(C)cc1
REMARK SMILES IDX 22 1 21 2 20 3 18 4 19 5 17 6 10 7 11 8 12 9 16 10 14 11
REMARK SMILES IDX 13 12 15 13 8 14 7 15 9 17 6 18 5 19 86 20 83 21 84 22 85 23
REMARK SMILES IDX 3 24 4 25 2 26 1 27 87 28 88 29 93 30 89 31 92 32 90 33
REMARK SMILES IDX 91 34 23 35 24 36 25 37 26 38 27 39 28 40 29 41 30 42 82 43
REMARK SMILES IDX 31 44 81 45 32 46 33 47 34 48 75 49 35 50 80 51 74 52 76 53
REMARK SMILES IDX 36 54 79 55 73 56 72 57 37 59 63 60 46 61 62 62 47 63 50 64
REMARK SMILES IDX 61 65 77 66 48 67 49 68 60 70 78 71 51 72 38 73 39 74 44 75
REMARK SMILES IDX 40 76 41 77 43 78 45 79 42 80 64 81 65 82 70 83 66 84 67 85
REMARK SMILES IDX 69 86 71 87 68 88 52 89 53 90 58 91 54 92 55 93 57 94 59 95
REMARK SMILES IDX 56 96
REMARK H PARENT 7 16 76 58 50 69
REMARK Flexibility Score: inf
ROOT
ATOM      1  C   UNL A   1      36.598  23.373  24.228  1.00  0.00     0.202 C 
ENDROOT
BRANCH   1   2
ATOM      2  C   UNL A   1      35.165  23.756  23.827  1.00  0.00     0.261 C 
BRANCH   2   3
ATOM      3  O   UNL A   1      34.719  25.052  24.267  1.00  0.00    -0.463 OA
BRANCH   3   4
ATOM      4  C   UNL A   1      33.891  25.687  23.400  1.00  0.00     0.310 C 
ATOM      5  O   UNL A   1      34.064  25.721  22.184  1.00  0.00    -0.252 OA
BRANCH   4   6
ATOM      6  C   UNL A   1      32.748  26.444  24.057  1.00  0.00     0.115 C 
ATOM      7  C   UNL A   1      32.514  26.307  25.606  1.00  0.00     0.096 C 
ATOM      8  C   UNL A   1      32.442  27.748  26.200  1.00  0.00     0.002 C 
ATOM      9  C   UNL A   1      33.802  28.432  25.967  1.00  0.00     0.005 C 
ATOM     10  C   UNL A   1      31.370  28.609  25.481  1.00  0.00     0.005 C 
ATOM     11  C   UNL A   1      32.933  27.928  23.651  1.00  0.00     0.004 C 
ATOM     12  C   UNL A   1      34.077  28.565  24.463  1.00  0.00     0.005 C 
ATOM     13  C   UNL A   1      31.631  28.665  23.972  1.00  0.00     0.005 C 
BRANCH   7  14
ATOM     14  C   UNL A   1      31.199  25.562  25.930  1.00  0.00     0.229 C 
ATOM     15  N   UNL A   1      30.887  24.265  25.636  1.00  0.00    -0.317 N 
ATOM     16  H   UNL A   1      30.003  24.018  25.993  1.00  0.00     0.170 HD
ATOM     17  O   UNL A   1      30.303  26.175  26.531  1.00  0.00    -0.274 OA
BRANCH  15  18
ATOM     18  C   UNL A   1      31.480  23.202  24.970  1.00  0.00     0.111 A 
ATOM     19  C   UNL A   1      32.231  22.170  25.540  1.00  0.00     0.102 A 
ATOM     20  C   UNL A   1      32.475  21.103  24.581  1.00  0.00     0.012 A 
ATOM     21  S   UNL A   1      31.436  23.056  23.292  1.00  0.00    -0.122 S 
ATOM     22  C   UNL A   1      32.000  21.439  23.324  1.00  0.00     0.012 A 
ATOM     23  C   UNL A   1      31.935  20.594  22.088  1.00  0.00     0.057 C 
BRANCH  19  24
ATOM     24  C   UNL A   1      32.649  22.161  26.939  1.00  0.00     0.341 C 
ATOM     25  O   UNL A   1      31.914  22.526  27.860  1.00  0.00    -0.246 OA
BRANCH  24  26
ATOM     26  O   UNL A   1      33.934  21.752  27.097  1.00  0.00    -0.465 OA
ATOM     27  C   UNL A   1      34.889  22.769  27.386  1.00  0.00     0.282 C 
ENDBRANCH  24  26
ENDBRANCH  19  24
BRANCH  20  28
ATOM     28  C   UNL A   1      33.059  19.775  24.806  1.00  0.00    -0.016 A 
ATOM     29  C   UNL A   1      32.275  18.700  25.239  1.00  0.00     0.009 A 
ATOM     30  C   UNL A   1      34.410  19.550  24.506  1.00  0.00     0.009 A 
ATOM     31  C   UNL A   1      32.832  17.418  25.344  1.00  0.00     0.004 A 
ATOM     32  C   UNL A   1      34.954  18.266  24.573  1.00  0.00     0.004 A 
ATOM     33  C   UNL A   1      34.166  17.187  24.983  1.00  0.00    -0.051 A 
ATOM     34  C   UNL A   1      34.756  15.811  25.074  1.00  0.00     0.044 C 
ENDBRANCH  20  28
ENDBRANCH  15  18
ENDBRANCH   7  14
ENDBRANCH   4   6
ENDBRANCH   3   4
ENDBRANCH   2   3
ENDBRANCH   1   2
BRANCH   1  35
ATOM     35  O   UNL A   1      37.053  22.047  24.011  1.00  0.00    -0.374 OA
BRANCH  35  36
ATOM     36  C   UNL A   1      37.497  21.272  25.115  1.00  0.00     0.202 C 
BRANCH  36  37
ATOM     37  C   UNL A   1      38.979  21.291  25.501  1.00  0.00     0.261 C 
BRANCH  37  38
ATOM     38  O   UNL A   1      39.447  20.110  26.186  1.00  0.00    -0.460 OA
BRANCH  38  39
ATOM     39  C   UNL A   1      40.781  19.911  26.083  1.00  0.00     0.338 C 
ATOM     40  O   UNL A   1      41.322  18.941  25.568  1.00  0.00    -0.246 OA
BRANCH  39  41
ATOM     41  C   UNL A   1      41.613  21.023  26.600  1.00  0.00     0.060 A 
ATOM     42  C   UNL A   1      41.490  21.283  27.968  1.00  0.00     0.016 A 
ATOM     43  C   UNL A   1      42.250  21.953  25.774  1.00  0.00     0.016 A 
ATOM     44  C   UNL A   1      41.873  22.516  28.483  1.00  0.00     0.010 A 
ATOM     45  C   UNL A   1      42.592  23.212  26.278  1.00  0.00     0.010 A 
ATOM     46  C   UNL A   1      42.364  23.510  27.628  1.00  0.00    -0.014 A 
BRANCH  46  47
ATOM     47  C   UNL A   1      42.709  24.831  28.188  1.00  0.00     0.031 A 
ATOM     48  C   UNL A   1      44.115  25.179  28.580  1.00  0.00     0.074 A 
ATOM     49  C   UNL A   1      41.719  25.732  28.298  1.00  0.00     0.049 A 
ATOM     50  N   UNL A   1      44.592  26.326  28.994  1.00  0.00    -0.248 NA
ATOM     51  C   UNL A   1      45.116  24.104  28.501  1.00  0.00     0.031 C 
ATOM     52  C   UNL A   1      40.321  25.479  27.948  1.00  0.00     0.029 A 
ATOM     53  N   UNL A   1      41.734  27.027  28.733  1.00  0.00    -0.354 N 
ATOM     54  C   UNL A   1      45.949  26.120  29.211  1.00  0.00     0.074 A 
ATOM     55  C   UNL A   1      46.213  24.727  28.915  1.00  0.00     0.031 C 
ATOM     56  C   UNL A   1      39.607  26.587  28.190  1.00  0.00     0.029 A 
ATOM     57  C   UNL A   1      40.495  27.614  28.724  1.00  0.00     0.049 A 
ATOM     58  H   UNL A   1      42.552  27.493  29.023  1.00  0.00     0.167 HD
ATOM     59  C   UNL A   1      46.880  27.021  29.615  1.00  0.00     0.037 A 
ATOM     60  C   UNL A   1      40.118  28.844  29.112  1.00  0.00     0.037 A 
ATOM     61  C   UNL A   1      46.588  28.401  29.922  1.00  0.00     0.049 A 
ATOM     62  C   UNL A   1      41.165  29.809  29.586  1.00  0.00     0.074 A 
ATOM     63  C   UNL A   1      47.464  29.410  30.286  1.00  0.00     0.029 A 
ATOM     64  N   UNL A   1      45.317  28.962  29.922  1.00  0.00    -0.354 N 
ATOM     65  N   UNL A   1      42.459  29.631  29.703  1.00  0.00    -0.248 NA
ATOM     66  C   UNL A   1      40.703  31.150  29.962  1.00  0.00     0.031 C 
ATOM     67  C   UNL A   1      46.719  30.560  30.567  1.00  0.00     0.029 A 
ATOM     68  C   UNL A   1      45.384  30.290  30.316  1.00  0.00     0.049 A 
ATOM     69  H   UNL A   1      44.490  28.487  29.677  1.00  0.00     0.167 HD
ATOM     70  C   UNL A   1      42.970  30.846  30.143  1.00  0.00     0.074 A 
ATOM     71  C   UNL A   1      41.846  31.754  30.250  1.00  0.00     0.031 C 
ATOM     72  C   UNL A   1      44.252  31.178  30.428  1.00  0.00     0.037 A 
BRANCH  59  73
ATOM     73  C   UNL A   1      48.302  26.554  29.765  1.00  0.00     0.057 A 
ATOM     74  C   UNL A   1      49.250  26.723  28.748  1.00  0.00     0.134 A 
ATOM     75  C   UNL A   1      48.750  26.006  30.975  1.00  0.00     0.134 A 
ATOM     76  F   UNL A   1      48.891  27.241  27.563  1.00  0.00    -0.206 F 
ATOM     77  C   UNL A   1      50.585  26.350  28.922  1.00  0.00     0.040 A 
ATOM     78  C   UNL A   1      50.087  25.653  31.170  1.00  0.00     0.040 A 
ATOM     79  F   UNL A   1      47.901  25.826  31.998  1.00  0.00    -0.206 F 
ATOM     80  C   UNL A   1      51.010  25.821  30.140  1.00  0.00     0.006 A 
ENDBRANCH  59  73
BRANCH  60  81
ATOM     81  C   UNL A   1      38.687  29.220  29.052  1.00  0.00     0.057 A 
ATOM     82  C   UNL A   1      38.084  29.607  27.852  1.00  0.00     0.134 A 
ATOM     83  C   UNL A   1      37.880  29.174  30.198  1.00  0.00     0.134 A 
ATOM     84  F   UNL A   1      38.808  29.676  26.725  1.00  0.00    -0.206 F 
ATOM     85  C   UNL A   1      36.736  29.959  27.794  1.00  0.00     0.040 A 
ATOM     86  C   UNL A   1      36.525  29.496  30.148  1.00  0.00     0.040 A 
ATOM     87  F   UNL A   1      38.397  28.792  31.375  1.00  0.00    -0.206 F 
ATOM     88  C   UNL A   1      35.951  29.898  28.944  1.00  0.00     0.006 A 
ENDBRANCH  60  81
BRANCH  72  89
ATOM     89  C   UNL A   1      44.506  32.594  30.861  1.00  0.00     0.057 A 
ATOM     90  C   UNL A   1      44.765  33.616  29.937  1.00  0.00     0.134 A 
ATOM     91  C   UNL A   1      44.479  32.942  32.217  1.00  0.00     0.134 A 
ATOM     92  F   UNL A   1      44.820  33.348  28.624  1.00  0.00    -0.206 F 
ATOM     93  C   UNL A   1      45.018  34.926  30.351  1.00  0.00     0.040 A 
ATOM     94  C   UNL A   1      44.700  34.252  32.641  1.00  0.00     0.040 A 
ATOM     95  F   UNL A   1      44.229  32.014  33.154  1.00  0.00    -0.206 F 
ATOM     96  C   UNL A   1      44.981  35.247  31.706  1.00  0.00     0.006 A 
ENDBRANCH  72  89
ENDBRANCH  46  47
ENDBRANCH  39  41
ENDBRANCH  38  39
ENDBRANCH  37  38
ENDBRANCH  36  37
ENDBRANCH  35  36
ENDBRANCH   1  35
TORSDOF 19
ENDMDL
MODEL 2
REMARK VINA RESULT:     -11.7      0.389      5.833
REMARK SMILES COC(=O)c1c(NC(=O)[C@@H]2[C@H]3CC[C@H](CC3)[C@H]2C(=O)OCCOCCOC(=O)c2ccc(-c3c4nc(c(-c5c(F)cccc5F)c5ccc([nH]5)c(-c5c(F)cccc5F)c5nc(c(-c6c(F)cccc6F)c6ccc3[nH]6)C=C5)C=C4)cc2)sc(C)c1-c1ccc(C)cc1
REMARK SMILES IDX 22 1 21 2 20 3 18 4 19 5 17 6 10 7 11 8 12 9 16 10 14 11
REMARK SMILES IDX 13 12 15 13 8 14 7 15 9 17 6 18 5 19 86 20 83 21 84 22 85 23
REMARK SMILES IDX 3 24 4 25 2 26 1 27 87 28 88 29 93 30 89 31 92 32 90 33
REMARK SMILES IDX 91 34 23 35 24 36 25 37 26 38 27 39 28 40 29 41 30 42 82 43
REMARK SMILES IDX 31 44 81 45 32 46 33 47 34 48 75 49 35 50 80 51 74 52 76 53
REMARK SMILES IDX 36 54 79 55 73 56 72 57 37 59 63 60 46 61 62 62 47 63 50 64
REMARK SMILES IDX 61 65 77 66 48 67 49 68 60 70 78 71 51 72 38 73 39 74 44 75
REMARK SMILES IDX 40 76 41 77 43 78 45 79 42 80 64 81 65 82 70 83 66 84 67 85
REMARK SMILES IDX 69 86 71 87 68 88 52 89 53 90 58 91 54 92 55 93 57 94 59 95
REMARK SMILES IDX 56 96
REMARK H PARENT 7 16 76 58 50 69
REMARK Flexibility Score: inf
ROOT
ATOM      1  C   UNL A   1      36.616  23.296  24.113  1.00  0.00     0.202 C 
ENDROOT
BRANCH   1   2
ATOM      2  C   UNL A   1      35.205  23.696  23.655  1.00  0.00     0.261 C 
BRANCH   2   3
ATOM      3  O   UNL A   1      34.749  24.989  24.095  1.00  0.00    -0.463 OA
BRANCH   3   4
ATOM      4  C   UNL A   1      33.849  25.579  23.269  1.00  0.00     0.310 C 
ATOM      5  O   UNL A   1      33.947  25.595  22.045  1.00  0.00    -0.252 OA
BRANCH   4   6
ATOM      6  C   UNL A   1      32.722  26.309  23.981  1.00  0.00     0.115 C 
ATOM      7  C   UNL A   1      32.547  26.141  25.535  1.00  0.00     0.096 C 
ATOM      8  C   UNL A   1      32.479  27.570  26.158  1.00  0.00     0.002 C 
ATOM      9  C   UNL A   1      33.821  28.276  25.887  1.00  0.00     0.005 C 
ATOM     10  C   UNL A   1      31.371  28.430  25.495  1.00  0.00     0.005 C 
ATOM     11  C   UNL A   1      32.874  27.803  23.597  1.00  0.00     0.004 C 
ATOM     12  C   UNL A   1      34.039  28.439  24.378  1.00  0.00     0.005 C 
ATOM     13  C   UNL A   1      31.575  28.517  23.979  1.00  0.00     0.005 C 
BRANCH   7  14
ATOM     14  C   UNL A   1      31.253  25.374  25.893  1.00  0.00     0.229 C 
ATOM     15  N   UNL A   1      30.966  24.065  25.629  1.00  0.00    -0.317 N 
ATOM     16  H   UNL A   1      30.093  23.805  26.003  1.00  0.00     0.170 HD
ATOM     17  O   UNL A   1      30.353  25.978  26.495  1.00  0.00    -0.274 OA
BRANCH  15  18
ATOM     18  C   UNL A   1      31.573  23.003  24.974  1.00  0.00     0.111 A 
ATOM     19  C   UNL A   1      32.334  21.985  25.555  1.00  0.00     0.102 A 
ATOM     20  C   UNL A   1      32.592  20.911  24.606  1.00  0.00     0.012 A 
ATOM     21  S   UNL A   1      31.534  22.840  23.297  1.00  0.00    -0.122 S 
ATOM     22  C   UNL A   1      32.117  21.230  23.345  1.00  0.00     0.012 A 
ATOM     23  C   UNL A   1      32.064  20.373  22.117  1.00  0.00     0.057 C 
BRANCH  19  24
ATOM     24  C   UNL A   1      32.749  21.993  26.955  1.00  0.00     0.341 C 
ATOM     25  O   UNL A   1      31.974  22.242  27.882  1.00  0.00    -0.246 OA
BRANCH  24  26
ATOM     26  O   UNL A   1      34.074  21.743  27.107  1.00  0.00    -0.465 OA
ATOM     27  C   UNL A   1      34.935  22.878  27.120  1.00  0.00     0.282 C 
ENDBRANCH  24  26
ENDBRANCH  19  24
BRANCH  20  28
ATOM     28  C   UNL A   1      33.191  19.592  24.845  1.00  0.00    -0.016 A 
ATOM     29  C   UNL A   1      32.419  18.513  25.291  1.00  0.00     0.009 A 
ATOM     30  C   UNL A   1      34.544  19.379  24.546  1.00  0.00     0.009 A 
ATOM     31  C   UNL A   1      32.990  17.239  25.409  1.00  0.00     0.004 A 
ATOM     32  C   UNL A   1      35.102  18.102  24.626  1.00  0.00     0.004 A 
ATOM     33  C   UNL A   1      34.326  17.018  25.048  1.00  0.00    -0.051 A 
ATOM     34  C   UNL A   1      34.931  15.650  25.154  1.00  0.00     0.044 C 
ENDBRANCH  20  28
ENDBRANCH  15  18
ENDBRANCH   7  14
ENDBRANCH   4   6
ENDBRANCH   3   4
ENDBRANCH   2   3
ENDBRANCH   1   2
BRANCH   1  35
ATOM     35  O   UNL A   1      37.017  21.937  24.036  1.00  0.00    -0.374 OA
BRANCH  35  36
ATOM     36  C   UNL A   1      37.522  21.292  25.195  1.00  0.00     0.202 C 
BRANCH  36  37
ATOM     37  C   UNL A   1      39.036  21.142  25.373  1.00  0.00     0.261 C 
BRANCH  37  38
ATOM     38  O   UNL A   1      39.449  20.014  26.175  1.00  0.00    -0.460 OA
BRANCH  38  39
ATOM     39  C   UNL A   1      40.781  19.784  26.149  1.00  0.00     0.338 C 
ATOM     40  O   UNL A   1      41.325  18.765  25.744  1.00  0.00    -0.246 OA
BRANCH  39  41
ATOM     41  C   UNL A   1      41.613  20.923  26.607  1.00  0.00     0.060 A 
ATOM     42  C   UNL A   1      41.440  21.299  27.942  1.00  0.00     0.016 A 
ATOM     43  C   UNL A   1      42.302  21.770  25.734  1.00  0.00     0.016 A 
ATOM     44  C   UNL A   1      41.825  22.564  28.368  1.00  0.00     0.010 A 
ATOM     45  C   UNL A   1      42.648  23.061  26.146  1.00  0.00     0.010 A 
ATOM     46  C   UNL A   1      42.370  23.475  27.455  1.00  0.00    -0.014 A 
BRANCH  46  47
ATOM     47  C   UNL A   1      42.717  24.833  27.917  1.00  0.00     0.031 A 
ATOM     48  C   UNL A   1      41.669  25.883  28.141  1.00  0.00     0.074 A 
ATOM     49  C   UNL A   1      44.012  25.086  28.170  1.00  0.00     0.049 A 
ATOM     50  N   UNL A   1      41.806  27.087  28.635  1.00  0.00    -0.248 NA
ATOM     51  C   UNL A   1      40.290  25.542  27.759  1.00  0.00     0.031 C 
ATOM     52  C   UNL A   1      45.100  24.128  27.975  1.00  0.00     0.029 A 
ATOM     53  N   UNL A   1      44.627  26.212  28.639  1.00  0.00    -0.354 N 
ATOM     54  C   UNL A   1      40.533  27.646  28.640  1.00  0.00     0.074 A 
ATOM     55  C   UNL A   1      39.641  26.659  28.067  1.00  0.00     0.031 C 
ATOM     56  C   UNL A   1      46.258  24.712  28.316  1.00  0.00     0.029 A 
ATOM     57  C   UNL A   1      45.989  26.083  28.735  1.00  0.00     0.049 A 
ATOM     58  H   UNL A   1      44.142  27.033  28.884  1.00  0.00     0.167 HD
ATOM     59  C   UNL A   1      40.156  28.869  29.091  1.00  0.00     0.037 A 
ATOM     60  C   UNL A   1      46.918  26.977  29.114  1.00  0.00     0.037 A 
ATOM     61  C   UNL A   1      41.068  29.844  29.641  1.00  0.00     0.049 A 
ATOM     62  C   UNL A   1      46.473  28.334  29.576  1.00  0.00     0.074 A 
ATOM     63  C   UNL A   1      40.783  31.089  30.176  1.00  0.00     0.029 A 
ATOM     64  N   UNL A   1      42.446  29.690  29.708  1.00  0.00    -0.354 N 
ATOM     65  N   UNL A   1      45.259  28.821  29.661  1.00  0.00    -0.248 NA
ATOM     66  C   UNL A   1      47.526  29.258  30.013  1.00  0.00     0.031 C 
ATOM     67  C   UNL A   1      41.991  31.713  30.506  1.00  0.00     0.029 A 
ATOM     68  C   UNL A   1      43.027  30.833  30.239  1.00  0.00     0.049 A 
ATOM     69  H   UNL A   1      42.940  28.888  29.421  1.00  0.00     0.167 HD
ATOM     70  C   UNL A   1      45.398  30.100  30.184  1.00  0.00     0.074 A 
ATOM     71  C   UNL A   1      46.814  30.301  30.415  1.00  0.00     0.031 C 
ATOM     72  C   UNL A   1      44.441  31.021  30.453  1.00  0.00     0.037 A 
BRANCH  59  73
ATOM     73  C   UNL A   1      38.701  29.241  29.000  1.00  0.00     0.057 A 
ATOM     74  C   UNL A   1      38.104  29.608  27.788  1.00  0.00     0.134 A 
ATOM     75  C   UNL A   1      37.867  29.148  30.123  1.00  0.00     0.134 A 
ATOM     76  F   UNL A   1      38.841  29.719  26.672  1.00  0.00    -0.206 F 
ATOM     77  C   UNL A   1      36.737  29.884  27.699  1.00  0.00     0.040 A 
ATOM     78  C   UNL A   1      36.495  29.396  30.041  1.00  0.00     0.040 A 
ATOM     79  F   UNL A   1      38.368  28.788  31.315  1.00  0.00    -0.206 F 
ATOM     80  C   UNL A   1      35.926  29.770  28.827  1.00  0.00     0.006 A 
ENDBRANCH  59  73
BRANCH  60  81
ATOM     81  C   UNL A   1      48.349  26.600  29.077  1.00  0.00     0.057 A 
ATOM     82  C   UNL A   1      48.959  25.947  30.152  1.00  0.00     0.134 A 
ATOM     83  C   UNL A   1      49.136  26.864  27.948  1.00  0.00     0.134 A 
ATOM     84  F   UNL A   1      48.257  25.674  31.262  1.00  0.00    -0.206 F 
ATOM     85  C   UNL A   1      50.307  25.589  30.118  1.00  0.00     0.040 A 
ATOM     86  C   UNL A   1      50.477  26.487  27.889  1.00  0.00     0.040 A 
ATOM     87  F   UNL A   1      48.603  27.472  26.878  1.00  0.00    -0.206 F 
ATOM     88  C   UNL A   1      51.068  25.855  28.981  1.00  0.00     0.006 A 
ENDBRANCH  60  81
BRANCH  72  89
ATOM     89  C   UNL A   1      44.899  32.321  31.049  1.00  0.00     0.057 A 
ATOM     90  C   UNL A   1      45.008  32.503  32.434  1.00  0.00     0.134 A 
ATOM     91  C   UNL A   1      45.247  33.401  30.227  1.00  0.00     0.134 A 
ATOM     92  F   UNL A   1      44.676  31.515  33.278  1.00  0.00    -0.206 F 
ATOM     93  C   UNL A   1      45.416  33.723  32.979  1.00  0.00     0.040 A 
ATOM     94  C   UNL A   1      45.685  34.613  30.758  1.00  0.00     0.040 A 
ATOM     95  F   UNL A   1      45.172  33.291  28.891  1.00  0.00    -0.206 F 
ATOM     96  C   UNL A   1      45.761  34.779  32.140  1.00  0.00     0.006 A 
ENDBRANCH  72  89
ENDBRANCH  46  47
ENDBRANCH  39  41
ENDBRANCH  38  39
ENDBRANCH  37  38
ENDBRANCH  36  37
ENDBRANCH  35  36
ENDBRANCH   1  35
TORSDOF 19
ENDMDL
MODEL 3
REMARK VINA RESULT:     -11.7      3.832      8.202
REMARK SMILES COC(=O)c1c(NC(=O)[C@@H]2[C@H]3CC[C@H](CC3)[C@H]2C(=O)OCCOCCOC(=O)c2ccc(-c3c4nc(c(-c5c(F)cccc5F)c5ccc([nH]5)c(-c5c(F)cccc5F)c5nc(c(-c6c(F)cccc6F)c6ccc3[nH]6)C=C5)C=C4)cc2)sc(C)c1-c1ccc(C)cc1
REMARK SMILES IDX 22 1 21 2 20 3 18 4 19 5 17 6 10 7 11 8 12 9 16 10 14 11
REMARK SMILES IDX 13 12 15 13 8 14 7 15 9 17 6 18 5 19 86 20 83 21 84 22 85 23
REMARK SMILES IDX 3 24 4 25 2 26 1 27 87 28 88 29 93 30 89 31 92 32 90 33
REMARK SMILES IDX 91 34 23 35 24 36 25 37 26 38 27 39 28 40 29 41 30 42 82 43
REMARK SMILES IDX 31 44 81 45 32 46 33 47 34 48 75 49 35 50 80 51 74 52 76 53
REMARK SMILES IDX 36 54 79 55 73 56 72 57 37 59 63 60 46 61 62 62 47 63 50 64
REMARK SMILES IDX 61 65 77 66 48 67 49 68 60 70 78 71 51 72 38 73 39 74 44 75
REMARK SMILES IDX 40 76 41 77 43 78 45 79 42 80 64 81 65 82 70 83 66 84 67 85
REMARK SMILES IDX 69 86 71 87 68 88 52 89 53 90 58 91 54 92 55 93 57 94 59 95
REMARK SMILES IDX 56 96
REMARK H PARENT 7 16 76 58 50 69
REMARK Flexibility Score: inf
ROOT
ATOM      1  C   UNL A   1      32.811  29.528  27.540  1.00  0.00     0.202 C 
ENDROOT
BRANCH   1   2
ATOM      2  C   UNL A   1      33.592  28.300  27.048  1.00  0.00     0.261 C 
BRANCH   2   3
ATOM      3  O   UNL A   1      32.798  27.148  26.711  1.00  0.00    -0.463 OA
BRANCH   3   4
ATOM      4  C   UNL A   1      33.252  26.445  25.643  1.00  0.00     0.310 C 
ATOM      5  O   UNL A   1      34.324  25.846  25.619  1.00  0.00    -0.252 OA
BRANCH   4   6
ATOM      6  C   UNL A   1      32.357  26.513  24.415  1.00  0.00     0.115 C 
ATOM      7  C   UNL A   1      30.844  26.909  24.578  1.00  0.00     0.096 C 
ATOM      8  C   UNL A   1      30.554  28.075  23.581  1.00  0.00     0.002 C 
ATOM      9  C   UNL A   1      31.424  29.280  23.984  1.00  0.00     0.005 C 
ATOM     10  C   UNL A   1      30.947  27.695  22.129  1.00  0.00     0.005 C 
ATOM     11  C   UNL A   1      33.076  27.458  23.419  1.00  0.00     0.004 C 
ATOM     12  C   UNL A   1      32.911  28.925  23.859  1.00  0.00     0.005 C 
ATOM     13  C   UNL A   1      32.419  27.278  22.049  1.00  0.00     0.005 C 
BRANCH   7  14
ATOM     14  C   UNL A   1      29.899  25.728  24.261  1.00  0.00     0.229 C 
ATOM     15  N   UNL A   1      30.081  24.413  24.579  1.00  0.00    -0.317 N 
ATOM     16  H   UNL A   1      29.309  23.866  24.306  1.00  0.00     0.170 HD
ATOM     17  O   UNL A   1      28.840  25.961  23.657  1.00  0.00    -0.274 OA
BRANCH  15  18
ATOM     18  C   UNL A   1      31.062  23.639  25.182  1.00  0.00     0.111 A 
ATOM     19  C   UNL A   1      32.040  22.874  24.540  1.00  0.00     0.102 A 
ATOM     20  C   UNL A   1      33.047  22.406  25.481  1.00  0.00     0.012 A 
ATOM     21  S   UNL A   1      31.154  23.447  26.854  1.00  0.00    -0.122 S 
ATOM     22  C   UNL A   1      32.713  22.741  26.782  1.00  0.00     0.012 A 
ATOM     23  C   UNL A   1      33.517  22.563  28.034  1.00  0.00     0.057 C 
BRANCH  19  24
ATOM     24  C   UNL A   1      32.059  22.645  23.098  1.00  0.00     0.341 C 
ATOM     25  O   UNL A   1      31.797  21.552  22.589  1.00  0.00    -0.246 OA
BRANCH  24  26
ATOM     26  O   UNL A   1      32.438  23.746  22.400  1.00  0.00    -0.465 OA
ATOM     27  C   UNL A   1      33.839  23.986  22.307  1.00  0.00     0.282 C 
ENDBRANCH  24  26
ENDBRANCH  19  24
BRANCH  20  28
ATOM     28  C   UNL A   1      34.323  21.733  25.208  1.00  0.00    -0.016 A 
ATOM     29  C   UNL A   1      35.530  22.441  25.197  1.00  0.00     0.009 A 
ATOM     30  C   UNL A   1      34.352  20.342  25.036  1.00  0.00     0.009 A 
ATOM     31  C   UNL A   1      36.745  21.760  25.041  1.00  0.00     0.004 A 
ATOM     32  C   UNL A   1      35.565  19.660  24.921  1.00  0.00     0.004 A 
ATOM     33  C   UNL A   1      36.773  20.363  24.933  1.00  0.00    -0.051 A 
ATOM     34  C   UNL A   1      38.075  19.633  24.788  1.00  0.00     0.044 C 
ENDBRANCH  20  28
ENDBRANCH  15  18
ENDBRANCH   7  14
ENDBRANCH   4   6
ENDBRANCH   3   4
ENDBRANCH   2   3
ENDBRANCH   1   2
BRANCH   1  35
ATOM     35  O   UNL A   1      32.879  30.740  26.805  1.00  0.00    -0.374 OA
BRANCH  35  36
ATOM     36  C   UNL A   1      31.760  31.614  26.797  1.00  0.00     0.202 C 
BRANCH  36  37
ATOM     37  C   UNL A   1      31.988  33.128  26.844  1.00  0.00     0.261 C 
BRANCH  37  38
ATOM     38  O   UNL A   1      32.155  33.679  28.168  1.00  0.00    -0.460 OA
BRANCH  38  39
ATOM     39  C   UNL A   1      33.332  34.323  28.346  1.00  0.00     0.338 C 
ATOM     40  O   UNL A   1      33.482  35.536  28.409  1.00  0.00    -0.246 OA
BRANCH  39  41
ATOM     41  C   UNL A   1      34.501  33.432  28.535  1.00  0.00     0.060 A 
ATOM     42  C   UNL A   1      34.324  32.390  29.450  1.00  0.00     0.016 A 
ATOM     43  C   UNL A   1      35.787  33.747  28.087  1.00  0.00     0.016 A 
ATOM     44  C   UNL A   1      35.427  31.762  30.017  1.00  0.00     0.010 A 
ATOM     45  C   UNL A   1      36.899  33.152  28.690  1.00  0.00     0.010 A 
ATOM     46  C   UNL A   1      36.720  32.186  29.689  1.00  0.00    -0.014 A 
BRANCH  46  47
ATOM     47  C   UNL A   1      37.874  31.544  30.348  1.00  0.00     0.031 A 
ATOM     48  C   UNL A   1      38.258  31.872  31.761  1.00  0.00     0.074 A 
ATOM     49  C   UNL A   1      38.549  30.620  29.646  1.00  0.00     0.049 A 
ATOM     50  N   UNL A   1      39.183  31.324  32.508  1.00  0.00    -0.248 NA
ATOM     51  C   UNL A   1      37.513  32.954  32.422  1.00  0.00     0.031 C 
ATOM     52  C   UNL A   1      38.251  30.243  28.264  1.00  0.00     0.029 A 
ATOM     53  N   UNL A   1      39.616  29.839  29.991  1.00  0.00    -0.354 N 
ATOM     54  C   UNL A   1      39.125  31.980  33.732  1.00  0.00     0.074 A 
ATOM     55  C   UNL A   1      38.095  32.992  33.616  1.00  0.00     0.031 C 
ATOM     56  C   UNL A   1      39.123  29.303  27.874  1.00  0.00     0.029 A 
ATOM     57  C   UNL A   1      40.045  29.029  28.971  1.00  0.00     0.049 A 
ATOM     58  H   UNL A   1      40.035  29.856  30.882  1.00  0.00     0.167 HD
ATOM     59  C   UNL A   1      39.866  31.746  34.845  1.00  0.00     0.037 A 
ATOM     60  C   UNL A   1      41.074  28.166  28.927  1.00  0.00     0.037 A 
ATOM     61  C   UNL A   1      40.902  30.744  34.930  1.00  0.00     0.049 A 
ATOM     62  C   UNL A   1      41.896  27.952  30.164  1.00  0.00     0.074 A 
ATOM     63  C   UNL A   1      41.672  30.388  36.024  1.00  0.00     0.029 A 
ATOM     64  N   UNL A   1      41.326  29.950  33.872  1.00  0.00    -0.354 N 
ATOM     65  N   UNL A   1      41.776  28.513  31.343  1.00  0.00    -0.248 NA
ATOM     66  C   UNL A   1      42.984  26.971  30.069  1.00  0.00     0.031 C 
ATOM     67  C   UNL A   1      42.604  29.428  35.613  1.00  0.00     0.029 A 
ATOM     68  C   UNL A   1      42.372  29.135  34.279  1.00  0.00     0.049 A 
ATOM     69  H   UNL A   1      40.940  29.964  32.966  1.00  0.00     0.167 HD
ATOM     70  C   UNL A   1      42.756  27.936  32.139  1.00  0.00     0.074 A 
ATOM     71  C   UNL A   1      43.446  26.967  31.311  1.00  0.00     0.031 C 
ATOM     72  C   UNL A   1      43.055  28.183  33.438  1.00  0.00     0.037 A 
BRANCH  59  73
ATOM     73  C   UNL A   1      39.604  32.590  36.062  1.00  0.00     0.057 A 
ATOM     74  C   UNL A   1      38.639  32.237  37.015  1.00  0.00     0.134 A 
ATOM     75  C   UNL A   1      40.384  33.723  36.329  1.00  0.00     0.134 A 
ATOM     76  F   UNL A   1      37.855  31.166  36.825  1.00  0.00    -0.206 F 
ATOM     77  C   UNL A   1      38.451  32.989  38.179  1.00  0.00     0.040 A 
ATOM     78  C   UNL A   1      40.222  34.467  37.500  1.00  0.00     0.040 A 
ATOM     79  F   UNL A   1      41.336  34.113  35.468  1.00  0.00    -0.206 F 
ATOM     80  C   UNL A   1      39.250  34.103  38.428  1.00  0.00     0.006 A 
ENDBRANCH  59  73
BRANCH  60  81
ATOM     81  C   UNL A   1      41.362  27.442  27.668  1.00  0.00     0.057 A 
ATOM     82  C   UNL A   1      42.176  27.999  26.677  1.00  0.00     0.134 A 
ATOM     83  C   UNL A   1      40.848  26.158  27.439  1.00  0.00     0.134 A 
ATOM     84  F   UNL A   1      42.691  29.227  26.838  1.00  0.00    -0.206 F 
ATOM     85  C   UNL A   1      42.451  27.317  25.491  1.00  0.00     0.040 A 
ATOM     86  C   UNL A   1      41.138  25.454  26.272  1.00  0.00     0.040 A 
ATOM     87  F   UNL A   1      40.077  25.564  28.361  1.00  0.00    -0.206 F 
ATOM     88  C   UNL A   1      41.935  26.038  25.290  1.00  0.00     0.006 A 
ENDBRANCH  60  81
BRANCH  72  89
ATOM     89  C   UNL A   1      44.164  27.371  34.045  1.00  0.00     0.057 A 
ATOM     90  C   UNL A   1      45.490  27.822  34.058  1.00  0.00     0.134 A 
ATOM     91  C   UNL A   1      43.898  26.128  34.634  1.00  0.00     0.134 A 
ATOM     92  F   UNL A   1      45.815  28.997  33.498  1.00  0.00    -0.206 F 
ATOM     93  C   UNL A   1      46.517  27.051  34.608  1.00  0.00     0.040 A 
ATOM     94  C   UNL A   1      44.910  25.363  35.214  1.00  0.00     0.040 A 
ATOM     95  F   UNL A   1      42.649  25.640  34.662  1.00  0.00    -0.206 F 
ATOM     96  C   UNL A   1      46.226  25.820  35.192  1.00  0.00     0.006 A 
ENDBRANCH  72  89
ENDBRANCH  46  47
ENDBRANCH  39  41
ENDBRANCH  38  39
ENDBRANCH  37  38
ENDBRANCH  36  37
ENDBRANCH  35  36
ENDBRANCH   1  35
TORSDOF 19
ENDMDL
