MODEL 1
REMARK VINA RESULT:     -11.1      0.000      0.000
REMARK SMILES O=C(OCCOCCOC(=O)c1ccc(S(=O)(=O)NC[C@H]2CCS(=O)(=O)C2)cc1)c1ccc(-c2c3nc(c(-c4c(F)cccc4F)c4ccc([nH]4)c(-c4c(F)cccc4F)c4nc(c(-c5c(F)cccc5F)c5ccc2[nH]5)C=C4)C=C3)cc1
REMARK SMILES IDX 7 1 6 2 5 3 4 4 3 5 2 6 1 7 30 8 31 9 83 10 32 11 82 12
REMARK SMILES IDX 33 13 34 14 35 15 76 16 36 17 81 18 75 19 77 20 37 21 80 22
REMARK SMILES IDX 74 23 73 24 38 26 64 27 47 28 63 29 48 30 51 31 62 32 78 33
REMARK SMILES IDX 49 34 50 35 61 37 79 38 52 39 39 40 40 41 45 42 41 43 42 44
REMARK SMILES IDX 44 45 46 46 43 47 65 48 66 49 71 50 67 51 68 52 70 53 72 54
REMARK SMILES IDX 69 55 53 56 54 57 59 58 55 59 56 60 58 61 60 62 57 63 8 64
REMARK SMILES IDX 9 65 10 66 11 67 12 68 13 69 29 70 14 71 28 72 15 73 16 74
REMARK SMILES IDX 17 75 18 76 19 77 20 79 21 80 22 81 27 82 23 83 24 84 25 85
REMARK SMILES IDX 26 86
REMARK H PARENT 77 25 51 36 19 78
REMARK Flexibility Score: inf
ROOT
ATOM      1  C   UNL A   1      33.794  32.977  27.996  1.00  0.00     0.202 C 
ENDROOT
BRANCH   1   2
ATOM      2  O   UNL A   1      33.624  33.072  29.417  1.00  0.00    -0.374 OA
BRANCH   2   3
ATOM      3  C   UNL A   1      34.244  34.193  30.050  1.00  0.00     0.202 C 
BRANCH   3   4
ATOM      4  C   UNL A   1      34.547  34.004  31.540  1.00  0.00     0.261 C 
BRANCH   4   5
ATOM      5  O   UNL A   1      34.843  32.625  31.819  1.00  0.00    -0.460 OA
BRANCH   5   6
ATOM      6  C   UNL A   1      35.937  32.106  32.422  1.00  0.00     0.338 C 
ATOM      7  O   UNL A   1      35.963  32.052  33.650  1.00  0.00    -0.246 OA
BRANCH   6   8
ATOM      8  C   UNL A   1      37.130  31.601  31.677  1.00  0.00     0.060 A 
ATOM      9  C   UNL A   1      37.346  31.777  30.310  1.00  0.00     0.016 A 
ATOM     10  C   UNL A   1      38.148  30.997  32.433  1.00  0.00     0.016 A 
ATOM     11  C   UNL A   1      38.494  31.315  29.690  1.00  0.00     0.010 A 
ATOM     12  C   UNL A   1      39.333  30.570  31.826  1.00  0.00     0.010 A 
ATOM     13  C   UNL A   1      39.498  30.721  30.446  1.00  0.00    -0.014 A 
BRANCH  13  14
ATOM     14  C   UNL A   1      40.670  30.199  29.727  1.00  0.00     0.031 A 
ATOM     15  C   UNL A   1      41.869  31.079  29.588  1.00  0.00     0.074 A 
ATOM     16  C   UNL A   1      40.684  28.908  29.349  1.00  0.00     0.049 A 
ATOM     17  N   UNL A   1      43.001  30.841  28.986  1.00  0.00    -0.248 NA
ATOM     18  C   UNL A   1      41.788  32.402  30.230  1.00  0.00     0.031 C 
ATOM     19  C   UNL A   1      39.594  27.953  29.570  1.00  0.00     0.029 A 
ATOM     20  N   UNL A   1      41.657  28.168  28.735  1.00  0.00    -0.354 N 
ATOM     21  C   UNL A   1      43.757  31.995  29.148  1.00  0.00     0.074 A 
ATOM     22  C   UNL A   1      42.957  32.930  29.907  1.00  0.00     0.031 C 
ATOM     23  C   UNL A   1      39.970  26.747  29.117  1.00  0.00     0.029 A 
ATOM     24  C   UNL A   1      41.291  26.862  28.513  1.00  0.00     0.049 A 
ATOM     25  H   UNL A   1      42.533  28.535  28.476  1.00  0.00     0.167 HD
ATOM     26  C   UNL A   1      45.004  32.242  28.688  1.00  0.00     0.037 A 
ATOM     27  C   UNL A   1      41.948  25.887  27.860  1.00  0.00     0.037 A 
ATOM     28  C   UNL A   1      45.766  31.284  27.936  1.00  0.00     0.049 A 
ATOM     29  C   UNL A   1      43.296  26.216  27.283  1.00  0.00     0.074 A 
ATOM     30  C   UNL A   1      47.013  31.429  27.358  1.00  0.00     0.029 A 
ATOM     31  N   UNL A   1      45.340  29.990  27.660  1.00  0.00    -0.354 N 
ATOM     32  N   UNL A   1      43.981  27.332  27.373  1.00  0.00    -0.248 NA
ATOM     33  C   UNL A   1      43.957  25.165  26.501  1.00  0.00     0.031 C 
ATOM     34  C   UNL A   1      47.321  30.236  26.694  1.00  0.00     0.029 A 
ATOM     35  C   UNL A   1      46.290  29.330  26.902  1.00  0.00     0.049 A 
ATOM     36  H   UNL A   1      44.487  29.600  27.960  1.00  0.00     0.167 HD
ATOM     37  C   UNL A   1      45.157  27.118  26.669  1.00  0.00     0.074 A 
ATOM     38  C   UNL A   1      45.100  25.753  26.178  1.00  0.00     0.031 C 
ATOM     39  C   UNL A   1      46.189  27.967  26.441  1.00  0.00     0.037 A 
BRANCH  26  40
ATOM     40  C   UNL A   1      45.555  33.617  28.921  1.00  0.00     0.057 A 
ATOM     41  C   UNL A   1      45.345  34.671  28.021  1.00  0.00     0.134 A 
ATOM     42  C   UNL A   1      46.348  33.876  30.045  1.00  0.00     0.134 A 
ATOM     43  F   UNL A   1      44.622  34.481  26.908  1.00  0.00    -0.206 F 
ATOM     44  C   UNL A   1      45.929  35.924  28.219  1.00  0.00     0.040 A 
ATOM     45  C   UNL A   1      46.917  35.131  30.265  1.00  0.00     0.040 A 
ATOM     46  F   UNL A   1      46.596  32.908  30.940  1.00  0.00    -0.206 F 
ATOM     47  C   UNL A   1      46.715  36.157  29.346  1.00  0.00     0.006 A 
ENDBRANCH  26  40
BRANCH  27  48
ATOM     48  C   UNL A   1      41.320  24.553  27.672  1.00  0.00     0.057 A 
ATOM     49  C   UNL A   1      41.724  23.438  28.415  1.00  0.00     0.134 A 
ATOM     50  C   UNL A   1      40.295  24.359  26.735  1.00  0.00     0.134 A 
ATOM     51  F   UNL A   1      42.713  23.550  29.315  1.00  0.00    -0.206 F 
ATOM     52  C   UNL A   1      41.144  22.181  28.226  1.00  0.00     0.040 A 
ATOM     53  C   UNL A   1      39.688  23.115  26.555  1.00  0.00     0.040 A 
ATOM     54  F   UNL A   1      39.856  25.384  25.989  1.00  0.00    -0.206 F 
ATOM     55  C   UNL A   1      40.119  22.019  27.297  1.00  0.00     0.006 A 
ENDBRANCH  27  48
BRANCH  39  56
ATOM     56  C   UNL A   1      47.342  27.427  25.650  1.00  0.00     0.057 A 
ATOM     57  C   UNL A   1      47.426  27.598  24.263  1.00  0.00     0.134 A 
ATOM     58  C   UNL A   1      48.400  26.777  26.295  1.00  0.00     0.134 A 
ATOM     59  F   UNL A   1      46.435  28.201  23.590  1.00  0.00    -0.206 F 
ATOM     60  C   UNL A   1      48.520  27.122  23.541  1.00  0.00     0.040 A 
ATOM     61  C   UNL A   1      49.510  26.320  25.587  1.00  0.00     0.040 A 
ATOM     62  F   UNL A   1      48.379  26.592  27.623  1.00  0.00    -0.206 F 
ATOM     63  C   UNL A   1      49.570  26.488  24.205  1.00  0.00     0.006 A 
ENDBRANCH  39  56
ENDBRANCH  13  14
ENDBRANCH   6   8
ENDBRANCH   5   6
ENDBRANCH   4   5
ENDBRANCH   3   4
ENDBRANCH   2   3
ENDBRANCH   1   2
BRANCH   1  64
ATOM     64  C   UNL A   1      34.712  31.793  27.673  1.00  0.00     0.261 C 
BRANCH  64  65
ATOM     65  O   UNL A   1      33.881  30.659  27.392  1.00  0.00    -0.460 OA
BRANCH  65  66
ATOM     66  C   UNL A   1      34.542  29.475  27.391  1.00  0.00     0.338 C 
ATOM     67  O   UNL A   1      35.647  29.247  27.854  1.00  0.00    -0.246 OA
BRANCH  66  68
ATOM     68  C   UNL A   1      33.602  28.428  26.928  1.00  0.00     0.060 A 
ATOM     69  C   UNL A   1      32.320  28.392  27.496  1.00  0.00     0.017 A 
ATOM     70  C   UNL A   1      33.937  27.548  25.889  1.00  0.00     0.017 A 
ATOM     71  C   UNL A   1      31.388  27.456  27.054  1.00  0.00     0.022 A 
ATOM     72  C   UNL A   1      33.003  26.621  25.435  1.00  0.00     0.022 A 
ATOM     73  C   UNL A   1      31.747  26.558  26.044  1.00  0.00     0.082 A 
BRANCH  73  74
ATOM     74  S   UNL A   1      30.635  25.245  25.620  1.00  0.00     0.240 S 
ATOM     75  O   UNL A   1      31.286  24.422  24.623  1.00  0.00    -0.207 OA
ATOM     76  O   UNL A   1      30.125  24.696  26.853  1.00  0.00    -0.207 OA
BRANCH  74  77
ATOM     77  N   UNL A   1      29.346  26.029  24.881  1.00  0.00    -0.211 NA
ATOM     78  H   UNL A   1      29.019  26.719  25.557  1.00  0.00     0.141 HD
BRANCH  77  79
ATOM     79  C   UNL A   1      29.434  26.739  23.602  1.00  0.00     0.103 C 
BRANCH  79  80
ATOM     80  C   UNL A   1      29.102  28.219  23.694  1.00  0.00     0.020 C 
ATOM     81  C   UNL A   1      30.203  29.134  23.135  1.00  0.00     0.022 C 
ATOM     82  C   UNL A   1      27.854  28.569  22.874  1.00  0.00     0.142 C 
ATOM     83  C   UNL A   1      29.619  30.541  23.180  1.00  0.00     0.137 C 
ATOM     84  S   UNL A   1      27.915  30.345  22.683  1.00  0.00     0.150 S 
ATOM     85  O   UNL A   1      27.059  30.945  23.685  1.00  0.00    -0.229 OA
ATOM     86  O   UNL A   1      27.797  30.654  21.273  1.00  0.00    -0.229 OA
ENDBRANCH  79  80
ENDBRANCH  77  79
ENDBRANCH  74  77
ENDBRANCH  73  74
ENDBRANCH  66  68
ENDBRANCH  65  66
ENDBRANCH  64  65
ENDBRANCH   1  64
TORSDOF 18
ENDMDL
MODEL 2
REMARK VINA RESULT:     -11.0      5.208     10.076
REMARK SMILES O=C(OCCOCCOC(=O)c1ccc(S(=O)(=O)NC[C@H]2CCS(=O)(=O)C2)cc1)c1ccc(-c2c3nc(c(-c4c(F)cccc4F)c4ccc([nH]4)c(-c4c(F)cccc4F)c4nc(c(-c5c(F)cccc5F)c5ccc2[nH]5)C=C4)C=C3)cc1
REMARK SMILES IDX 7 1 6 2 5 3 4 4 3 5 2 6 1 7 30 8 31 9 83 10 32 11 82 12
REMARK SMILES IDX 33 13 34 14 35 15 76 16 36 17 81 18 75 19 77 20 37 21 80 22
REMARK SMILES IDX 74 23 73 24 38 26 64 27 47 28 63 29 48 30 51 31 62 32 78 33
REMARK SMILES IDX 49 34 50 35 61 37 79 38 52 39 39 40 40 41 45 42 41 43 42 44
REMARK SMILES IDX 44 45 46 46 43 47 65 48 66 49 71 50 67 51 68 52 70 53 72 54
REMARK SMILES IDX 69 55 53 56 54 57 59 58 55 59 56 60 58 61 60 62 57 63 8 64
REMARK SMILES IDX 9 65 10 66 11 67 12 68 13 69 29 70 14 71 28 72 15 73 16 74
REMARK SMILES IDX 17 75 18 76 19 77 20 79 21 80 22 81 27 82 23 83 24 84 25 85
REMARK SMILES IDX 26 86
REMARK H PARENT 77 25 51 36 19 78
REMARK Flexibility Score: inf
ROOT
ATOM      1  C   UNL A   1      39.768  20.436  25.788  1.00  0.00     0.202 C 
ENDROOT
BRANCH   1   2
ATOM      2  O   UNL A   1      40.831  21.392  25.907  1.00  0.00    -0.374 OA
BRANCH   2   3
ATOM      3  C   UNL A   1      42.122  20.860  26.216  1.00  0.00     0.202 C 
BRANCH   3   4
ATOM      4  C   UNL A   1      43.287  21.540  25.490  1.00  0.00     0.261 C 
BRANCH   4   5
ATOM      5  O   UNL A   1      42.863  22.792  24.925  1.00  0.00    -0.460 OA
BRANCH   5   6
ATOM      6  C   UNL A   1      43.347  24.031  25.169  1.00  0.00     0.338 C 
ATOM      7  O   UNL A   1      44.218  24.481  24.428  1.00  0.00    -0.246 OA
BRANCH   6   8
ATOM      8  C   UNL A   1      42.888  24.888  26.305  1.00  0.00     0.060 A 
ATOM      9  C   UNL A   1      42.053  24.459  27.336  1.00  0.00     0.016 A 
ATOM     10  C   UNL A   1      43.422  26.185  26.385  1.00  0.00     0.016 A 
ATOM     11  C   UNL A   1      41.697  25.297  28.380  1.00  0.00     0.010 A 
ATOM     12  C   UNL A   1      43.109  27.023  27.459  1.00  0.00     0.010 A 
ATOM     13  C   UNL A   1      42.232  26.577  28.452  1.00  0.00    -0.014 A 
BRANCH  13  14
ATOM     14  C   UNL A   1      41.776  27.442  29.551  1.00  0.00     0.031 A 
ATOM     15  C   UNL A   1      42.580  27.477  30.810  1.00  0.00     0.074 A 
ATOM     16  C   UNL A   1      40.745  28.279  29.340  1.00  0.00     0.049 A 
ATOM     17  N   UNL A   1      42.363  28.145  31.909  1.00  0.00    -0.248 NA
ATOM     18  C   UNL A   1      43.804  26.658  30.828  1.00  0.00     0.031 C 
ATOM     19  C   UNL A   1      39.994  28.391  28.086  1.00  0.00     0.029 A 
ATOM     20  N   UNL A   1      40.173  29.217  30.156  1.00  0.00    -0.354 N 
ATOM     21  C   UNL A   1      43.406  27.806  32.760  1.00  0.00     0.074 A 
ATOM     22  C   UNL A   1      44.255  26.875  32.052  1.00  0.00     0.031 C 
ATOM     23  C   UNL A   1      39.074  29.362  28.211  1.00  0.00     0.029 A 
ATOM     24  C   UNL A   1      39.125  29.885  29.570  1.00  0.00     0.049 A 
ATOM     25  H   UNL A   1      40.483  29.395  31.073  1.00  0.00     0.167 HD
ATOM     26  C   UNL A   1      43.617  28.233  34.026  1.00  0.00     0.037 A 
ATOM     27  C   UNL A   1      38.284  30.792  30.098  1.00  0.00     0.037 A 
ATOM     28  C   UNL A   1      42.746  29.160  34.695  1.00  0.00     0.049 A 
ATOM     29  C   UNL A   1      38.488  31.183  31.535  1.00  0.00     0.074 A 
ATOM     30  C   UNL A   1      42.810  29.625  35.995  1.00  0.00     0.029 A 
ATOM     31  N   UNL A   1      41.645  29.766  34.102  1.00  0.00    -0.354 N 
ATOM     32  N   UNL A   1      39.433  30.805  32.365  1.00  0.00    -0.248 NA
ATOM     33  C   UNL A   1      37.509  32.108  32.116  1.00  0.00     0.031 C 
ATOM     34  C   UNL A   1      41.719  30.478  36.201  1.00  0.00     0.029 A 
ATOM     35  C   UNL A   1      41.007  30.585  35.014  1.00  0.00     0.049 A 
ATOM     36  H   UNL A   1      41.361  29.631  33.169  1.00  0.00     0.167 HD
ATOM     37  C   UNL A   1      39.169  31.452  33.564  1.00  0.00     0.074 A 
ATOM     38  C   UNL A   1      37.988  32.265  33.342  1.00  0.00     0.031 C 
ATOM     39  C   UNL A   1      39.834  31.380  34.744  1.00  0.00     0.037 A 
BRANCH  26  40
ATOM     40  C   UNL A   1      44.774  27.629  34.764  1.00  0.00     0.057 A 
ATOM     41  C   UNL A   1      46.048  28.214  34.768  1.00  0.00     0.134 A 
ATOM     42  C   UNL A   1      44.618  26.415  35.443  1.00  0.00     0.134 A 
ATOM     43  F   UNL A   1      46.273  29.360  34.109  1.00  0.00    -0.206 F 
ATOM     44  C   UNL A   1      47.130  27.597  35.400  1.00  0.00     0.040 A 
ATOM     45  C   UNL A   1      45.687  25.801  36.097  1.00  0.00     0.040 A 
ATOM     46  F   UNL A   1      43.427  25.798  35.469  1.00  0.00    -0.206 F 
ATOM     47  C   UNL A   1      46.949  26.388  36.070  1.00  0.00     0.006 A 
ENDBRANCH  26  40
BRANCH  27  48
ATOM     48  C   UNL A   1      37.158  31.332  29.292  1.00  0.00     0.057 A 
ATOM     49  C   UNL A   1      37.196  32.621  28.748  1.00  0.00     0.134 A 
ATOM     50  C   UNL A   1      36.009  30.569  29.047  1.00  0.00     0.134 A 
ATOM     51  F   UNL A   1      38.259  33.412  28.960  1.00  0.00    -0.206 F 
ATOM     52  C   UNL A   1      36.130  33.134  28.004  1.00  0.00     0.040 A 
ATOM     53  C   UNL A   1      34.949  31.058  28.282  1.00  0.00     0.040 A 
ATOM     54  F   UNL A   1      35.905  29.324  29.536  1.00  0.00    -0.206 F 
ATOM     55  C   UNL A   1      35.005  32.349  27.765  1.00  0.00     0.006 A 
ENDBRANCH  27  48
BRANCH  39  56
ATOM     56  C   UNL A   1      39.307  32.224  35.865  1.00  0.00     0.057 A 
ATOM     57  C   UNL A   1      39.748  33.537  36.066  1.00  0.00     0.134 A 
ATOM     58  C   UNL A   1      38.313  31.730  36.716  1.00  0.00     0.134 A 
ATOM     59  F   UNL A   1      40.710  34.059  35.290  1.00  0.00    -0.206 F 
ATOM     60  C   UNL A   1      39.228  34.326  37.091  1.00  0.00     0.040 A 
ATOM     61  C   UNL A   1      37.766  32.518  37.727  1.00  0.00     0.040 A 
ATOM     62  F   UNL A   1      37.844  30.482  36.565  1.00  0.00    -0.206 F 
ATOM     63  C   UNL A   1      38.227  33.819  37.920  1.00  0.00     0.006 A 
ENDBRANCH  39  56
ENDBRANCH  13  14
ENDBRANCH   6   8
ENDBRANCH   5   6
ENDBRANCH   4   5
ENDBRANCH   3   4
ENDBRANCH   2   3
ENDBRANCH   1   2
BRANCH   1  64
ATOM     64  C   UNL A   1      38.422  21.160  25.893  1.00  0.00     0.261 C 
BRANCH  64  65
ATOM     65  O   UNL A   1      38.580  22.464  25.317  1.00  0.00    -0.460 OA
BRANCH  65  66
ATOM     66  C   UNL A   1      37.798  23.417  25.882  1.00  0.00     0.338 C 
ATOM     67  O   UNL A   1      38.076  24.131  26.830  1.00  0.00    -0.246 OA
BRANCH  66  68
ATOM     68  C   UNL A   1      36.617  23.614  25.010  1.00  0.00     0.060 A 
ATOM     69  C   UNL A   1      35.581  24.436  25.475  1.00  0.00     0.017 A 
ATOM     70  C   UNL A   1      36.560  23.072  23.718  1.00  0.00     0.017 A 
ATOM     71  C   UNL A   1      34.474  24.687  24.666  1.00  0.00     0.022 A 
ATOM     72  C   UNL A   1      35.463  23.333  22.901  1.00  0.00     0.022 A 
ATOM     73  C   UNL A   1      34.412  24.111  23.394  1.00  0.00     0.082 A 
BRANCH  73  74
ATOM     74  S   UNL A   1      32.923  24.268  22.446  1.00  0.00     0.240 S 
ATOM     75  O   UNL A   1      31.854  24.611  23.359  1.00  0.00    -0.207 OA
ATOM     76  O   UNL A   1      33.231  25.072  21.289  1.00  0.00    -0.207 OA
BRANCH  74  77
ATOM     77  N   UNL A   1      32.638  22.712  21.879  1.00  0.00    -0.211 NA
ATOM     78  H   UNL A   1      33.559  22.305  21.717  1.00  0.00     0.141 HD
BRANCH  77  79
ATOM     79  C   UNL A   1      31.878  21.693  22.609  1.00  0.00     0.103 C 
BRANCH  79  80
ATOM     80  C   UNL A   1      32.719  20.862  23.563  1.00  0.00     0.020 C 
ATOM     81  C   UNL A   1      32.421  21.135  25.046  1.00  0.00     0.022 C 
ATOM     82  C   UNL A   1      32.456  19.362  23.386  1.00  0.00     0.142 C 
ATOM     83  C   UNL A   1      33.244  20.112  25.818  1.00  0.00     0.137 C 
ATOM     84  S   UNL A   1      33.105  18.605  24.870  1.00  0.00     0.150 S 
ATOM     85  O   UNL A   1      34.433  18.101  24.586  1.00  0.00    -0.229 OA
ATOM     86  O   UNL A   1      32.067  17.778  25.449  1.00  0.00    -0.229 OA
ENDBRANCH  79  80
ENDBRANCH  77  79
ENDBRANCH  74  77
ENDBRANCH  73  74
ENDBRANCH  66  68
ENDBRANCH  65  66
ENDBRANCH  64  65
ENDBRANCH   1  64
TORSDOF 18
ENDMDL
MODEL 3
REMARK VINA RESULT:     -10.8      4.731      9.601
REMARK SMILES O=C(OCCOCCOC(=O)c1ccc(S(=O)(=O)NC[C@H]2CCS(=O)(=O)C2)cc1)c1ccc(-c2c3nc(c(-c4c(F)cccc4F)c4ccc([nH]4)c(-c4c(F)cccc4F)c4nc(c(-c5c(F)cccc5F)c5ccc2[nH]5)C=C4)C=C3)cc1
REMARK SMILES IDX 7 1 6 2 5 3 4 4 3 5 2 6 1 7 30 8 31 9 83 10 32 11 82 12
REMARK SMILES IDX 33 13 34 14 35 15 76 16 36 17 81 18 75 19 77 20 37 21 80 22
REMARK SMILES IDX 74 23 73 24 38 26 64 27 47 28 63 29 48 30 51 31 62 32 78 33
REMARK SMILES IDX 49 34 50 35 61 37 79 38 52 39 39 40 40 41 45 42 41 43 42 44
REMARK SMILES IDX 44 45 46 46 43 47 65 48 66 49 71 50 67 51 68 52 70 53 72 54
REMARK SMILES IDX 69 55 53 56 54 57 59 58 55 59 56 60 58 61 60 62 57 63 8 64
REMARK SMILES IDX 9 65 10 66 11 67 12 68 13 69 29 70 14 71 28 72 15 73 16 74
REMARK SMILES IDX 17 75 18 76 19 77 20 79 21 80 22 81 27 82 23 83 24 84 25 85
REMARK SMILES IDX 26 86
REMARK H PARENT 77 25 51 36 19 78
REMARK Flexibility Score: inf
ROOT
ATOM      1  C   UNL A   1      42.091  20.988  27.294  1.00  0.00     0.202 C 
ENDROOT
BRANCH   1   2
ATOM      2  O   UNL A   1      41.823  19.582  27.207  1.00  0.00    -0.374 OA
BRANCH   2   3
ATOM      3  C   UNL A   1      42.315  18.920  26.040  1.00  0.00     0.202 C 
BRANCH   3   4
ATOM      4  C   UNL A   1      43.776  18.467  26.126  1.00  0.00     0.261 C 
BRANCH   4   5
ATOM      5  O   UNL A   1      44.393  18.520  24.828  1.00  0.00    -0.460 OA
BRANCH   5   6
ATOM      6  C   UNL A   1      44.639  19.605  24.059  1.00  0.00     0.338 C 
ATOM      7  O   UNL A   1      44.714  19.459  22.841  1.00  0.00    -0.246 OA
BRANCH   6   8
ATOM      8  C   UNL A   1      44.838  20.980  24.610  1.00  0.00     0.060 A 
ATOM      9  C   UNL A   1      45.482  21.268  25.813  1.00  0.00     0.016 A 
ATOM     10  C   UNL A   1      44.436  22.057  23.802  1.00  0.00     0.016 A 
ATOM     11  C   UNL A   1      45.666  22.571  26.245  1.00  0.00     0.010 A 
ATOM     12  C   UNL A   1      44.659  23.377  24.206  1.00  0.00     0.010 A 
ATOM     13  C   UNL A   1      45.267  23.630  25.439  1.00  0.00    -0.014 A 
BRANCH  13  14
ATOM     14  C   UNL A   1      45.435  24.990  25.974  1.00  0.00     0.031 A 
ATOM     15  C   UNL A   1      46.764  25.655  25.819  1.00  0.00     0.074 A 
ATOM     16  C   UNL A   1      44.361  25.645  26.448  1.00  0.00     0.049 A 
ATOM     17  N   UNL A   1      47.148  26.834  26.223  1.00  0.00    -0.248 NA
ATOM     18  C   UNL A   1      47.797  24.894  25.096  1.00  0.00     0.031 C 
ATOM     19  C   UNL A   1      43.001  25.100  26.509  1.00  0.00     0.029 A 
ATOM     20  N   UNL A   1      44.232  26.918  26.934  1.00  0.00    -0.354 N 
ATOM     21  C   UNL A   1      48.476  26.947  25.830  1.00  0.00     0.074 A 
ATOM     22  C   UNL A   1      48.830  25.718  25.156  1.00  0.00     0.031 C 
ATOM     23  C   UNL A   1      42.172  26.043  26.984  1.00  0.00     0.029 A 
ATOM     24  C   UNL A   1      42.951  27.226  27.326  1.00  0.00     0.049 A 
ATOM     25  H   UNL A   1      44.984  27.549  26.997  1.00  0.00     0.167 HD
ATOM     26  C   UNL A   1      49.316  27.986  26.034  1.00  0.00     0.037 A 
ATOM     27  C   UNL A   1      42.482  28.333  27.927  1.00  0.00     0.037 A 
ATOM     28  C   UNL A   1      48.924  29.191  26.712  1.00  0.00     0.049 A 
ATOM     29  C   UNL A   1      43.458  29.438  28.220  1.00  0.00     0.074 A 
ATOM     30  C   UNL A   1      49.693  30.291  27.038  1.00  0.00     0.029 A 
ATOM     31  N   UNL A   1      47.636  29.447  27.166  1.00  0.00    -0.354 N 
ATOM     32  N   UNL A   1      44.733  29.514  27.915  1.00  0.00    -0.248 NA
ATOM     33  C   UNL A   1      42.944  30.600  28.953  1.00  0.00     0.031 C 
ATOM     34  C   UNL A   1      48.879  31.194  27.732  1.00  0.00     0.029 A 
ATOM     35  C   UNL A   1      47.591  30.680  27.791  1.00  0.00     0.049 A 
ATOM     36  H   UNL A   1      46.869  28.840  27.060  1.00  0.00     0.167 HD
ATOM     37  C   UNL A   1      45.173  30.733  28.408  1.00  0.00     0.074 A 
ATOM     38  C   UNL A   1      44.019  31.374  29.012  1.00  0.00     0.031 C 
ATOM     39  C   UNL A   1      46.415  31.277  28.374  1.00  0.00     0.037 A 
BRANCH  26  40
ATOM     40  C   UNL A   1      50.738  27.807  25.592  1.00  0.00     0.057 A 
ATOM     41  C   UNL A   1      51.134  27.963  24.257  1.00  0.00     0.134 A 
ATOM     42  C   UNL A   1      51.718  27.424  26.516  1.00  0.00     0.134 A 
ATOM     43  F   UNL A   1      50.238  28.296  23.316  1.00  0.00    -0.206 F 
ATOM     44  C   UNL A   1      52.449  27.719  23.854  1.00  0.00     0.040 A 
ATOM     45  C   UNL A   1      53.040  27.200  26.128  1.00  0.00     0.040 A 
ATOM     46  F   UNL A   1      51.403  27.246  27.808  1.00  0.00    -0.206 F 
ATOM     47  C   UNL A   1      53.407  27.339  24.792  1.00  0.00     0.006 A 
ENDBRANCH  26  40
BRANCH  27  48
ATOM     48  C   UNL A   1      41.056  28.420  28.336  1.00  0.00     0.057 A 
ATOM     49  C   UNL A   1      40.634  28.040  29.615  1.00  0.00     0.134 A 
ATOM     50  C   UNL A   1      40.073  28.884  27.450  1.00  0.00     0.134 A 
ATOM     51  F   UNL A   1      41.519  27.569  30.506  1.00  0.00    -0.206 F 
ATOM     52  C   UNL A   1      39.290  28.107  29.993  1.00  0.00     0.040 A 
ATOM     53  C   UNL A   1      38.732  28.982  27.824  1.00  0.00     0.040 A 
ATOM     54  F   UNL A   1      40.407  29.266  26.208  1.00  0.00    -0.206 F 
ATOM     55  C   UNL A   1      38.336  28.585  29.098  1.00  0.00     0.006 A 
ENDBRANCH  27  48
BRANCH  39  56
ATOM     56  C   UNL A   1      46.570  32.637  28.983  1.00  0.00     0.057 A 
ATOM     57  C   UNL A   1      46.356  33.804  28.241  1.00  0.00     0.134 A 
ATOM     58  C   UNL A   1      46.888  32.773  30.339  1.00  0.00     0.134 A 
ATOM     59  F   UNL A   1      46.063  33.736  26.934  1.00  0.00    -0.206 F 
ATOM     60  C   UNL A   1      46.470  35.065  28.826  1.00  0.00     0.040 A 
ATOM     61  C   UNL A   1      46.978  34.027  30.941  1.00  0.00     0.040 A 
ATOM     62  F   UNL A   1      47.096  31.690  31.103  1.00  0.00    -0.206 F 
ATOM     63  C   UNL A   1      46.774  35.178  30.182  1.00  0.00     0.006 A 
ENDBRANCH  39  56
ENDBRANCH  13  14
ENDBRANCH   6   8
ENDBRANCH   5   6
ENDBRANCH   4   5
ENDBRANCH   3   4
ENDBRANCH   2   3
ENDBRANCH   1   2
BRANCH   1  64
ATOM     64  C   UNL A   1      41.471  21.699  26.086  1.00  0.00     0.261 C 
BRANCH  64  65
ATOM     65  O   UNL A   1      40.051  21.511  26.150  1.00  0.00    -0.460 OA
BRANCH  65  66
ATOM     66  C   UNL A   1      39.363  22.615  26.536  1.00  0.00     0.338 C 
ATOM     67  O   UNL A   1      39.801  23.586  27.128  1.00  0.00    -0.246 OA
BRANCH  66  68
ATOM     68  C   UNL A   1      38.018  22.553  25.918  1.00  0.00     0.060 A 
ATOM     69  C   UNL A   1      37.207  23.694  25.984  1.00  0.00     0.017 A 
ATOM     70  C   UNL A   1      37.589  21.424  25.206  1.00  0.00     0.017 A 
ATOM     71  C   UNL A   1      35.955  23.695  25.373  1.00  0.00     0.022 A 
ATOM     72  C   UNL A   1      36.345  21.427  24.580  1.00  0.00     0.022 A 
ATOM     73  C   UNL A   1      35.522  22.551  24.697  1.00  0.00     0.082 A 
BRANCH  73  74
ATOM     74  S   UNL A   1      33.859  22.481  24.091  1.00  0.00     0.240 S 
ATOM     75  O   UNL A   1      33.016  23.184  25.035  1.00  0.00    -0.207 OA
ATOM     76  O   UNL A   1      33.895  22.828  22.691  1.00  0.00    -0.207 OA
BRANCH  74  77
ATOM     77  N   UNL A   1      33.468  20.849  24.165  1.00  0.00    -0.211 NA
ATOM     78  H   UNL A   1      34.324  20.350  23.924  1.00  0.00     0.141 HD
BRANCH  77  79
ATOM     79  C   UNL A   1      32.942  20.179  25.358  1.00  0.00     0.103 C 
BRANCH  79  80
ATOM     80  C   UNL A   1      33.288  18.702  25.439  1.00  0.00     0.020 C 
ATOM     81  C   UNL A   1      32.122  17.773  25.067  1.00  0.00     0.022 C 
ATOM     82  C   UNL A   1      34.407  18.331  24.457  1.00  0.00     0.142 C 
ATOM     83  C   UNL A   1      32.710  16.368  25.064  1.00  0.00     0.137 C 
ATOM     84  S   UNL A   1      34.325  16.550  24.322  1.00  0.00     0.150 S 
ATOM     85  O   UNL A   1      35.318  15.976  25.205  1.00  0.00    -0.229 OA
ATOM     86  O   UNL A   1      34.240  16.204  22.918  1.00  0.00    -0.229 OA
ENDBRANCH  79  80
ENDBRANCH  77  79
ENDBRANCH  74  77
ENDBRANCH  73  74
ENDBRANCH  66  68
ENDBRANCH  65  66
ENDBRANCH  64  65
ENDBRANCH   1  64
TORSDOF 18
ENDMDL
