MODEL 1
REMARK VINA RESULT:     -11.3      0.000      0.000
REMARK SMILES C[C@H]1CC[C@@](Nc2ccc(C(N)=O)nn2)(C(=O)OCCOCCOC(=O)c2ccc(-c3c4nc(c(-c5c(F)cccc5F)c5ccc([nH]5)c(-c5c(F)cccc5F)c5nc(c(-c6c(F)cccc6F)c6ccc3[nH]6)C=C5)C=C4)cc2)CC1
REMARK SMILES IDX 20 1 19 2 18 3 16 4 17 5 5 6 1 7 2 8 82 9 3 10 81 11 4 12
REMARK SMILES IDX 6 13 7 15 8 16 15 17 9 18 14 19 10 20 11 21 12 22 13 23
REMARK SMILES IDX 21 26 22 27 23 28 24 29 25 30 26 31 27 32 28 33 80 34 29 35
REMARK SMILES IDX 79 36 30 37 31 38 32 39 73 40 33 41 78 42 72 43 74 44 34 45
REMARK SMILES IDX 77 46 71 47 70 48 35 50 61 51 44 52 60 53 45 54 48 55 59 56
REMARK SMILES IDX 75 57 46 58 47 59 58 61 76 62 49 63 36 64 37 65 42 66 38 67
REMARK SMILES IDX 39 68 41 69 43 70 40 71 62 72 63 73 68 74 64 75 65 76 67 77
REMARK SMILES IDX 69 78 66 79 50 80 51 81 56 82 52 83 53 84 55 85 57 86 54 87
REMARK H PARENT 6 14 12 24 12 25 74 49 48 60
REMARK Flexibility Score: inf
ROOT
ATOM      1  C   UNL A   1      33.385  30.447  26.850  1.00  0.00     0.202 C 
ENDROOT
BRANCH   1   2
ATOM      2  C   UNL A   1      33.862  29.108  27.416  1.00  0.00     0.261 C 
BRANCH   2   3
ATOM      3  O   UNL A   1      33.900  28.037  26.454  1.00  0.00    -0.461 OA
BRANCH   3   4
ATOM      4  C   UNL A   1      32.741  27.321  26.349  1.00  0.00     0.331 C 
ATOM      5  O   UNL A   1      31.890  27.276  27.235  1.00  0.00    -0.249 OA
BRANCH   4   6
ATOM      6  C   UNL A   1      32.668  26.461  25.048  1.00  0.00     0.137 C 
ATOM      7  C   UNL A   1      32.585  22.621  27.213  1.00  0.00     0.007 C 
ATOM      8  C   UNL A   1      32.637  23.600  26.039  1.00  0.00    -0.014 C 
ATOM      9  C   UNL A   1      33.880  24.488  26.134  1.00  0.00     0.006 C 
ATOM     10  C   UNL A   1      31.349  24.429  25.981  1.00  0.00     0.006 C 
ATOM     11  C   UNL A   1      33.909  25.540  25.020  1.00  0.00     0.041 C 
ATOM     12  C   UNL A   1      31.400  25.572  24.968  1.00  0.00     0.041 C 
BRANCH   6  13
ATOM     13  N   UNL A   1      32.700  27.300  23.806  1.00  0.00    -0.353 N 
ATOM     14  H   UNL A   1      33.496  27.279  23.227  1.00  0.00     0.163 HD
BRANCH  13  15
ATOM     15  C   UNL A   1      31.625  28.104  23.459  1.00  0.00     0.149 A 
ATOM     16  C   UNL A   1      31.216  29.175  24.243  1.00  0.00     0.051 A 
ATOM     17  N   UNL A   1      30.938  27.778  22.344  1.00  0.00    -0.132 NA
ATOM     18  C   UNL A   1      30.043  29.853  23.925  1.00  0.00     0.040 A 
ATOM     19  N   UNL A   1      29.779  28.439  22.014  1.00  0.00    -0.143 NA
ATOM     20  C   UNL A   1      29.342  29.443  22.810  1.00  0.00     0.150 A 
BRANCH  20  21
ATOM     21  C   UNL A   1      28.038  30.065  22.453  1.00  0.00     0.269 C 
ATOM     22  N   UNL A   1      27.782  30.215  21.115  1.00  0.00    -0.364 N 
ATOM     23  O   UNL A   1      27.227  30.417  23.302  1.00  0.00    -0.268 OA
ATOM     24  H   UNL A   1      28.450  29.925  20.451  1.00  0.00     0.160 HD
ATOM     25  H   UNL A   1      26.931  30.611  20.818  1.00  0.00     0.160 HD
ENDBRANCH  20  21
ENDBRANCH  13  15
ENDBRANCH   6  13
ENDBRANCH   4   6
ENDBRANCH   3   4
ENDBRANCH   2   3
ENDBRANCH   1   2
BRANCH   1  26
ATOM     26  O   UNL A   1      32.032  30.819  27.103  1.00  0.00    -0.374 OA
BRANCH  26  27
ATOM     27  C   UNL A   1      31.647  32.160  26.816  1.00  0.00     0.202 C 
BRANCH  27  28
ATOM     28  C   UNL A   1      32.693  33.243  27.098  1.00  0.00     0.261 C 
BRANCH  28  29
ATOM     29  O   UNL A   1      32.284  34.120  28.162  1.00  0.00    -0.460 OA
BRANCH  29  30
ATOM     30  C   UNL A   1      33.304  34.805  28.736  1.00  0.00     0.338 C 
ATOM     31  O   UNL A   1      33.290  35.948  29.154  1.00  0.00    -0.246 OA
BRANCH  30  32
ATOM     32  C   UNL A   1      34.452  33.909  28.958  1.00  0.00     0.060 A 
ATOM     33  C   UNL A   1      34.222  32.729  29.677  1.00  0.00     0.016 A 
ATOM     34  C   UNL A   1      35.744  34.280  28.586  1.00  0.00     0.016 A 
ATOM     35  C   UNL A   1      35.297  31.936  30.069  1.00  0.00     0.010 A 
ATOM     36  C   UNL A   1      36.824  33.486  28.992  1.00  0.00     0.010 A 
ATOM     37  C   UNL A   1      36.606  32.331  29.764  1.00  0.00    -0.014 A 
BRANCH  37  38
ATOM     38  C   UNL A   1      37.743  31.599  30.372  1.00  0.00     0.031 A 
ATOM     39  C   UNL A   1      38.113  31.875  31.804  1.00  0.00     0.074 A 
ATOM     40  C   UNL A   1      38.408  30.667  29.670  1.00  0.00     0.049 A 
ATOM     41  N   UNL A   1      39.057  31.338  32.533  1.00  0.00    -0.248 NA
ATOM     42  C   UNL A   1      37.311  32.889  32.507  1.00  0.00     0.031 C 
ATOM     43  C   UNL A   1      38.120  30.288  28.288  1.00  0.00     0.029 A 
ATOM     44  N   UNL A   1      39.466  29.870  30.026  1.00  0.00    -0.354 N 
ATOM     45  C   UNL A   1      38.960  31.942  33.781  1.00  0.00     0.074 A 
ATOM     46  C   UNL A   1      37.885  32.907  33.702  1.00  0.00     0.031 C 
ATOM     47  C   UNL A   1      38.989  29.335  27.909  1.00  0.00     0.029 A 
ATOM     48  C   UNL A   1      39.906  29.056  29.013  1.00  0.00     0.049 A 
ATOM     49  H   UNL A   1      39.872  29.881  30.924  1.00  0.00     0.167 HD
ATOM     50  C   UNL A   1      39.696  31.707  34.893  1.00  0.00     0.037 A 
ATOM     51  C   UNL A   1      40.942  28.196  28.977  1.00  0.00     0.037 A 
ATOM     52  C   UNL A   1      40.768  30.750  34.973  1.00  0.00     0.049 A 
ATOM     53  C   UNL A   1      41.789  28.005  30.205  1.00  0.00     0.074 A 
ATOM     54  C   UNL A   1      41.552  30.419  36.064  1.00  0.00     0.029 A 
ATOM     55  N   UNL A   1      41.214  29.979  33.911  1.00  0.00    -0.354 N 
ATOM     56  N   UNL A   1      41.666  28.555  31.389  1.00  0.00    -0.248 NA
ATOM     57  C   UNL A   1      42.922  27.074  30.092  1.00  0.00     0.031 C 
ATOM     58  C   UNL A   1      42.502  29.480  35.650  1.00  0.00     0.029 A 
ATOM     59  C   UNL A   1      42.284  29.196  34.312  1.00  0.00     0.049 A 
ATOM     60  H   UNL A   1      40.827  29.986  33.005  1.00  0.00     0.167 HD
ATOM     61  C   UNL A   1      42.689  28.026  32.164  1.00  0.00     0.074 A 
ATOM     62  C   UNL A   1      43.417  27.100  31.322  1.00  0.00     0.031 C 
ATOM     63  C   UNL A   1      43.001  28.285  33.458  1.00  0.00     0.037 A 
BRANCH  50  64
ATOM     64  C   UNL A   1      39.376  32.515  36.115  1.00  0.00     0.057 A 
ATOM     65  C   UNL A   1      40.007  33.737  36.377  1.00  0.00     0.134 A 
ATOM     66  C   UNL A   1      38.399  32.083  37.021  1.00  0.00     0.134 A 
ATOM     67  F   UNL A   1      40.961  34.199  35.554  1.00  0.00    -0.206 F 
ATOM     68  C   UNL A   1      39.689  34.495  37.505  1.00  0.00     0.040 A 
ATOM     69  C   UNL A   1      38.058  32.841  38.142  1.00  0.00     0.040 A 
ATOM     70  F   UNL A   1      37.755  30.922  36.826  1.00  0.00    -0.206 F 
ATOM     71  C   UNL A   1      38.707  34.049  38.389  1.00  0.00     0.006 A 
ENDBRANCH  50  64
BRANCH  51  72
ATOM     72  C   UNL A   1      41.248  27.461  27.725  1.00  0.00     0.057 A 
ATOM     73  C   UNL A   1      42.051  28.026  26.728  1.00  0.00     0.134 A 
ATOM     74  C   UNL A   1      40.733  26.180  27.493  1.00  0.00     0.134 A 
ATOM     75  F   UNL A   1      42.552  29.259  26.883  1.00  0.00    -0.206 F 
ATOM     76  C   UNL A   1      42.320  27.347  25.538  1.00  0.00     0.040 A 
ATOM     77  C   UNL A   1      41.012  25.482  26.317  1.00  0.00     0.040 A 
ATOM     78  F   UNL A   1      39.957  25.585  28.411  1.00  0.00    -0.206 F 
ATOM     79  C   UNL A   1      41.804  26.069  25.333  1.00  0.00     0.006 A 
ENDBRANCH  51  72
BRANCH  63  80
ATOM     80  C   UNL A   1      44.171  27.551  34.041  1.00  0.00     0.057 A 
ATOM     81  C   UNL A   1      44.028  26.284  34.620  1.00  0.00     0.134 A 
ATOM     82  C   UNL A   1      45.459  28.098  33.986  1.00  0.00     0.134 A 
ATOM     83  F   UNL A   1      42.818  25.712  34.714  1.00  0.00    -0.206 F 
ATOM     84  C   UNL A   1      45.124  25.595  35.143  1.00  0.00     0.040 A 
ATOM     85  C   UNL A   1      46.565  27.409  34.486  1.00  0.00     0.040 A 
ATOM     86  F   UNL A   1      45.664  29.304  33.436  1.00  0.00    -0.206 F 
ATOM     87  C   UNL A   1      46.398  26.155  35.071  1.00  0.00     0.006 A 
ENDBRANCH  63  80
ENDBRANCH  37  38
ENDBRANCH  30  32
ENDBRANCH  29  30
ENDBRANCH  28  29
ENDBRANCH  27  28
ENDBRANCH  26  27
ENDBRANCH   1  26
TORSDOF 17
ENDMDL
MODEL 2
REMARK VINA RESULT:     -11.2      0.641      6.161
REMARK SMILES C[C@H]1CC[C@@](Nc2ccc(C(N)=O)nn2)(C(=O)OCCOCCOC(=O)c2ccc(-c3c4nc(c(-c5c(F)cccc5F)c5ccc([nH]5)c(-c5c(F)cccc5F)c5nc(c(-c6c(F)cccc6F)c6ccc3[nH]6)C=C5)C=C4)cc2)CC1
REMARK SMILES IDX 20 1 19 2 18 3 16 4 17 5 5 6 1 7 2 8 82 9 3 10 81 11 4 12
REMARK SMILES IDX 6 13 7 15 8 16 15 17 9 18 14 19 10 20 11 21 12 22 13 23
REMARK SMILES IDX 21 26 22 27 23 28 24 29 25 30 26 31 27 32 28 33 80 34 29 35
REMARK SMILES IDX 79 36 30 37 31 38 32 39 73 40 33 41 78 42 72 43 74 44 34 45
REMARK SMILES IDX 77 46 71 47 70 48 35 50 61 51 44 52 60 53 45 54 48 55 59 56
REMARK SMILES IDX 75 57 46 58 47 59 58 61 76 62 49 63 36 64 37 65 42 66 38 67
REMARK SMILES IDX 39 68 41 69 43 70 40 71 62 72 63 73 68 74 64 75 65 76 67 77
REMARK SMILES IDX 69 78 66 79 50 80 51 81 56 82 52 83 53 84 55 85 57 86 54 87
REMARK H PARENT 6 14 12 24 12 25 74 49 48 60
REMARK Flexibility Score: inf
ROOT
ATOM      1  C   UNL A   1      33.105  30.158  26.807  1.00  0.00     0.202 C 
ENDROOT
BRANCH   1   2
ATOM      2  C   UNL A   1      33.347  28.718  27.265  1.00  0.00     0.261 C 
BRANCH   2   3
ATOM      3  O   UNL A   1      33.247  27.736  26.215  1.00  0.00    -0.461 OA
BRANCH   3   4
ATOM      4  C   UNL A   1      32.116  26.971  26.254  1.00  0.00     0.331 C 
ATOM      5  O   UNL A   1      31.281  27.042  27.152  1.00  0.00    -0.249 OA
BRANCH   4   6
ATOM      6  C   UNL A   1      32.059  25.906  25.114  1.00  0.00     0.137 C 
ATOM      7  C   UNL A   1      33.180  22.558  27.754  1.00  0.00     0.007 C 
ATOM      8  C   UNL A   1      32.835  23.311  26.469  1.00  0.00    -0.014 C 
ATOM      9  C   UNL A   1      33.839  24.440  26.222  1.00  0.00     0.006 C 
ATOM     10  C   UNL A   1      31.396  23.835  26.530  1.00  0.00     0.006 C 
ATOM     11  C   UNL A   1      33.463  25.270  24.989  1.00  0.00     0.041 C 
ATOM     12  C   UNL A   1      31.034  24.773  25.380  1.00  0.00     0.041 C 
BRANCH   6  13
ATOM     13  N   UNL A   1      31.717  26.509  23.784  1.00  0.00    -0.353 N 
ATOM     14  H   UNL A   1      32.231  26.246  22.986  1.00  0.00     0.163 HD
BRANCH  13  15
ATOM     15  C   UNL A   1      30.690  27.430  23.661  1.00  0.00     0.149 A 
ATOM     16  C   UNL A   1      29.361  27.047  23.526  1.00  0.00     0.051 A 
ATOM     17  N   UNL A   1      31.026  28.737  23.621  1.00  0.00    -0.132 NA
ATOM     18  C   UNL A   1      28.391  28.007  23.257  1.00  0.00     0.040 A 
ATOM     19  N   UNL A   1      30.080  29.699  23.358  1.00  0.00    -0.143 NA
ATOM     20  C   UNL A   1      28.794  29.324  23.163  1.00  0.00     0.150 A 
BRANCH  20  21
ATOM     21  C   UNL A   1      27.828  30.396  22.798  1.00  0.00     0.269 C 
ATOM     22  N   UNL A   1      27.629  30.603  21.458  1.00  0.00    -0.364 N 
ATOM     23  O   UNL A   1      27.231  31.053  23.642  1.00  0.00    -0.268 OA
ATOM     24  H   UNL A   1      28.120  30.063  20.798  1.00  0.00     0.160 HD
ATOM     25  H   UNL A   1      26.993  31.292  21.157  1.00  0.00     0.160 HD
ENDBRANCH  20  21
ENDBRANCH  13  15
ENDBRANCH   6  13
ENDBRANCH   4   6
ENDBRANCH   3   4
ENDBRANCH   2   3
ENDBRANCH   1   2
BRANCH   1  26
ATOM     26  O   UNL A   1      31.753  30.562  26.609  1.00  0.00    -0.374 OA
BRANCH  26  27
ATOM     27  C   UNL A   1      31.459  31.955  26.677  1.00  0.00     0.202 C 
BRANCH  27  28
ATOM     28  C   UNL A   1      32.617  32.875  27.079  1.00  0.00     0.261 C 
BRANCH  28  29
ATOM     29  O   UNL A   1      32.180  33.941  27.940  1.00  0.00    -0.460 OA
BRANCH  29  30
ATOM     30  C   UNL A   1      33.189  34.702  28.430  1.00  0.00     0.338 C 
ATOM     31  O   UNL A   1      33.163  35.890  28.695  1.00  0.00    -0.246 OA
BRANCH  30  32
ATOM     32  C   UNL A   1      34.340  33.853  28.779  1.00  0.00     0.060 A 
ATOM     33  C   UNL A   1      34.093  32.717  29.560  1.00  0.00     0.016 A 
ATOM     34  C   UNL A   1      35.645  34.231  28.460  1.00  0.00     0.016 A 
ATOM     35  C   UNL A   1      35.158  31.977  30.066  1.00  0.00     0.010 A 
ATOM     36  C   UNL A   1      36.714  33.493  28.981  1.00  0.00     0.010 A 
ATOM     37  C   UNL A   1      36.475  32.385  29.814  1.00  0.00    -0.014 A 
BRANCH  37  38
ATOM     38  C   UNL A   1      37.588  31.724  30.536  1.00  0.00     0.031 A 
ATOM     39  C   UNL A   1      38.416  30.691  29.822  1.00  0.00     0.074 A 
ATOM     40  C   UNL A   1      37.887  32.074  31.798  1.00  0.00     0.049 A 
ATOM     41  N   UNL A   1      39.442  30.005  30.257  1.00  0.00    -0.248 NA
ATOM     42  C   UNL A   1      38.038  30.392  28.431  1.00  0.00     0.031 C 
ATOM     43  C   UNL A   1      37.180  33.085  32.581  1.00  0.00     0.029 A 
ATOM     44  N   UNL A   1      38.864  31.614  32.642  1.00  0.00    -0.354 N 
ATOM     45  C   UNL A   1      39.836  29.200  29.196  1.00  0.00     0.074 A 
ATOM     46  C   UNL A   1      38.922  29.460  28.105  1.00  0.00     0.031 C 
ATOM     47  C   UNL A   1      37.744  33.163  33.799  1.00  0.00     0.029 A 
ATOM     48  C   UNL A   1      38.833  32.192  33.886  1.00  0.00     0.049 A 
ATOM     49  H   UNL A   1      39.527  30.933  32.380  1.00  0.00     0.167 HD
ATOM     50  C   UNL A   1      40.872  28.330  29.135  1.00  0.00     0.037 A 
ATOM     51  C   UNL A   1      39.587  31.952  34.976  1.00  0.00     0.037 A 
ATOM     52  C   UNL A   1      41.780  28.068  30.220  1.00  0.00     0.049 A 
ATOM     53  C   UNL A   1      40.687  30.927  34.904  1.00  0.00     0.074 A 
ATOM     54  C   UNL A   1      42.878  27.226  30.244  1.00  0.00     0.029 A 
ATOM     55  N   UNL A   1      41.685  28.639  31.480  1.00  0.00    -0.354 N 
ATOM     56  N   UNL A   1      41.073  30.198  33.885  1.00  0.00    -0.248 NA
ATOM     57  C   UNL A   1      41.455  30.691  36.135  1.00  0.00     0.031 C 
ATOM     58  C   UNL A   1      43.420  27.253  31.533  1.00  0.00     0.029 A 
ATOM     59  C   UNL A   1      42.686  28.143  32.300  1.00  0.00     0.049 A 
ATOM     60  H   UNL A   1      41.008  29.299  31.751  1.00  0.00     0.167 HD
ATOM     61  C   UNL A   1      42.136  29.433  34.345  1.00  0.00     0.074 A 
ATOM     62  C   UNL A   1      42.345  29.795  35.731  1.00  0.00     0.031 C 
ATOM     63  C   UNL A   1      42.874  28.510  33.679  1.00  0.00     0.037 A 
BRANCH  50  64
ATOM     64  C   UNL A   1      41.068  27.580  27.851  1.00  0.00     0.057 A 
ATOM     65  C   UNL A   1      41.868  28.082  26.818  1.00  0.00     0.134 A 
ATOM     66  C   UNL A   1      40.479  26.322  27.663  1.00  0.00     0.134 A 
ATOM     67  F   UNL A   1      42.449  29.286  26.932  1.00  0.00    -0.206 F 
ATOM     68  C   UNL A   1      42.063  27.368  25.634  1.00  0.00     0.040 A 
ATOM     69  C   UNL A   1      40.683  25.590  26.492  1.00  0.00     0.040 A 
ATOM     70  F   UNL A   1      39.704  25.785  28.616  1.00  0.00    -0.206 F 
ATOM     71  C   UNL A   1      41.474  26.115  25.472  1.00  0.00     0.006 A 
ENDBRANCH  50  64
BRANCH  51  72
ATOM     72  C   UNL A   1      39.316  32.682  36.238  1.00  0.00     0.057 A 
ATOM     73  C   UNL A   1      39.943  33.901  36.522  1.00  0.00     0.134 A 
ATOM     74  C   UNL A   1      38.433  32.171  37.196  1.00  0.00     0.134 A 
ATOM     75  F   UNL A   1      40.817  34.429  35.653  1.00  0.00    -0.206 F 
ATOM     76  C   UNL A   1      39.710  34.579  37.720  1.00  0.00     0.040 A 
ATOM     77  C   UNL A   1      38.175  32.849  38.388  1.00  0.00     0.040 A 
ATOM     78  F   UNL A   1      37.802  31.006  36.982  1.00  0.00    -0.206 F 
ATOM     79  C   UNL A   1      38.818  34.054  38.655  1.00  0.00     0.006 A 
ENDBRANCH  51  72
BRANCH  63  80
ATOM     80  C   UNL A   1      43.977  27.838  34.440  1.00  0.00     0.057 A 
ATOM     81  C   UNL A   1      45.248  28.414  34.552  1.00  0.00     0.134 A 
ATOM     82  C   UNL A   1      43.756  26.621  35.099  1.00  0.00     0.134 A 
ATOM     83  F   UNL A   1      45.526  29.572  33.934  1.00  0.00    -0.206 F 
ATOM     84  C   UNL A   1      46.267  27.795  35.279  1.00  0.00     0.040 A 
ATOM     85  C   UNL A   1      44.760  26.004  35.845  1.00  0.00     0.040 A 
ATOM     86  F   UNL A   1      42.558  26.021  35.036  1.00  0.00    -0.206 F 
ATOM     87  C   UNL A   1      46.021  26.589  35.933  1.00  0.00     0.006 A 
ENDBRANCH  63  80
ENDBRANCH  37  38
ENDBRANCH  30  32
ENDBRANCH  29  30
ENDBRANCH  28  29
ENDBRANCH  27  28
ENDBRANCH  26  27
ENDBRANCH   1  26
TORSDOF 17
ENDMDL
MODEL 3
REMARK VINA RESULT:     -11.1      5.541      9.598
REMARK SMILES C[C@H]1CC[C@@](Nc2ccc(C(N)=O)nn2)(C(=O)OCCOCCOC(=O)c2ccc(-c3c4nc(c(-c5c(F)cccc5F)c5ccc([nH]5)c(-c5c(F)cccc5F)c5nc(c(-c6c(F)cccc6F)c6ccc3[nH]6)C=C5)C=C4)cc2)CC1
REMARK SMILES IDX 20 1 19 2 18 3 16 4 17 5 5 6 1 7 2 8 82 9 3 10 81 11 4 12
REMARK SMILES IDX 6 13 7 15 8 16 15 17 9 18 14 19 10 20 11 21 12 22 13 23
REMARK SMILES IDX 21 26 22 27 23 28 24 29 25 30 26 31 27 32 28 33 80 34 29 35
REMARK SMILES IDX 79 36 30 37 31 38 32 39 73 40 33 41 78 42 72 43 74 44 34 45
REMARK SMILES IDX 77 46 71 47 70 48 35 50 61 51 44 52 60 53 45 54 48 55 59 56
REMARK SMILES IDX 75 57 46 58 47 59 58 61 76 62 49 63 36 64 37 65 42 66 38 67
REMARK SMILES IDX 39 68 41 69 43 70 40 71 62 72 63 73 68 74 64 75 65 76 67 77
REMARK SMILES IDX 69 78 66 79 50 80 51 81 56 82 52 83 53 84 55 85 57 86 54 87
REMARK H PARENT 6 14 12 24 12 25 74 49 48 60
REMARK Flexibility Score: inf
ROOT
ATOM      1  C   UNL A   1      37.342  22.198  24.473  1.00  0.00     0.202 C 
ENDROOT
BRANCH   1   2
ATOM      2  C   UNL A   1      35.978  22.890  24.452  1.00  0.00     0.261 C 
BRANCH   2   3
ATOM      3  O   UNL A   1      34.915  22.091  23.896  1.00  0.00    -0.461 OA
BRANCH   3   4
ATOM      4  C   UNL A   1      34.008  21.630  24.808  1.00  0.00     0.331 C 
ATOM      5  O   UNL A   1      34.325  21.139  25.889  1.00  0.00    -0.249 OA
BRANCH   4   6
ATOM      6  C   UNL A   1      32.539  21.669  24.283  1.00  0.00     0.137 C 
ATOM      7  C   UNL A   1      31.608  25.508  26.242  1.00  0.00     0.007 C 
ATOM      8  C   UNL A   1      31.392  24.219  25.448  1.00  0.00    -0.014 C 
ATOM      9  C   UNL A   1      31.717  22.997  26.310  1.00  0.00     0.006 C 
ATOM     10  C   UNL A   1      32.224  24.243  24.160  1.00  0.00     0.006 C 
ATOM     11  C   UNL A   1      31.598  21.694  25.510  1.00  0.00     0.041 C 
ATOM     12  C   UNL A   1      32.231  22.912  23.409  1.00  0.00     0.041 C 
BRANCH   6  13
ATOM     13  N   UNL A   1      32.189  20.458  23.471  1.00  0.00    -0.353 N 
ATOM     14  H   UNL A   1      31.719  20.570  22.613  1.00  0.00     0.163 HD
BRANCH  13  15
ATOM     15  C   UNL A   1      32.517  19.186  23.909  1.00  0.00     0.149 A 
ATOM     16  C   UNL A   1      33.198  18.277  23.109  1.00  0.00     0.051 A 
ATOM     17  N   UNL A   1      32.100  18.825  25.141  1.00  0.00    -0.132 NA
ATOM     18  C   UNL A   1      33.368  16.967  23.545  1.00  0.00     0.040 A 
ATOM     19  N   UNL A   1      32.263  17.535  25.589  1.00  0.00    -0.143 NA
ATOM     20  C   UNL A   1      32.870  16.629  24.787  1.00  0.00     0.150 A 
BRANCH  20  21
ATOM     21  C   UNL A   1      32.942  15.229  25.286  1.00  0.00     0.269 C 
ATOM     22  N   UNL A   1      31.752  14.648  25.639  1.00  0.00    -0.364 N 
ATOM     23  O   UNL A   1      34.001  14.619  25.369  1.00  0.00    -0.268 OA
ATOM     24  H   UNL A   1      30.914  15.159  25.564  1.00  0.00     0.160 HD
ATOM     25  H   UNL A   1      31.736  13.720  25.966  1.00  0.00     0.160 HD
ENDBRANCH  20  21
ENDBRANCH  13  15
ENDBRANCH   6  13
ENDBRANCH   4   6
ENDBRANCH   3   4
ENDBRANCH   2   3
ENDBRANCH   1   2
BRANCH   1  26
ATOM     26  O   UNL A   1      37.543  21.177  25.447  1.00  0.00    -0.374 OA
BRANCH  26  27
ATOM     27  C   UNL A   1      37.806  19.857  24.982  1.00  0.00     0.202 C 
BRANCH  27  28
ATOM     28  C   UNL A   1      39.136  19.234  25.420  1.00  0.00     0.261 C 
BRANCH  28  29
ATOM     29  O   UNL A   1      39.920  20.145  26.210  1.00  0.00    -0.460 OA
BRANCH  29  30
ATOM     30  C   UNL A   1      41.247  19.869  26.217  1.00  0.00     0.338 C 
ATOM     31  O   UNL A   1      41.796  18.850  25.838  1.00  0.00    -0.246 OA
BRANCH  30  32
ATOM     32  C   UNL A   1      42.011  21.066  26.606  1.00  0.00     0.060 A 
ATOM     33  C   UNL A   1      42.091  21.367  27.972  1.00  0.00     0.016 A 
ATOM     34  C   UNL A   1      42.522  21.944  25.650  1.00  0.00     0.016 A 
ATOM     35  C   UNL A   1      42.645  22.575  28.386  1.00  0.00     0.010 A 
ATOM     36  C   UNL A   1      43.068  23.164  26.068  1.00  0.00     0.010 A 
ATOM     37  C   UNL A   1      43.099  23.498  27.434  1.00  0.00    -0.014 A 
BRANCH  37  38
ATOM     38  C   UNL A   1      43.480  24.862  27.873  1.00  0.00     0.031 A 
ATOM     39  C   UNL A   1      42.403  25.874  28.147  1.00  0.00     0.074 A 
ATOM     40  C   UNL A   1      44.771  25.179  28.070  1.00  0.00     0.049 A 
ATOM     41  N   UNL A   1      42.513  27.113  28.554  1.00  0.00    -0.248 NA
ATOM     42  C   UNL A   1      41.015  25.431  27.935  1.00  0.00     0.031 C 
ATOM     43  C   UNL A   1      45.901  24.273  27.871  1.00  0.00     0.029 A 
ATOM     44  N   UNL A   1      45.346  26.354  28.479  1.00  0.00    -0.354 N 
ATOM     45  C   UNL A   1      41.214  27.595  28.654  1.00  0.00     0.074 A 
ATOM     46  C   UNL A   1      40.332  26.526  28.237  1.00  0.00     0.031 C 
ATOM     47  C   UNL A   1      47.039  24.932  28.152  1.00  0.00     0.029 A 
ATOM     48  C   UNL A   1      46.717  26.308  28.526  1.00  0.00     0.049 A 
ATOM     49  H   UNL A   1      44.825  27.156  28.718  1.00  0.00     0.167 HD
ATOM     50  C   UNL A   1      40.795  28.816  29.065  1.00  0.00     0.037 A 
ATOM     51  C   UNL A   1      47.610  27.272  28.821  1.00  0.00     0.037 A 
ATOM     52  C   UNL A   1      41.671  29.881  29.476  1.00  0.00     0.049 A 
ATOM     53  C   UNL A   1      47.121  28.642  29.205  1.00  0.00     0.074 A 
ATOM     54  C   UNL A   1      41.340  31.143  29.937  1.00  0.00     0.029 A 
ATOM     55  N   UNL A   1      43.056  29.810  29.463  1.00  0.00    -0.354 N 
ATOM     56  N   UNL A   1      45.890  29.075  29.330  1.00  0.00    -0.248 NA
ATOM     57  C   UNL A   1      48.146  29.658  29.487  1.00  0.00     0.031 C 
ATOM     58  C   UNL A   1      42.525  31.851  30.160  1.00  0.00     0.029 A 
ATOM     59  C   UNL A   1      43.594  31.017  29.878  1.00  0.00     0.049 A 
ATOM     60  H   UNL A   1      43.578  29.018  29.200  1.00  0.00     0.167 HD
ATOM     61  C   UNL A   1      45.992  30.404  29.721  1.00  0.00     0.074 A 
ATOM     62  C   UNL A   1      47.404  30.703  29.827  1.00  0.00     0.031 C 
ATOM     63  C   UNL A   1      45.003  31.298  29.970  1.00  0.00     0.037 A 
BRANCH  50  64
ATOM     64  C   UNL A   1      39.318  29.072  29.070  1.00  0.00     0.057 A 
ATOM     65  C   UNL A   1      38.627  29.432  27.907  1.00  0.00     0.134 A 
ATOM     66  C   UNL A   1      38.572  28.921  30.247  1.00  0.00     0.134 A 
ATOM     67  F   UNL A   1      39.286  29.605  26.751  1.00  0.00    -0.206 F 
ATOM     68  C   UNL A   1      37.248  29.648  27.916  1.00  0.00     0.040 A 
ATOM     69  C   UNL A   1      37.190  29.115  30.264  1.00  0.00     0.040 A 
ATOM     70  F   UNL A   1      39.174  28.574  31.394  1.00  0.00    -0.206 F 
ATOM     71  C   UNL A   1      36.525  29.484  29.096  1.00  0.00     0.006 A 
ENDBRANCH  50  64
BRANCH  51  72
ATOM     72  C   UNL A   1      49.063  26.981  28.747  1.00  0.00     0.057 A 
ATOM     73  C   UNL A   1      49.773  27.120  27.549  1.00  0.00     0.134 A 
ATOM     74  C   UNL A   1      49.772  26.544  29.872  1.00  0.00     0.134 A 
ATOM     75  F   UNL A   1      49.142  27.512  26.433  1.00  0.00    -0.206 F 
ATOM     76  C   UNL A   1      51.134  26.823  27.470  1.00  0.00     0.040 A 
ATOM     77  C   UNL A   1      51.138  26.263  29.812  1.00  0.00     0.040 A 
ATOM     78  F   UNL A   1      49.147  26.390  31.049  1.00  0.00    -0.206 F 
ATOM     79  C   UNL A   1      51.822  26.398  28.606  1.00  0.00     0.006 A 
ENDBRANCH  51  72
BRANCH  63  80
ATOM     80  C   UNL A   1      45.417  32.678  30.387  1.00  0.00     0.057 A 
ATOM     81  C   UNL A   1      45.654  32.998  31.730  1.00  0.00     0.134 A 
ATOM     82  C   UNL A   1      45.619  33.684  29.434  1.00  0.00     0.134 A 
ATOM     83  F   UNL A   1      45.466  32.081  32.690  1.00  0.00    -0.206 F 
ATOM     84  C   UNL A   1      46.059  34.278  32.112  1.00  0.00     0.040 A 
ATOM     85  C   UNL A   1      46.045  34.961  29.803  1.00  0.00     0.040 A 
ATOM     86  F   UNL A   1      45.417  33.439  28.131  1.00  0.00    -0.206 F 
ATOM     87  C   UNL A   1      46.262  35.262  31.146  1.00  0.00     0.006 A 
ENDBRANCH  63  80
ENDBRANCH  37  38
ENDBRANCH  30  32
ENDBRANCH  29  30
ENDBRANCH  28  29
ENDBRANCH  27  28
ENDBRANCH  26  27
ENDBRANCH   1  26
TORSDOF 17
ENDMDL
