MODEL 1
REMARK VINA RESULT:     -10.1      0.000      0.000
REMARK SMILES O=C(OCCOCCOC(=O)[C@H]1C[C@@H](O)CN1C(=O)C[C@@H]1CSCC[NH2+]1)c1ccc(-c2c3nc(c(-c4c(F)cccc4F)c4ccc([nH]4)c(-c4c(F)cccc4F)c4nc(c(-c5c(F)cccc5F)c5ccc2[nH]5)C=C4)C=C3)cc1
REMARK SMILES IDX 7 1 6 2 5 3 4 4 3 5 2 6 1 7 27 8 28 9 80 10 29 11 79 12
REMARK SMILES IDX 30 13 31 14 32 15 73 16 33 17 78 18 72 19 74 20 34 21 77 22
REMARK SMILES IDX 71 23 70 24 35 26 61 27 44 28 60 29 45 30 48 31 59 32 75 33
REMARK SMILES IDX 46 34 47 35 58 37 76 38 49 39 36 40 37 41 42 42 38 43 39 44
REMARK SMILES IDX 41 45 43 46 40 47 62 48 63 49 68 50 64 51 65 52 67 53 69 54
REMARK SMILES IDX 66 55 50 56 51 57 56 58 52 59 53 60 55 61 57 62 54 63 8 64
REMARK SMILES IDX 9 65 10 66 11 67 12 68 13 69 17 70 14 71 16 72 18 73 19 74
REMARK SMILES IDX 20 75 21 76 22 77 26 78 23 79 25 80 24 83 15 84
REMARK H PARENT 74 25 48 36 26 81 26 82 15 85
REMARK Flexibility Score: inf
ROOT
ATOM      1  C   UNL A   1      32.604  29.638  26.853  1.00  0.00     0.202 C 
ENDROOT
BRANCH   1   2
ATOM      2  O   UNL A   1      31.882  30.616  26.103  1.00  0.00    -0.374 OA
BRANCH   2   3
ATOM      3  C   UNL A   1      31.354  31.690  26.883  1.00  0.00     0.202 C 
BRANCH   3   4
ATOM      4  C   UNL A   1      32.005  33.039  26.573  1.00  0.00     0.261 C 
BRANCH   4   5
ATOM      5  O   UNL A   1      32.083  33.850  27.752  1.00  0.00    -0.460 OA
BRANCH   5   6
ATOM      6  C   UNL A   1      33.198  34.422  28.268  1.00  0.00     0.338 C 
ATOM      7  O   UNL A   1      33.219  35.641  28.428  1.00  0.00    -0.246 OA
BRANCH   6   8
ATOM      8  C   UNL A   1      34.393  33.643  28.719  1.00  0.00     0.060 A 
ATOM      9  C   UNL A   1      35.693  34.147  28.805  1.00  0.00     0.016 A 
ATOM     10  C   UNL A   1      34.157  32.344  29.200  1.00  0.00     0.016 A 
ATOM     11  C   UNL A   1      36.734  33.392  29.327  1.00  0.00     0.010 A 
ATOM     12  C   UNL A   1      35.189  31.594  29.771  1.00  0.00     0.010 A 
ATOM     13  C   UNL A   1      36.479  32.128  29.847  1.00  0.00    -0.014 A 
BRANCH  13  14
ATOM     14  C   UNL A   1      37.591  31.397  30.476  1.00  0.00     0.031 A 
ATOM     15  C   UNL A   1      37.848  31.582  31.934  1.00  0.00     0.074 A 
ATOM     16  C   UNL A   1      38.292  30.516  29.737  1.00  0.00     0.049 A 
ATOM     17  N   UNL A   1      38.835  31.132  32.659  1.00  0.00    -0.248 NA
ATOM     18  C   UNL A   1      36.855  32.371  32.680  1.00  0.00     0.031 C 
ATOM     19  C   UNL A   1      38.026  30.196  28.330  1.00  0.00     0.029 A 
ATOM     20  N   UNL A   1      39.351  29.715  30.064  1.00  0.00    -0.354 N 
ATOM     21  C   UNL A   1      38.609  31.621  33.936  1.00  0.00     0.074 A 
ATOM     22  C   UNL A   1      37.380  32.381  33.898  1.00  0.00     0.031 C 
ATOM     23  C   UNL A   1      38.889  29.253  27.923  1.00  0.00     0.029 A 
ATOM     24  C   UNL A   1      39.815  28.965  29.011  1.00  0.00     0.049 A 
ATOM     25  H   UNL A   1      39.743  29.679  30.967  1.00  0.00     0.167 HD
ATOM     26  C   UNL A   1      39.385  31.461  35.032  1.00  0.00     0.037 A 
ATOM     27  C   UNL A   1      40.903  28.177  28.929  1.00  0.00     0.037 A 
ATOM     28  C   UNL A   1      40.600  30.690  35.032  1.00  0.00     0.049 A 
ATOM     29  C   UNL A   1      41.783  28.072  30.143  1.00  0.00     0.074 A 
ATOM     30  C   UNL A   1      41.503  30.494  36.059  1.00  0.00     0.029 A 
ATOM     31  N   UNL A   1      41.073  29.982  33.936  1.00  0.00    -0.354 N 
ATOM     32  N   UNL A   1      41.611  28.599  31.333  1.00  0.00    -0.248 NA
ATOM     33  C   UNL A   1      43.022  27.298  29.999  1.00  0.00     0.031 C 
ATOM     34  C   UNL A   1      42.542  29.693  35.572  1.00  0.00     0.029 A 
ATOM     35  C   UNL A   1      42.267  29.361  34.253  1.00  0.00     0.049 A 
ATOM     36  H   UNL A   1      40.625  29.929  33.060  1.00  0.00     0.167 HD
ATOM     37  C   UNL A   1      42.719  28.225  32.078  1.00  0.00     0.074 A 
ATOM     38  C   UNL A   1      43.540  27.398  31.215  1.00  0.00     0.031 C 
ATOM     39  C   UNL A   1      43.044  28.545  33.356  1.00  0.00     0.037 A 
BRANCH  26  40
ATOM     40  C   UNL A   1      38.977  32.195  36.271  1.00  0.00     0.057 A 
ATOM     41  C   UNL A   1      38.120  31.634  37.225  1.00  0.00     0.134 A 
ATOM     42  C   UNL A   1      39.437  33.499  36.498  1.00  0.00     0.134 A 
ATOM     43  F   UNL A   1      37.621  30.402  37.050  1.00  0.00    -0.206 F 
ATOM     44  C   UNL A   1      37.721  32.352  38.355  1.00  0.00     0.040 A 
ATOM     45  C   UNL A   1      39.059  34.219  37.632  1.00  0.00     0.040 A 
ATOM     46  F   UNL A   1      40.252  34.096  35.616  1.00  0.00    -0.206 F 
ATOM     47  C   UNL A   1      38.193  33.647  38.563  1.00  0.00     0.006 A 
ENDBRANCH  26  40
BRANCH  27  48
ATOM     48  C   UNL A   1      41.262  27.508  27.651  1.00  0.00     0.057 A 
ATOM     49  C   UNL A   1      42.023  28.157  26.675  1.00  0.00     0.134 A 
ATOM     50  C   UNL A   1      40.830  26.205  27.363  1.00  0.00     0.134 A 
ATOM     51  F   UNL A   1      42.448  29.414  26.875  1.00  0.00    -0.206 F 
ATOM     52  C   UNL A   1      42.329  27.546  25.455  1.00  0.00     0.040 A 
ATOM     53  C   UNL A   1      41.153  25.570  26.163  1.00  0.00     0.040 A 
ATOM     54  F   UNL A   1      40.094  25.522  28.254  1.00  0.00    -0.206 F 
ATOM     55  C   UNL A   1      41.897  26.245  25.200  1.00  0.00     0.006 A 
ENDBRANCH  27  48
BRANCH  39  56
ATOM     56  C   UNL A   1      44.332  27.990  33.875  1.00  0.00     0.057 A 
ATOM     57  C   UNL A   1      45.521  28.725  33.810  1.00  0.00     0.134 A 
ATOM     58  C   UNL A   1      44.372  26.729  34.480  1.00  0.00     0.134 A 
ATOM     59  F   UNL A   1      45.544  29.932  33.225  1.00  0.00    -0.206 F 
ATOM     60  C   UNL A   1      46.715  28.216  34.320  1.00  0.00     0.040 A 
ATOM     61  C   UNL A   1      45.555  26.220  35.013  1.00  0.00     0.040 A 
ATOM     62  F   UNL A   1      43.261  25.983  34.575  1.00  0.00    -0.206 F 
ATOM     63  C   UNL A   1      46.732  26.963  34.929  1.00  0.00     0.006 A 
ENDBRANCH  39  56
ENDBRANCH  13  14
ENDBRANCH   6   8
ENDBRANCH   5   6
ENDBRANCH   4   5
ENDBRANCH   3   4
ENDBRANCH   2   3
ENDBRANCH   1   2
BRANCH   1  64
ATOM     64  C   UNL A   1      33.865  29.229  26.091  1.00  0.00     0.261 C 
BRANCH  64  65
ATOM     65  O   UNL A   1      33.500  28.512  24.895  1.00  0.00    -0.462 OA
BRANCH  65  66
ATOM     66  C   UNL A   1      33.433  27.160  25.043  1.00  0.00     0.329 C 
ATOM     67  O   UNL A   1      34.059  26.506  25.877  1.00  0.00    -0.250 OA
BRANCH  66  68
ATOM     68  C   UNL A   1      32.447  26.528  24.048  1.00  0.00     0.197 C 
ATOM     69  C   UNL A   1      31.977  25.177  24.586  1.00  0.00     0.070 C 
ATOM     70  N   UNL A   1      31.190  27.278  23.986  1.00  0.00    -0.326 N 
ATOM     71  C   UNL A   1      30.831  25.535  25.552  1.00  0.00     0.136 C 
ATOM     72  C   UNL A   1      30.367  26.941  25.138  1.00  0.00     0.152 C 
BRANCH  70  73
ATOM     73  C   UNL A   1      30.838  28.024  22.888  1.00  0.00     0.229 C 
ATOM     74  O   UNL A   1      30.614  27.493  21.796  1.00  0.00    -0.275 OA
BRANCH  73  75
ATOM     75  C   UNL A   1      30.741  29.533  23.022  1.00  0.00     0.166 C 
BRANCH  75  76
ATOM     76  C   UNL A   1      29.374  30.090  23.503  1.00  0.00     0.201 C 
ATOM     77  C   UNL A   1      28.203  29.709  22.569  1.00  0.00     0.135 C 
ATOM     78  N   UNL A   1      29.314  31.494  23.946  1.00  0.00    -0.342 N 
ATOM     79  S   UNL A   1      28.095  30.710  21.056  1.00  0.00    -0.150 SA
ATOM     80  C   UNL A   1      29.306  32.483  22.864  1.00  0.00     0.271 C 
ATOM     81  H   UNL A   1      30.126  31.676  24.535  1.00  0.00     0.346 HD
ATOM     82  H   UNL A   1      28.427  31.601  24.439  1.00  0.00     0.346 HD
ATOM     83  C   UNL A   1      28.183  32.350  21.831  1.00  0.00     0.131 C 
ENDBRANCH  75  76
ENDBRANCH  73  75
ENDBRANCH  70  73
BRANCH  71  84
ATOM     84  O   UNL A   1      31.296  25.505  26.895  1.00  0.00    -0.391 OA
ATOM     85  H   UNL A   1      31.378  24.584  27.189  1.00  0.00     0.211 HD
ENDBRANCH  71  84
ENDBRANCH  66  68
ENDBRANCH  65  66
ENDBRANCH  64  65
ENDBRANCH   1  64
TORSDOF 18
ENDMDL
MODEL 2
REMARK VINA RESULT:     -10.1      3.154      8.018
REMARK SMILES O=C(OCCOCCOC(=O)[C@H]1C[C@@H](O)CN1C(=O)C[C@@H]1CSCC[NH2+]1)c1ccc(-c2c3nc(c(-c4c(F)cccc4F)c4ccc([nH]4)c(-c4c(F)cccc4F)c4nc(c(-c5c(F)cccc5F)c5ccc2[nH]5)C=C4)C=C3)cc1
REMARK SMILES IDX 7 1 6 2 5 3 4 4 3 5 2 6 1 7 27 8 28 9 80 10 29 11 79 12
REMARK SMILES IDX 30 13 31 14 32 15 73 16 33 17 78 18 72 19 74 20 34 21 77 22
REMARK SMILES IDX 71 23 70 24 35 26 61 27 44 28 60 29 45 30 48 31 59 32 75 33
REMARK SMILES IDX 46 34 47 35 58 37 76 38 49 39 36 40 37 41 42 42 38 43 39 44
REMARK SMILES IDX 41 45 43 46 40 47 62 48 63 49 68 50 64 51 65 52 67 53 69 54
REMARK SMILES IDX 66 55 50 56 51 57 56 58 52 59 53 60 55 61 57 62 54 63 8 64
REMARK SMILES IDX 9 65 10 66 11 67 12 68 13 69 17 70 14 71 16 72 18 73 19 74
REMARK SMILES IDX 20 75 21 76 22 77 26 78 23 79 25 80 24 83 15 84
REMARK H PARENT 74 25 48 36 26 81 26 82 15 85
REMARK Flexibility Score: inf
ROOT
ATOM      1  C   UNL A   1      38.565  20.473  25.453  1.00  0.00     0.202 C 
ENDROOT
BRANCH   1   2
ATOM      2  O   UNL A   1      39.652  21.189  26.039  1.00  0.00    -0.374 OA
BRANCH   2   3
ATOM      3  C   UNL A   1      40.749  20.371  26.448  1.00  0.00     0.202 C 
BRANCH   3   4
ATOM      4  C   UNL A   1      42.110  21.037  26.238  1.00  0.00     0.261 C 
BRANCH   4   5
ATOM      5  O   UNL A   1      41.991  22.178  25.379  1.00  0.00    -0.460 OA
BRANCH   5   6
ATOM      6  C   UNL A   1      42.617  23.371  25.525  1.00  0.00     0.338 C 
ATOM      7  O   UNL A   1      43.577  23.629  24.802  1.00  0.00    -0.246 OA
BRANCH   6   8
ATOM      8  C   UNL A   1      42.164  24.428  26.482  1.00  0.00     0.060 A 
ATOM      9  C   UNL A   1      41.183  24.256  27.461  1.00  0.00     0.016 A 
ATOM     10  C   UNL A   1      42.868  25.643  26.463  1.00  0.00     0.016 A 
ATOM     11  C   UNL A   1      40.885  25.253  28.379  1.00  0.00     0.010 A 
ATOM     12  C   UNL A   1      42.609  26.636  27.412  1.00  0.00     0.010 A 
ATOM     13  C   UNL A   1      41.623  26.432  28.383  1.00  0.00    -0.014 A 
BRANCH  13  14
ATOM     14  C   UNL A   1      41.340  27.427  29.430  1.00  0.00     0.031 A 
ATOM     15  C   UNL A   1      42.205  27.468  30.644  1.00  0.00     0.074 A 
ATOM     16  C   UNL A   1      40.361  28.328  29.224  1.00  0.00     0.049 A 
ATOM     17  N   UNL A   1      42.066  28.177  31.730  1.00  0.00    -0.248 NA
ATOM     18  C   UNL A   1      43.396  26.603  30.631  1.00  0.00     0.031 C 
ATOM     19  C   UNL A   1      39.544  28.424  28.009  1.00  0.00     0.029 A 
ATOM     20  N   UNL A   1      39.900  29.346  30.014  1.00  0.00    -0.354 N 
ATOM     21  C   UNL A   1      43.123  27.810  32.550  1.00  0.00     0.074 A 
ATOM     22  C   UNL A   1      43.911  26.835  31.830  1.00  0.00     0.031 C 
ATOM     23  C   UNL A   1      38.695  29.456  28.130  1.00  0.00     0.029 A 
ATOM     24  C   UNL A   1      38.852  30.038  29.456  1.00  0.00     0.049 A 
ATOM     25  H   UNL A   1      40.282  29.561  30.895  1.00  0.00     0.167 HD
ATOM     26  C   UNL A   1      43.384  28.242  33.805  1.00  0.00     0.037 A 
ATOM     27  C   UNL A   1      38.076  31.000  29.989  1.00  0.00     0.037 A 
ATOM     28  C   UNL A   1      42.578  29.219  34.486  1.00  0.00     0.049 A 
ATOM     29  C   UNL A   1      38.348  31.410  31.410  1.00  0.00     0.074 A 
ATOM     30  C   UNL A   1      42.703  29.700  35.774  1.00  0.00     0.029 A 
ATOM     31  N   UNL A   1      41.491  29.867  33.915  1.00  0.00    -0.354 N 
ATOM     32  N   UNL A   1      39.302  31.007  32.216  1.00  0.00    -0.248 NA
ATOM     33  C   UNL A   1      37.422  32.378  32.009  1.00  0.00     0.031 C 
ATOM     34  C   UNL A   1      41.668  30.617  35.995  1.00  0.00     0.029 A 
ATOM     35  C   UNL A   1      40.922  30.733  34.831  1.00  0.00     0.049 A 
ATOM     36  H   UNL A   1      41.171  29.731  32.993  1.00  0.00     0.167 HD
ATOM     37  C   UNL A   1      39.091  31.666  33.416  1.00  0.00     0.074 A 
ATOM     38  C   UNL A   1      37.936  32.523  33.221  1.00  0.00     0.031 C 
ATOM     39  C   UNL A   1      39.773  31.567  34.584  1.00  0.00     0.037 A 
BRANCH  26  40
ATOM     40  C   UNL A   1      44.527  27.597  34.524  1.00  0.00     0.057 A 
ATOM     41  C   UNL A   1      44.378  26.416  35.260  1.00  0.00     0.134 A 
ATOM     42  C   UNL A   1      45.797  28.187  34.496  1.00  0.00     0.134 A 
ATOM     43  F   UNL A   1      43.180  25.819  35.352  1.00  0.00    -0.206 F 
ATOM     44  C   UNL A   1      45.450  25.853  35.956  1.00  0.00     0.040 A 
ATOM     45  C   UNL A   1      46.880  27.625  35.173  1.00  0.00     0.040 A 
ATOM     46  F   UNL A   1      46.003  29.326  33.817  1.00  0.00    -0.206 F 
ATOM     47  C   UNL A   1      46.706  26.455  35.911  1.00  0.00     0.006 A 
ENDBRANCH  26  40
BRANCH  27  48
ATOM     48  C   UNL A   1      36.935  31.567  29.223  1.00  0.00     0.057 A 
ATOM     49  C   UNL A   1      36.981  32.861  28.695  1.00  0.00     0.134 A 
ATOM     50  C   UNL A   1      35.756  30.834  29.021  1.00  0.00     0.134 A 
ATOM     51  F   UNL A   1      38.068  33.625  28.872  1.00  0.00    -0.206 F 
ATOM     52  C   UNL A   1      35.895  33.412  28.009  1.00  0.00     0.040 A 
ATOM     53  C   UNL A   1      34.675  31.360  28.313  1.00  0.00     0.040 A 
ATOM     54  F   UNL A   1      35.642  29.587  29.502  1.00  0.00    -0.206 F 
ATOM     55  C   UNL A   1      34.739  32.657  27.812  1.00  0.00     0.006 A 
ENDBRANCH  27  48
BRANCH  39  56
ATOM     56  C   UNL A   1      39.281  32.409  35.718  1.00  0.00     0.057 A 
ATOM     57  C   UNL A   1      39.766  33.706  35.925  1.00  0.00     0.134 A 
ATOM     58  C   UNL A   1      38.288  31.934  36.581  1.00  0.00     0.134 A 
ATOM     59  F   UNL A   1      40.731  34.206  35.139  1.00  0.00    -0.206 F 
ATOM     60  C   UNL A   1      39.286  34.499  36.967  1.00  0.00     0.040 A 
ATOM     61  C   UNL A   1      37.785  32.726  37.611  1.00  0.00     0.040 A 
ATOM     62  F   UNL A   1      37.784  30.701  36.425  1.00  0.00    -0.206 F 
ATOM     63  C   UNL A   1      38.288  34.012  37.808  1.00  0.00     0.006 A 
ENDBRANCH  39  56
ENDBRANCH  13  14
ENDBRANCH   6   8
ENDBRANCH   5   6
ENDBRANCH   4   5
ENDBRANCH   3   4
ENDBRANCH   2   3
ENDBRANCH   1   2
BRANCH   1  64
ATOM     64  C   UNL A   1      37.557  21.458  24.860  1.00  0.00     0.261 C 
BRANCH  64  65
ATOM     65  O   UNL A   1      36.350  21.455  25.647  1.00  0.00    -0.462 OA
BRANCH  65  66
ATOM     66  C   UNL A   1      35.254  20.964  25.005  1.00  0.00     0.329 C 
ATOM     67  O   UNL A   1      34.945  19.775  24.939  1.00  0.00    -0.250 OA
BRANCH  66  68
ATOM     68  C   UNL A   1      34.412  22.086  24.379  1.00  0.00     0.197 C 
ATOM     69  C   UNL A   1      33.069  21.519  23.920  1.00  0.00     0.070 C 
ATOM     70  N   UNL A   1      33.994  23.068  25.383  1.00  0.00    -0.326 N 
ATOM     71  C   UNL A   1      32.203  21.527  25.193  1.00  0.00     0.136 C 
ATOM     72  C   UNL A   1      32.869  22.538  26.140  1.00  0.00     0.152 C 
BRANCH  70  73
ATOM     73  C   UNL A   1      34.511  24.340  25.421  1.00  0.00     0.229 C 
ATOM     74  O   UNL A   1      35.724  24.536  25.540  1.00  0.00    -0.275 OA
BRANCH  73  75
ATOM     75  C   UNL A   1      33.565  25.523  25.331  1.00  0.00     0.166 C 
BRANCH  75  76
ATOM     76  C   UNL A   1      33.119  25.936  23.902  1.00  0.00     0.201 C 
ATOM     77  C   UNL A   1      32.573  27.380  23.832  1.00  0.00     0.135 C 
ATOM     78  N   UNL A   1      32.305  24.983  23.127  1.00  0.00    -0.342 N 
ATOM     79  S   UNL A   1      30.869  27.567  24.434  1.00  0.00    -0.150 SA
ATOM     80  C   UNL A   1      30.894  24.914  23.519  1.00  0.00     0.271 C 
ATOM     81  H   UNL A   1      32.711  24.054  23.241  1.00  0.00     0.346 HD
ATOM     82  H   UNL A   1      32.319  25.313  22.162  1.00  0.00     0.346 HD
ATOM     83  C   UNL A   1      30.111  26.229  23.468  1.00  0.00     0.131 C 
ENDBRANCH  75  76
ENDBRANCH  73  75
ENDBRANCH  70  73
BRANCH  71  84
ATOM     84  O   UNL A   1      32.153  20.224  25.760  1.00  0.00    -0.391 OA
ATOM     85  H   UNL A   1      31.534  19.674  25.255  1.00  0.00     0.211 HD
ENDBRANCH  71  84
ENDBRANCH  66  68
ENDBRANCH  65  66
ENDBRANCH  64  65
ENDBRANCH   1  64
TORSDOF 18
ENDMDL
MODEL 3
REMARK VINA RESULT:      -9.9      2.392      7.334
REMARK SMILES O=C(OCCOCCOC(=O)[C@H]1C[C@@H](O)CN1C(=O)C[C@@H]1CSCC[NH2+]1)c1ccc(-c2c3nc(c(-c4c(F)cccc4F)c4ccc([nH]4)c(-c4c(F)cccc4F)c4nc(c(-c5c(F)cccc5F)c5ccc2[nH]5)C=C4)C=C3)cc1
REMARK SMILES IDX 7 1 6 2 5 3 4 4 3 5 2 6 1 7 27 8 28 9 80 10 29 11 79 12
REMARK SMILES IDX 30 13 31 14 32 15 73 16 33 17 78 18 72 19 74 20 34 21 77 22
REMARK SMILES IDX 71 23 70 24 35 26 61 27 44 28 60 29 45 30 48 31 59 32 75 33
REMARK SMILES IDX 46 34 47 35 58 37 76 38 49 39 36 40 37 41 42 42 38 43 39 44
REMARK SMILES IDX 41 45 43 46 40 47 62 48 63 49 68 50 64 51 65 52 67 53 69 54
REMARK SMILES IDX 66 55 50 56 51 57 56 58 52 59 53 60 55 61 57 62 54 63 8 64
REMARK SMILES IDX 9 65 10 66 11 67 12 68 13 69 17 70 14 71 16 72 18 73 19 74
REMARK SMILES IDX 20 75 21 76 22 77 26 78 23 79 25 80 24 83 15 84
REMARK H PARENT 74 25 48 36 26 81 26 82 15 85
REMARK Flexibility Score: inf
ROOT
ATOM      1  C   UNL A   1      31.407  29.374  25.778  1.00  0.00     0.202 C 
ENDROOT
BRANCH   1   2
ATOM      2  O   UNL A   1      32.309  30.480  25.785  1.00  0.00    -0.374 OA
BRANCH   2   3
ATOM      3  C   UNL A   1      31.846  31.619  26.513  1.00  0.00     0.202 C 
BRANCH   3   4
ATOM      4  C   UNL A   1      32.965  32.363  27.244  1.00  0.00     0.261 C 
BRANCH   4   5
ATOM      5  O   UNL A   1      32.516  33.652  27.682  1.00  0.00    -0.460 OA
BRANCH   5   6
ATOM      6  C   UNL A   1      33.104  34.440  28.615  1.00  0.00     0.338 C 
ATOM      7  O   UNL A   1      32.638  35.558  28.826  1.00  0.00    -0.246 OA
BRANCH   6   8
ATOM      8  C   UNL A   1      34.259  33.999  29.457  1.00  0.00     0.060 A 
ATOM      9  C   UNL A   1      34.161  33.194  30.595  1.00  0.00     0.016 A 
ATOM     10  C   UNL A   1      35.543  34.326  28.992  1.00  0.00     0.016 A 
ATOM     11  C   UNL A   1      35.286  32.743  31.269  1.00  0.00     0.010 A 
ATOM     12  C   UNL A   1      36.684  33.838  29.636  1.00  0.00     0.010 A 
ATOM     13  C   UNL A   1      36.552  33.031  30.771  1.00  0.00    -0.014 A 
BRANCH  13  14
ATOM     14  C   UNL A   1      37.719  32.458  31.461  1.00  0.00     0.031 A 
ATOM     15  C   UNL A   1      38.461  31.334  30.819  1.00  0.00     0.074 A 
ATOM     16  C   UNL A   1      38.136  33.019  32.611  1.00  0.00     0.049 A 
ATOM     17  N   UNL A   1      39.435  30.610  31.298  1.00  0.00    -0.248 NA
ATOM     18  C   UNL A   1      38.062  30.983  29.446  1.00  0.00     0.031 C 
ATOM     19  C   UNL A   1      37.530  34.195  33.245  1.00  0.00     0.029 A 
ATOM     20  N   UNL A   1      39.175  32.695  33.441  1.00  0.00    -0.354 N 
ATOM     21  C   UNL A   1      39.733  29.687  30.308  1.00  0.00     0.074 A 
ATOM     22  C   UNL A   1      38.858  29.955  29.189  1.00  0.00     0.031 C 
ATOM     23  C   UNL A   1      38.220  34.503  34.353  1.00  0.00     0.029 A 
ATOM     24  C   UNL A   1      39.260  33.502  34.550  1.00  0.00     0.049 A 
ATOM     25  H   UNL A   1      39.801  31.958  33.261  1.00  0.00     0.167 HD
ATOM     26  C   UNL A   1      40.647  28.692  30.354  1.00  0.00     0.037 A 
ATOM     27  C   UNL A   1      40.059  33.401  35.628  1.00  0.00     0.037 A 
ATOM     28  C   UNL A   1      41.506  28.461  31.485  1.00  0.00     0.049 A 
ATOM     29  C   UNL A   1      41.018  32.244  35.681  1.00  0.00     0.074 A 
ATOM     30  C   UNL A   1      42.433  27.456  31.679  1.00  0.00     0.029 A 
ATOM     31  N   UNL A   1      41.534  29.263  32.618  1.00  0.00    -0.354 N 
ATOM     32  N   UNL A   1      41.248  31.322  34.775  1.00  0.00    -0.248 NA
ATOM     33  C   UNL A   1      41.801  32.088  36.913  1.00  0.00     0.031 C 
ATOM     34  C   UNL A   1      43.001  27.632  32.947  1.00  0.00     0.029 A 
ATOM     35  C   UNL A   1      42.452  28.767  33.526  1.00  0.00     0.049 A 
ATOM     36  H   UNL A   1      40.983  30.068  32.755  1.00  0.00     0.167 HD
ATOM     37  C   UNL A   1      42.197  30.475  35.326  1.00  0.00     0.074 A 
ATOM     38  C   UNL A   1      42.524  31.014  36.633  1.00  0.00     0.031 C 
ATOM     39  C   UNL A   1      42.742  29.344  34.813  1.00  0.00     0.037 A 
BRANCH  26  40
ATOM     40  C   UNL A   1      40.693  27.752  29.190  1.00  0.00     0.057 A 
ATOM     41  C   UNL A   1      39.819  26.665  29.071  1.00  0.00     0.134 A 
ATOM     42  C   UNL A   1      41.648  27.930  28.180  1.00  0.00     0.134 A 
ATOM     43  F   UNL A   1      38.903  26.422  30.020  1.00  0.00    -0.206 F 
ATOM     44  C   UNL A   1      39.905  25.778  27.995  1.00  0.00     0.040 A 
ATOM     45  C   UNL A   1      41.732  27.061  27.092  1.00  0.00     0.040 A 
ATOM     46  F   UNL A   1      42.521  28.947  28.241  1.00  0.00    -0.206 F 
ATOM     47  C   UNL A   1      40.861  25.976  27.000  1.00  0.00     0.006 A 
ENDBRANCH  26  40
BRANCH  27  48
ATOM     48  C   UNL A   1      39.930  34.353  36.762  1.00  0.00     0.057 A 
ATOM     49  C   UNL A   1      39.058  34.107  37.827  1.00  0.00     0.134 A 
ATOM     50  C   UNL A   1      40.660  35.550  36.796  1.00  0.00     0.134 A 
ATOM     51  F   UNL A   1      38.312  32.993  37.845  1.00  0.00    -0.206 F 
ATOM     52  C   UNL A   1      38.905  35.019  38.875  1.00  0.00     0.040 A 
ATOM     53  C   UNL A   1      40.540  36.456  37.850  1.00  0.00     0.040 A 
ATOM     54  F   UNL A   1      41.514  35.852  35.806  1.00  0.00    -0.206 F 
ATOM     55  C   UNL A   1      39.652  36.196  38.890  1.00  0.00     0.006 A 
ENDBRANCH  27  48
BRANCH  39  56
ATOM     56  C   UNL A   1      43.742  28.637  35.672  1.00  0.00     0.057 A 
ATOM     57  C   UNL A   1      43.354  27.630  36.563  1.00  0.00     0.134 A 
ATOM     58  C   UNL A   1      45.105  28.939  35.574  1.00  0.00     0.134 A 
ATOM     59  F   UNL A   1      42.060  27.312  36.709  1.00  0.00    -0.206 F 
ATOM     60  C   UNL A   1      44.292  26.953  37.342  1.00  0.00     0.040 A 
ATOM     61  C   UNL A   1      46.053  28.253  36.331  1.00  0.00     0.040 A 
ATOM     62  F   UNL A   1      45.533  29.891  34.732  1.00  0.00    -0.206 F 
ATOM     63  C   UNL A   1      45.646  27.261  37.222  1.00  0.00     0.006 A 
ENDBRANCH  39  56
ENDBRANCH  13  14
ENDBRANCH   6   8
ENDBRANCH   5   6
ENDBRANCH   4   5
ENDBRANCH   3   4
ENDBRANCH   2   3
ENDBRANCH   1   2
BRANCH   1  64
ATOM     64  C   UNL A   1      30.916  29.116  24.353  1.00  0.00     0.261 C 
BRANCH  64  65
ATOM     65  O   UNL A   1      30.474  27.750  24.230  1.00  0.00    -0.462 OA
BRANCH  65  66
ATOM     66  C   UNL A   1      30.641  27.208  22.992  1.00  0.00     0.329 C 
ATOM     67  O   UNL A   1      30.488  27.809  21.929  1.00  0.00    -0.250 OA
BRANCH  66  68
ATOM     68  C   UNL A   1      31.078  25.737  23.069  1.00  0.00     0.197 C 
ATOM     69  C   UNL A   1      31.866  25.373  21.812  1.00  0.00     0.070 C 
ATOM     70  N   UNL A   1      32.078  25.528  24.119  1.00  0.00    -0.326 N 
ATOM     71  C   UNL A   1      33.298  25.853  22.114  1.00  0.00     0.136 C 
ATOM     72  C   UNL A   1      33.380  25.971  23.644  1.00  0.00     0.152 C 
BRANCH  70  73
ATOM     73  C   UNL A   1      31.791  24.845  25.276  1.00  0.00     0.229 C 
ATOM     74  O   UNL A   1      30.626  24.663  25.641  1.00  0.00    -0.275 OA
BRANCH  73  75
ATOM     75  C   UNL A   1      32.934  24.323  26.127  1.00  0.00     0.166 C 
BRANCH  75  76
ATOM     76  C   UNL A   1      32.680  22.981  26.865  1.00  0.00     0.201 C 
ATOM     77  C   UNL A   1      33.977  22.319  27.381  1.00  0.00     0.135 C 
ATOM     78  N   UNL A   1      31.755  22.014  26.247  1.00  0.00    -0.342 N 
ATOM     79  S   UNL A   1      34.935  21.452  26.104  1.00  0.00    -0.150 SA
ATOM     80  C   UNL A   1      32.313  21.259  25.122  1.00  0.00     0.271 C 
ATOM     81  H   UNL A   1      30.939  22.525  25.912  1.00  0.00     0.346 HD
ATOM     82  H   UNL A   1      31.533  21.329  26.970  1.00  0.00     0.346 HD
ATOM     83  C   UNL A   1      33.586  20.456  25.408  1.00  0.00     0.131 C 
ENDBRANCH  75  76
ENDBRANCH  73  75
ENDBRANCH  70  73
BRANCH  71  84
ATOM     84  O   UNL A   1      33.542  27.099  21.473  1.00  0.00    -0.391 OA
ATOM     85  H   UNL A   1      33.757  26.946  20.539  1.00  0.00     0.211 HD
ENDBRANCH  71  84
ENDBRANCH  66  68
ENDBRANCH  65  66
ENDBRANCH  64  65
ENDBRANCH   1  64
TORSDOF 18
ENDMDL
