MODEL 1
REMARK VINA RESULT:     -11.9      0.000      0.000
REMARK SMILES C[NH+]1CCC([NH+]2CCC(Oc3ccc4ccccc4c3)(C(=O)OCCOCCOC(=O)c3ccc(-c4c5nc(c(-c6c(F)cccc6F)c6ccc([nH]6)c(-c6c(F)cccc6F)c6nc(c(-c7c(F)cccc7F)c7ccc4[nH]7)C=C6)C=C5)cc3)CC2)CC1
REMARK SMILES IDX 26 1 25 2 24 3 23 4 21 5 22 6 9 7 6 8 7 9 87 10 8 12 86 13
REMARK SMILES IDX 5 14 1 15 2 16 3 17 89 18 4 20 88 21 10 22 11 23 12 24 20 25
REMARK SMILES IDX 13 26 19 27 14 28 18 29 15 30 17 31 16 32 27 33 28 34 29 35
REMARK SMILES IDX 30 36 31 37 32 38 33 39 85 40 34 41 84 42 35 43 36 44 37 45
REMARK SMILES IDX 78 46 38 47 83 48 77 49 79 50 39 51 82 52 76 53 75 54 40 56
REMARK SMILES IDX 66 57 49 58 65 59 50 60 53 61 64 62 80 63 51 64 52 65 63 67
REMARK SMILES IDX 81 68 54 69 41 70 42 71 47 72 43 73 44 74 46 75 48 76 45 77
REMARK SMILES IDX 67 78 68 79 73 80 69 81 70 82 72 83 74 84 71 85 55 86 56 87
REMARK SMILES IDX 61 88 57 89 58 90 60 91 62 92 59 93
REMARK H PARENT 6 11 2 19 79 55 53 66
REMARK Flexibility Score: inf
ROOT
ATOM      1  O   UNL A   1      39.008  22.307  26.088  1.00  0.00    -0.374 OA
ENDROOT
BRANCH   1   2
ATOM      2  C   UNL A   1      38.203  23.482  26.174  1.00  0.00     0.202 C 
BRANCH   2   3
ATOM      3  C   UNL A   1      36.960  23.582  25.281  1.00  0.00     0.261 C 
BRANCH   3   4
ATOM      4  O   UNL A   1      35.734  23.866  25.998  1.00  0.00    -0.460 OA
BRANCH   4   5
ATOM      5  C   UNL A   1      34.719  24.402  25.255  1.00  0.00     0.351 C 
ATOM      6  O   UNL A   1      34.905  25.258  24.391  1.00  0.00    -0.247 OA
BRANCH   5   7
ATOM      7  C   UNL A   1      33.305  23.903  25.650  1.00  0.00     0.216 C 
ATOM      8  N   UNL A   1      32.868  20.998  25.075  1.00  0.00    -0.332 N 
ATOM      9  C   UNL A   1      33.196  21.393  26.444  1.00  0.00     0.267 C 
ATOM     10  C   UNL A   1      33.248  21.962  24.049  1.00  0.00     0.267 C 
ATOM     11  H   UNL A   1      31.849  21.022  25.075  1.00  0.00     0.348 HD
ATOM     12  C   UNL A   1      33.276  22.887  26.802  1.00  0.00     0.122 C 
ATOM     13  C   UNL A   1      32.649  23.329  24.382  1.00  0.00     0.122 C 
BRANCH   8  14
ATOM     14  C   UNL A   1      33.196  19.584  24.728  1.00  0.00     0.195 C 
ATOM     15  C   UNL A   1      34.847  15.615  25.328  1.00  0.00     0.332 C 
ATOM     16  N   UNL A   1      34.416  17.007  25.414  1.00  0.00    -0.337 N 
ATOM     17  C   UNL A   1      32.955  17.129  25.408  1.00  0.00     0.268 C 
ATOM     18  C   UNL A   1      34.994  17.809  24.334  1.00  0.00     0.268 C 
ATOM     19  H   UNL A   1      34.758  17.366  26.306  1.00  0.00     0.347 HD
ATOM     20  C   UNL A   1      32.542  18.576  25.700  1.00  0.00     0.126 C 
ATOM     21  C   UNL A   1      34.701  19.282  24.605  1.00  0.00     0.126 C 
ENDBRANCH   8  14
BRANCH   7  22
ATOM     22  O   UNL A   1      32.776  25.188  26.107  1.00  0.00    -0.475 OA
BRANCH  22  23
ATOM     23  C   UNL A   1      31.772  25.761  25.382  1.00  0.00     0.121 A 
ATOM     24  C   UNL A   1      30.453  25.345  25.529  1.00  0.00     0.047 A 
ATOM     25  C   UNL A   1      32.066  26.882  24.606  1.00  0.00     0.055 A 
ATOM     26  C   UNL A   1      29.432  25.995  24.835  1.00  0.00     0.012 A 
ATOM     27  C   UNL A   1      31.045  27.567  23.923  1.00  0.00    -0.015 A 
ATOM     28  C   UNL A   1      29.712  27.106  24.029  1.00  0.00    -0.018 A 
ATOM     29  C   UNL A   1      31.307  28.710  23.147  1.00  0.00     0.009 A 
ATOM     30  C   UNL A   1      28.687  27.779  23.346  1.00  0.00     0.009 A 
ATOM     31  C   UNL A   1      30.275  29.376  22.484  1.00  0.00     0.001 A 
ATOM     32  C   UNL A   1      28.968  28.908  22.579  1.00  0.00     0.001 A 
ENDBRANCH  22  23
ENDBRANCH   7  22
ENDBRANCH   5   7
ENDBRANCH   4   5
ENDBRANCH   3   4
ENDBRANCH   2   3
ENDBRANCH   1   2
BRANCH   1  33
ATOM     33  C   UNL A   1      38.457  21.182  25.429  1.00  0.00     0.202 C 
BRANCH  33  34
ATOM     34  C   UNL A   1      39.304  19.910  25.363  1.00  0.00     0.261 C 
BRANCH  34  35
ATOM     35  O   UNL A   1      40.261  19.745  26.405  1.00  0.00    -0.460 OA
BRANCH  35  36
ATOM     36  C   UNL A   1      41.550  19.841  26.010  1.00  0.00     0.338 C 
ATOM     37  O   UNL A   1      42.174  19.104  25.272  1.00  0.00    -0.246 OA
BRANCH  36  38
ATOM     38  C   UNL A   1      42.092  21.097  26.538  1.00  0.00     0.060 A 
ATOM     39  C   UNL A   1      42.052  21.291  27.921  1.00  0.00     0.016 A 
ATOM     40  C   UNL A   1      42.559  22.092  25.678  1.00  0.00     0.016 A 
ATOM     41  C   UNL A   1      42.444  22.515  28.451  1.00  0.00     0.010 A 
ATOM     42  C   UNL A   1      42.954  23.321  26.213  1.00  0.00     0.010 A 
ATOM     43  C   UNL A   1      42.863  23.546  27.597  1.00  0.00    -0.014 A 
BRANCH  43  44
ATOM     44  C   UNL A   1      43.071  24.898  28.160  1.00  0.00     0.031 A 
ATOM     45  C   UNL A   1      44.466  25.332  28.513  1.00  0.00     0.074 A 
ATOM     46  C   UNL A   1      42.035  25.742  28.296  1.00  0.00     0.049 A 
ATOM     47  N   UNL A   1      44.884  26.486  28.964  1.00  0.00    -0.248 NA
ATOM     48  C   UNL A   1      45.531  24.333  28.328  1.00  0.00     0.031 C 
ATOM     49  C   UNL A   1      40.645  25.433  27.964  1.00  0.00     0.029 A 
ATOM     50  N   UNL A   1      41.996  27.038  28.742  1.00  0.00    -0.354 N 
ATOM     51  C   UNL A   1      46.259  26.355  29.112  1.00  0.00     0.074 A 
ATOM     52  C   UNL A   1      46.600  25.000  28.738  1.00  0.00     0.031 C 
ATOM     53  C   UNL A   1      39.887  26.513  28.215  1.00  0.00     0.029 A 
ATOM     54  C   UNL A   1      40.735  27.580  28.743  1.00  0.00     0.049 A 
ATOM     55  H   UNL A   1      42.796  27.532  29.036  1.00  0.00     0.167 HD
ATOM     56  C   UNL A   1      47.157  27.287  29.512  1.00  0.00     0.037 A 
ATOM     57  C   UNL A   1      40.317  28.799  29.130  1.00  0.00     0.037 A 
ATOM     58  C   UNL A   1      46.811  28.632  29.885  1.00  0.00     0.049 A 
ATOM     59  C   UNL A   1      41.327  29.799  29.620  1.00  0.00     0.074 A 
ATOM     60  C   UNL A   1      47.646  29.658  30.290  1.00  0.00     0.029 A 
ATOM     61  N   UNL A   1      45.518  29.133  29.906  1.00  0.00    -0.354 N 
ATOM     62  N   UNL A   1      42.630  29.677  29.722  1.00  0.00    -0.248 NA
ATOM     63  C   UNL A   1      40.812  31.109  30.043  1.00  0.00     0.031 C 
ATOM     64  C   UNL A   1      46.853  30.769  30.595  1.00  0.00     0.029 A 
ATOM     65  C   UNL A   1      45.529  30.448  30.339  1.00  0.00     0.049 A 
ATOM     66  H   UNL A   1      44.712  28.630  29.650  1.00  0.00     0.167 HD
ATOM     67  C   UNL A   1      43.092  30.898  30.198  1.00  0.00     0.074 A 
ATOM     68  C   UNL A   1      41.931  31.752  30.352  1.00  0.00     0.031 C 
ATOM     69  C   UNL A   1      44.360  31.280  30.481  1.00  0.00     0.037 A 
BRANCH  56  70
ATOM     70  C   UNL A   1      48.597  26.870  29.579  1.00  0.00     0.057 A 
ATOM     71  C   UNL A   1      49.480  27.090  28.515  1.00  0.00     0.134 A 
ATOM     72  C   UNL A   1      49.109  26.261  30.730  1.00  0.00     0.134 A 
ATOM     73  F   UNL A   1      49.047  27.655  27.377  1.00  0.00    -0.206 F 
ATOM     74  C   UNL A   1      50.818  26.699  28.585  1.00  0.00     0.040 A 
ATOM     75  C   UNL A   1      50.451  25.886  30.822  1.00  0.00     0.040 A 
ATOM     76  F   UNL A   1      48.317  26.023  31.787  1.00  0.00    -0.206 F 
ATOM     77  C   UNL A   1      51.308  26.100  29.744  1.00  0.00     0.006 A 
ENDBRANCH  56  70
BRANCH  57  78
ATOM     78  C   UNL A   1      38.874  29.141  29.069  1.00  0.00     0.057 A 
ATOM     79  C   UNL A   1      38.052  29.037  30.196  1.00  0.00     0.134 A 
ATOM     80  C   UNL A   1      38.283  29.578  27.876  1.00  0.00     0.134 A 
ATOM     81  F   UNL A   1      38.557  28.605  31.361  1.00  0.00    -0.206 F 
ATOM     82  C   UNL A   1      36.691  29.339  30.139  1.00  0.00     0.040 A 
ATOM     83  C   UNL A   1      36.927  29.906  27.810  1.00  0.00     0.040 A 
ATOM     84  F   UNL A   1      39.017  29.702  26.762  1.00  0.00    -0.206 F 
ATOM     85  C   UNL A   1      36.127  29.781  28.943  1.00  0.00     0.006 A 
ENDBRANCH  57  78
BRANCH  69  86
ATOM     86  C   UNL A   1      44.560  32.686  30.963  1.00  0.00     0.057 A 
ATOM     87  C   UNL A   1      44.594  32.999  32.327  1.00  0.00     0.134 A 
ATOM     88  C   UNL A   1      44.761  33.729  30.052  1.00  0.00     0.134 A 
ATOM     89  F   UNL A   1      44.395  32.045  33.249  1.00  0.00    -0.206 F 
ATOM     90  C   UNL A   1      44.799  34.307  32.768  1.00  0.00     0.040 A 
ATOM     91  C   UNL A   1      44.991  35.037  30.481  1.00  0.00     0.040 A 
ATOM     92  F   UNL A   1      44.749  33.493  28.732  1.00  0.00    -0.206 F 
ATOM     93  C   UNL A   1      45.005  35.329  31.843  1.00  0.00     0.006 A 
ENDBRANCH  69  86
ENDBRANCH  43  44
ENDBRANCH  36  38
ENDBRANCH  35  36
ENDBRANCH  34  35
ENDBRANCH  33  34
ENDBRANCH   1  33
TORSDOF 17
ENDMDL
MODEL 2
REMARK VINA RESULT:     -11.8      4.198      9.628
REMARK SMILES C[NH+]1CCC([NH+]2CCC(Oc3ccc4ccccc4c3)(C(=O)OCCOCCOC(=O)c3ccc(-c4c5nc(c(-c6c(F)cccc6F)c6ccc([nH]6)c(-c6c(F)cccc6F)c6nc(c(-c7c(F)cccc7F)c7ccc4[nH]7)C=C6)C=C5)cc3)CC2)CC1
REMARK SMILES IDX 26 1 25 2 24 3 23 4 21 5 22 6 9 7 6 8 7 9 87 10 8 12 86 13
REMARK SMILES IDX 5 14 1 15 2 16 3 17 89 18 4 20 88 21 10 22 11 23 12 24 20 25
REMARK SMILES IDX 13 26 19 27 14 28 18 29 15 30 17 31 16 32 27 33 28 34 29 35
REMARK SMILES IDX 30 36 31 37 32 38 33 39 85 40 34 41 84 42 35 43 36 44 37 45
REMARK SMILES IDX 78 46 38 47 83 48 77 49 79 50 39 51 82 52 76 53 75 54 40 56
REMARK SMILES IDX 66 57 49 58 65 59 50 60 53 61 64 62 80 63 51 64 52 65 63 67
REMARK SMILES IDX 81 68 54 69 41 70 42 71 47 72 43 73 44 74 46 75 48 76 45 77
REMARK SMILES IDX 67 78 68 79 73 80 69 81 70 82 72 83 74 84 71 85 55 86 56 87
REMARK SMILES IDX 61 88 57 89 58 90 60 91 62 92 59 93
REMARK H PARENT 6 11 2 19 79 55 53 66
REMARK Flexibility Score: inf
ROOT
ATOM      1  O   UNL A   1      31.769  30.209  27.297  1.00  0.00    -0.374 OA
ENDROOT
BRANCH   1   2
ATOM      2  C   UNL A   1      32.157  28.923  26.817  1.00  0.00     0.202 C 
BRANCH   2   3
ATOM      3  C   UNL A   1      33.639  28.536  26.883  1.00  0.00     0.261 C 
BRANCH   3   4
ATOM      4  O   UNL A   1      34.076  27.668  25.809  1.00  0.00    -0.460 OA
BRANCH   4   5
ATOM      5  C   UNL A   1      33.354  26.520  25.637  1.00  0.00     0.351 C 
ATOM      6  O   UNL A   1      33.046  25.780  26.570  1.00  0.00    -0.247 OA
BRANCH   5   7
ATOM      7  C   UNL A   1      33.027  26.186  24.158  1.00  0.00     0.216 C 
ATOM      8  N   UNL A   1      30.823  27.861  23.022  1.00  0.00    -0.332 N 
ATOM      9  C   UNL A   1      32.203  28.230  22.714  1.00  0.00     0.267 C 
ATOM     10  C   UNL A   1      30.657  27.031  24.209  1.00  0.00     0.267 C 
ATOM     11  H   UNL A   1      30.580  27.242  22.249  1.00  0.00     0.348 HD
ATOM     12  C   UNL A   1      33.350  27.304  23.156  1.00  0.00     0.122 C 
ATOM     13  C   UNL A   1      31.542  25.789  24.094  1.00  0.00     0.122 C 
BRANCH   8  14
ATOM     14  C   UNL A   1      29.832  28.973  22.918  1.00  0.00     0.195 C 
ATOM     15  C   UNL A   1      28.469  33.052  22.337  1.00  0.00     0.332 C 
ATOM     16  N   UNL A   1      29.217  31.809  22.494  1.00  0.00    -0.337 N 
ATOM     17  C   UNL A   1      28.896  30.841  21.440  1.00  0.00     0.268 C 
ATOM     18  C   UNL A   1      28.986  31.215  23.812  1.00  0.00     0.268 C 
ATOM     19  H   UNL A   1      30.206  32.048  22.411  1.00  0.00     0.347 HD
ATOM     20  C   UNL A   1      29.840  29.637  21.522  1.00  0.00     0.126 C 
ATOM     21  C   UNL A   1      29.961  30.056  24.005  1.00  0.00     0.126 C 
ENDBRANCH   8  14
BRANCH   7  22
ATOM     22  O   UNL A   1      33.981  25.087  24.003  1.00  0.00    -0.475 OA
BRANCH  22  23
ATOM     23  C   UNL A   1      33.483  23.833  23.796  1.00  0.00     0.121 A 
ATOM     24  C   UNL A   1      32.985  23.454  22.555  1.00  0.00     0.047 A 
ATOM     25  C   UNL A   1      33.629  22.884  24.808  1.00  0.00     0.055 A 
ATOM     26  C   UNL A   1      32.552  22.144  22.344  1.00  0.00     0.012 A 
ATOM     27  C   UNL A   1      33.224  21.552  24.603  1.00  0.00    -0.015 A 
ATOM     28  C   UNL A   1      32.665  21.184  23.358  1.00  0.00    -0.018 A 
ATOM     29  C   UNL A   1      33.374  20.570  25.597  1.00  0.00     0.009 A 
ATOM     30  C   UNL A   1      32.253  19.859  23.146  1.00  0.00     0.009 A 
ATOM     31  C   UNL A   1      32.971  19.253  25.367  1.00  0.00     0.001 A 
ATOM     32  C   UNL A   1      32.406  18.899  24.145  1.00  0.00     0.001 A 
ENDBRANCH  22  23
ENDBRANCH   7  22
ENDBRANCH   5   7
ENDBRANCH   4   5
ENDBRANCH   3   4
ENDBRANCH   2   3
ENDBRANCH   1   2
BRANCH   1  33
ATOM     33  C   UNL A   1      31.956  31.315  26.432  1.00  0.00     0.202 C 
BRANCH  33  34
ATOM     34  C   UNL A   1      31.732  32.714  27.008  1.00  0.00     0.261 C 
BRANCH  34  35
ATOM     35  O   UNL A   1      32.864  33.578  27.000  1.00  0.00    -0.460 OA
BRANCH  35  36
ATOM     36  C   UNL A   1      33.282  33.975  28.223  1.00  0.00     0.338 C 
ATOM     37  O   UNL A   1      32.728  34.719  29.009  1.00  0.00    -0.246 OA
BRANCH  36  38
ATOM     38  C   UNL A   1      34.518  33.252  28.536  1.00  0.00     0.060 A 
ATOM     39  C   UNL A   1      34.400  31.950  29.031  1.00  0.00     0.016 A 
ATOM     40  C   UNL A   1      35.761  33.874  28.416  1.00  0.00     0.016 A 
ATOM     41  C   UNL A   1      35.539  31.274  29.453  1.00  0.00     0.010 A 
ATOM     42  C   UNL A   1      36.904  33.192  28.840  1.00  0.00     0.010 A 
ATOM     43  C   UNL A   1      36.791  31.905  29.392  1.00  0.00    -0.014 A 
BRANCH  43  44
ATOM     44  C   UNL A   1      37.951  31.253  30.039  1.00  0.00     0.031 A 
ATOM     45  C   UNL A   1      38.243  31.553  31.483  1.00  0.00     0.074 A 
ATOM     46  C   UNL A   1      38.692  30.362  29.360  1.00  0.00     0.049 A 
ATOM     47  N   UNL A   1      39.168  31.054  32.261  1.00  0.00    -0.248 NA
ATOM     48  C   UNL A   1      37.372  32.544  32.136  1.00  0.00     0.031 C 
ATOM     49  C   UNL A   1      38.484  29.980  27.964  1.00  0.00     0.029 A 
ATOM     50  N   UNL A   1      39.767  29.611  29.761  1.00  0.00    -0.354 N 
ATOM     51  C   UNL A   1      38.989  31.665  33.496  1.00  0.00     0.074 A 
ATOM     52  C   UNL A   1      37.891  32.597  33.354  1.00  0.00     0.031 C 
ATOM     53  C   UNL A   1      39.402  29.059  27.624  1.00  0.00     0.029 A 
ATOM     54  C   UNL A   1      40.271  28.805  28.770  1.00  0.00     0.049 A 
ATOM     55  H   UNL A   1      40.142  29.646  30.670  1.00  0.00     0.167 HD
ATOM     56  C   UNL A   1      39.671  31.456  34.646  1.00  0.00     0.037 A 
ATOM     57  C   UNL A   1      41.320  27.960  28.791  1.00  0.00     0.037 A 
ATOM     58  C   UNL A   1      40.763  30.530  34.779  1.00  0.00     0.049 A 
ATOM     59  C   UNL A   1      42.094  27.785  30.068  1.00  0.00     0.074 A 
ATOM     60  C   UNL A   1      41.512  30.233  35.905  1.00  0.00     0.029 A 
ATOM     61  N   UNL A   1      41.268  29.757  33.744  1.00  0.00    -0.354 N 
ATOM     62  N   UNL A   1      41.894  28.340  31.240  1.00  0.00    -0.248 NA
ATOM     63  C   UNL A   1      43.237  26.862  30.028  1.00  0.00     0.031 C 
ATOM     64  C   UNL A   1      42.496  29.309  35.540  1.00  0.00     0.029 A 
ATOM     65  C   UNL A   1      42.334  28.999  34.199  1.00  0.00     0.049 A 
ATOM     66  H   UNL A   1      40.920  29.748  32.824  1.00  0.00     0.167 HD
ATOM     67  C   UNL A   1      42.868  27.818  32.081  1.00  0.00     0.074 A 
ATOM     68  C   UNL A   1      43.651  26.892  31.289  1.00  0.00     0.031 C 
ATOM     69  C   UNL A   1      43.096  28.080  33.391  1.00  0.00     0.037 A 
BRANCH  56  70
ATOM     70  C   UNL A   1      39.260  32.260  35.844  1.00  0.00     0.057 A 
ATOM     71  C   UNL A   1      39.783  33.535  36.092  1.00  0.00     0.134 A 
ATOM     72  C   UNL A   1      38.316  31.761  36.749  1.00  0.00     0.134 A 
ATOM     73  F   UNL A   1      40.704  34.065  35.272  1.00  0.00    -0.206 F 
ATOM     74  C   UNL A   1      39.397  34.278  37.210  1.00  0.00     0.040 A 
ATOM     75  C   UNL A   1      37.904  32.503  37.858  1.00  0.00     0.040 A 
ATOM     76  F   UNL A   1      37.775  30.546  36.569  1.00  0.00    -0.206 F 
ATOM     77  C   UNL A   1      38.450  33.763  38.094  1.00  0.00     0.006 A 
ENDBRANCH  56  70
BRANCH  57  78
ATOM     78  C   UNL A   1      41.696  27.216  27.564  1.00  0.00     0.057 A 
ATOM     79  C   UNL A   1      42.523  27.786  26.591  1.00  0.00     0.134 A 
ATOM     80  C   UNL A   1      41.230  25.915  27.334  1.00  0.00     0.134 A 
ATOM     81  F   UNL A   1      42.983  29.036  26.746  1.00  0.00    -0.206 F 
ATOM     82  C   UNL A   1      42.865  27.098  25.426  1.00  0.00     0.040 A 
ATOM     83  C   UNL A   1      41.582  25.206  26.184  1.00  0.00     0.040 A 
ATOM     84  F   UNL A   1      40.435  25.311  28.229  1.00  0.00    -0.206 F 
ATOM     85  C   UNL A   1      42.397  25.801  25.223  1.00  0.00     0.006 A 
ENDBRANCH  57  78
BRANCH  69  86
ATOM     86  C   UNL A   1      44.219  27.338  34.052  1.00  0.00     0.057 A 
ATOM     87  C   UNL A   1      44.032  26.074  34.623  1.00  0.00     0.134 A 
ATOM     88  C   UNL A   1      45.510  27.879  34.081  1.00  0.00     0.134 A 
ATOM     89  F   UNL A   1      42.815  25.508  34.638  1.00  0.00    -0.206 F 
ATOM     90  C   UNL A   1      45.086  25.382  35.219  1.00  0.00     0.040 A 
ATOM     91  C   UNL A   1      46.578  27.187  34.654  1.00  0.00     0.040 A 
ATOM     92  F   UNL A   1      45.757  29.083  33.543  1.00  0.00    -0.206 F 
ATOM     93  C   UNL A   1      46.365  25.936  35.230  1.00  0.00     0.006 A 
ENDBRANCH  69  86
ENDBRANCH  43  44
ENDBRANCH  36  38
ENDBRANCH  35  36
ENDBRANCH  34  35
ENDBRANCH  33  34
ENDBRANCH   1  33
TORSDOF 17
ENDMDL
MODEL 3
REMARK VINA RESULT:     -11.5      0.790      5.991
REMARK SMILES C[NH+]1CCC([NH+]2CCC(Oc3ccc4ccccc4c3)(C(=O)OCCOCCOC(=O)c3ccc(-c4c5nc(c(-c6c(F)cccc6F)c6ccc([nH]6)c(-c6c(F)cccc6F)c6nc(c(-c7c(F)cccc7F)c7ccc4[nH]7)C=C6)C=C5)cc3)CC2)CC1
REMARK SMILES IDX 26 1 25 2 24 3 23 4 21 5 22 6 9 7 6 8 7 9 87 10 8 12 86 13
REMARK SMILES IDX 5 14 1 15 2 16 3 17 89 18 4 20 88 21 10 22 11 23 12 24 20 25
REMARK SMILES IDX 13 26 19 27 14 28 18 29 15 30 17 31 16 32 27 33 28 34 29 35
REMARK SMILES IDX 30 36 31 37 32 38 33 39 85 40 34 41 84 42 35 43 36 44 37 45
REMARK SMILES IDX 78 46 38 47 83 48 77 49 79 50 39 51 82 52 76 53 75 54 40 56
REMARK SMILES IDX 66 57 49 58 65 59 50 60 53 61 64 62 80 63 51 64 52 65 63 67
REMARK SMILES IDX 81 68 54 69 41 70 42 71 47 72 43 73 44 74 46 75 48 76 45 77
REMARK SMILES IDX 67 78 68 79 73 80 69 81 70 82 72 83 74 84 71 85 55 86 56 87
REMARK SMILES IDX 61 88 57 89 58 90 60 91 62 92 59 93
REMARK H PARENT 6 11 2 19 79 55 53 66
REMARK Flexibility Score: inf
ROOT
ATOM      1  O   UNL A   1      38.735  22.469  25.734  1.00  0.00    -0.374 OA
ENDROOT
BRANCH   1   2
ATOM      2  C   UNL A   1      37.815  23.518  26.031  1.00  0.00     0.202 C 
BRANCH   2   3
ATOM      3  C   UNL A   1      36.618  23.726  25.094  1.00  0.00     0.261 C 
BRANCH   3   4
ATOM      4  O   UNL A   1      35.511  24.442  25.693  1.00  0.00    -0.460 OA
BRANCH   4   5
ATOM      5  C   UNL A   1      34.431  24.658  24.882  1.00  0.00     0.351 C 
ATOM      6  O   UNL A   1      34.501  25.305  23.838  1.00  0.00    -0.247 OA
BRANCH   5   7
ATOM      7  C   UNL A   1      33.096  24.092  25.431  1.00  0.00     0.216 C 
ATOM      8  N   UNL A   1      32.774  21.152  24.971  1.00  0.00    -0.332 N 
ATOM      9  C   UNL A   1      33.214  21.604  26.289  1.00  0.00     0.267 C 
ATOM     10  C   UNL A   1      32.992  22.106  23.889  1.00  0.00     0.267 C 
ATOM     11  H   UNL A   1      31.760  21.120  25.074  1.00  0.00     0.348 HD
ATOM     12  C   UNL A   1      33.242  23.110  26.603  1.00  0.00     0.122 C 
ATOM     13  C   UNL A   1      32.350  23.446  24.250  1.00  0.00     0.122 C 
BRANCH   8  14
ATOM     14  C   UNL A   1      33.148  19.749  24.625  1.00  0.00     0.195 C 
ATOM     15  C   UNL A   1      34.804  15.791  25.280  1.00  0.00     0.332 C 
ATOM     16  N   UNL A   1      34.348  17.176  25.357  1.00  0.00    -0.337 N 
ATOM     17  C   UNL A   1      32.890  17.279  25.241  1.00  0.00     0.268 C 
ATOM     18  C   UNL A   1      34.996  18.005  24.339  1.00  0.00     0.268 C 
ATOM     19  H   UNL A   1      34.615  17.522  26.279  1.00  0.00     0.347 HD
ATOM     20  C   UNL A   1      32.436  18.714  25.526  1.00  0.00     0.126 C 
ATOM     21  C   UNL A   1      34.662  19.469  24.613  1.00  0.00     0.126 C 
ENDBRANCH   8  14
BRANCH   7  22
ATOM     22  O   UNL A   1      32.541  25.359  25.909  1.00  0.00    -0.475 OA
BRANCH  22  23
ATOM     23  C   UNL A   1      31.537  25.932  25.183  1.00  0.00     0.121 A 
ATOM     24  C   UNL A   1      30.253  25.402  25.192  1.00  0.00     0.047 A 
ATOM     25  C   UNL A   1      31.783  27.155  24.558  1.00  0.00     0.055 A 
ATOM     26  C   UNL A   1      29.223  26.047  24.505  1.00  0.00     0.012 A 
ATOM     27  C   UNL A   1      30.750  27.833  23.885  1.00  0.00    -0.015 A 
ATOM     28  C   UNL A   1      29.457  27.261  23.847  1.00  0.00    -0.018 A 
ATOM     29  C   UNL A   1      30.961  29.074  23.260  1.00  0.00     0.009 A 
ATOM     30  C   UNL A   1      28.422  27.928  23.173  1.00  0.00     0.009 A 
ATOM     31  C   UNL A   1      29.918  29.731  22.604  1.00  0.00     0.001 A 
ATOM     32  C   UNL A   1      28.651  29.156  22.556  1.00  0.00     0.001 A 
ENDBRANCH  22  23
ENDBRANCH   7  22
ENDBRANCH   5   7
ENDBRANCH   4   5
ENDBRANCH   3   4
ENDBRANCH   2   3
ENDBRANCH   1   2
BRANCH   1  33
ATOM     33  C   UNL A   1      38.199  21.198  25.415  1.00  0.00     0.202 C 
BRANCH  33  34
ATOM     34  C   UNL A   1      39.158  20.006  25.391  1.00  0.00     0.261 C 
BRANCH  34  35
ATOM     35  O   UNL A   1      40.002  19.865  26.529  1.00  0.00    -0.460 OA
BRANCH  35  36
ATOM     36  C   UNL A   1      41.310  19.675  26.245  1.00  0.00     0.338 C 
ATOM     37  O   UNL A   1      41.840  18.714  25.722  1.00  0.00    -0.246 OA
BRANCH  36  38
ATOM     38  C   UNL A   1      42.028  20.911  26.570  1.00  0.00     0.060 A 
ATOM     39  C   UNL A   1      42.162  21.248  27.919  1.00  0.00     0.016 A 
ATOM     40  C   UNL A   1      42.490  21.757  25.561  1.00  0.00     0.016 A 
ATOM     41  C   UNL A   1      42.729  22.469  28.266  1.00  0.00     0.010 A 
ATOM     42  C   UNL A   1      43.060  22.983  25.911  1.00  0.00     0.010 A 
ATOM     43  C   UNL A   1      43.148  23.357  27.263  1.00  0.00    -0.014 A 
BRANCH  43  44
ATOM     44  C   UNL A   1      43.548  24.728  27.646  1.00  0.00     0.031 A 
ATOM     45  C   UNL A   1      42.480  25.740  27.953  1.00  0.00     0.074 A 
ATOM     46  C   UNL A   1      44.848  25.043  27.774  1.00  0.00     0.049 A 
ATOM     47  N   UNL A   1      42.604  26.976  28.360  1.00  0.00    -0.248 NA
ATOM     48  C   UNL A   1      41.087  25.296  27.782  1.00  0.00     0.031 C 
ATOM     49  C   UNL A   1      45.965  24.134  27.523  1.00  0.00     0.029 A 
ATOM     50  N   UNL A   1      45.445  26.216  28.156  1.00  0.00    -0.354 N 
ATOM     51  C   UNL A   1      41.307  27.456  28.500  1.00  0.00     0.074 A 
ATOM     52  C   UNL A   1      40.414  26.391  28.099  1.00  0.00     0.031 C 
ATOM     53  C   UNL A   1      47.117  24.784  27.763  1.00  0.00     0.029 A 
ATOM     54  C   UNL A   1      46.817  26.156  28.163  1.00  0.00     0.049 A 
ATOM     55  H   UNL A   1      44.940  27.025  28.402  1.00  0.00     0.167 HD
ATOM     56  C   UNL A   1      40.901  28.672  28.936  1.00  0.00     0.037 A 
ATOM     57  C   UNL A   1      47.723  27.107  28.457  1.00  0.00     0.037 A 
ATOM     58  C   UNL A   1      41.795  29.727  29.331  1.00  0.00     0.049 A 
ATOM     59  C   UNL A   1      47.247  28.466  28.889  1.00  0.00     0.074 A 
ATOM     60  C   UNL A   1      41.486  30.991  29.801  1.00  0.00     0.029 A 
ATOM     61  N   UNL A   1      43.179  29.640  29.291  1.00  0.00    -0.354 N 
ATOM     62  N   UNL A   1      46.019  28.899  29.052  1.00  0.00    -0.248 NA
ATOM     63  C   UNL A   1      48.281  29.469  29.183  1.00  0.00     0.031 C 
ATOM     64  C   UNL A   1      42.684  31.684  30.008  1.00  0.00     0.029 A 
ATOM     65  C   UNL A   1      43.739  30.837  29.706  1.00  0.00     0.049 A 
ATOM     66  H   UNL A   1      43.687  28.847  29.009  1.00  0.00     0.167 HD
ATOM     67  C   UNL A   1      46.132  30.213  29.489  1.00  0.00     0.074 A 
ATOM     68  C   UNL A   1      47.549  30.502  29.579  1.00  0.00     0.031 C 
ATOM     69  C   UNL A   1      45.153  31.100  29.790  1.00  0.00     0.037 A 
BRANCH  56  70
ATOM     70  C   UNL A   1      39.423  28.924  28.990  1.00  0.00     0.057 A 
ATOM     71  C   UNL A   1      38.686  28.745  30.167  1.00  0.00     0.134 A 
ATOM     72  C   UNL A   1      38.734  29.373  27.858  1.00  0.00     0.134 A 
ATOM     73  F   UNL A   1      39.284  28.301  31.284  1.00  0.00    -0.206 F 
ATOM     74  C   UNL A   1      37.311  28.981  30.210  1.00  0.00     0.040 A 
ATOM     75  C   UNL A   1      37.364  29.635  27.893  1.00  0.00     0.040 A 
ATOM     76  F   UNL A   1      39.381  29.567  26.698  1.00  0.00    -0.206 F 
ATOM     77  C   UNL A   1      36.647  29.433  29.071  1.00  0.00     0.006 A 
ENDBRANCH  56  70
BRANCH  57  78
ATOM     78  C   UNL A   1      49.173  26.805  28.355  1.00  0.00     0.057 A 
ATOM     79  C   UNL A   1      49.901  26.346  29.457  1.00  0.00     0.134 A 
ATOM     80  C   UNL A   1      49.865  26.974  27.148  1.00  0.00     0.134 A 
ATOM     81  F   UNL A   1      49.297  26.185  30.643  1.00  0.00    -0.206 F 
ATOM     82  C   UNL A   1      51.268  26.079  29.371  1.00  0.00     0.040 A 
ATOM     83  C   UNL A   1      51.227  26.688  27.041  1.00  0.00     0.040 A 
ATOM     84  F   UNL A   1      49.224  27.409  26.054  1.00  0.00    -0.206 F 
ATOM     85  C   UNL A   1      51.933  26.245  28.157  1.00  0.00     0.006 A 
ENDBRANCH  57  78
BRANCH  69  86
ATOM     86  C   UNL A   1      45.582  32.456  30.266  1.00  0.00     0.057 A 
ATOM     87  C   UNL A   1      45.696  33.542  29.390  1.00  0.00     0.134 A 
ATOM     88  C   UNL A   1      45.844  32.686  31.622  1.00  0.00     0.134 A 
ATOM     89  F   UNL A   1      45.470  33.383  28.076  1.00  0.00    -0.206 F 
ATOM     90  C   UNL A   1      46.077  34.805  29.842  1.00  0.00     0.040 A 
ATOM     91  C   UNL A   1      46.203  33.950  32.091  1.00  0.00     0.040 A 
ATOM     92  F   UNL A   1      45.744  31.689  32.514  1.00  0.00    -0.206 F 
ATOM     93  C   UNL A   1      46.326  35.013  31.198  1.00  0.00     0.006 A 
ENDBRANCH  69  86
ENDBRANCH  43  44
ENDBRANCH  36  38
ENDBRANCH  35  36
ENDBRANCH  34  35
ENDBRANCH  33  34
ENDBRANCH   1  33
TORSDOF 17
ENDMDL
