MODEL 1
REMARK VINA RESULT:     -10.6      0.000      0.000
REMARK SMILES C[C@H]1[NH2+]CC[C@H]1C(=O)N1CC(C(=O)OCCOCCOC(=O)c2ccc(-c3c4nc(c(-c5c(F)cccc5F)c5ccc([nH]5)c(-c5c(F)cccc5F)c5nc(c(-c6c(F)cccc6F)c6ccc3[nH]6)C=C5)C=C4)cc2)C1
REMARK SMILES IDX 18 1 17 2 16 3 15 4 14 5 12 6 13 7 11 8 7 9 8 10 9 11 10 12
REMARK SMILES IDX 77 13 6 14 1 15 2 16 3 17 4 18 5 21 19 22 20 23 21 24 22 25
REMARK SMILES IDX 23 26 24 27 76 28 25 29 75 30 26 31 27 32 28 33 69 34 29 35
REMARK SMILES IDX 74 36 68 37 70 38 30 39 73 40 67 41 66 42 31 44 57 45 40 46
REMARK SMILES IDX 56 47 41 48 44 49 55 50 71 51 42 52 43 53 54 55 72 56 45 57
REMARK SMILES IDX 32 58 33 59 38 60 34 61 35 62 37 63 39 64 36 65 58 66 59 67
REMARK SMILES IDX 64 68 60 69 61 70 63 71 65 72 62 73 46 74 47 75 52 76 48 77
REMARK SMILES IDX 49 78 51 79 53 80 50 81
REMARK H PARENT 3 19 3 20 70 43 44 54
REMARK Flexibility Score: inf
ROOT
ATOM      1  C   UNL A   1      42.774  21.165  25.872  1.00  0.00     0.202 C 
ENDROOT
BRANCH   1   2
ATOM      2  O   UNL A   1      42.269  21.528  27.157  1.00  0.00    -0.374 OA
BRANCH   2   3
ATOM      3  C   UNL A   1      40.852  21.668  27.286  1.00  0.00     0.202 C 
BRANCH   3   4
ATOM      4  C   UNL A   1      40.071  21.600  25.970  1.00  0.00     0.261 C 
BRANCH   4   5
ATOM      5  O   UNL A   1      38.677  21.852  26.223  1.00  0.00    -0.463 OA
BRANCH   5   6
ATOM      6  C   UNL A   1      37.784  21.379  25.304  1.00  0.00     0.312 C 
ATOM      7  O   UNL A   1      37.817  20.231  24.863  1.00  0.00    -0.252 OA
BRANCH   6   8
ATOM      8  C   UNL A   1      36.711  22.416  24.939  1.00  0.00     0.138 C 
ATOM      9  C   UNL A   1      34.081  24.129  24.934  1.00  0.00     0.231 C 
ATOM     10  O   UNL A   1      34.493  24.782  23.979  1.00  0.00    -0.274 OA
ATOM     11  N   UNL A   1      34.802  23.088  25.488  1.00  0.00    -0.340 N 
ATOM     12  C   UNL A   1      36.149  23.277  26.065  1.00  0.00     0.136 C 
ATOM     13  C   UNL A   1      35.279  21.962  24.670  1.00  0.00     0.136 C 
BRANCH   9  14
ATOM     14  C   UNL A   1      32.692  24.328  25.517  1.00  0.00     0.142 C 
ATOM     15  C   UNL A   1      31.674  22.936  23.572  1.00  0.00     0.076 C 
ATOM     16  C   UNL A   1      31.546  24.124  24.526  1.00  0.00     0.192 C 
ATOM     17  N   UNL A   1      30.360  23.955  25.385  1.00  0.00    -0.343 N 
ATOM     18  C   UNL A   1      30.795  23.469  26.696  1.00  0.00     0.261 C 
ATOM     19  H   UNL A   1      29.724  23.281  24.963  1.00  0.00     0.346 HD
ATOM     20  H   UNL A   1      29.878  24.848  25.490  1.00  0.00     0.346 HD
ATOM     21  C   UNL A   1      32.312  23.426  26.681  1.00  0.00     0.081 C 
ENDBRANCH   9  14
ENDBRANCH   6   8
ENDBRANCH   5   6
ENDBRANCH   4   5
ENDBRANCH   3   4
ENDBRANCH   2   3
ENDBRANCH   1   2
BRANCH   1  22
ATOM     22  C   UNL A   1      43.938  22.014  25.347  1.00  0.00     0.261 C 
BRANCH  22  23
ATOM     23  O   UNL A   1      43.480  23.217  24.702  1.00  0.00    -0.460 OA
BRANCH  23  24
ATOM     24  C   UNL A   1      44.172  24.330  25.038  1.00  0.00     0.338 C 
ATOM     25  O   UNL A   1      45.296  24.643  24.664  1.00  0.00    -0.246 OA
BRANCH  24  26
ATOM     26  C   UNL A   1      43.337  25.250  25.831  1.00  0.00     0.060 A 
ATOM     27  C   UNL A   1      43.902  26.482  26.182  1.00  0.00     0.016 A 
ATOM     28  C   UNL A   1      42.080  24.882  26.321  1.00  0.00     0.016 A 
ATOM     29  C   UNL A   1      43.253  27.316  27.087  1.00  0.00     0.010 A 
ATOM     30  C   UNL A   1      41.431  25.721  27.237  1.00  0.00     0.010 A 
ATOM     31  C   UNL A   1      42.040  26.915  27.661  1.00  0.00    -0.014 A 
BRANCH  31  32
ATOM     32  C   UNL A   1      41.532  27.655  28.844  1.00  0.00     0.031 A 
ATOM     33  C   UNL A   1      42.270  27.525  30.152  1.00  0.00     0.074 A 
ATOM     34  C   UNL A   1      40.482  28.488  28.745  1.00  0.00     0.049 A 
ATOM     35  N   UNL A   1      42.037  28.107  31.300  1.00  0.00    -0.248 NA
ATOM     36  C   UNL A   1      43.428  26.615  30.162  1.00  0.00     0.031 C 
ATOM     37  C   UNL A   1      39.708  28.733  27.531  1.00  0.00     0.029 A 
ATOM     38  N   UNL A   1      39.894  29.291  29.690  1.00  0.00    -0.354 N 
ATOM     39  C   UNL A   1      43.017  27.637  32.166  1.00  0.00     0.074 A 
ATOM     40  C   UNL A   1      43.824  26.695  31.424  1.00  0.00     0.031 C 
ATOM     41  C   UNL A   1      38.742  29.629  27.805  1.00  0.00     0.029 A 
ATOM     42  C   UNL A   1      38.823  30.007  29.215  1.00  0.00     0.049 A 
ATOM     43  H   UNL A   1      40.209  29.348  30.621  1.00  0.00     0.167 HD
ATOM     44  C   UNL A   1      43.236  27.970  33.461  1.00  0.00     0.037 A 
ATOM     45  C   UNL A   1      38.002  30.866  29.848  1.00  0.00     0.037 A 
ATOM     46  C   UNL A   1      42.439  28.908  34.205  1.00  0.00     0.049 A 
ATOM     47  C   UNL A   1      38.239  31.186  31.300  1.00  0.00     0.074 A 
ATOM     48  C   UNL A   1      42.579  29.308  35.523  1.00  0.00     0.029 A 
ATOM     49  N   UNL A   1      41.351  29.598  33.691  1.00  0.00    -0.354 N 
ATOM     50  N   UNL A   1      39.177  30.748  32.103  1.00  0.00    -0.248 NA
ATOM     51  C   UNL A   1      37.307  32.135  31.929  1.00  0.00     0.031 C 
ATOM     52  C   UNL A   1      41.554  30.214  35.817  1.00  0.00     0.029 A 
ATOM     53  C   UNL A   1      40.804  30.412  34.668  1.00  0.00     0.049 A 
ATOM     54  H   UNL A   1      41.017  29.519  32.769  1.00  0.00     0.167 HD
ATOM     55  C   UNL A   1      38.972  31.393  33.318  1.00  0.00     0.074 A 
ATOM     56  C   UNL A   1      37.824  32.258  33.144  1.00  0.00     0.031 C 
ATOM     57  C   UNL A   1      39.673  31.281  34.473  1.00  0.00     0.037 A 
BRANCH  44  58
ATOM     58  C   UNL A   1      44.381  27.295  34.158  1.00  0.00     0.057 A 
ATOM     59  C   UNL A   1      44.228  26.063  34.805  1.00  0.00     0.134 A 
ATOM     60  C   UNL A   1      45.653  27.879  34.168  1.00  0.00     0.134 A 
ATOM     61  F   UNL A   1      43.029  25.461  34.846  1.00  0.00    -0.206 F 
ATOM     62  C   UNL A   1      45.295  25.444  35.457  1.00  0.00     0.040 A 
ATOM     63  C   UNL A   1      46.735  27.259  34.797  1.00  0.00     0.040 A 
ATOM     64  F   UNL A   1      45.867  29.059  33.566  1.00  0.00    -0.206 F 
ATOM     65  C   UNL A   1      46.555  26.040  35.449  1.00  0.00     0.006 A 
ENDBRANCH  44  58
BRANCH  45  66
ATOM     66  C   UNL A   1      36.879  31.501  29.114  1.00  0.00     0.057 A 
ATOM     67  C   UNL A   1      36.962  32.823  28.663  1.00  0.00     0.134 A 
ATOM     68  C   UNL A   1      35.685  30.810  28.875  1.00  0.00     0.134 A 
ATOM     69  F   UNL A   1      38.072  33.543  28.884  1.00  0.00    -0.206 F 
ATOM     70  C   UNL A   1      35.890  33.444  28.018  1.00  0.00     0.040 A 
ATOM     71  C   UNL A   1      34.615  31.410  28.211  1.00  0.00     0.040 A 
ATOM     72  F   UNL A   1      35.545  29.540  29.282  1.00  0.00    -0.206 F 
ATOM     73  C   UNL A   1      34.712  32.734  27.788  1.00  0.00     0.006 A 
ENDBRANCH  45  66
BRANCH  57  74
ATOM     74  C   UNL A   1      39.252  32.155  35.618  1.00  0.00     0.057 A 
ATOM     75  C   UNL A   1      38.374  31.706  36.612  1.00  0.00     0.134 A 
ATOM     76  C   UNL A   1      39.754  33.457  35.738  1.00  0.00     0.134 A 
ATOM     77  F   UNL A   1      37.850  30.473  36.550  1.00  0.00    -0.206 F 
ATOM     78  C   UNL A   1      37.987  32.532  37.670  1.00  0.00     0.040 A 
ATOM     79  C   UNL A   1      39.394  34.283  36.803  1.00  0.00     0.040 A 
ATOM     80  F   UNL A   1      40.606  33.946  34.824  1.00  0.00    -0.206 F 
ATOM     81  C   UNL A   1      38.502  33.824  37.769  1.00  0.00     0.006 A 
ENDBRANCH  57  74
ENDBRANCH  31  32
ENDBRANCH  24  26
ENDBRANCH  23  24
ENDBRANCH  22  23
ENDBRANCH   1  22
TORSDOF 15
ENDMDL
MODEL 2
REMARK VINA RESULT:     -10.5      2.773      8.302
REMARK SMILES C[C@H]1[NH2+]CC[C@H]1C(=O)N1CC(C(=O)OCCOCCOC(=O)c2ccc(-c3c4nc(c(-c5c(F)cccc5F)c5ccc([nH]5)c(-c5c(F)cccc5F)c5nc(c(-c6c(F)cccc6F)c6ccc3[nH]6)C=C5)C=C4)cc2)C1
REMARK SMILES IDX 18 1 17 2 16 3 15 4 14 5 12 6 13 7 11 8 7 9 8 10 9 11 10 12
REMARK SMILES IDX 77 13 6 14 1 15 2 16 3 17 4 18 5 21 19 22 20 23 21 24 22 25
REMARK SMILES IDX 23 26 24 27 76 28 25 29 75 30 26 31 27 32 28 33 69 34 29 35
REMARK SMILES IDX 74 36 68 37 70 38 30 39 73 40 67 41 66 42 31 44 57 45 40 46
REMARK SMILES IDX 56 47 41 48 44 49 55 50 71 51 42 52 43 53 54 55 72 56 45 57
REMARK SMILES IDX 32 58 33 59 38 60 34 61 35 62 37 63 39 64 36 65 58 66 59 67
REMARK SMILES IDX 64 68 60 69 61 70 63 71 65 72 62 73 46 74 47 75 52 76 48 77
REMARK SMILES IDX 49 78 51 79 53 80 50 81
REMARK H PARENT 3 19 3 20 70 43 44 54
REMARK Flexibility Score: inf
ROOT
ATOM      1  C   UNL A   1      31.559  31.245  26.114  1.00  0.00     0.202 C 
ENDROOT
BRANCH   1   2
ATOM      2  O   UNL A   1      32.330  30.099  26.473  1.00  0.00    -0.374 OA
BRANCH   2   3
ATOM      3  C   UNL A   1      31.920  28.841  25.932  1.00  0.00     0.202 C 
BRANCH   3   4
ATOM      4  C   UNL A   1      31.013  28.928  24.700  1.00  0.00     0.261 C 
BRANCH   4   5
ATOM      5  O   UNL A   1      31.789  28.685  23.513  1.00  0.00    -0.463 OA
BRANCH   5   6
ATOM      6  C   UNL A   1      31.335  27.715  22.665  1.00  0.00     0.312 C 
ATOM      7  O   UNL A   1      30.333  27.848  21.965  1.00  0.00    -0.252 OA
BRANCH   6   8
ATOM      8  C   UNL A   1      32.250  26.480  22.642  1.00  0.00     0.138 C 
ATOM      9  C   UNL A   1      34.362  24.303  23.448  1.00  0.00     0.231 C 
ATOM     10  O   UNL A   1      34.164  23.703  22.394  1.00  0.00    -0.274 OA
ATOM     11  N   UNL A   1      33.713  25.482  23.764  1.00  0.00    -0.340 N 
ATOM     12  C   UNL A   1      32.242  25.573  23.867  1.00  0.00     0.136 C 
ATOM     13  C   UNL A   1      33.752  26.645  22.864  1.00  0.00     0.136 C 
BRANCH   9  14
ATOM     14  C   UNL A   1      35.422  23.868  24.445  1.00  0.00     0.142 C 
ATOM     15  C   UNL A   1      33.574  22.886  25.985  1.00  0.00     0.076 C 
ATOM     16  C   UNL A   1      34.907  23.625  25.863  1.00  0.00     0.192 C 
ATOM     17  N   UNL A   1      35.979  22.839  26.501  1.00  0.00    -0.343 N 
ATOM     18  C   UNL A   1      36.733  22.140  25.458  1.00  0.00     0.261 C 
ATOM     19  H   UNL A   1      35.572  22.161  27.143  1.00  0.00     0.346 HD
ATOM     20  H   UNL A   1      36.600  23.459  27.021  1.00  0.00     0.346 HD
ATOM     21  C   UNL A   1      36.170  22.584  24.120  1.00  0.00     0.081 C 
ENDBRANCH   9  14
ENDBRANCH   6   8
ENDBRANCH   5   6
ENDBRANCH   4   5
ENDBRANCH   3   4
ENDBRANCH   2   3
ENDBRANCH   1   2
BRANCH   1  22
ATOM     22  C   UNL A   1      31.523  32.377  27.148  1.00  0.00     0.261 C 
BRANCH  22  23
ATOM     23  O   UNL A   1      32.617  33.297  26.979  1.00  0.00    -0.460 OA
BRANCH  23  24
ATOM     24  C   UNL A   1      33.216  33.672  28.133  1.00  0.00     0.338 C 
ATOM     25  O   UNL A   1      32.745  34.381  29.014  1.00  0.00    -0.246 OA
BRANCH  24  26
ATOM     26  C   UNL A   1      34.512  32.989  28.300  1.00  0.00     0.060 A 
ATOM     27  C   UNL A   1      34.476  31.634  28.652  1.00  0.00     0.016 A 
ATOM     28  C   UNL A   1      35.730  33.672  28.232  1.00  0.00     0.016 A 
ATOM     29  C   UNL A   1      35.648  30.976  29.016  1.00  0.00     0.010 A 
ATOM     30  C   UNL A   1      36.907  33.008  28.603  1.00  0.00     0.010 A 
ATOM     31  C   UNL A   1      36.861  31.674  29.046  1.00  0.00    -0.014 A 
BRANCH  31  32
ATOM     32  C   UNL A   1      38.023  31.055  29.732  1.00  0.00     0.031 A 
ATOM     33  C   UNL A   1      38.260  31.374  31.186  1.00  0.00     0.074 A 
ATOM     34  C   UNL A   1      38.810  30.166  29.103  1.00  0.00     0.049 A 
ATOM     35  N   UNL A   1      39.181  30.921  31.998  1.00  0.00    -0.248 NA
ATOM     36  C   UNL A   1      37.330  32.334  31.805  1.00  0.00     0.031 C 
ATOM     37  C   UNL A   1      38.665  29.743  27.712  1.00  0.00     0.029 A 
ATOM     38  N   UNL A   1      39.889  29.453  29.563  1.00  0.00    -0.354 N 
ATOM     39  C   UNL A   1      38.941  31.536  33.220  1.00  0.00     0.074 A 
ATOM     40  C   UNL A   1      37.813  32.423  33.036  1.00  0.00     0.031 C 
ATOM     41  C   UNL A   1      39.621  28.840  27.431  1.00  0.00     0.029 A 
ATOM     42  C   UNL A   1      40.453  28.635  28.615  1.00  0.00     0.049 A 
ATOM     43  H   UNL A   1      40.227  29.521  30.485  1.00  0.00     0.167 HD
ATOM     44  C   UNL A   1      39.591  31.370  34.397  1.00  0.00     0.037 A 
ATOM     45  C   UNL A   1      41.519  27.817  28.697  1.00  0.00     0.037 A 
ATOM     46  C   UNL A   1      40.711  30.488  34.589  1.00  0.00     0.049 A 
ATOM     47  C   UNL A   1      42.254  27.683  30.004  1.00  0.00     0.074 A 
ATOM     48  C   UNL A   1      41.440  30.254  35.741  1.00  0.00     0.029 A 
ATOM     49  N   UNL A   1      41.263  29.691  33.598  1.00  0.00    -0.354 N 
ATOM     50  N   UNL A   1      42.009  28.258  31.156  1.00  0.00    -0.248 NA
ATOM     51  C   UNL A   1      43.408  26.771  30.024  1.00  0.00     0.031 C 
ATOM     52  C   UNL A   1      42.456  29.340  35.440  1.00  0.00     0.029 A 
ATOM     53  C   UNL A   1      42.330  28.972  34.110  1.00  0.00     0.049 A 
ATOM     54  H   UNL A   1      40.944  29.644  32.668  1.00  0.00     0.167 HD
ATOM     55  C   UNL A   1      42.950  27.751  32.045  1.00  0.00     0.074 A 
ATOM     56  C   UNL A   1      43.768  26.817  31.299  1.00  0.00     0.031 C 
ATOM     57  C   UNL A   1      43.122  28.032  33.360  1.00  0.00     0.037 A 
BRANCH  44  58
ATOM     58  C   UNL A   1      39.109  32.176  35.567  1.00  0.00     0.057 A 
ATOM     59  C   UNL A   1      38.243  31.639  36.527  1.00  0.00     0.134 A 
ATOM     60  C   UNL A   1      39.527  33.501  35.741  1.00  0.00     0.134 A 
ATOM     61  F   UNL A   1      37.793  30.380  36.408  1.00  0.00    -0.206 F 
ATOM     62  C   UNL A   1      37.792  32.397  37.609  1.00  0.00     0.040 A 
ATOM     63  C   UNL A   1      39.102  34.263  36.830  1.00  0.00     0.040 A 
ATOM     64  F   UNL A   1      40.357  34.076  34.856  1.00  0.00    -0.206 F 
ATOM     65  C   UNL A   1      38.227  33.712  37.765  1.00  0.00     0.006 A 
ENDBRANCH  44  58
BRANCH  45  66
ATOM     66  C   UNL A   1      41.960  27.047  27.507  1.00  0.00     0.057 A 
ATOM     67  C   UNL A   1      42.810  27.612  26.550  1.00  0.00     0.134 A 
ATOM     68  C   UNL A   1      41.513  25.739  27.283  1.00  0.00     0.134 A 
ATOM     69  F   UNL A   1      43.252  28.870  26.699  1.00  0.00    -0.206 F 
ATOM     70  C   UNL A   1      43.187  26.912  25.402  1.00  0.00     0.040 A 
ATOM     71  C   UNL A   1      41.900  25.019  26.152  1.00  0.00     0.040 A 
ATOM     72  F   UNL A   1      40.697  25.142  28.164  1.00  0.00    -0.206 F 
ATOM     73  C   UNL A   1      42.733  25.609  25.203  1.00  0.00     0.006 A 
ENDBRANCH  45  66
BRANCH  57  74
ATOM     74  C   UNL A   1      44.198  27.280  34.087  1.00  0.00     0.057 A 
ATOM     75  C   UNL A   1      45.500  27.780  34.212  1.00  0.00     0.134 A 
ATOM     76  C   UNL A   1      43.915  26.048  34.692  1.00  0.00     0.134 A 
ATOM     77  F   UNL A   1      45.836  28.949  33.648  1.00  0.00    -0.206 F 
ATOM     78  C   UNL A   1      46.491  27.067  34.889  1.00  0.00     0.040 A 
ATOM     79  C   UNL A   1      44.892  25.338  35.391  1.00  0.00     0.040 A 
ATOM     80  F   UNL A   1      42.686  25.517  34.617  1.00  0.00    -0.206 F 
ATOM     81  C   UNL A   1      46.187  25.843  35.485  1.00  0.00     0.006 A 
ENDBRANCH  57  74
ENDBRANCH  31  32
ENDBRANCH  24  26
ENDBRANCH  23  24
ENDBRANCH  22  23
ENDBRANCH   1  22
TORSDOF 15
ENDMDL
MODEL 3
REMARK VINA RESULT:     -10.5      4.199      6.566
REMARK SMILES C[C@H]1[NH2+]CC[C@H]1C(=O)N1CC(C(=O)OCCOCCOC(=O)c2ccc(-c3c4nc(c(-c5c(F)cccc5F)c5ccc([nH]5)c(-c5c(F)cccc5F)c5nc(c(-c6c(F)cccc6F)c6ccc3[nH]6)C=C5)C=C4)cc2)C1
REMARK SMILES IDX 18 1 17 2 16 3 15 4 14 5 12 6 13 7 11 8 7 9 8 10 9 11 10 12
REMARK SMILES IDX 77 13 6 14 1 15 2 16 3 17 4 18 5 21 19 22 20 23 21 24 22 25
REMARK SMILES IDX 23 26 24 27 76 28 25 29 75 30 26 31 27 32 28 33 69 34 29 35
REMARK SMILES IDX 74 36 68 37 70 38 30 39 73 40 67 41 66 42 31 44 57 45 40 46
REMARK SMILES IDX 56 47 41 48 44 49 55 50 71 51 42 52 43 53 54 55 72 56 45 57
REMARK SMILES IDX 32 58 33 59 38 60 34 61 35 62 37 63 39 64 36 65 58 66 59 67
REMARK SMILES IDX 64 68 60 69 61 70 63 71 65 72 62 73 46 74 47 75 52 76 48 77
REMARK SMILES IDX 49 78 51 79 53 80 50 81
REMARK H PARENT 3 19 3 20 70 43 44 54
REMARK Flexibility Score: inf
ROOT
ATOM      1  C   UNL A   1      37.808  20.568  25.313  1.00  0.00     0.202 C 
ENDROOT
BRANCH   1   2
ATOM      2  O   UNL A   1      38.143  21.923  25.017  1.00  0.00    -0.374 OA
BRANCH   2   3
ATOM      3  C   UNL A   1      38.343  22.803  26.126  1.00  0.00     0.202 C 
BRANCH   3   4
ATOM      4  C   UNL A   1      37.475  24.065  26.118  1.00  0.00     0.261 C 
BRANCH   4   5
ATOM      5  O   UNL A   1      36.117  23.718  26.444  1.00  0.00    -0.463 OA
BRANCH   5   6
ATOM      6  C   UNL A   1      35.183  23.875  25.460  1.00  0.00     0.312 C 
ATOM      7  O   UNL A   1      35.193  24.814  24.666  1.00  0.00    -0.252 OA
BRANCH   6   8
ATOM      8  C   UNL A   1      34.171  22.719  25.422  1.00  0.00     0.138 C 
ATOM      9  C   UNL A   1      32.901  19.855  25.238  1.00  0.00     0.231 C 
ATOM     10  O   UNL A   1      31.778  20.329  25.385  1.00  0.00    -0.274 OA
ATOM     11  N   UNL A   1      34.039  20.639  25.194  1.00  0.00    -0.340 N 
ATOM     12  C   UNL A   1      34.441  21.514  26.315  1.00  0.00     0.136 C 
ATOM     13  C   UNL A   1      34.168  21.752  24.241  1.00  0.00     0.136 C 
BRANCH   9  14
ATOM     14  C   UNL A   1      33.132  18.377  24.973  1.00  0.00     0.142 C 
ATOM     15  C   UNL A   1      32.187  18.658  22.568  1.00  0.00     0.076 C 
ATOM     16  C   UNL A   1      32.308  17.796  23.824  1.00  0.00     0.192 C 
ATOM     17  N   UNL A   1      32.990  16.529  23.503  1.00  0.00    -0.343 N 
ATOM     18  C   UNL A   1      34.388  16.628  23.928  1.00  0.00     0.261 C 
ATOM     19  H   UNL A   1      32.948  16.362  22.499  1.00  0.00     0.346 HD
ATOM     20  H   UNL A   1      32.534  15.756  23.989  1.00  0.00     0.346 HD
ATOM     21  C   UNL A   1      34.555  17.966  24.624  1.00  0.00     0.081 C 
ENDBRANCH   9  14
ENDBRANCH   6   8
ENDBRANCH   5   6
ENDBRANCH   4   5
ENDBRANCH   3   4
ENDBRANCH   2   3
ENDBRANCH   1   2
BRANCH   1  22
ATOM     22  C   UNL A   1      38.979  19.579  25.336  1.00  0.00     0.261 C 
BRANCH  22  23
ATOM     23  O   UNL A   1      39.841  19.789  26.470  1.00  0.00    -0.460 OA
BRANCH  23  24
ATOM     24  C   UNL A   1      41.158  19.619  26.211  1.00  0.00     0.338 C 
ATOM     25  O   UNL A   1      41.698  18.619  25.753  1.00  0.00    -0.246 OA
BRANCH  24  26
ATOM     26  C   UNL A   1      41.902  20.875  26.413  1.00  0.00     0.060 A 
ATOM     27  C   UNL A   1      42.273  21.191  27.725  1.00  0.00     0.016 A 
ATOM     28  C   UNL A   1      42.131  21.782  25.374  1.00  0.00     0.016 A 
ATOM     29  C   UNL A   1      42.802  22.445  28.020  1.00  0.00     0.010 A 
ATOM     30  C   UNL A   1      42.659  23.046  25.673  1.00  0.00     0.010 A 
ATOM     31  C   UNL A   1      42.946  23.398  27.004  1.00  0.00    -0.014 A 
BRANCH  31  32
ATOM     32  C   UNL A   1      43.204  24.810  27.383  1.00  0.00     0.031 A 
ATOM     33  C   UNL A   1      44.565  25.397  27.107  1.00  0.00     0.074 A 
ATOM     34  C   UNL A   1      42.229  25.584  27.890  1.00  0.00     0.049 A 
ATOM     35  N   UNL A   1      45.004  26.613  27.312  1.00  0.00    -0.248 NA
ATOM     36  C   UNL A   1      45.563  24.487  26.521  1.00  0.00     0.031 C 
ATOM     37  C   UNL A   1      40.863  25.149  28.167  1.00  0.00     0.029 A 
ATOM     38  N   UNL A   1      42.245  26.907  28.254  1.00  0.00    -0.354 N 
ATOM     39  C   UNL A   1      46.324  26.615  26.879  1.00  0.00     0.074 A 
ATOM     40  C   UNL A   1      46.628  25.272  26.436  1.00  0.00     0.031 C 
ATOM     41  C   UNL A   1      40.167  26.190  28.659  1.00  0.00     0.029 A 
ATOM     42  C   UNL A   1      41.044  27.356  28.745  1.00  0.00     0.049 A 
ATOM     43  H   UNL A   1      43.041  27.480  28.172  1.00  0.00     0.167 HD
ATOM     44  C   UNL A   1      47.204  27.644  26.840  1.00  0.00     0.037 A 
ATOM     45  C   UNL A   1      40.696  28.571  29.212  1.00  0.00     0.037 A 
ATOM     46  C   UNL A   1      46.908  28.982  27.277  1.00  0.00     0.049 A 
ATOM     47  C   UNL A   1      41.705  29.688  29.200  1.00  0.00     0.074 A 
ATOM     48  C   UNL A   1      47.734  30.093  27.281  1.00  0.00     0.029 A 
ATOM     49  N   UNL A   1      45.684  29.392  27.785  1.00  0.00    -0.354 N 
ATOM     50  N   UNL A   1      42.944  29.682  28.775  1.00  0.00    -0.248 NA
ATOM     51  C   UNL A   1      41.258  30.989  29.722  1.00  0.00     0.031 C 
ATOM     52  C   UNL A   1      47.021  31.167  27.825  1.00  0.00     0.029 A 
ATOM     53  C   UNL A   1      45.737  30.735  28.116  1.00  0.00     0.049 A 
ATOM     54  H   UNL A   1      44.896  28.813  27.895  1.00  0.00     0.167 HD
ATOM     55  C   UNL A   1      43.413  30.980  28.942  1.00  0.00     0.074 A 
ATOM     56  C   UNL A   1      42.321  31.749  29.502  1.00  0.00     0.031 C 
ATOM     57  C   UNL A   1      44.636  31.491  28.655  1.00  0.00     0.037 A 
BRANCH  44  58
ATOM     58  C   UNL A   1      48.579  27.351  26.318  1.00  0.00     0.057 A 
ATOM     59  C   UNL A   1      49.623  26.961  27.167  1.00  0.00     0.134 A 
ATOM     60  C   UNL A   1      48.858  27.446  24.949  1.00  0.00     0.134 A 
ATOM     61  F   UNL A   1      49.425  26.869  28.490  1.00  0.00    -0.206 F 
ATOM     62  C   UNL A   1      50.903  26.697  26.675  1.00  0.00     0.040 A 
ATOM     63  C   UNL A   1      50.127  27.162  24.442  1.00  0.00     0.040 A 
ATOM     64  F   UNL A   1      47.902  27.814  24.082  1.00  0.00    -0.206 F 
ATOM     65  C   UNL A   1      51.155  26.792  25.308  1.00  0.00     0.006 A 
ENDBRANCH  44  58
BRANCH  45  66
ATOM     66  C   UNL A   1      39.323  28.806  29.725  1.00  0.00     0.057 A 
ATOM     67  C   UNL A   1      38.312  29.296  28.892  1.00  0.00     0.134 A 
ATOM     68  C   UNL A   1      39.001  28.576  31.068  1.00  0.00     0.134 A 
ATOM     69  F   UNL A   1      38.568  29.558  27.602  1.00  0.00    -0.206 F 
ATOM     70  C   UNL A   1      37.032  29.569  29.379  1.00  0.00     0.040 A 
ATOM     71  C   UNL A   1      37.719  28.822  31.563  1.00  0.00     0.040 A 
ATOM     72  F   UNL A   1      39.927  28.105  31.916  1.00  0.00    -0.206 F 
ATOM     73  C   UNL A   1      36.733  29.328  30.719  1.00  0.00     0.006 A 
ENDBRANCH  45  66
BRANCH  57  74
ATOM     74  C   UNL A   1      44.838  32.959  28.890  1.00  0.00     0.057 A 
ATOM     75  C   UNL A   1      45.368  33.454  30.088  1.00  0.00     0.134 A 
ATOM     76  C   UNL A   1      44.520  33.887  27.890  1.00  0.00     0.134 A 
ATOM     77  F   UNL A   1      45.684  32.618  31.089  1.00  0.00    -0.206 F 
ATOM     78  C   UNL A   1      45.548  34.823  30.294  1.00  0.00     0.040 A 
ATOM     79  C   UNL A   1      44.717  35.255  28.075  1.00  0.00     0.040 A 
ATOM     80  F   UNL A   1      44.017  33.478  26.715  1.00  0.00    -0.206 F 
ATOM     81  C   UNL A   1      45.225  35.728  29.283  1.00  0.00     0.006 A 
ENDBRANCH  57  74
ENDBRANCH  31  32
ENDBRANCH  24  26
ENDBRANCH  23  24
ENDBRANCH  22  23
ENDBRANCH   1  22
TORSDOF 15
ENDMDL
