MODEL 1
REMARK VINA RESULT:     -12.5      0.000      0.000
REMARK SMILES COc1ccc(N2C(=O)/C(=C/c3c(C(=O)OCCOCCOC(=O)c4ccc(-c5c6nc(c(-c7c(F)cccc7F)c7ccc([nH]7)c(-c7c(F)cccc7F)c7nc(c(-c8c(F)cccc8F)c8ccc5[nH]8)C=C7)C=C6)cc4)[nH]c4cc(OC)ccc34)SC2=S)cc1
REMARK SMILES IDX 18 1 17 2 16 3 14 4 15 5 13 6 12 7 87 8 79 9 80 10 86 11
REMARK SMILES IDX 81 13 85 14 82 15 11 16 7 17 8 18 89 19 9 20 10 21 88 22
REMARK SMILES IDX 90 23 6 24 3 25 4 26 92 27 5 28 91 29 2 30 1 31 83 32 84 33
REMARK SMILES IDX 19 34 20 35 21 36 22 37 23 38 24 39 25 40 26 41 78 42 27 43
REMARK SMILES IDX 77 44 28 45 29 46 30 47 71 48 31 49 76 50 70 51 72 52 32 53
REMARK SMILES IDX 75 54 69 55 68 56 33 58 59 59 42 60 58 61 43 62 46 63 57 64
REMARK SMILES IDX 73 65 44 66 45 67 56 69 74 70 47 71 34 72 35 73 40 74 36 75
REMARK SMILES IDX 37 76 39 77 41 78 38 79 60 80 61 81 66 82 62 83 63 84 65 85
REMARK SMILES IDX 67 86 64 87 48 88 49 89 54 90 50 91 51 92 53 93 55 94 52 95
REMARK H PARENT 79 12 72 57 46 68
REMARK Flexibility Score: inf
ROOT
ATOM      1  C   UNL A   1      34.684  32.808  28.048  1.00  0.00     0.202 C 
ENDROOT
BRANCH   1   2
ATOM      2  C   UNL A   1      34.247  31.347  28.205  1.00  0.00     0.261 C 
BRANCH   2   3
ATOM      3  O   UNL A   1      33.409  30.903  27.128  1.00  0.00    -0.459 OA
BRANCH   3   4
ATOM      4  C   UNL A   1      33.790  29.725  26.556  1.00  0.00     0.355 C 
ATOM      5  O   UNL A   1      34.866  29.170  26.730  1.00  0.00    -0.244 OA
BRANCH   4   6
ATOM      6  C   UNL A   1      32.694  29.109  25.841  1.00  0.00     0.133 A 
ATOM      7  C   UNL A   1      32.277  27.800  25.598  1.00  0.00     0.016 A 
ATOM      8  C   UNL A   1      31.120  27.868  24.738  1.00  0.00     0.008 A 
ATOM      9  N   UNL A   1      31.832  29.933  25.161  1.00  0.00    -0.348 N 
ATOM     10  C   UNL A   1      30.946  29.213  24.413  1.00  0.00     0.050 A 
ATOM     11  C   UNL A   1      30.211  26.953  24.156  1.00  0.00     0.015 A 
ATOM     12  H   UNL A   1      31.850  30.917  25.207  1.00  0.00     0.167 HD
ATOM     13  C   UNL A   1      30.015  29.677  23.482  1.00  0.00     0.073 A 
ATOM     14  C   UNL A   1      29.215  27.414  23.260  1.00  0.00     0.047 A 
ATOM     15  C   UNL A   1      29.142  28.760  22.904  1.00  0.00     0.120 A 
BRANCH   7  16
ATOM     16  C   UNL A   1      33.017  26.641  26.028  1.00  0.00     0.032 C 
ATOM     17  N   UNL A   1      33.729  23.463  24.530  1.00  0.00    -0.261 N 
ATOM     18  C   UNL A   1      33.764  24.301  25.658  1.00  0.00     0.270 C 
ATOM     19  C   UNL A   1      33.697  24.125  23.303  1.00  0.00     0.152 C 
ATOM     20  O   UNL A   1      33.859  23.981  26.836  1.00  0.00    -0.268 OA
ATOM     21  C   UNL A   1      33.598  25.726  25.229  1.00  0.00     0.081 C 
ATOM     22  S   UNL A   1      33.912  25.856  23.550  1.00  0.00    -0.054 SA
ATOM     23  S   UNL A   1      33.352  23.566  21.762  1.00  0.00    -0.051 S 
BRANCH  17  24
ATOM     24  C   UNL A   1      33.602  22.034  24.670  1.00  0.00     0.051 A 
ATOM     25  C   UNL A   1      33.331  19.212  24.724  1.00  0.00     0.119 A 
ATOM     26  C   UNL A   1      32.219  20.031  24.643  1.00  0.00     0.048 A 
ATOM     27  C   UNL A   1      34.590  19.783  24.785  1.00  0.00     0.048 A 
ATOM     28  C   UNL A   1      32.341  21.427  24.641  1.00  0.00     0.030 A 
ATOM     29  C   UNL A   1      34.719  21.183  24.770  1.00  0.00     0.030 A 
BRANCH  25  30
ATOM     30  O   UNL A   1      33.115  17.866  24.653  1.00  0.00    -0.497 OA
ATOM     31  C   UNL A   1      34.316  17.101  24.720  1.00  0.00     0.278 C 
ENDBRANCH  25  30
ENDBRANCH  17  24
ENDBRANCH   7  16
BRANCH  15  32
ATOM     32  O   UNL A   1      28.308  29.314  21.971  1.00  0.00    -0.497 OA
ATOM     33  C   UNL A   1      28.655  30.596  21.473  1.00  0.00     0.278 C 
ENDBRANCH  15  32
ENDBRANCH   4   6
ENDBRANCH   3   4
ENDBRANCH   2   3
ENDBRANCH   1   2
BRANCH   1  34
ATOM     34  O   UNL A   1      33.669  33.797  28.189  1.00  0.00    -0.374 OA
BRANCH  34  35
ATOM     35  C   UNL A   1      34.069  35.135  28.481  1.00  0.00     0.202 C 
BRANCH  35  36
ATOM     36  C   UNL A   1      33.139  35.987  29.351  1.00  0.00     0.261 C 
BRANCH  36  37
ATOM     37  O   UNL A   1      32.552  35.267  30.452  1.00  0.00    -0.460 OA
BRANCH  37  38
ATOM     38  C   UNL A   1      32.817  35.795  31.672  1.00  0.00     0.338 C 
ATOM     39  O   UNL A   1      32.250  36.742  32.196  1.00  0.00    -0.246 OA
BRANCH  38  40
ATOM     40  C   UNL A   1      33.849  35.017  32.390  1.00  0.00     0.060 A 
ATOM     41  C   UNL A   1      35.145  35.538  32.402  1.00  0.00     0.016 A 
ATOM     42  C   UNL A   1      33.599  33.753  32.938  1.00  0.00     0.016 A 
ATOM     43  C   UNL A   1      36.190  34.787  32.935  1.00  0.00     0.010 A 
ATOM     44  C   UNL A   1      34.657  32.998  33.471  1.00  0.00     0.010 A 
ATOM     45  C   UNL A   1      35.964  33.505  33.470  1.00  0.00    -0.014 A 
BRANCH  45  46
ATOM     46  C   UNL A   1      37.143  32.723  33.941  1.00  0.00     0.031 A 
ATOM     47  C   UNL A   1      37.848  31.822  32.966  1.00  0.00     0.074 A 
ATOM     48  C   UNL A   1      37.660  32.898  35.173  1.00  0.00     0.049 A 
ATOM     49  N   UNL A   1      38.993  31.199  33.086  1.00  0.00    -0.248 NA
ATOM     50  C   UNL A   1      37.157  31.580  31.690  1.00  0.00     0.031 C 
ATOM     51  C   UNL A   1      37.078  33.729  36.221  1.00  0.00     0.029 A 
ATOM     52  N   UNL A   1      38.844  32.458  35.722  1.00  0.00    -0.354 N 
ATOM     53  C   UNL A   1      39.138  30.456  31.923  1.00  0.00     0.074 A 
ATOM     54  C   UNL A   1      37.996  30.753  31.084  1.00  0.00     0.031 C 
ATOM     55  C   UNL A   1      37.970  33.871  37.215  1.00  0.00     0.029 A 
ATOM     56  C   UNL A   1      39.161  33.083  36.909  1.00  0.00     0.049 A 
ATOM     57  H   UNL A   1      39.408  31.765  35.307  1.00  0.00     0.167 HD
ATOM     58  C   UNL A   1      40.102  29.558  31.606  1.00  0.00     0.037 A 
ATOM     59  C   UNL A   1      40.295  33.050  37.639  1.00  0.00     0.037 A 
ATOM     60  C   UNL A   1      41.211  29.221  32.457  1.00  0.00     0.049 A 
ATOM     61  C   UNL A   1      41.402  32.116  37.224  1.00  0.00     0.074 A 
ATOM     62  C   UNL A   1      42.175  28.246  32.278  1.00  0.00     0.029 A 
ATOM     63  N   UNL A   1      41.497  29.851  33.658  1.00  0.00    -0.354 N 
ATOM     64  N   UNL A   1      41.519  31.399  36.133  1.00  0.00    -0.248 NA
ATOM     65  C   UNL A   1      42.516  31.952  38.172  1.00  0.00     0.031 C 
ATOM     66  C   UNL A   1      43.026  28.261  33.390  1.00  0.00     0.029 A 
ATOM     67  C   UNL A   1      42.615  29.276  34.239  1.00  0.00     0.049 A 
ATOM     68  H   UNL A   1      40.981  30.596  34.043  1.00  0.00     0.167 HD
ATOM     69  C   UNL A   1      42.692  30.671  36.283  1.00  0.00     0.074 A 
ATOM     70  C   UNL A   1      43.295  31.093  37.529  1.00  0.00     0.031 C 
ATOM     71  C   UNL A   1      43.199  29.700  35.483  1.00  0.00     0.037 A 
BRANCH  58  72
ATOM     72  C   UNL A   1      39.904  28.790  30.337  1.00  0.00     0.057 A 
ATOM     73  C   UNL A   1      39.189  27.588  30.292  1.00  0.00     0.134 A 
ATOM     74  C   UNL A   1      40.490  29.243  29.148  1.00  0.00     0.134 A 
ATOM     75  F   UNL A   1      38.631  27.087  31.404  1.00  0.00    -0.206 F 
ATOM     76  C   UNL A   1      39.087  26.848  29.111  1.00  0.00     0.040 A 
ATOM     77  C   UNL A   1      40.379  28.523  27.958  1.00  0.00     0.040 A 
ATOM     78  F   UNL A   1      41.195  30.384  29.129  1.00  0.00    -0.206 F 
ATOM     79  C   UNL A   1      39.683  27.316  27.941  1.00  0.00     0.006 A 
ENDBRANCH  58  72
BRANCH  59  80
ATOM     80  C   UNL A   1      40.488  33.941  38.818  1.00  0.00     0.057 A 
ATOM     81  C   UNL A   1      39.982  33.569  40.073  1.00  0.00     0.134 A 
ATOM     82  C   UNL A   1      41.127  35.181  38.733  1.00  0.00     0.134 A 
ATOM     83  F   UNL A   1      39.337  32.402  40.221  1.00  0.00    -0.206 F 
ATOM     84  C   UNL A   1      40.098  34.395  41.192  1.00  0.00     0.040 A 
ATOM     85  C   UNL A   1      41.273  36.008  39.851  1.00  0.00     0.040 A 
ATOM     86  F   UNL A   1      41.620  35.614  37.563  1.00  0.00    -0.206 F 
ATOM     87  C   UNL A   1      40.752  35.619  41.084  1.00  0.00     0.006 A 
ENDBRANCH  59  80
BRANCH  71  88
ATOM     88  C   UNL A   1      44.436  28.997  35.958  1.00  0.00     0.057 A 
ATOM     89  C   UNL A   1      44.355  27.816  36.710  1.00  0.00     0.134 A 
ATOM     90  C   UNL A   1      45.711  29.463  35.620  1.00  0.00     0.134 A 
ATOM     91  F   UNL A   1      43.162  27.321  37.073  1.00  0.00    -0.206 F 
ATOM     92  C   UNL A   1      45.501  27.135  37.124  1.00  0.00     0.040 A 
ATOM     93  C   UNL A   1      46.864  28.778  36.011  1.00  0.00     0.040 A 
ATOM     94  F   UNL A   1      45.858  30.582  34.896  1.00  0.00    -0.206 F 
ATOM     95  C   UNL A   1      46.759  27.612  36.768  1.00  0.00     0.006 A 
ENDBRANCH  71  88
ENDBRANCH  45  46
ENDBRANCH  38  40
ENDBRANCH  37  38
ENDBRANCH  36  37
ENDBRANCH  35  36
ENDBRANCH  34  35
ENDBRANCH   1  34
TORSDOF 18
ENDMDL
MODEL 2
REMARK VINA RESULT:     -12.3      3.037      9.083
REMARK SMILES COc1ccc(N2C(=O)/C(=C/c3c(C(=O)OCCOCCOC(=O)c4ccc(-c5c6nc(c(-c7c(F)cccc7F)c7ccc([nH]7)c(-c7c(F)cccc7F)c7nc(c(-c8c(F)cccc8F)c8ccc5[nH]8)C=C7)C=C6)cc4)[nH]c4cc(OC)ccc34)SC2=S)cc1
REMARK SMILES IDX 18 1 17 2 16 3 14 4 15 5 13 6 12 7 87 8 79 9 80 10 86 11
REMARK SMILES IDX 81 13 85 14 82 15 11 16 7 17 8 18 89 19 9 20 10 21 88 22
REMARK SMILES IDX 90 23 6 24 3 25 4 26 92 27 5 28 91 29 2 30 1 31 83 32 84 33
REMARK SMILES IDX 19 34 20 35 21 36 22 37 23 38 24 39 25 40 26 41 78 42 27 43
REMARK SMILES IDX 77 44 28 45 29 46 30 47 71 48 31 49 76 50 70 51 72 52 32 53
REMARK SMILES IDX 75 54 69 55 68 56 33 58 59 59 42 60 58 61 43 62 46 63 57 64
REMARK SMILES IDX 73 65 44 66 45 67 56 69 74 70 47 71 34 72 35 73 40 74 36 75
REMARK SMILES IDX 37 76 39 77 41 78 38 79 60 80 61 81 66 82 62 83 63 84 65 85
REMARK SMILES IDX 67 86 64 87 48 88 49 89 54 90 50 91 51 92 53 93 55 94 52 95
REMARK H PARENT 79 12 72 57 46 68
REMARK Flexibility Score: inf
ROOT
ATOM      1  C   UNL A   1      40.181  20.197  26.105  1.00  0.00     0.202 C 
ENDROOT
BRANCH   1   2
ATOM      2  C   UNL A   1      39.439  21.507  26.393  1.00  0.00     0.261 C 
BRANCH   2   3
ATOM      3  O   UNL A   1      38.515  21.859  25.353  1.00  0.00    -0.459 OA
BRANCH   3   4
ATOM      4  C   UNL A   1      37.472  22.640  25.757  1.00  0.00     0.355 C 
ATOM      5  O   UNL A   1      37.572  23.682  26.389  1.00  0.00    -0.244 OA
BRANCH   4   6
ATOM      6  C   UNL A   1      36.222  22.176  25.196  1.00  0.00     0.133 A 
ATOM      7  C   UNL A   1      35.099  22.784  24.634  1.00  0.00     0.016 A 
ATOM      8  C   UNL A   1      34.151  21.740  24.327  1.00  0.00     0.008 A 
ATOM      9  N   UNL A   1      35.967  20.827  25.231  1.00  0.00    -0.348 N 
ATOM     10  C   UNL A   1      34.698  20.553  24.813  1.00  0.00     0.050 A 
ATOM     11  C   UNL A   1      32.870  21.651  23.731  1.00  0.00     0.015 A 
ATOM     12  H   UNL A   1      36.617  20.146  25.520  1.00  0.00     0.167 HD
ATOM     13  C   UNL A   1      34.018  19.333  24.837  1.00  0.00     0.073 A 
ATOM     14  C   UNL A   1      32.193  20.407  23.687  1.00  0.00     0.047 A 
ATOM     15  C   UNL A   1      32.751  19.268  24.264  1.00  0.00     0.120 A 
BRANCH   7  16
ATOM     16  C   UNL A   1      34.927  24.213  24.558  1.00  0.00     0.032 C 
ATOM     17  N   UNL A   1      32.127  26.398  25.039  1.00  0.00    -0.261 N 
ATOM     18  C   UNL A   1      33.456  26.213  24.623  1.00  0.00     0.270 C 
ATOM     19  C   UNL A   1      31.665  25.469  25.972  1.00  0.00     0.152 C 
ATOM     20  O   UNL A   1      34.118  26.917  23.870  1.00  0.00    -0.268 OA
ATOM     21  C   UNL A   1      33.989  24.936  25.196  1.00  0.00     0.081 C 
ATOM     22  S   UNL A   1      32.993  24.437  26.499  1.00  0.00    -0.054 SA
ATOM     23  S   UNL A   1      30.114  25.121  26.501  1.00  0.00    -0.051 S 
BRANCH  17  24
ATOM     24  C   UNL A   1      31.289  27.400  24.430  1.00  0.00     0.051 A 
ATOM     25  C   UNL A   1      29.817  29.430  23.106  1.00  0.00     0.119 A 
ATOM     26  C   UNL A   1      30.653  29.734  24.166  1.00  0.00     0.048 A 
ATOM     27  C   UNL A   1      29.698  28.115  22.694  1.00  0.00     0.048 A 
ATOM     28  C   UNL A   1      31.365  28.736  24.843  1.00  0.00     0.030 A 
ATOM     29  C   UNL A   1      30.420  27.110  23.361  1.00  0.00     0.030 A 
BRANCH  25  30
ATOM     30  O   UNL A   1      29.218  30.479  22.470  1.00  0.00    -0.497 OA
ATOM     31  C   UNL A   1      28.040  30.104  21.760  1.00  0.00     0.278 C 
ENDBRANCH  25  30
ENDBRANCH  17  24
ENDBRANCH   7  16
BRANCH  15  32
ATOM     32  O   UNL A   1      32.159  18.041  24.389  1.00  0.00    -0.497 OA
ATOM     33  C   UNL A   1      32.684  17.166  25.375  1.00  0.00     0.278 C 
ENDBRANCH  15  32
ENDBRANCH   4   6
ENDBRANCH   3   4
ENDBRANCH   2   3
ENDBRANCH   1   2
BRANCH   1  34
ATOM     34  O   UNL A   1      41.391  19.976  26.823  1.00  0.00    -0.374 OA
BRANCH  34  35
ATOM     35  C   UNL A   1      42.292  21.071  26.976  1.00  0.00     0.202 C 
BRANCH  35  36
ATOM     36  C   UNL A   1      42.995  21.599  25.721  1.00  0.00     0.261 C 
BRANCH  36  37
ATOM     37  O   UNL A   1      42.406  22.801  25.187  1.00  0.00    -0.460 OA
BRANCH  37  38
ATOM     38  C   UNL A   1      43.184  23.905  25.302  1.00  0.00     0.338 C 
ATOM     39  O   UNL A   1      44.168  24.177  24.633  1.00  0.00    -0.246 OA
BRANCH  38  40
ATOM     40  C   UNL A   1      42.644  24.848  26.306  1.00  0.00     0.060 A 
ATOM     41  C   UNL A   1      43.260  26.098  26.400  1.00  0.00     0.016 A 
ATOM     42  C   UNL A   1      41.643  24.492  27.217  1.00  0.00     0.016 A 
ATOM     43  C   UNL A   1      42.897  26.977  27.417  1.00  0.00     0.010 A 
ATOM     44  C   UNL A   1      41.282  25.381  28.244  1.00  0.00     0.010 A 
ATOM     45  C   UNL A   1      41.908  26.629  28.357  1.00  0.00    -0.014 A 
BRANCH  45  46
ATOM     46  C   UNL A   1      41.634  27.582  29.471  1.00  0.00     0.031 A 
ATOM     47  C   UNL A   1      40.388  28.421  29.414  1.00  0.00     0.074 A 
ATOM     48  C   UNL A   1      42.406  27.619  30.575  1.00  0.00     0.049 A 
ATOM     49  N   UNL A   1      39.844  29.168  30.341  1.00  0.00    -0.248 NA
ATOM     50  C   UNL A   1      39.668  28.426  28.131  1.00  0.00     0.031 C 
ATOM     51  C   UNL A   1      43.645  26.873  30.762  1.00  0.00     0.029 A 
ATOM     52  N   UNL A   1      42.213  28.245  31.786  1.00  0.00    -0.354 N 
ATOM     53  C   UNL A   1      38.746  29.768  29.740  1.00  0.00     0.074 A 
ATOM     54  C   UNL A   1      38.664  29.251  28.390  1.00  0.00     0.031 C 
ATOM     55  C   UNL A   1      44.014  26.951  32.051  1.00  0.00     0.029 A 
ATOM     56  C   UNL A   1      43.077  27.812  32.768  1.00  0.00     0.049 A 
ATOM     57  H   UNL A   1      41.525  28.935  31.935  1.00  0.00     0.167 HD
ATOM     58  C   UNL A   1      37.916  30.714  30.245  1.00  0.00     0.037 A 
ATOM     59  C   UNL A   1      43.085  28.054  34.095  1.00  0.00     0.037 A 
ATOM     60  C   UNL A   1      38.024  31.269  31.566  1.00  0.00     0.049 A 
ATOM     61  C   UNL A   1      42.094  29.037  34.663  1.00  0.00     0.074 A 
ATOM     62  C   UNL A   1      37.305  32.307  32.131  1.00  0.00     0.029 A 
ATOM     63  N   UNL A   1      38.917  30.829  32.531  1.00  0.00    -0.354 N 
ATOM     64  N   UNL A   1      41.074  29.618  34.081  1.00  0.00    -0.248 NA
ATOM     65  C   UNL A   1      42.290  29.434  36.067  1.00  0.00     0.031 C 
ATOM     66  C   UNL A   1      37.790  32.521  33.427  1.00  0.00     0.029 A 
ATOM     67  C   UNL A   1      38.779  31.585  33.683  1.00  0.00     0.049 A 
ATOM     68  H   UNL A   1      39.556  30.089  32.414  1.00  0.00     0.167 HD
ATOM     69  C   UNL A   1      40.535  30.476  35.030  1.00  0.00     0.074 A 
ATOM     70  C   UNL A   1      41.286  30.280  36.252  1.00  0.00     0.031 C 
ATOM     71  C   UNL A   1      39.539  31.385  34.888  1.00  0.00     0.037 A 
BRANCH  58  72
ATOM     72  C   UNL A   1      36.911  31.290  29.297  1.00  0.00     0.057 A 
ATOM     73  C   UNL A   1      37.042  32.573  28.754  1.00  0.00     0.134 A 
ATOM     74  C   UNL A   1      35.762  30.559  28.968  1.00  0.00     0.134 A 
ATOM     75  F   UNL A   1      38.105  33.333  29.056  1.00  0.00    -0.206 F 
ATOM     76  C   UNL A   1      36.050  33.120  27.937  1.00  0.00     0.040 A 
ATOM     77  C   UNL A   1      34.774  31.086  28.137  1.00  0.00     0.040 A 
ATOM     78  F   UNL A   1      35.576  29.326  29.463  1.00  0.00    -0.206 F 
ATOM     79  C   UNL A   1      34.913  32.375  27.626  1.00  0.00     0.006 A 
ENDBRANCH  58  72
BRANCH  59  80
ATOM     80  C   UNL A   1      44.024  27.345  35.010  1.00  0.00     0.057 A 
ATOM     81  C   UNL A   1      43.656  26.119  35.586  1.00  0.00     0.134 A 
ATOM     82  C   UNL A   1      45.270  27.867  35.370  1.00  0.00     0.134 A 
ATOM     83  F   UNL A   1      42.465  25.571  35.303  1.00  0.00    -0.206 F 
ATOM     84  C   UNL A   1      44.484  25.445  36.486  1.00  0.00     0.040 A 
ATOM     85  C   UNL A   1      46.121  27.191  36.250  1.00  0.00     0.040 A 
ATOM     86  F   UNL A   1      45.682  29.043  34.875  1.00  0.00    -0.206 F 
ATOM     87  C   UNL A   1      45.727  25.980  36.815  1.00  0.00     0.006 A 
ENDBRANCH  59  80
BRANCH  71  88
ATOM     88  C   UNL A   1      39.241  32.267  36.064  1.00  0.00     0.057 A 
ATOM     89  C   UNL A   1      38.334  31.869  37.057  1.00  0.00     0.134 A 
ATOM     90  C   UNL A   1      39.897  33.489  36.239  1.00  0.00     0.134 A 
ATOM     91  F   UNL A   1      37.666  30.711  36.944  1.00  0.00    -0.206 F 
ATOM     92  C   UNL A   1      38.078  32.667  38.173  1.00  0.00     0.040 A 
ATOM     93  C   UNL A   1      39.665  34.286  37.362  1.00  0.00     0.040 A 
ATOM     94  F   UNL A   1      40.782  33.924  35.330  1.00  0.00    -0.206 F 
ATOM     95  C   UNL A   1      38.751  33.876  38.332  1.00  0.00     0.006 A 
ENDBRANCH  71  88
ENDBRANCH  45  46
ENDBRANCH  38  40
ENDBRANCH  37  38
ENDBRANCH  36  37
ENDBRANCH  35  36
ENDBRANCH  34  35
ENDBRANCH   1  34
TORSDOF 18
ENDMDL
MODEL 3
REMARK VINA RESULT:     -12.2      6.316     12.213
REMARK SMILES COc1ccc(N2C(=O)/C(=C/c3c(C(=O)OCCOCCOC(=O)c4ccc(-c5c6nc(c(-c7c(F)cccc7F)c7ccc([nH]7)c(-c7c(F)cccc7F)c7nc(c(-c8c(F)cccc8F)c8ccc5[nH]8)C=C7)C=C6)cc4)[nH]c4cc(OC)ccc34)SC2=S)cc1
REMARK SMILES IDX 18 1 17 2 16 3 14 4 15 5 13 6 12 7 87 8 79 9 80 10 86 11
REMARK SMILES IDX 81 13 85 14 82 15 11 16 7 17 8 18 89 19 9 20 10 21 88 22
REMARK SMILES IDX 90 23 6 24 3 25 4 26 92 27 5 28 91 29 2 30 1 31 83 32 84 33
REMARK SMILES IDX 19 34 20 35 21 36 22 37 23 38 24 39 25 40 26 41 78 42 27 43
REMARK SMILES IDX 77 44 28 45 29 46 30 47 71 48 31 49 76 50 70 51 72 52 32 53
REMARK SMILES IDX 75 54 69 55 68 56 33 58 59 59 42 60 58 61 43 62 46 63 57 64
REMARK SMILES IDX 73 65 44 66 45 67 56 69 74 70 47 71 34 72 35 73 40 74 36 75
REMARK SMILES IDX 37 76 39 77 41 78 38 79 60 80 61 81 66 82 62 83 63 84 65 85
REMARK SMILES IDX 67 86 64 87 48 88 49 89 54 90 50 91 51 92 53 93 55 94 52 95
REMARK H PARENT 79 12 72 57 46 68
REMARK Flexibility Score: inf
ROOT
ATOM      1  C   UNL A   1      39.550  20.896  26.059  1.00  0.00     0.202 C 
ENDROOT
BRANCH   1   2
ATOM      2  C   UNL A   1      38.671  22.153  26.051  1.00  0.00     0.261 C 
BRANCH   2   3
ATOM      3  O   UNL A   1      37.551  22.038  25.162  1.00  0.00    -0.459 OA
BRANCH   3   4
ATOM      4  C   UNL A   1      36.344  22.340  25.721  1.00  0.00     0.355 C 
ATOM      5  O   UNL A   1      36.082  23.372  26.323  1.00  0.00    -0.244 OA
BRANCH   4   6
ATOM      6  C   UNL A   1      35.343  21.357  25.372  1.00  0.00     0.133 A 
ATOM      7  C   UNL A   1      33.949  21.310  25.388  1.00  0.00     0.016 A 
ATOM      8  C   UNL A   1      33.557  19.985  24.969  1.00  0.00     0.008 A 
ATOM      9  N   UNL A   1      35.778  20.120  24.964  1.00  0.00    -0.348 N 
ATOM     10  C   UNL A   1      34.734  19.254  24.816  1.00  0.00     0.050 A 
ATOM     11  C   UNL A   1      32.344  19.294  24.735  1.00  0.00     0.015 A 
ATOM     12  H   UNL A   1      36.720  19.888  24.800  1.00  0.00     0.167 HD
ATOM     13  C   UNL A   1      34.771  17.882  24.558  1.00  0.00     0.073 A 
ATOM     14  C   UNL A   1      32.366  17.915  24.405  1.00  0.00     0.047 A 
ATOM     15  C   UNL A   1      33.568  17.213  24.350  1.00  0.00     0.120 A 
BRANCH   7  16
ATOM     16  C   UNL A   1      33.127  22.378  25.898  1.00  0.00     0.032 C 
ATOM     17  N   UNL A   1      32.654  25.804  24.955  1.00  0.00    -0.261 N 
ATOM     18  C   UNL A   1      32.428  24.761  25.869  1.00  0.00     0.270 C 
ATOM     19  C   UNL A   1      32.916  25.395  23.647  1.00  0.00     0.152 C 
ATOM     20  O   UNL A   1      32.117  24.845  27.052  1.00  0.00    -0.268 OA
ATOM     21  C   UNL A   1      32.688  23.445  25.205  1.00  0.00     0.081 C 
ATOM     22  S   UNL A   1      32.684  23.654  23.504  1.00  0.00    -0.054 SA
ATOM     23  S   UNL A   1      33.526  26.239  22.335  1.00  0.00    -0.051 S 
BRANCH  17  24
ATOM     24  C   UNL A   1      32.734  27.174  25.394  1.00  0.00     0.051 A 
ATOM     25  C   UNL A   1      32.775  29.810  26.438  1.00  0.00     0.119 A 
ATOM     26  C   UNL A   1      31.677  29.339  25.739  1.00  0.00     0.048 A 
ATOM     27  C   UNL A   1      33.867  28.981  26.623  1.00  0.00     0.048 A 
ATOM     28  C   UNL A   1      31.658  28.047  25.198  1.00  0.00     0.030 A 
ATOM     29  C   UNL A   1      33.848  27.679  26.093  1.00  0.00     0.030 A 
BRANCH  25  30
ATOM     30  O   UNL A   1      32.672  31.057  26.983  1.00  0.00    -0.497 OA
ATOM     31  C   UNL A   1      33.811  31.425  27.758  1.00  0.00     0.278 C 
ENDBRANCH  25  30
ENDBRANCH  17  24
ENDBRANCH   7  16
BRANCH  15  32
ATOM     32  O   UNL A   1      33.720  15.867  24.156  1.00  0.00    -0.497 OA
ATOM     33  C   UNL A   1      33.231  15.007  25.173  1.00  0.00     0.278 C 
ENDBRANCH  15  32
ENDBRANCH   4   6
ENDBRANCH   3   4
ENDBRANCH   2   3
ENDBRANCH   1   2
BRANCH   1  34
ATOM     34  O   UNL A   1      40.953  21.098  26.196  1.00  0.00    -0.374 OA
BRANCH  34  35
ATOM     35  C   UNL A   1      41.690  20.174  26.995  1.00  0.00     0.202 C 
BRANCH  35  36
ATOM     36  C   UNL A   1      42.404  19.021  26.282  1.00  0.00     0.261 C 
BRANCH  36  37
ATOM     37  O   UNL A   1      42.853  19.349  24.953  1.00  0.00    -0.460 OA
BRANCH  37  38
ATOM     38  C   UNL A   1      44.194  19.514  24.839  1.00  0.00     0.338 C 
ATOM     39  O   UNL A   1      45.019  18.643  24.614  1.00  0.00    -0.246 OA
BRANCH  38  40
ATOM     40  C   UNL A   1      44.575  20.941  24.922  1.00  0.00     0.060 A 
ATOM     41  C   UNL A   1      45.350  21.329  26.017  1.00  0.00     0.016 A 
ATOM     42  C   UNL A   1      44.097  21.905  24.027  1.00  0.00     0.016 A 
ATOM     43  C   UNL A   1      45.623  22.678  26.231  1.00  0.00     0.010 A 
ATOM     44  C   UNL A   1      44.371  23.265  24.249  1.00  0.00     0.010 A 
ATOM     45  C   UNL A   1      45.133  23.665  25.356  1.00  0.00    -0.014 A 
BRANCH  45  46
ATOM     46  C   UNL A   1      45.388  25.094  25.698  1.00  0.00     0.031 A 
ATOM     47  C   UNL A   1      44.342  25.851  26.467  1.00  0.00     0.074 A 
ATOM     48  C   UNL A   1      46.573  25.680  25.442  1.00  0.00     0.049 A 
ATOM     49  N   UNL A   1      44.415  27.027  27.038  1.00  0.00    -0.248 NA
ATOM     50  C   UNL A   1      43.030  25.197  26.596  1.00  0.00     0.031 C 
ATOM     51  C   UNL A   1      47.670  25.073  24.697  1.00  0.00     0.029 A 
ATOM     52  N   UNL A   1      47.089  26.888  25.860  1.00  0.00    -0.354 N 
ATOM     53  C   UNL A   1      43.150  27.272  27.552  1.00  0.00     0.074 A 
ATOM     54  C   UNL A   1      42.345  26.100  27.281  1.00  0.00     0.031 C 
ATOM     55  C   UNL A   1      48.773  25.827  24.845  1.00  0.00     0.029 A 
ATOM     56  C   UNL A   1      48.443  27.010  25.636  1.00  0.00     0.049 A 
ATOM     57  H   UNL A   1      46.543  27.593  26.277  1.00  0.00     0.167 HD
ATOM     58  C   UNL A   1      42.680  28.399  28.142  1.00  0.00     0.037 A 
ATOM     59  C   UNL A   1      49.318  27.948  26.054  1.00  0.00     0.037 A 
ATOM     60  C   UNL A   1      43.459  29.586  28.367  1.00  0.00     0.049 A 
ATOM     61  C   UNL A   1      48.796  29.153  26.794  1.00  0.00     0.074 A 
ATOM     62  C   UNL A   1      43.047  30.813  28.852  1.00  0.00     0.029 A 
ATOM     63  N   UNL A   1      44.818  29.690  28.114  1.00  0.00    -0.354 N 
ATOM     64  N   UNL A   1      47.592  29.387  27.255  1.00  0.00    -0.248 NA
ATOM     65  C   UNL A   1      49.751  30.248  27.027  1.00  0.00     0.031 C 
ATOM     66  C   UNL A   1      44.151  31.675  28.858  1.00  0.00     0.029 A 
ATOM     67  C   UNL A   1      45.259  30.968  28.418  1.00  0.00     0.049 A 
ATOM     68  H   UNL A   1      45.386  28.964  27.767  1.00  0.00     0.167 HD
ATOM     69  C   UNL A   1      47.635  30.666  27.793  1.00  0.00     0.074 A 
ATOM     70  C   UNL A   1      49.002  31.127  27.678  1.00  0.00     0.031 C 
ATOM     71  C   UNL A   1      46.620  31.415  28.291  1.00  0.00     0.037 A 
BRANCH  58  72
ATOM     72  C   UNL A   1      41.215  28.425  28.452  1.00  0.00     0.057 A 
ATOM     73  C   UNL A   1      40.262  28.880  27.534  1.00  0.00     0.134 A 
ATOM     74  C   UNL A   1      40.763  28.033  29.719  1.00  0.00     0.134 A 
ATOM     75  F   UNL A   1      40.638  29.297  26.316  1.00  0.00    -0.206 F 
ATOM     76  C   UNL A   1      38.911  28.971  27.876  1.00  0.00     0.040 A 
ATOM     77  C   UNL A   1      39.414  28.101  30.065  1.00  0.00     0.040 A 
ATOM     78  F   UNL A   1      41.629  27.595  30.644  1.00  0.00    -0.206 F 
ATOM     79  C   UNL A   1      38.485  28.580  29.145  1.00  0.00     0.006 A 
ENDBRANCH  58  72
BRANCH  59  80
ATOM     80  C   UNL A   1      50.784  27.799  25.834  1.00  0.00     0.057 A 
ATOM     81  C   UNL A   1      51.609  27.331  26.868  1.00  0.00     0.134 A 
ATOM     82  C   UNL A   1      51.408  28.147  24.632  1.00  0.00     0.134 A 
ATOM     83  F   UNL A   1      51.080  27.001  28.056  1.00  0.00    -0.206 F 
ATOM     84  C   UNL A   1      52.993  27.223  26.720  1.00  0.00     0.040 A 
ATOM     85  C   UNL A   1      52.790  28.020  24.460  1.00  0.00     0.040 A 
ATOM     86  F   UNL A   1      50.688  28.619  23.604  1.00  0.00    -0.206 F 
ATOM     87  C   UNL A   1      53.587  27.563  25.508  1.00  0.00     0.006 A 
ENDBRANCH  59  80
BRANCH  71  88
ATOM     88  C   UNL A   1      46.941  32.822  28.700  1.00  0.00     0.057 A 
ATOM     89  C   UNL A   1      47.347  33.121  30.008  1.00  0.00     0.134 A 
ATOM     90  C   UNL A   1      46.899  33.873  27.778  1.00  0.00     0.134 A 
ATOM     91  F   UNL A   1      47.401  32.159  30.942  1.00  0.00    -0.206 F 
ATOM     92  C   UNL A   1      47.684  34.422  30.388  1.00  0.00     0.040 A 
ATOM     93  C   UNL A   1      47.253  35.174  28.141  1.00  0.00     0.040 A 
ATOM     94  F   UNL A   1      46.526  33.652  26.509  1.00  0.00    -0.206 F 
ATOM     95  C   UNL A   1      47.644  35.451  29.451  1.00  0.00     0.006 A 
ENDBRANCH  71  88
ENDBRANCH  45  46
ENDBRANCH  38  40
ENDBRANCH  37  38
ENDBRANCH  36  37
ENDBRANCH  35  36
ENDBRANCH  34  35
ENDBRANCH   1  34
TORSDOF 18
ENDMDL
