MODEL 1
REMARK VINA RESULT:     -11.7      0.000      0.000
REMARK SMILES Cc1ccc(NC(=O)C[C@H]2SC[C@H](C(=O)OCCOCCOC(=O)c3ccc(-c4c5nc(c(-c6c(F)cccc6F)c6ccc([nH]6)c(-c6c(F)cccc6F)c6nc(c(-c7c(F)cccc7F)c7ccc4[nH]7)C=C6)C=C5)cc3)NC2=O)cc1
REMARK SMILES IDX 18 1 17 2 16 3 14 4 15 5 13 6 10 7 11 8 80 9 12 10 79 11
REMARK SMILES IDX 81 12 9 14 7 15 6 16 8 18 5 19 1 20 2 21 3 22 83 23 4 24
REMARK SMILES IDX 82 25 19 26 20 27 21 28 22 29 23 30 24 31 25 32 26 33 78 34
REMARK SMILES IDX 27 35 77 36 28 37 29 38 30 39 71 40 31 41 76 42 70 43 72 44
REMARK SMILES IDX 32 45 75 46 69 47 68 48 33 50 59 51 42 52 58 53 43 54 46 55
REMARK SMILES IDX 57 56 73 57 44 58 45 59 56 61 74 62 47 63 34 64 35 65 40 66
REMARK SMILES IDX 36 67 37 68 39 69 41 70 38 71 60 72 61 73 66 74 62 75 63 76
REMARK SMILES IDX 65 77 67 78 64 79 48 80 49 81 54 82 50 83 51 84 53 85 55 86
REMARK SMILES IDX 52 87
REMARK H PARENT 79 13 6 17 72 49 46 60
REMARK Flexibility Score: inf
ROOT
ATOM      1  C   UNL A   1      41.257  20.188  26.509  1.00  0.00     0.202 C 
ENDROOT
BRANCH   1   2
ATOM      2  C   UNL A   1      40.556  21.284  25.759  1.00  0.00     0.261 C 
BRANCH   2   3
ATOM      3  O   UNL A   1      39.237  21.466  26.284  1.00  0.00    -0.462 OA
BRANCH   3   4
ATOM      4  C   UNL A   1      38.206  20.983  25.527  1.00  0.00     0.329 C 
ATOM      5  O   UNL A   1      38.174  19.895  24.971  1.00  0.00    -0.250 OA
BRANCH   4   6
ATOM      6  C   UNL A   1      37.149  22.052  25.370  1.00  0.00     0.202 C 
ATOM      7  C   UNL A   1      34.253  22.489  24.788  1.00  0.00     0.145 C 
ATOM      8  S   UNL A   1      35.406  23.350  23.644  1.00  0.00    -0.145 SA
ATOM      9  C   UNL A   1      34.869  22.439  26.197  1.00  0.00     0.234 C 
ATOM     10  C   UNL A   1      36.790  22.214  23.888  1.00  0.00     0.107 C 
ATOM     11  N   UNL A   1      36.063  21.773  26.294  1.00  0.00    -0.341 N 
ATOM     12  O   UNL A   1      34.360  22.871  27.224  1.00  0.00    -0.274 OA
ATOM     13  H   UNL A   1      36.185  21.097  26.998  1.00  0.00     0.164 HD
BRANCH   7  14
ATOM     14  C   UNL A   1      32.846  23.057  24.648  1.00  0.00     0.124 C 
BRANCH  14  15
ATOM     15  C   UNL A   1      32.187  22.848  23.306  1.00  0.00     0.226 C 
ATOM     16  N   UNL A   1      31.715  23.873  22.547  1.00  0.00    -0.326 N 
ATOM     17  H   UNL A   1      31.510  23.600  21.623  1.00  0.00     0.169 HD
ATOM     18  O   UNL A   1      32.102  21.702  22.849  1.00  0.00    -0.275 OA
BRANCH  16  19
ATOM     19  C   UNL A   1      31.455  25.231  22.782  1.00  0.00     0.041 A 
ATOM     20  C   UNL A   1      30.531  29.305  23.885  1.00  0.00     0.044 C 
ATOM     21  C   UNL A   1      30.821  27.892  23.474  1.00  0.00    -0.051 A 
ATOM     22  C   UNL A   1      31.959  27.600  22.715  1.00  0.00     0.005 A 
ATOM     23  C   UNL A   1      29.989  26.844  23.870  1.00  0.00     0.005 A 
ATOM     24  C   UNL A   1      32.280  26.278  22.382  1.00  0.00     0.026 A 
ATOM     25  C   UNL A   1      30.310  25.527  23.531  1.00  0.00     0.026 A 
ENDBRANCH  16  19
ENDBRANCH  14  15
ENDBRANCH   7  14
ENDBRANCH   4   6
ENDBRANCH   3   4
ENDBRANCH   2   3
ENDBRANCH   1   2
BRANCH   1  26
ATOM     26  O   UNL A   1      41.834  19.363  25.506  1.00  0.00    -0.374 OA
BRANCH  26  27
ATOM     27  C   UNL A   1      42.926  18.556  25.908  1.00  0.00     0.202 C 
BRANCH  27  28
ATOM     28  C   UNL A   1      44.229  18.853  25.154  1.00  0.00     0.261 C 
BRANCH  28  29
ATOM     29  O   UNL A   1      44.142  20.152  24.530  1.00  0.00    -0.460 OA
BRANCH  29  30
ATOM     30  C   UNL A   1      44.935  21.132  25.041  1.00  0.00     0.338 C 
ATOM     31  O   UNL A   1      46.103  20.993  25.385  1.00  0.00    -0.246 OA
BRANCH  30  32
ATOM     32  C   UNL A   1      44.096  22.304  25.429  1.00  0.00     0.060 A 
ATOM     33  C   UNL A   1      43.905  23.368  24.525  1.00  0.00     0.016 A 
ATOM     34  C   UNL A   1      43.809  22.486  26.779  1.00  0.00     0.016 A 
ATOM     35  C   UNL A   1      43.581  24.650  24.999  1.00  0.00     0.010 A 
ATOM     36  C   UNL A   1      43.593  23.765  27.248  1.00  0.00     0.010 A 
ATOM     37  C   UNL A   1      43.509  24.862  26.374  1.00  0.00    -0.014 A 
BRANCH  37  38
ATOM     38  C   UNL A   1      43.481  26.166  27.052  1.00  0.00     0.031 A 
ATOM     39  C   UNL A   1      42.177  26.845  27.212  1.00  0.00     0.074 A 
ATOM     40  C   UNL A   1      44.539  26.606  27.780  1.00  0.00     0.049 A 
ATOM     41  N   UNL A   1      42.045  28.048  27.649  1.00  0.00    -0.248 NA
ATOM     42  C   UNL A   1      40.894  26.247  26.851  1.00  0.00     0.031 C 
ATOM     43  C   UNL A   1      44.535  27.547  28.905  1.00  0.00     0.029 A 
ATOM     44  N   UNL A   1      45.897  26.290  27.659  1.00  0.00    -0.354 N 
ATOM     45  C   UNL A   1      40.725  28.235  27.982  1.00  0.00     0.074 A 
ATOM     46  C   UNL A   1      40.039  27.159  27.317  1.00  0.00     0.031 C 
ATOM     47  C   UNL A   1      45.790  27.959  29.154  1.00  0.00     0.029 A 
ATOM     48  C   UNL A   1      46.637  27.386  28.128  1.00  0.00     0.049 A 
ATOM     49  H   UNL A   1      46.267  25.449  27.306  1.00  0.00     0.167 HD
ATOM     50  C   UNL A   1      40.430  29.203  28.899  1.00  0.00     0.037 A 
ATOM     51  C   UNL A   1      47.511  28.033  27.314  1.00  0.00     0.037 A 
ATOM     52  C   UNL A   1      41.639  30.000  29.205  1.00  0.00     0.049 A 
ATOM     53  C   UNL A   1      47.023  29.436  27.119  1.00  0.00     0.074 A 
ATOM     54  C   UNL A   1      42.446  30.128  30.323  1.00  0.00     0.029 A 
ATOM     55  N   UNL A   1      42.344  30.599  28.155  1.00  0.00    -0.354 N 
ATOM     56  N   UNL A   1      45.770  29.765  27.295  1.00  0.00    -0.248 NA
ATOM     57  C   UNL A   1      47.875  30.590  26.863  1.00  0.00     0.031 C 
ATOM     58  C   UNL A   1      43.666  30.747  29.918  1.00  0.00     0.029 A 
ATOM     59  C   UNL A   1      43.596  31.024  28.560  1.00  0.00     0.049 A 
ATOM     60  H   UNL A   1      41.994  30.706  27.241  1.00  0.00     0.167 HD
ATOM     61  C   UNL A   1      45.654  31.121  27.315  1.00  0.00     0.074 A 
ATOM     62  C   UNL A   1      46.988  31.596  26.985  1.00  0.00     0.031 C 
ATOM     63  C   UNL A   1      44.487  31.744  27.647  1.00  0.00     0.037 A 
BRANCH  50  64
ATOM     64  C   UNL A   1      39.122  29.327  29.678  1.00  0.00     0.057 A 
ATOM     65  C   UNL A   1      39.005  28.770  30.970  1.00  0.00     0.134 A 
ATOM     66  C   UNL A   1      37.922  29.916  29.222  1.00  0.00     0.134 A 
ATOM     67  F   UNL A   1      40.041  28.177  31.577  1.00  0.00    -0.206 F 
ATOM     68  C   UNL A   1      37.812  28.782  31.717  1.00  0.00     0.040 A 
ATOM     69  C   UNL A   1      36.731  29.954  29.966  1.00  0.00     0.040 A 
ATOM     70  F   UNL A   1      37.799  30.484  28.024  1.00  0.00    -0.206 F 
ATOM     71  C   UNL A   1      36.668  29.378  31.218  1.00  0.00     0.006 A 
ENDBRANCH  50  64
BRANCH  51  72
ATOM     72  C   UNL A   1      48.192  27.092  26.376  1.00  0.00     0.057 A 
ATOM     73  C   UNL A   1      47.750  27.106  25.034  1.00  0.00     0.134 A 
ATOM     74  C   UNL A   1      49.494  26.627  26.595  1.00  0.00     0.134 A 
ATOM     75  F   UNL A   1      46.529  27.576  24.733  1.00  0.00    -0.206 F 
ATOM     76  C   UNL A   1      48.594  26.793  23.960  1.00  0.00     0.040 A 
ATOM     77  C   UNL A   1      50.351  26.321  25.524  1.00  0.00     0.040 A 
ATOM     78  F   UNL A   1      50.009  26.604  27.833  1.00  0.00    -0.206 F 
ATOM     79  C   UNL A   1      49.915  26.439  24.204  1.00  0.00     0.006 A 
ENDBRANCH  51  72
BRANCH  63  80
ATOM     80  C   UNL A   1      44.120  33.138  27.208  1.00  0.00     0.057 A 
ATOM     81  C   UNL A   1      43.789  33.476  25.887  1.00  0.00     0.134 A 
ATOM     82  C   UNL A   1      43.888  34.154  28.162  1.00  0.00     0.134 A 
ATOM     83  F   UNL A   1      43.839  32.584  24.890  1.00  0.00    -0.206 F 
ATOM     84  C   UNL A   1      43.321  34.745  25.532  1.00  0.00     0.040 A 
ATOM     85  C   UNL A   1      43.357  35.400  27.827  1.00  0.00     0.040 A 
ATOM     86  F   UNL A   1      44.127  33.975  29.468  1.00  0.00    -0.206 F 
ATOM     87  C   UNL A   1      43.086  35.705  26.504  1.00  0.00     0.006 A 
ENDBRANCH  63  80
ENDBRANCH  37  38
ENDBRANCH  30  32
ENDBRANCH  29  30
ENDBRANCH  28  29
ENDBRANCH  27  28
ENDBRANCH  26  27
ENDBRANCH   1  26
TORSDOF 17
ENDMDL
MODEL 2
REMARK VINA RESULT:     -11.4      1.168      1.761
REMARK SMILES Cc1ccc(NC(=O)C[C@H]2SC[C@H](C(=O)OCCOCCOC(=O)c3ccc(-c4c5nc(c(-c6c(F)cccc6F)c6ccc([nH]6)c(-c6c(F)cccc6F)c6nc(c(-c7c(F)cccc7F)c7ccc4[nH]7)C=C6)C=C5)cc3)NC2=O)cc1
REMARK SMILES IDX 18 1 17 2 16 3 14 4 15 5 13 6 10 7 11 8 80 9 12 10 79 11
REMARK SMILES IDX 81 12 9 14 7 15 6 16 8 18 5 19 1 20 2 21 3 22 83 23 4 24
REMARK SMILES IDX 82 25 19 26 20 27 21 28 22 29 23 30 24 31 25 32 26 33 78 34
REMARK SMILES IDX 27 35 77 36 28 37 29 38 30 39 71 40 31 41 76 42 70 43 72 44
REMARK SMILES IDX 32 45 75 46 69 47 68 48 33 50 59 51 42 52 58 53 43 54 46 55
REMARK SMILES IDX 57 56 73 57 44 58 45 59 56 61 74 62 47 63 34 64 35 65 40 66
REMARK SMILES IDX 36 67 37 68 39 69 41 70 38 71 60 72 61 73 66 74 62 75 63 76
REMARK SMILES IDX 65 77 67 78 64 79 48 80 49 81 54 82 50 83 51 84 53 85 55 86
REMARK SMILES IDX 52 87
REMARK H PARENT 79 13 6 17 72 49 46 60
REMARK Flexibility Score: inf
ROOT
ATOM      1  C   UNL A   1      42.270  18.861  26.702  1.00  0.00     0.202 C 
ENDROOT
BRANCH   1   2
ATOM      2  C   UNL A   1      41.930  20.313  26.871  1.00  0.00     0.261 C 
BRANCH   2   3
ATOM      3  O   UNL A   1      40.662  20.590  26.268  1.00  0.00    -0.462 OA
BRANCH   3   4
ATOM      4  C   UNL A   1      40.249  21.894  26.286  1.00  0.00     0.329 C 
ATOM      5  O   UNL A   1      40.970  22.873  26.404  1.00  0.00    -0.250 OA
BRANCH   4   6
ATOM      6  C   UNL A   1      38.738  21.945  26.265  1.00  0.00     0.202 C 
ATOM      7  C   UNL A   1      36.381  22.334  24.474  1.00  0.00     0.145 C 
ATOM      8  S   UNL A   1      36.479  23.511  25.882  1.00  0.00    -0.145 SA
ATOM      9  C   UNL A   1      36.941  20.968  24.906  1.00  0.00     0.234 C 
ATOM     10  C   UNL A   1      38.271  23.396  26.094  1.00  0.00     0.107 C 
ATOM     11  N   UNL A   1      38.252  20.969  25.305  1.00  0.00    -0.341 N 
ATOM     12  O   UNL A   1      36.349  19.896  24.856  1.00  0.00    -0.274 OA
ATOM     13  H   UNL A   1      38.872  20.301  24.935  1.00  0.00     0.164 HD
BRANCH   7  14
ATOM     14  C   UNL A   1      34.990  22.368  23.853  1.00  0.00     0.124 C 
BRANCH  14  15
ATOM     15  C   UNL A   1      33.844  22.507  24.825  1.00  0.00     0.226 C 
ATOM     16  N   UNL A   1      33.135  23.659  24.971  1.00  0.00    -0.326 N 
ATOM     17  H   UNL A   1      32.301  23.531  25.479  1.00  0.00     0.169 HD
ATOM     18  O   UNL A   1      33.501  21.527  25.496  1.00  0.00    -0.275 OA
BRANCH  16  19
ATOM     19  C   UNL A   1      33.323  24.987  24.562  1.00  0.00     0.041 A 
ATOM     20  C   UNL A   1      33.578  29.026  23.048  1.00  0.00     0.044 C 
ATOM     21  C   UNL A   1      33.526  27.615  23.556  1.00  0.00    -0.051 A 
ATOM     22  C   UNL A   1      33.740  27.348  24.912  1.00  0.00     0.005 A 
ATOM     23  C   UNL A   1      33.228  26.554  22.700  1.00  0.00     0.005 A 
ATOM     24  C   UNL A   1      33.627  26.045  25.414  1.00  0.00     0.026 A 
ATOM     25  C   UNL A   1      33.122  25.255  23.202  1.00  0.00     0.026 A 
ENDBRANCH  16  19
ENDBRANCH  14  15
ENDBRANCH   7  14
ENDBRANCH   4   6
ENDBRANCH   3   4
ENDBRANCH   2   3
ENDBRANCH   1   2
BRANCH   1  26
ATOM     26  O   UNL A   1      42.824  18.759  25.397  1.00  0.00    -0.374 OA
BRANCH  26  27
ATOM     27  C   UNL A   1      44.216  18.512  25.322  1.00  0.00     0.202 C 
BRANCH  27  28
ATOM     28  C   UNL A   1      44.916  19.248  24.171  1.00  0.00     0.261 C 
BRANCH  28  29
ATOM     29  O   UNL A   1      44.518  20.636  24.172  1.00  0.00    -0.460 OA
BRANCH  29  30
ATOM     30  C   UNL A   1      45.263  21.488  24.927  1.00  0.00     0.338 C 
ATOM     31  O   UNL A   1      46.401  21.272  25.326  1.00  0.00    -0.246 OA
BRANCH  30  32
ATOM     32  C   UNL A   1      44.388  22.566  25.475  1.00  0.00     0.060 A 
ATOM     33  C   UNL A   1      43.912  23.588  24.629  1.00  0.00     0.016 A 
ATOM     34  C   UNL A   1      44.345  22.737  26.856  1.00  0.00     0.016 A 
ATOM     35  C   UNL A   1      43.543  24.835  25.163  1.00  0.00     0.010 A 
ATOM     36  C   UNL A   1      44.081  23.992  27.364  1.00  0.00     0.010 A 
ATOM     37  C   UNL A   1      43.711  25.059  26.528  1.00  0.00    -0.014 A 
BRANCH  37  38
ATOM     38  C   UNL A   1      43.668  26.363  27.205  1.00  0.00     0.031 A 
ATOM     39  C   UNL A   1      42.352  27.010  27.397  1.00  0.00     0.074 A 
ATOM     40  C   UNL A   1      44.733  26.830  27.907  1.00  0.00     0.049 A 
ATOM     41  N   UNL A   1      42.202  28.210  27.837  1.00  0.00    -0.248 NA
ATOM     42  C   UNL A   1      41.076  26.380  27.069  1.00  0.00     0.031 C 
ATOM     43  C   UNL A   1      44.734  27.771  29.030  1.00  0.00     0.029 A 
ATOM     44  N   UNL A   1      46.095  26.547  27.752  1.00  0.00    -0.354 N 
ATOM     45  C   UNL A   1      40.887  28.365  28.203  1.00  0.00     0.074 A 
ATOM     46  C   UNL A   1      40.210  27.271  27.556  1.00  0.00     0.031 C 
ATOM     47  C   UNL A   1      45.984  28.214  29.248  1.00  0.00     0.029 A 
ATOM     48  C   UNL A   1      46.820  27.661  28.201  1.00  0.00     0.049 A 
ATOM     49  H   UNL A   1      46.477  25.714  27.390  1.00  0.00     0.167 HD
ATOM     50  C   UNL A   1      40.590  29.326  29.126  1.00  0.00     0.037 A 
ATOM     51  C   UNL A   1      47.656  28.328  27.365  1.00  0.00     0.037 A 
ATOM     52  C   UNL A   1      41.787  30.152  29.401  1.00  0.00     0.049 A 
ATOM     53  C   UNL A   1      47.129  29.719  27.182  1.00  0.00     0.074 A 
ATOM     54  C   UNL A   1      42.619  30.302  30.499  1.00  0.00     0.029 A 
ATOM     55  N   UNL A   1      42.451  30.768  28.334  1.00  0.00    -0.354 N 
ATOM     56  N   UNL A   1      45.873  30.017  27.389  1.00  0.00    -0.248 NA
ATOM     57  C   UNL A   1      47.946  30.893  26.904  1.00  0.00     0.031 C 
ATOM     58  C   UNL A   1      43.813  30.950  30.063  1.00  0.00     0.029 A 
ATOM     59  C   UNL A   1      43.702  31.223  28.708  1.00  0.00     0.049 A 
ATOM     60  H   UNL A   1      42.075  30.866  27.429  1.00  0.00     0.167 HD
ATOM     61  C   UNL A   1      45.725  31.369  27.411  1.00  0.00     0.074 A 
ATOM     62  C   UNL A   1      47.038  31.877  27.048  1.00  0.00     0.031 C 
ATOM     63  C   UNL A   1      44.551  31.965  27.772  1.00  0.00     0.037 A 
BRANCH  50  64
ATOM     64  C   UNL A   1      39.300  29.419  29.938  1.00  0.00     0.057 A 
ATOM     65  C   UNL A   1      38.387  30.472  29.710  1.00  0.00     0.134 A 
ATOM     66  C   UNL A   1      38.903  28.565  30.991  1.00  0.00     0.134 A 
ATOM     67  F   UNL A   1      38.586  31.378  28.744  1.00  0.00    -0.206 F 
ATOM     68  C   UNL A   1      37.215  30.663  30.466  1.00  0.00     0.040 A 
ATOM     69  C   UNL A   1      37.726  28.732  31.739  1.00  0.00     0.040 A 
ATOM     70  F   UNL A   1      39.622  27.518  31.389  1.00  0.00    -0.206 F 
ATOM     71  C   UNL A   1      36.877  29.790  31.484  1.00  0.00     0.006 A 
ENDBRANCH  50  64
BRANCH  51  72
ATOM     72  C   UNL A   1      48.337  27.403  26.411  1.00  0.00     0.057 A 
ATOM     73  C   UNL A   1      47.874  27.419  25.077  1.00  0.00     0.134 A 
ATOM     74  C   UNL A   1      49.649  26.957  26.607  1.00  0.00     0.134 A 
ATOM     75  F   UNL A   1      46.641  27.872  24.798  1.00  0.00    -0.206 F 
ATOM     76  C   UNL A   1      48.705  27.124  23.988  1.00  0.00     0.040 A 
ATOM     77  C   UNL A   1      50.494  26.670  25.521  1.00  0.00     0.040 A 
ATOM     78  F   UNL A   1      50.184  26.935  27.836  1.00  0.00    -0.206 F 
ATOM     79  C   UNL A   1      50.035  26.789  24.209  1.00  0.00     0.006 A 
ENDBRANCH  51  72
BRANCH  63  80
ATOM     80  C   UNL A   1      44.139  33.348  27.342  1.00  0.00     0.057 A 
ATOM     81  C   UNL A   1      43.757  33.674  26.032  1.00  0.00     0.134 A 
ATOM     82  C   UNL A   1      43.918  34.363  28.299  1.00  0.00     0.134 A 
ATOM     83  F   UNL A   1      43.794  32.780  25.036  1.00  0.00    -0.206 F 
ATOM     84  C   UNL A   1      43.250  34.932  25.688  1.00  0.00     0.040 A 
ATOM     85  C   UNL A   1      43.348  35.596  27.979  1.00  0.00     0.040 A 
ATOM     86  F   UNL A   1      44.204  34.194  29.598  1.00  0.00    -0.206 F 
ATOM     87  C   UNL A   1      43.027  35.890  26.665  1.00  0.00     0.006 A 
ENDBRANCH  63  80
ENDBRANCH  37  38
ENDBRANCH  30  32
ENDBRANCH  29  30
ENDBRANCH  28  29
ENDBRANCH  27  28
ENDBRANCH  26  27
ENDBRANCH   1  26
TORSDOF 17
ENDMDL
MODEL 3
REMARK VINA RESULT:     -11.4      3.974      9.553
REMARK SMILES Cc1ccc(NC(=O)C[C@H]2SC[C@H](C(=O)OCCOCCOC(=O)c3ccc(-c4c5nc(c(-c6c(F)cccc6F)c6ccc([nH]6)c(-c6c(F)cccc6F)c6nc(c(-c7c(F)cccc7F)c7ccc4[nH]7)C=C6)C=C5)cc3)NC2=O)cc1
REMARK SMILES IDX 18 1 17 2 16 3 14 4 15 5 13 6 10 7 11 8 80 9 12 10 79 11
REMARK SMILES IDX 81 12 9 14 7 15 6 16 8 18 5 19 1 20 2 21 3 22 83 23 4 24
REMARK SMILES IDX 82 25 19 26 20 27 21 28 22 29 23 30 24 31 25 32 26 33 78 34
REMARK SMILES IDX 27 35 77 36 28 37 29 38 30 39 71 40 31 41 76 42 70 43 72 44
REMARK SMILES IDX 32 45 75 46 69 47 68 48 33 50 59 51 42 52 58 53 43 54 46 55
REMARK SMILES IDX 57 56 73 57 44 58 45 59 56 61 74 62 47 63 34 64 35 65 40 66
REMARK SMILES IDX 36 67 37 68 39 69 41 70 38 71 60 72 61 73 66 74 62 75 63 76
REMARK SMILES IDX 65 77 67 78 64 79 48 80 49 81 54 82 50 83 51 84 53 85 55 86
REMARK SMILES IDX 52 87
REMARK H PARENT 79 13 6 17 72 49 46 60
REMARK Flexibility Score: inf
ROOT
ATOM      1  C   UNL A   1      30.272  31.560  25.095  1.00  0.00     0.202 C 
ENDROOT
BRANCH   1   2
ATOM      2  C   UNL A   1      29.782  30.825  23.882  1.00  0.00     0.261 C 
BRANCH   2   3
ATOM      3  O   UNL A   1      30.276  29.481  23.893  1.00  0.00    -0.462 OA
BRANCH   3   4
ATOM      4  C   UNL A   1      30.490  28.898  22.674  1.00  0.00     0.329 C 
ATOM      5  O   UNL A   1      29.704  28.885  21.739  1.00  0.00    -0.250 OA
BRANCH   4   6
ATOM      6  C   UNL A   1      31.805  28.154  22.694  1.00  0.00     0.202 C 
ATOM      7  C   UNL A   1      33.020  25.449  23.044  1.00  0.00     0.145 C 
ATOM      8  S   UNL A   1      33.636  26.727  24.213  1.00  0.00    -0.145 SA
ATOM      9  C   UNL A   1      32.706  26.103  21.688  1.00  0.00     0.234 C 
ATOM     10  C   UNL A   1      32.165  27.774  24.134  1.00  0.00     0.107 C 
ATOM     11  N   UNL A   1      31.748  27.083  21.714  1.00  0.00    -0.341 N 
ATOM     12  O   UNL A   1      33.177  25.780  20.604  1.00  0.00    -0.274 OA
ATOM     13  H   UNL A   1      31.013  27.059  21.061  1.00  0.00     0.164 HD
BRANCH   7  14
ATOM     14  C   UNL A   1      33.942  24.236  23.052  1.00  0.00     0.124 C 
BRANCH  14  15
ATOM     15  C   UNL A   1      33.409  23.014  23.760  1.00  0.00     0.226 C 
ATOM     16  N   UNL A   1      34.120  22.336  24.700  1.00  0.00    -0.326 N 
ATOM     17  H   UNL A   1      33.568  21.702  25.212  1.00  0.00     0.169 HD
ATOM     18  O   UNL A   1      32.262  22.626  23.511  1.00  0.00    -0.275 OA
BRANCH  16  19
ATOM     19  C   UNL A   1      35.463  22.335  25.104  1.00  0.00     0.041 A 
ATOM     20  C   UNL A   1      39.681  22.104  26.016  1.00  0.00     0.044 C 
ATOM     21  C   UNL A   1      38.208  22.162  25.734  1.00  0.00    -0.051 A 
ATOM     22  C   UNL A   1      37.499  23.350  25.937  1.00  0.00     0.005 A 
ATOM     23  C   UNL A   1      37.530  21.052  25.229  1.00  0.00     0.005 A 
ATOM     24  C   UNL A   1      36.139  23.440  25.614  1.00  0.00     0.026 A 
ATOM     25  C   UNL A   1      36.173  21.142  24.913  1.00  0.00     0.026 A 
ENDBRANCH  16  19
ENDBRANCH  14  15
ENDBRANCH   7  14
ENDBRANCH   4   6
ENDBRANCH   3   4
ENDBRANCH   2   3
ENDBRANCH   1   2
BRANCH   1  26
ATOM     26  O   UNL A   1      31.282  30.728  25.651  1.00  0.00    -0.374 OA
BRANCH  26  27
ATOM     27  C   UNL A   1      31.882  31.183  26.849  1.00  0.00     0.202 C 
BRANCH  27  28
ATOM     28  C   UNL A   1      33.130  30.389  27.260  1.00  0.00     0.261 C 
BRANCH  28  29
ATOM     29  O   UNL A   1      34.292  31.243  27.192  1.00  0.00    -0.460 OA
BRANCH  29  30
ATOM     30  C   UNL A   1      35.015  31.388  28.335  1.00  0.00     0.338 C 
ATOM     31  O   UNL A   1      35.069  32.404  29.017  1.00  0.00    -0.246 OA
BRANCH  30  32
ATOM     32  C   UNL A   1      35.984  30.260  28.460  1.00  0.00     0.060 A 
ATOM     33  C   UNL A   1      36.206  29.654  29.713  1.00  0.00     0.016 A 
ATOM     34  C   UNL A   1      36.893  30.058  27.425  1.00  0.00     0.016 A 
ATOM     35  C   UNL A   1      37.414  28.984  29.972  1.00  0.00     0.010 A 
ATOM     36  C   UNL A   1      38.117  29.491  27.715  1.00  0.00     0.010 A 
ATOM     37  C   UNL A   1      38.405  28.979  28.992  1.00  0.00    -0.014 A 
BRANCH  37  38
ATOM     38  C   UNL A   1      39.812  28.600  29.181  1.00  0.00     0.031 A 
ATOM     39  C   UNL A   1      40.218  27.218  28.846  1.00  0.00     0.074 A 
ATOM     40  C   UNL A   1      40.778  29.538  29.358  1.00  0.00     0.049 A 
ATOM     41  N   UNL A   1      41.378  26.729  29.110  1.00  0.00    -0.248 NA
ATOM     42  C   UNL A   1      39.335  26.236  28.220  1.00  0.00     0.031 C 
ATOM     43  C   UNL A   1      42.206  29.437  29.043  1.00  0.00     0.029 A 
ATOM     44  N   UNL A   1      40.677  30.832  29.882  1.00  0.00    -0.354 N 
ATOM     45  C   UNL A   1      41.525  25.572  28.382  1.00  0.00     0.074 A 
ATOM     46  C   UNL A   1      40.183  25.233  27.986  1.00  0.00     0.031 C 
ATOM     47  C   UNL A   1      42.873  30.441  29.639  1.00  0.00     0.029 A 
ATOM     48  C   UNL A   1      41.915  31.163  30.453  1.00  0.00     0.049 A 
ATOM     49  H   UNL A   1      39.878  31.408  29.855  1.00  0.00     0.167 HD
ATOM     50  C   UNL A   1      42.793  25.152  28.102  1.00  0.00     0.037 A 
ATOM     51  C   UNL A   1      42.010  31.472  31.772  1.00  0.00     0.037 A 
ATOM     52  C   UNL A   1      43.776  25.975  28.840  1.00  0.00     0.049 A 
ATOM     53  C   UNL A   1      42.857  30.431  32.440  1.00  0.00     0.074 A 
ATOM     54  C   UNL A   1      44.722  26.914  28.459  1.00  0.00     0.029 A 
ATOM     55  N   UNL A   1      43.658  26.097  30.230  1.00  0.00    -0.354 N 
ATOM     56  N   UNL A   1      43.019  29.238  31.931  1.00  0.00    -0.248 NA
ATOM     57  C   UNL A   1      43.688  30.656  33.615  1.00  0.00     0.031 C 
ATOM     58  C   UNL A   1      45.114  27.642  29.622  1.00  0.00     0.029 A 
ATOM     59  C   UNL A   1      44.434  27.131  30.718  1.00  0.00     0.049 A 
ATOM     60  H   UNL A   1      43.093  25.517  30.791  1.00  0.00     0.167 HD
ATOM     61  C   UNL A   1      44.026  28.597  32.584  1.00  0.00     0.074 A 
ATOM     62  C   UNL A   1      44.379  29.501  33.666  1.00  0.00     0.031 C 
ATOM     63  C   UNL A   1      44.523  27.401  32.155  1.00  0.00     0.037 A 
BRANCH  50  64
ATOM     64  C   UNL A   1      43.183  24.143  27.023  1.00  0.00     0.057 A 
ATOM     65  C   UNL A   1      43.542  24.582  25.730  1.00  0.00     0.134 A 
ATOM     66  C   UNL A   1      43.177  22.735  27.145  1.00  0.00     0.134 A 
ATOM     67  F   UNL A   1      43.615  25.884  25.425  1.00  0.00    -0.206 F 
ATOM     68  C   UNL A   1      43.843  23.709  24.668  1.00  0.00     0.040 A 
ATOM     69  C   UNL A   1      43.496  21.854  26.099  1.00  0.00     0.040 A 
ATOM     70  F   UNL A   1      42.851  22.103  28.270  1.00  0.00    -0.206 F 
ATOM     71  C   UNL A   1      43.824  22.337  24.849  1.00  0.00     0.006 A 
ENDBRANCH  50  64
BRANCH  51  72
ATOM     72  C   UNL A   1      40.809  32.216  32.253  1.00  0.00     0.057 A 
ATOM     73  C   UNL A   1      40.760  33.596  31.955  1.00  0.00     0.134 A 
ATOM     74  C   UNL A   1      39.581  31.587  32.483  1.00  0.00     0.134 A 
ATOM     75  F   UNL A   1      41.891  34.266  31.681  1.00  0.00    -0.206 F 
ATOM     76  C   UNL A   1      39.553  34.285  31.776  1.00  0.00     0.040 A 
ATOM     77  C   UNL A   1      38.364  32.267  32.295  1.00  0.00     0.040 A 
ATOM     78  F   UNL A   1      39.526  30.274  32.745  1.00  0.00    -0.206 F 
ATOM     79  C   UNL A   1      38.347  33.606  31.905  1.00  0.00     0.006 A 
ENDBRANCH  51  72
BRANCH  63  80
ATOM     80  C   UNL A   1      45.223  26.410  33.048  1.00  0.00     0.057 A 
ATOM     81  C   UNL A   1      44.556  25.571  33.954  1.00  0.00     0.134 A 
ATOM     82  C   UNL A   1      46.596  26.126  32.870  1.00  0.00     0.134 A 
ATOM     83  F   UNL A   1      43.232  25.637  34.142  1.00  0.00    -0.206 F 
ATOM     84  C   UNL A   1      45.214  24.567  34.672  1.00  0.00     0.040 A 
ATOM     85  C   UNL A   1      47.245  25.082  33.529  1.00  0.00     0.040 A 
ATOM     86  F   UNL A   1      47.363  26.820  32.017  1.00  0.00    -0.206 F 
ATOM     87  C   UNL A   1      46.557  24.308  34.448  1.00  0.00     0.006 A 
ENDBRANCH  63  80
ENDBRANCH  37  38
ENDBRANCH  30  32
ENDBRANCH  29  30
ENDBRANCH  28  29
ENDBRANCH  27  28
ENDBRANCH  26  27
ENDBRANCH   1  26
TORSDOF 17
ENDMDL
