MODEL 1
REMARK VINA RESULT:      -9.6      0.000      0.000
REMARK SMILES CC(C)N1C(=O)C[C@@H]([N@@H+]2CC[C@H](C(=O)OCCOCCOC(=O)c3ccc(-c4c5nc(c(-c6c(F)cccc6F)c6ccc([nH]6)c(-c6c(F)cccc6F)c6nc(c(-c7c(F)cccc7F)c7ccc4[nH]7)C=C6)C=C5)cc3)[C@@H]2C)C1=O
REMARK SMILES IDX 18 1 17 2 16 3 15 4 13 5 14 6 12 7 9 8 10 9 78 10 11 12
REMARK SMILES IDX 79 13 8 14 4 15 5 16 80 17 6 18 7 19 81 20 2 21 1 22 3 23
REMARK SMILES IDX 19 24 20 25 21 26 22 27 23 28 24 29 25 30 77 31 26 32 76 33
REMARK SMILES IDX 27 34 28 35 29 36 70 37 30 38 75 39 69 40 71 41 31 42 74 43
REMARK SMILES IDX 68 44 67 45 32 47 58 48 41 49 57 50 42 51 45 52 56 53 72 54
REMARK SMILES IDX 43 55 44 56 55 58 73 59 46 60 33 61 34 62 39 63 35 64 36 65
REMARK SMILES IDX 38 66 40 67 37 68 59 69 60 70 65 71 61 72 62 73 64 74 66 75
REMARK SMILES IDX 63 76 47 77 48 78 53 79 49 80 50 81 52 82 54 83 51 84
REMARK H PARENT 9 11 71 46 45 57
REMARK Flexibility Score: inf
ROOT
ATOM      1  O   UNL A   1      42.148  19.209  25.376  1.00  0.00    -0.374 OA
ENDROOT
BRANCH   1   2
ATOM      2  C   UNL A   1      43.458  18.726  25.602  1.00  0.00     0.202 C 
BRANCH   2   3
ATOM      3  C   UNL A   1      44.634  19.410  24.915  1.00  0.00     0.261 C 
BRANCH   3   4
ATOM      4  O   UNL A   1      44.289  20.600  24.179  1.00  0.00    -0.463 OA
BRANCH   4   5
ATOM      5  C   UNL A   1      44.172  21.717  24.950  1.00  0.00     0.315 C 
ATOM      6  O   UNL A   1      43.160  22.402  24.993  1.00  0.00    -0.252 OA
BRANCH   5   7
ATOM      7  C   UNL A   1      45.488  22.092  25.619  1.00  0.00     0.162 C 
ATOM      8  N   UNL A   1      45.516  24.460  26.035  1.00  0.00    -0.321 N 
ATOM      9  C   UNL A   1      45.869  24.243  24.628  1.00  0.00     0.264 C 
ATOM     10  C   UNL A   1      45.502  23.162  26.718  1.00  0.00     0.196 C 
ATOM     11  H   UNL A   1      46.245  24.999  26.504  1.00  0.00     0.349 HD
ATOM     12  C   UNL A   1      46.348  22.792  24.559  1.00  0.00     0.083 C 
ATOM     13  C   UNL A   1      44.611  22.996  27.933  1.00  0.00     0.076 C 
BRANCH   8  14
ATOM     14  C   UNL A   1      44.468  25.455  26.306  1.00  0.00     0.284 C 
ATOM     15  N   UNL A   1      44.461  27.805  26.059  1.00  0.00    -0.275 N 
ATOM     16  C   UNL A   1      43.472  27.349  25.239  1.00  0.00     0.236 C 
ATOM     17  C   UNL A   1      45.054  26.787  26.765  1.00  0.00     0.288 C 
ATOM     18  O   UNL A   1      42.646  28.007  24.625  1.00  0.00    -0.274 OA
ATOM     19  C   UNL A   1      43.537  25.858  25.170  1.00  0.00     0.176 C 
ATOM     20  O   UNL A   1      45.882  26.923  27.656  1.00  0.00    -0.267 OA
BRANCH  15  21
ATOM     21  C   UNL A   1      44.774  29.206  26.339  1.00  0.00     0.087 C 
ATOM     22  C   UNL A   1      44.320  29.691  27.716  1.00  0.00     0.031 C 
ATOM     23  C   UNL A   1      46.264  29.479  26.138  1.00  0.00     0.031 C 
ENDBRANCH  15  21
ENDBRANCH   8  14
ENDBRANCH   5   7
ENDBRANCH   4   5
ENDBRANCH   3   4
ENDBRANCH   2   3
ENDBRANCH   1   2
BRANCH   1  24
ATOM     24  C   UNL A   1      41.357  19.719  26.437  1.00  0.00     0.202 C 
BRANCH  24  25
ATOM     25  C   UNL A   1      40.102  20.552  26.156  1.00  0.00     0.261 C 
BRANCH  25  26
ATOM     26  O   UNL A   1      40.055  21.873  26.656  1.00  0.00    -0.460 OA
BRANCH  26  27
ATOM     27  C   UNL A   1      39.194  22.725  26.078  1.00  0.00     0.338 C 
ATOM     28  O   UNL A   1      38.345  22.504  25.242  1.00  0.00    -0.246 OA
BRANCH  27  29
ATOM     29  C   UNL A   1      39.433  23.980  26.805  1.00  0.00     0.060 A 
ATOM     30  C   UNL A   1      40.169  24.990  26.182  1.00  0.00     0.016 A 
ATOM     31  C   UNL A   1      38.807  24.186  28.040  1.00  0.00     0.016 A 
ATOM     32  C   UNL A   1      40.319  26.214  26.826  1.00  0.00     0.010 A 
ATOM     33  C   UNL A   1      38.953  25.409  28.679  1.00  0.00     0.010 A 
ATOM     34  C   UNL A   1      39.742  26.410  28.090  1.00  0.00    -0.014 A 
BRANCH  34  35
ATOM     35  C   UNL A   1      40.134  27.576  28.902  1.00  0.00     0.031 A 
ATOM     36  C   UNL A   1      41.480  27.538  29.563  1.00  0.00     0.074 A 
ATOM     37  C   UNL A   1      39.310  28.626  29.046  1.00  0.00     0.049 A 
ATOM     38  N   UNL A   1      42.034  28.404  30.369  1.00  0.00    -0.248 NA
ATOM     39  C   UNL A   1      42.312  26.352  29.288  1.00  0.00     0.031 C 
ATOM     40  C   UNL A   1      37.989  28.756  28.431  1.00  0.00     0.029 A 
ATOM     41  N   UNL A   1      39.462  29.780  29.767  1.00  0.00    -0.354 N 
ATOM     42  C   UNL A   1      43.271  27.865  30.698  1.00  0.00     0.074 A 
ATOM     43  C   UNL A   1      43.372  26.581  30.045  1.00  0.00     0.031 C 
ATOM     44  C   UNL A   1      37.447  29.928  28.808  1.00  0.00     0.029 A 
ATOM     45  C   UNL A   1      38.371  30.610  29.713  1.00  0.00     0.049 A 
ATOM     46  H   UNL A   1      40.278  29.993  30.276  1.00  0.00     0.167 HD
ATOM     47  C   UNL A   1      44.243  28.406  31.467  1.00  0.00     0.037 A 
ATOM     48  C   UNL A   1      38.148  31.778  30.342  1.00  0.00     0.037 A 
ATOM     49  C   UNL A   1      44.125  29.687  32.108  1.00  0.00     0.049 A 
ATOM     50  C   UNL A   1      39.224  32.336  31.237  1.00  0.00     0.074 A 
ATOM     51  C   UNL A   1      45.050  30.346  32.893  1.00  0.00     0.029 A 
ATOM     52  N   UNL A   1      43.002  30.499  32.036  1.00  0.00    -0.354 N 
ATOM     53  N   UNL A   1      40.408  31.842  31.515  1.00  0.00    -0.248 NA
ATOM     54  C   UNL A   1      38.939  33.615  31.903  1.00  0.00     0.031 C 
ATOM     55  C   UNL A   1      44.469  31.537  33.338  1.00  0.00     0.029 A 
ATOM     56  C   UNL A   1      43.202  31.645  32.782  1.00  0.00     0.049 A 
ATOM     57  H   UNL A   1      42.185  30.289  31.528  1.00  0.00     0.167 HD
ATOM     58  C   UNL A   1      41.020  32.760  32.358  1.00  0.00     0.074 A 
ATOM     59  C   UNL A   1      40.078  33.847  32.539  1.00  0.00     0.031 C 
ATOM     60  C   UNL A   1      42.248  32.716  32.930  1.00  0.00     0.037 A 
BRANCH  47  61
ATOM     61  C   UNL A   1      45.493  27.603  31.668  1.00  0.00     0.057 A 
ATOM     62  C   UNL A   1      46.642  27.813  30.894  1.00  0.00     0.134 A 
ATOM     63  C   UNL A   1      45.554  26.615  32.658  1.00  0.00     0.134 A 
ATOM     64  F   UNL A   1      46.644  28.730  29.914  1.00  0.00    -0.206 F 
ATOM     65  C   UNL A   1      47.799  27.054  31.083  1.00  0.00     0.040 A 
ATOM     66  C   UNL A   1      46.713  25.869  32.876  1.00  0.00     0.040 A 
ATOM     67  F   UNL A   1      44.488  26.360  33.433  1.00  0.00    -0.206 F 
ATOM     68  C   UNL A   1      47.838  26.084  32.082  1.00  0.00     0.006 A 
ENDBRANCH  47  61
BRANCH  48  69
ATOM     69  C   UNL A   1      36.860  32.496  30.155  1.00  0.00     0.057 A 
ATOM     70  C   UNL A   1      36.712  33.478  29.170  1.00  0.00     0.134 A 
ATOM     71  C   UNL A   1      35.752  32.227  30.968  1.00  0.00     0.134 A 
ATOM     72  F   UNL A   1      37.741  33.794  28.371  1.00  0.00    -0.206 F 
ATOM     73  C   UNL A   1      35.515  34.181  29.011  1.00  0.00     0.040 A 
ATOM     74  C   UNL A   1      34.542  32.904  30.803  1.00  0.00     0.040 A 
ATOM     75  F   UNL A   1      35.825  31.294  31.928  1.00  0.00    -0.206 F 
ATOM     76  C   UNL A   1      34.424  33.890  29.827  1.00  0.00     0.006 A 
ENDBRANCH  48  69
BRANCH  60  77
ATOM     77  C   UNL A   1      42.662  33.891  33.765  1.00  0.00     0.057 A 
ATOM     78  C   UNL A   1      43.262  35.023  33.202  1.00  0.00     0.134 A 
ATOM     79  C   UNL A   1      42.391  33.912  35.139  1.00  0.00     0.134 A 
ATOM     80  F   UNL A   1      43.555  35.060  31.894  1.00  0.00    -0.206 F 
ATOM     81  C   UNL A   1      43.596  36.131  33.983  1.00  0.00     0.040 A 
ATOM     82  C   UNL A   1      42.694  35.024  35.924  1.00  0.00     0.040 A 
ATOM     83  F   UNL A   1      41.806  32.862  35.734  1.00  0.00    -0.206 F 
ATOM     84  C   UNL A   1      43.303  36.136  35.346  1.00  0.00     0.006 A 
ENDBRANCH  60  77
ENDBRANCH  34  35
ENDBRANCH  27  29
ENDBRANCH  26  27
ENDBRANCH  25  26
ENDBRANCH  24  25
ENDBRANCH   1  24
TORSDOF 16
ENDMDL
MODEL 2
REMARK VINA RESULT:      -9.6      4.099     10.658
REMARK SMILES CC(C)N1C(=O)C[C@@H]([N@@H+]2CC[C@H](C(=O)OCCOCCOC(=O)c3ccc(-c4c5nc(c(-c6c(F)cccc6F)c6ccc([nH]6)c(-c6c(F)cccc6F)c6nc(c(-c7c(F)cccc7F)c7ccc4[nH]7)C=C6)C=C5)cc3)[C@@H]2C)C1=O
REMARK SMILES IDX 18 1 17 2 16 3 15 4 13 5 14 6 12 7 9 8 10 9 78 10 11 12
REMARK SMILES IDX 79 13 8 14 4 15 5 16 80 17 6 18 7 19 81 20 2 21 1 22 3 23
REMARK SMILES IDX 19 24 20 25 21 26 22 27 23 28 24 29 25 30 77 31 26 32 76 33
REMARK SMILES IDX 27 34 28 35 29 36 70 37 30 38 75 39 69 40 71 41 31 42 74 43
REMARK SMILES IDX 68 44 67 45 32 47 58 48 41 49 57 50 42 51 45 52 56 53 72 54
REMARK SMILES IDX 43 55 44 56 55 58 73 59 46 60 33 61 34 62 39 63 35 64 36 65
REMARK SMILES IDX 38 66 40 67 37 68 59 69 60 70 65 71 61 72 62 73 64 74 66 75
REMARK SMILES IDX 63 76 47 77 48 78 53 79 49 80 50 81 52 82 54 83 51 84
REMARK H PARENT 9 11 71 46 45 57
REMARK Flexibility Score: inf
ROOT
ATOM      1  O   UNL A   1      32.878  34.979  28.927  1.00  0.00    -0.374 OA
ENDROOT
BRANCH   1   2
ATOM      2  C   UNL A   1      33.191  36.157  29.645  1.00  0.00     0.202 C 
BRANCH   2   3
ATOM      3  C   UNL A   1      33.269  36.105  31.166  1.00  0.00     0.261 C 
BRANCH   3   4
ATOM      4  O   UNL A   1      33.199  34.779  31.725  1.00  0.00    -0.463 OA
BRANCH   4   5
ATOM      5  C   UNL A   1      34.391  34.120  31.748  1.00  0.00     0.315 C 
ATOM      6  O   UNL A   1      34.545  32.993  31.298  1.00  0.00    -0.252 OA
BRANCH   5   7
ATOM      7  C   UNL A   1      35.452  34.881  32.532  1.00  0.00     0.162 C 
ATOM      8  N   UNL A   1      37.154  33.345  33.255  1.00  0.00    -0.321 N 
ATOM      9  C   UNL A   1      36.022  33.235  34.181  1.00  0.00     0.264 C 
ATOM     10  C   UNL A   1      36.929  34.498  32.377  1.00  0.00     0.196 C 
ATOM     11  H   UNL A   1      38.010  33.563  33.766  1.00  0.00     0.349 HD
ATOM     12  C   UNL A   1      35.246  34.542  34.014  1.00  0.00     0.083 C 
ATOM     13  C   UNL A   1      37.557  34.489  30.997  1.00  0.00     0.076 C 
BRANCH   8  14
ATOM     14  C   UNL A   1      37.683  32.086  32.709  1.00  0.00     0.284 C 
ATOM     15  N   UNL A   1      38.868  30.324  33.745  1.00  0.00    -0.275 N 
ATOM     16  C   UNL A   1      37.721  29.761  33.269  1.00  0.00     0.236 C 
ATOM     17  C   UNL A   1      38.964  31.654  33.415  1.00  0.00     0.288 C 
ATOM     18  O   UNL A   1      37.425  28.577  33.235  1.00  0.00    -0.274 OA
ATOM     19  C   UNL A   1      36.810  30.839  32.778  1.00  0.00     0.176 C 
ATOM     20  O   UNL A   1      39.938  32.369  33.609  1.00  0.00    -0.267 OA
BRANCH  15  21
ATOM     21  C   UNL A   1      39.983  29.613  34.370  1.00  0.00     0.087 C 
ATOM     22  C   UNL A   1      41.081  29.182  33.397  1.00  0.00     0.031 C 
ATOM     23  C   UNL A   1      40.574  30.435  35.516  1.00  0.00     0.031 C 
ENDBRANCH  15  21
ENDBRANCH   8  14
ENDBRANCH   5   7
ENDBRANCH   4   5
ENDBRANCH   3   4
ENDBRANCH   2   3
ENDBRANCH   1   2
BRANCH   1  24
ATOM     24  C   UNL A   1      33.830  34.353  28.084  1.00  0.00     0.202 C 
BRANCH  24  25
ATOM     25  C   UNL A   1      33.733  32.860  27.754  1.00  0.00     0.261 C 
BRANCH  25  26
ATOM     26  O   UNL A   1      34.738  32.002  28.254  1.00  0.00    -0.460 OA
BRANCH  26  27
ATOM     27  C   UNL A   1      34.566  30.681  28.088  1.00  0.00     0.338 C 
ATOM     28  O   UNL A   1      33.571  30.077  27.749  1.00  0.00    -0.246 OA
BRANCH  27  29
ATOM     29  C   UNL A   1      35.920  30.143  28.283  1.00  0.00     0.060 A 
ATOM     30  C   UNL A   1      36.238  29.547  29.504  1.00  0.00     0.016 A 
ATOM     31  C   UNL A   1      36.810  30.120  27.203  1.00  0.00     0.016 A 
ATOM     32  C   UNL A   1      37.486  28.953  29.663  1.00  0.00     0.010 A 
ATOM     33  C   UNL A   1      38.052  29.523  27.360  1.00  0.00     0.010 A 
ATOM     34  C   UNL A   1      38.406  28.974  28.603  1.00  0.00    -0.014 A 
BRANCH  34  35
ATOM     35  C   UNL A   1      39.815  28.619  28.849  1.00  0.00     0.031 A 
ATOM     36  C   UNL A   1      40.690  29.656  29.489  1.00  0.00     0.074 A 
ATOM     37  C   UNL A   1      40.293  27.413  28.503  1.00  0.00     0.049 A 
ATOM     38  N   UNL A   1      41.967  29.615  29.758  1.00  0.00    -0.248 NA
ATOM     39  C   UNL A   1      40.035  30.922  29.866  1.00  0.00     0.031 C 
ATOM     40  C   UNL A   1      39.515  26.338  27.888  1.00  0.00     0.029 A 
ATOM     41  N   UNL A   1      41.557  26.896  28.613  1.00  0.00    -0.354 N 
ATOM     42  C   UNL A   1      42.266  30.845  30.328  1.00  0.00     0.074 A 
ATOM     43  C   UNL A   1      41.053  31.629  30.328  1.00  0.00     0.031 C 
ATOM     44  C   UNL A   1      40.325  25.286  27.669  1.00  0.00     0.029 A 
ATOM     45  C   UNL A   1      41.679  25.629  28.101  1.00  0.00     0.049 A 
ATOM     46  H   UNL A   1      42.306  27.387  29.022  1.00  0.00     0.167 HD
ATOM     47  C   UNL A   1      43.449  31.274  30.823  1.00  0.00     0.037 A 
ATOM     48  C   UNL A   1      42.770  24.851  27.982  1.00  0.00     0.037 A 
ATOM     49  C   UNL A   1      44.645  30.479  30.816  1.00  0.00     0.049 A 
ATOM     50  C   UNL A   1      44.089  25.371  28.492  1.00  0.00     0.074 A 
ATOM     51  C   UNL A   1      45.896  30.799  31.307  1.00  0.00     0.029 A 
ATOM     52  N   UNL A   1      44.734  29.200  30.283  1.00  0.00    -0.354 N 
ATOM     53  N   UNL A   1      44.359  26.521  29.066  1.00  0.00    -0.248 NA
ATOM     54  C   UNL A   1      45.254  24.489  28.344  1.00  0.00     0.031 C 
ATOM     55  C   UNL A   1      46.756  29.732  31.027  1.00  0.00     0.029 A 
ATOM     56  C   UNL A   1      46.026  28.726  30.412  1.00  0.00     0.049 A 
ATOM     57  H   UNL A   1      43.987  28.706  29.874  1.00  0.00     0.167 HD
ATOM     58  C   UNL A   1      45.713  26.487  29.375  1.00  0.00     0.074 A 
ATOM     59  C   UNL A   1      46.206  25.198  28.933  1.00  0.00     0.031 C 
ATOM     60  C   UNL A   1      46.481  27.430  29.974  1.00  0.00     0.037 A 
BRANCH  47  61
ATOM     61  C   UNL A   1      43.501  32.664  31.384  1.00  0.00     0.057 A 
ATOM     62  C   UNL A   1      43.711  33.785  30.571  1.00  0.00     0.134 A 
ATOM     63  C   UNL A   1      43.328  32.884  32.756  1.00  0.00     0.134 A 
ATOM     64  F   UNL A   1      43.906  33.642  29.251  1.00  0.00    -0.206 F 
ATOM     65  C   UNL A   1      43.767  35.074  31.105  1.00  0.00     0.040 A 
ATOM     66  C   UNL A   1      43.353  34.170  33.298  1.00  0.00     0.040 A 
ATOM     67  F   UNL A   1      43.127  31.854  33.592  1.00  0.00    -0.206 F 
ATOM     68  C   UNL A   1      43.580  35.269  32.472  1.00  0.00     0.006 A 
ENDBRANCH  47  61
BRANCH  48  69
ATOM     69  C   UNL A   1      42.668  23.508  27.355  1.00  0.00     0.057 A 
ATOM     70  C   UNL A   1      42.830  23.335  25.977  1.00  0.00     0.134 A 
ATOM     71  C   UNL A   1      42.392  22.367  28.119  1.00  0.00     0.134 A 
ATOM     72  F   UNL A   1      43.079  24.390  25.188  1.00  0.00    -0.206 F 
ATOM     73  C   UNL A   1      42.701  22.080  25.377  1.00  0.00     0.040 A 
ATOM     74  C   UNL A   1      42.286  21.103  27.536  1.00  0.00     0.040 A 
ATOM     75  F   UNL A   1      42.231  22.462  29.447  1.00  0.00    -0.206 F 
ATOM     76  C   UNL A   1      42.433  20.959  26.158  1.00  0.00     0.006 A 
ENDBRANCH  48  69
BRANCH  60  77
ATOM     77  C   UNL A   1      47.919  27.089  30.226  1.00  0.00     0.057 A 
ATOM     78  C   UNL A   1      48.929  27.421  29.316  1.00  0.00     0.134 A 
ATOM     79  C   UNL A   1      48.301  26.481  31.429  1.00  0.00     0.134 A 
ATOM     80  F   UNL A   1      48.626  27.995  28.142  1.00  0.00    -0.206 F 
ATOM     81  C   UNL A   1      50.270  27.142  29.586  1.00  0.00     0.040 A 
ATOM     82  C   UNL A   1      49.640  26.224  31.723  1.00  0.00     0.040 A 
ATOM     83  F   UNL A   1      47.381  26.151  32.348  1.00  0.00    -0.206 F 
ATOM     84  C   UNL A   1      50.629  26.551  30.797  1.00  0.00     0.006 A 
ENDBRANCH  60  77
ENDBRANCH  34  35
ENDBRANCH  27  29
ENDBRANCH  26  27
ENDBRANCH  25  26
ENDBRANCH  24  25
ENDBRANCH   1  24
TORSDOF 16
ENDMDL
MODEL 3
REMARK VINA RESULT:      -9.5      5.046     10.296
REMARK SMILES CC(C)N1C(=O)C[C@@H]([N@@H+]2CC[C@H](C(=O)OCCOCCOC(=O)c3ccc(-c4c5nc(c(-c6c(F)cccc6F)c6ccc([nH]6)c(-c6c(F)cccc6F)c6nc(c(-c7c(F)cccc7F)c7ccc4[nH]7)C=C6)C=C5)cc3)[C@@H]2C)C1=O
REMARK SMILES IDX 18 1 17 2 16 3 15 4 13 5 14 6 12 7 9 8 10 9 78 10 11 12
REMARK SMILES IDX 79 13 8 14 4 15 5 16 80 17 6 18 7 19 81 20 2 21 1 22 3 23
REMARK SMILES IDX 19 24 20 25 21 26 22 27 23 28 24 29 25 30 77 31 26 32 76 33
REMARK SMILES IDX 27 34 28 35 29 36 70 37 30 38 75 39 69 40 71 41 31 42 74 43
REMARK SMILES IDX 68 44 67 45 32 47 58 48 41 49 57 50 42 51 45 52 56 53 72 54
REMARK SMILES IDX 43 55 44 56 55 58 73 59 46 60 33 61 34 62 39 63 35 64 36 65
REMARK SMILES IDX 38 66 40 67 37 68 59 69 60 70 65 71 61 72 62 73 64 74 66 75
REMARK SMILES IDX 63 76 47 77 48 78 53 79 49 80 50 81 52 82 54 83 51 84
REMARK H PARENT 9 11 71 46 45 57
REMARK Flexibility Score: inf
ROOT
ATOM      1  O   UNL A   1      32.098  30.545  27.113  1.00  0.00    -0.374 OA
ENDROOT
BRANCH   1   2
ATOM      2  C   UNL A   1      33.102  29.805  26.445  1.00  0.00     0.202 C 
BRANCH   2   3
ATOM      3  C   UNL A   1      32.808  29.226  25.066  1.00  0.00     0.261 C 
BRANCH   3   4
ATOM      4  O   UNL A   1      31.675  28.336  25.018  1.00  0.00    -0.463 OA
BRANCH   4   5
ATOM      5  C   UNL A   1      30.763  28.649  24.056  1.00  0.00     0.315 C 
ATOM      6  O   UNL A   1      30.376  29.789  23.839  1.00  0.00    -0.252 OA
BRANCH   5   7
ATOM      7  C   UNL A   1      30.174  27.407  23.399  1.00  0.00     0.162 C 
ATOM      8  N   UNL A   1      31.568  25.513  23.898  1.00  0.00    -0.321 N 
ATOM      9  C   UNL A   1      32.187  26.253  22.793  1.00  0.00     0.264 C 
ATOM     10  C   UNL A   1      30.229  26.062  24.135  1.00  0.00     0.196 C 
ATOM     11  H   UNL A   1      31.413  24.541  23.630  1.00  0.00     0.349 HD
ATOM     12  C   UNL A   1      31.053  27.080  22.186  1.00  0.00     0.083 C 
ATOM     13  C   UNL A   1      29.637  25.947  25.526  1.00  0.00     0.076 C 
BRANCH   8  14
ATOM     14  C   UNL A   1      32.441  25.165  25.029  1.00  0.00     0.284 C 
ATOM     15  N   UNL A   1      33.757  23.246  25.438  1.00  0.00    -0.275 N 
ATOM     16  C   UNL A   1      34.634  24.289  25.402  1.00  0.00     0.236 C 
ATOM     17  C   UNL A   1      32.457  23.663  25.294  1.00  0.00     0.288 C 
ATOM     18  O   UNL A   1      35.825  24.277  25.677  1.00  0.00    -0.274 OA
ATOM     19  C   UNL A   1      33.920  25.518  24.943  1.00  0.00     0.176 C 
ATOM     20  O   UNL A   1      31.464  22.957  25.409  1.00  0.00    -0.267 OA
BRANCH  15  21
ATOM     21  C   UNL A   1      34.078  21.860  25.775  1.00  0.00     0.087 C 
ATOM     22  C   UNL A   1      35.189  21.244  24.923  1.00  0.00     0.031 C 
ATOM     23  C   UNL A   1      34.407  21.726  27.262  1.00  0.00     0.031 C 
ENDBRANCH  15  21
ENDBRANCH   8  14
ENDBRANCH   5   7
ENDBRANCH   4   5
ENDBRANCH   3   4
ENDBRANCH   2   3
ENDBRANCH   1   2
BRANCH   1  24
ATOM     24  C   UNL A   1      31.452  31.642  26.490  1.00  0.00     0.202 C 
BRANCH  24  25
ATOM     25  C   UNL A   1      31.772  33.084  26.899  1.00  0.00     0.261 C 
BRANCH  25  26
ATOM     26  O   UNL A   1      33.128  33.438  27.080  1.00  0.00    -0.460 OA
BRANCH  26  27
ATOM     27  C   UNL A   1      33.461  34.053  28.226  1.00  0.00     0.338 C 
ATOM     28  O   UNL A   1      32.895  34.958  28.800  1.00  0.00    -0.246 OA
BRANCH  27  29
ATOM     29  C   UNL A   1      34.612  33.271  28.699  1.00  0.00     0.060 A 
ATOM     30  C   UNL A   1      34.418  31.937  29.063  1.00  0.00     0.016 A 
ATOM     31  C   UNL A   1      35.893  33.836  28.645  1.00  0.00     0.016 A 
ATOM     32  C   UNL A   1      35.518  31.166  29.421  1.00  0.00     0.010 A 
ATOM     33  C   UNL A   1      36.990  33.064  28.998  1.00  0.00     0.010 A 
ATOM     34  C   UNL A   1      36.798  31.739  29.424  1.00  0.00    -0.014 A 
BRANCH  34  35
ATOM     35  C   UNL A   1      37.917  31.034  30.075  1.00  0.00     0.031 A 
ATOM     36  C   UNL A   1      38.191  31.351  31.516  1.00  0.00     0.074 A 
ATOM     37  C   UNL A   1      38.662  30.147  29.397  1.00  0.00     0.049 A 
ATOM     38  N   UNL A   1      39.142  30.913  32.296  1.00  0.00    -0.248 NA
ATOM     39  C   UNL A   1      37.270  32.304  32.163  1.00  0.00     0.031 C 
ATOM     40  C   UNL A   1      38.462  29.766  27.999  1.00  0.00     0.029 A 
ATOM     41  N   UNL A   1      39.748  29.414  29.796  1.00  0.00    -0.354 N 
ATOM     42  C   UNL A   1      38.938  31.541  33.518  1.00  0.00     0.074 A 
ATOM     43  C   UNL A   1      37.802  32.421  33.368  1.00  0.00     0.031 C 
ATOM     44  C   UNL A   1      39.404  28.869  27.654  1.00  0.00     0.029 A 
ATOM     45  C   UNL A   1      40.285  28.640  28.798  1.00  0.00     0.049 A 
ATOM     46  H   UNL A   1      40.108  29.439  30.712  1.00  0.00     0.167 HD
ATOM     47  C   UNL A   1      39.630  31.382  34.668  1.00  0.00     0.037 A 
ATOM     48  C   UNL A   1      41.378  27.854  28.812  1.00  0.00     0.037 A 
ATOM     49  C   UNL A   1      40.756  30.499  34.799  1.00  0.00     0.049 A 
ATOM     50  C   UNL A   1      42.165  27.733  30.091  1.00  0.00     0.074 A 
ATOM     51  C   UNL A   1      41.523  30.239  35.919  1.00  0.00     0.029 A 
ATOM     52  N   UNL A   1      41.277  29.735  33.764  1.00  0.00    -0.354 N 
ATOM     53  N   UNL A   1      41.945  28.299  31.256  1.00  0.00    -0.248 NA
ATOM     54  C   UNL A   1      43.349  26.864  30.064  1.00  0.00     0.031 C 
ATOM     55  C   UNL A   1      42.540  29.354  35.549  1.00  0.00     0.029 A 
ATOM     56  C   UNL A   1      42.371  29.019  34.214  1.00  0.00     0.049 A 
ATOM     57  H   UNL A   1      40.920  29.707  32.847  1.00  0.00     0.167 HD
ATOM     58  C   UNL A   1      42.939  27.830  32.104  1.00  0.00     0.074 A 
ATOM     59  C   UNL A   1      43.759  26.926  31.322  1.00  0.00     0.031 C 
ATOM     60  C   UNL A   1      43.157  28.115  33.412  1.00  0.00     0.037 A 
BRANCH  47  61
ATOM     61  C   UNL A   1      39.199  32.193  35.854  1.00  0.00     0.057 A 
ATOM     62  C   UNL A   1      39.682  33.488  36.082  1.00  0.00     0.134 A 
ATOM     63  C   UNL A   1      38.279  31.675  36.773  1.00  0.00     0.134 A 
ATOM     64  F   UNL A   1      40.583  34.035  35.251  1.00  0.00    -0.206 F 
ATOM     65  C   UNL A   1      39.281  34.231  37.194  1.00  0.00     0.040 A 
ATOM     66  C   UNL A   1      37.849  32.419  37.873  1.00  0.00     0.040 A 
ATOM     67  F   UNL A   1      37.779  30.440  36.616  1.00  0.00    -0.206 F 
ATOM     68  C   UNL A   1      38.356  33.699  38.089  1.00  0.00     0.006 A 
ENDBRANCH  47  61
BRANCH  48  69
ATOM     69  C   UNL A   1      41.793  27.126  27.586  1.00  0.00     0.057 A 
ATOM     70  C   UNL A   1      42.570  27.746  26.601  1.00  0.00     0.134 A 
ATOM     71  C   UNL A   1      41.411  25.798  27.363  1.00  0.00     0.134 A 
ATOM     72  F   UNL A   1      42.953  29.022  26.747  1.00  0.00    -0.206 F 
ATOM     73  C   UNL A   1      42.936  27.078  25.430  1.00  0.00     0.040 A 
ATOM     74  C   UNL A   1      41.791  25.110  26.209  1.00  0.00     0.040 A 
ATOM     75  F   UNL A   1      40.670  25.143  28.269  1.00  0.00    -0.206 F 
ATOM     76  C   UNL A   1      42.550  25.754  25.234  1.00  0.00     0.006 A 
ENDBRANCH  48  69
BRANCH  60  77
ATOM     77  C   UNL A   1      44.294  27.411  34.090  1.00  0.00     0.057 A 
ATOM     78  C   UNL A   1      45.571  27.978  34.173  1.00  0.00     0.134 A 
ATOM     79  C   UNL A   1      44.086  26.181  34.726  1.00  0.00     0.134 A 
ATOM     80  F   UNL A   1      45.837  29.150  33.576  1.00  0.00    -0.206 F 
ATOM     81  C   UNL A   1      46.608  27.334  34.851  1.00  0.00     0.040 A 
ATOM     82  C   UNL A   1      45.106  25.543  35.431  1.00  0.00     0.040 A 
ATOM     83  F   UNL A   1      42.881  25.593  34.694  1.00  0.00    -0.206 F 
ATOM     84  C   UNL A   1      46.374  26.119  35.490  1.00  0.00     0.006 A 
ENDBRANCH  60  77
ENDBRANCH  34  35
ENDBRANCH  27  29
ENDBRANCH  26  27
ENDBRANCH  25  26
ENDBRANCH  24  25
ENDBRANCH   1  24
TORSDOF 16
ENDMDL
