MODEL 1
REMARK VINA RESULT:      -9.5      0.000      0.000
REMARK SMILES CC(C)N(CC(F)(F)F)C(=O)N(CC(=O)OCCOCCOC(=O)c1ccc(-c2c3nc(c(-c4c(F)cccc4F)c4ccc([nH]4)c(-c4c(F)cccc4F)c4nc(c(-c5c(F)cccc5F)c5ccc2[nH]5)C=C4)C=C3)cc1)C(C)(C)C
REMARK SMILES IDX 17 1 16 2 14 3 15 4 13 5 12 6 10 7 11 8 4 9 2 10 1 11 3 12
REMARK SMILES IDX 5 13 6 14 7 15 8 16 9 17 79 18 80 19 81 20 82 21 18 22 19 23
REMARK SMILES IDX 20 24 21 25 22 26 23 27 24 28 25 29 26 30 78 31 27 32 77 33
REMARK SMILES IDX 28 34 29 35 30 36 71 37 31 38 76 39 70 40 72 41 32 42 75 43
REMARK SMILES IDX 69 44 68 45 33 47 59 48 42 49 58 50 43 51 46 52 57 53 73 54
REMARK SMILES IDX 44 55 45 56 56 58 74 59 47 60 34 61 35 62 40 63 36 64 37 65
REMARK SMILES IDX 39 66 41 67 38 68 60 69 61 70 66 71 62 72 63 73 65 74 67 75
REMARK SMILES IDX 64 76 48 77 49 78 54 79 50 80 51 81 53 82 55 83 52 84
REMARK H PARENT 72 46 46 57
REMARK Flexibility Score: inf
ROOT
ATOM      1  C   UNL A   1      32.701  29.581  25.818  1.00  0.00     0.261 C 
ENDROOT
BRANCH   1   2
ATOM      2  O   UNL A   1      31.586  28.656  25.724  1.00  0.00    -0.462 OA
BRANCH   2   3
ATOM      3  C   UNL A   1      31.864  27.371  26.077  1.00  0.00     0.325 C 
ATOM      4  O   UNL A   1      31.299  26.772  26.988  1.00  0.00    -0.250 OA
BRANCH   3   5
ATOM      5  C   UNL A   1      32.922  26.668  25.207  1.00  0.00     0.244 C 
BRANCH   5   6
ATOM      6  N   UNL A   1      32.513  25.869  24.041  1.00  0.00    -0.309 N 
BRANCH   6   7
ATOM      7  C   UNL A   1      31.950  24.593  24.082  1.00  0.00     0.321 C 
ATOM      8  O   UNL A   1      30.724  24.486  23.966  1.00  0.00    -0.248 OA
BRANCH   7   9
ATOM      9  N   UNL A   1      32.669  23.427  24.313  1.00  0.00    -0.313 N 
BRANCH   9  10
ATOM     10  C   UNL A   1      32.154  22.527  25.393  1.00  0.00     0.081 C 
ATOM     11  C   UNL A   1      32.238  21.037  25.029  1.00  0.00     0.031 C 
ATOM     12  C   UNL A   1      32.758  22.807  26.775  1.00  0.00     0.031 C 
ENDBRANCH   9  10
BRANCH   9  13
ATOM     13  C   UNL A   1      33.680  22.774  23.448  1.00  0.00     0.237 C 
BRANCH  13  14
ATOM     14  C   UNL A   1      35.141  23.018  23.828  1.00  0.00     0.406 C 
ATOM     15  F   UNL A   1      35.977  22.907  22.777  1.00  0.00    -0.169 F 
ATOM     16  F   UNL A   1      35.288  24.267  24.330  1.00  0.00    -0.169 F 
ATOM     17  F   UNL A   1      35.550  22.152  24.783  1.00  0.00    -0.169 F 
ENDBRANCH  13  14
ENDBRANCH   9  13
ENDBRANCH   7   9
ENDBRANCH   6   7
BRANCH   6  18
ATOM     18  C   UNL A   1      32.517  26.566  22.676  1.00  0.00     0.037 C 
ATOM     19  C   UNL A   1      33.604  27.666  22.629  1.00  0.00     0.034 C 
ATOM     20  C   UNL A   1      32.742  25.535  21.539  1.00  0.00     0.034 C 
ATOM     21  C   UNL A   1      31.181  27.255  22.291  1.00  0.00     0.034 C 
ENDBRANCH   6  18
ENDBRANCH   5   6
ENDBRANCH   3   5
ENDBRANCH   2   3
ENDBRANCH   1   2
BRANCH   1  22
ATOM     22  C   UNL A   1      32.507  30.645  26.909  1.00  0.00     0.202 C 
BRANCH  22  23
ATOM     23  O   UNL A   1      31.313  31.431  26.816  1.00  0.00    -0.374 OA
BRANCH  23  24
ATOM     24  C   UNL A   1      31.502  32.830  26.643  1.00  0.00     0.202 C 
BRANCH  24  25
ATOM     25  C   UNL A   1      32.764  33.418  27.286  1.00  0.00     0.261 C 
BRANCH  25  26
ATOM     26  O   UNL A   1      32.460  34.258  28.411  1.00  0.00    -0.460 OA
BRANCH  26  27
ATOM     27  C   UNL A   1      33.511  34.945  28.905  1.00  0.00     0.338 C 
ATOM     28  O   UNL A   1      33.534  36.124  29.250  1.00  0.00    -0.246 OA
BRANCH  27  29
ATOM     29  C   UNL A   1      34.645  34.042  29.151  1.00  0.00     0.060 A 
ATOM     30  C   UNL A   1      34.410  32.933  29.974  1.00  0.00     0.016 A 
ATOM     31  C   UNL A   1      35.926  34.308  28.663  1.00  0.00     0.016 A 
ATOM     32  C   UNL A   1      35.469  32.116  30.357  1.00  0.00     0.010 A 
ATOM     33  C   UNL A   1      36.991  33.487  29.057  1.00  0.00     0.010 A 
ATOM     34  C   UNL A   1      36.771  32.410  29.934  1.00  0.00    -0.014 A 
BRANCH  34  35
ATOM     35  C   UNL A   1      37.905  31.650  30.514  1.00  0.00     0.031 A 
ATOM     36  C   UNL A   1      38.305  31.896  31.941  1.00  0.00     0.074 A 
ATOM     37  C   UNL A   1      38.542  30.715  29.788  1.00  0.00     0.049 A 
ATOM     38  N   UNL A   1      39.234  31.314  32.656  1.00  0.00    -0.248 NA
ATOM     39  C   UNL A   1      37.555  32.939  32.660  1.00  0.00     0.031 C 
ATOM     40  C   UNL A   1      38.235  30.374  28.401  1.00  0.00     0.029 A 
ATOM     41  N   UNL A   1      39.582  29.885  30.121  1.00  0.00    -0.354 N 
ATOM     42  C   UNL A   1      39.179  31.913  33.907  1.00  0.00     0.074 A 
ATOM     43  C   UNL A   1      38.148  32.928  33.846  1.00  0.00     0.031 C 
ATOM     44  C   UNL A   1      39.082  29.413  27.994  1.00  0.00     0.029 A 
ATOM     45  C   UNL A   1      39.999  29.087  29.085  1.00  0.00     0.049 A 
ATOM     46  H   UNL A   1      39.991  29.863  31.017  1.00  0.00     0.167 HD
ATOM     47  C   UNL A   1      39.914  31.637  35.011  1.00  0.00     0.037 A 
ATOM     48  C   UNL A   1      41.016  28.207  29.019  1.00  0.00     0.037 A 
ATOM     49  C   UNL A   1      40.945  30.634  35.068  1.00  0.00     0.049 A 
ATOM     50  C   UNL A   1      41.859  27.956  30.239  1.00  0.00     0.074 A 
ATOM     51  C   UNL A   1      41.714  30.247  36.152  1.00  0.00     0.029 A 
ATOM     52  N   UNL A   1      41.363  29.871  33.989  1.00  0.00    -0.354 N 
ATOM     53  N   UNL A   1      41.759  28.485  31.434  1.00  0.00    -0.248 NA
ATOM     54  C   UNL A   1      42.954  26.984  30.102  1.00  0.00     0.031 C 
ATOM     55  C   UNL A   1      42.634  29.287  35.713  1.00  0.00     0.029 A 
ATOM     56  C   UNL A   1      42.407  29.044  34.368  1.00  0.00     0.049 A 
ATOM     57  H   UNL A   1      40.975  29.912  33.085  1.00  0.00     0.167 HD
ATOM     58  C   UNL A   1      42.769  27.907  32.193  1.00  0.00     0.074 A 
ATOM     59  C   UNL A   1      43.458  26.972  31.328  1.00  0.00     0.031 C 
ATOM     60  C   UNL A   1      43.095  28.131  33.491  1.00  0.00     0.037 A 
BRANCH  47  61
ATOM     61  C   UNL A   1      39.642  32.456  36.239  1.00  0.00     0.057 A 
ATOM     62  C   UNL A   1      40.391  33.600  36.547  1.00  0.00     0.134 A 
ATOM     63  C   UNL A   1      38.612  32.101  37.119  1.00  0.00     0.134 A 
ATOM     64  F   UNL A   1      41.399  33.987  35.752  1.00  0.00    -0.206 F 
ATOM     65  C   UNL A   1      40.144  34.344  37.702  1.00  0.00     0.040 A 
ATOM     66  C   UNL A   1      38.340  32.851  38.264  1.00  0.00     0.040 A 
ATOM     67  F   UNL A   1      37.853  31.022  36.879  1.00  0.00    -0.206 F 
ATOM     68  C   UNL A   1      39.113  33.971  38.563  1.00  0.00     0.006 A 
ENDBRANCH  47  61
BRANCH  48  69
ATOM     69  C   UNL A   1      41.300  27.516  27.737  1.00  0.00     0.057 A 
ATOM     70  C   UNL A   1      42.182  28.056  26.796  1.00  0.00     0.134 A 
ATOM     71  C   UNL A   1      40.704  26.286  27.434  1.00  0.00     0.134 A 
ATOM     72  F   UNL A   1      42.765  29.243  27.021  1.00  0.00    -0.206 F 
ATOM     73  C   UNL A   1      42.463  27.398  25.597  1.00  0.00     0.040 A 
ATOM     74  C   UNL A   1      40.991  25.606  26.249  1.00  0.00     0.040 A 
ATOM     75  F   UNL A   1      39.848  25.717  28.295  1.00  0.00    -0.206 F 
ATOM     76  C   UNL A   1      41.872  26.164  25.325  1.00  0.00     0.006 A 
ENDBRANCH  48  69
BRANCH  60  77
ATOM     77  C   UNL A   1      44.252  27.357  34.051  1.00  0.00     0.057 A 
ATOM     78  C   UNL A   1      44.082  26.082  34.604  1.00  0.00     0.134 A 
ATOM     79  C   UNL A   1      45.554  27.870  33.993  1.00  0.00     0.134 A 
ATOM     80  F   UNL A   1      42.859  25.541  34.701  1.00  0.00    -0.206 F 
ATOM     81  C   UNL A   1      45.165  25.351  35.095  1.00  0.00     0.040 A 
ATOM     82  C   UNL A   1      46.647  27.138  34.459  1.00  0.00     0.040 A 
ATOM     83  F   UNL A   1      45.786  29.083  33.467  1.00  0.00    -0.206 F 
ATOM     84  C   UNL A   1      46.453  25.877  35.016  1.00  0.00     0.006 A 
ENDBRANCH  60  77
ENDBRANCH  34  35
ENDBRANCH  27  29
ENDBRANCH  26  27
ENDBRANCH  25  26
ENDBRANCH  24  25
ENDBRANCH  23  24
ENDBRANCH  22  23
ENDBRANCH   1  22
TORSDOF 21
ENDMDL
MODEL 2
REMARK VINA RESULT:      -9.1      0.607      6.244
REMARK SMILES CC(C)N(CC(F)(F)F)C(=O)N(CC(=O)OCCOCCOC(=O)c1ccc(-c2c3nc(c(-c4c(F)cccc4F)c4ccc([nH]4)c(-c4c(F)cccc4F)c4nc(c(-c5c(F)cccc5F)c5ccc2[nH]5)C=C4)C=C3)cc1)C(C)(C)C
REMARK SMILES IDX 17 1 16 2 14 3 15 4 13 5 12 6 10 7 11 8 4 9 2 10 1 11 3 12
REMARK SMILES IDX 5 13 6 14 7 15 8 16 9 17 79 18 80 19 81 20 82 21 18 22 19 23
REMARK SMILES IDX 20 24 21 25 22 26 23 27 24 28 25 29 26 30 78 31 27 32 77 33
REMARK SMILES IDX 28 34 29 35 30 36 71 37 31 38 76 39 70 40 72 41 32 42 75 43
REMARK SMILES IDX 69 44 68 45 33 47 59 48 42 49 58 50 43 51 46 52 57 53 73 54
REMARK SMILES IDX 44 55 45 56 56 58 74 59 47 60 34 61 35 62 40 63 36 64 37 65
REMARK SMILES IDX 39 66 41 67 38 68 60 69 61 70 66 71 62 72 63 73 65 74 67 75
REMARK SMILES IDX 64 76 48 77 49 78 54 79 50 80 51 81 53 82 55 83 52 84
REMARK H PARENT 72 46 46 57
REMARK Flexibility Score: inf
ROOT
ATOM      1  C   UNL A   1      32.541  29.350  26.072  1.00  0.00     0.261 C 
ENDROOT
BRANCH   1   2
ATOM      2  O   UNL A   1      31.375  28.570  26.446  1.00  0.00    -0.462 OA
BRANCH   2   3
ATOM      3  C   UNL A   1      31.510  27.221  26.320  1.00  0.00     0.325 C 
ATOM      4  O   UNL A   1      30.793  26.403  26.889  1.00  0.00    -0.250 OA
BRANCH   3   5
ATOM      5  C   UNL A   1      32.614  26.764  25.349  1.00  0.00     0.244 C 
BRANCH   5   6
ATOM      6  N   UNL A   1      32.275  25.953  24.169  1.00  0.00    -0.309 N 
BRANCH   6   7
ATOM      7  C   UNL A   1      31.690  24.686  24.189  1.00  0.00     0.321 C 
ATOM      8  O   UNL A   1      30.576  24.543  23.674  1.00  0.00    -0.248 OA
BRANCH   7   9
ATOM      9  N   UNL A   1      32.248  23.576  24.812  1.00  0.00    -0.313 N 
BRANCH   9  10
ATOM     10  C   UNL A   1      31.764  23.273  26.196  1.00  0.00     0.081 C 
ATOM     11  C   UNL A   1      30.512  22.383  26.216  1.00  0.00     0.031 C 
ATOM     12  C   UNL A   1      32.856  22.736  27.131  1.00  0.00     0.031 C 
ENDBRANCH   9  10
BRANCH   9  13
ATOM     13  C   UNL A   1      33.009  22.458  24.206  1.00  0.00     0.237 C 
BRANCH  13  14
ATOM     14  C   UNL A   1      34.397  22.810  23.667  1.00  0.00     0.406 C 
ATOM     15  F   UNL A   1      34.877  23.960  24.180  1.00  0.00    -0.169 F 
ATOM     16  F   UNL A   1      35.279  21.832  23.980  1.00  0.00    -0.169 F 
ATOM     17  F   UNL A   1      34.386  22.923  22.320  1.00  0.00    -0.169 F 
ENDBRANCH  13  14
ENDBRANCH   9  13
ENDBRANCH   7   9
ENDBRANCH   6   7
BRANCH   6  18
ATOM     18  C   UNL A   1      32.387  26.628  22.798  1.00  0.00     0.037 C 
ATOM     19  C   UNL A   1      31.083  27.388  22.456  1.00  0.00     0.034 C 
ATOM     20  C   UNL A   1      33.600  27.594  22.763  1.00  0.00     0.034 C 
ATOM     21  C   UNL A   1      32.650  25.660  21.614  1.00  0.00     0.034 C 
ENDBRANCH   6  18
ENDBRANCH   5   6
ENDBRANCH   3   5
ENDBRANCH   2   3
ENDBRANCH   1   2
BRANCH   1  22
ATOM     22  C   UNL A   1      32.550  30.754  26.693  1.00  0.00     0.202 C 
BRANCH  22  23
ATOM     23  O   UNL A   1      31.308  31.467  26.652  1.00  0.00    -0.374 OA
BRANCH  23  24
ATOM     24  C   UNL A   1      31.406  32.887  26.637  1.00  0.00     0.202 C 
BRANCH  24  25
ATOM     25  C   UNL A   1      32.684  33.474  27.251  1.00  0.00     0.261 C 
BRANCH  25  26
ATOM     26  O   UNL A   1      32.433  34.128  28.504  1.00  0.00    -0.460 OA
BRANCH  26  27
ATOM     27  C   UNL A   1      33.451  34.890  28.959  1.00  0.00     0.338 C 
ATOM     28  O   UNL A   1      33.426  36.092  29.207  1.00  0.00    -0.246 OA
BRANCH  27  29
ATOM     29  C   UNL A   1      34.609  34.050  29.294  1.00  0.00     0.060 A 
ATOM     30  C   UNL A   1      34.367  32.911  30.072  1.00  0.00     0.016 A 
ATOM     31  C   UNL A   1      35.912  34.404  28.936  1.00  0.00     0.016 A 
ATOM     32  C   UNL A   1      35.434  32.149  30.540  1.00  0.00     0.010 A 
ATOM     33  C   UNL A   1      36.984  33.639  29.414  1.00  0.00     0.010 A 
ATOM     34  C   UNL A   1      36.750  32.530  30.247  1.00  0.00    -0.014 A 
BRANCH  34  35
ATOM     35  C   UNL A   1      37.869  31.826  30.919  1.00  0.00     0.031 A 
ATOM     36  C   UNL A   1      38.600  30.737  30.187  1.00  0.00     0.074 A 
ATOM     37  C   UNL A   1      38.259  32.188  32.153  1.00  0.00     0.049 A 
ATOM     38  N   UNL A   1      39.631  30.026  30.570  1.00  0.00    -0.248 NA
ATOM     39  C   UNL A   1      38.105  30.405  28.842  1.00  0.00     0.031 C 
ATOM     40  C   UNL A   1      37.639  33.239  32.957  1.00  0.00     0.029 A 
ATOM     41  N   UNL A   1      39.269  31.704  32.946  1.00  0.00    -0.354 N 
ATOM     42  C   UNL A   1      39.910  29.168  29.515  1.00  0.00     0.074 A 
ATOM     43  C   UNL A   1      38.921  29.422  28.489  1.00  0.00     0.031 C 
ATOM     44  C   UNL A   1      38.275  33.312  34.139  1.00  0.00     0.029 A 
ATOM     45  C   UNL A   1      39.330  32.301  34.179  1.00  0.00     0.049 A 
ATOM     46  H   UNL A   1      39.890  30.996  32.657  1.00  0.00     0.167 HD
ATOM     47  C   UNL A   1      40.907  28.256  29.407  1.00  0.00     0.037 A 
ATOM     48  C   UNL A   1      40.135  32.048  35.230  1.00  0.00     0.037 A 
ATOM     49  C   UNL A   1      41.884  27.998  30.431  1.00  0.00     0.049 A 
ATOM     50  C   UNL A   1      41.198  30.991  35.111  1.00  0.00     0.074 A 
ATOM     51  C   UNL A   1      42.959  27.127  30.399  1.00  0.00     0.029 A 
ATOM     52  N   UNL A   1      41.892  28.597  31.682  1.00  0.00    -0.354 N 
ATOM     53  N   UNL A   1      41.492  30.228  34.087  1.00  0.00    -0.248 NA
ATOM     54  C   UNL A   1      42.044  30.763  36.292  1.00  0.00     0.031 C 
ATOM     55  C   UNL A   1      43.586  27.162  31.650  1.00  0.00     0.029 A 
ATOM     56  C   UNL A   1      42.928  28.087  32.445  1.00  0.00     0.049 A 
ATOM     57  H   UNL A   1      41.254  29.283  31.983  1.00  0.00     0.167 HD
ATOM     58  C   UNL A   1      42.558  29.436  34.494  1.00  0.00     0.074 A 
ATOM     59  C   UNL A   1      42.872  29.825  35.854  1.00  0.00     0.031 C 
ATOM     60  C   UNL A   1      43.217  28.472  33.804  1.00  0.00     0.037 A 
BRANCH  47  61
ATOM     61  C   UNL A   1      40.967  27.453  28.140  1.00  0.00     0.057 A 
ATOM     62  C   UNL A   1      41.641  27.916  27.001  1.00  0.00     0.134 A 
ATOM     63  C   UNL A   1      40.351  26.199  28.061  1.00  0.00     0.134 A 
ATOM     64  F   UNL A   1      42.242  29.115  27.007  1.00  0.00    -0.206 F 
ATOM     65  C   UNL A   1      41.674  27.171  25.821  1.00  0.00     0.040 A 
ATOM     66  C   UNL A   1      40.397  25.434  26.894  1.00  0.00     0.040 A 
ATOM     67  F   UNL A   1      39.694  25.694  29.116  1.00  0.00    -0.206 F 
ATOM     68  C   UNL A   1      41.053  25.925  25.767  1.00  0.00     0.006 A 
ENDBRANCH  47  61
BRANCH  48  69
ATOM     69  C   UNL A   1      39.944  32.803  36.492  1.00  0.00     0.057 A 
ATOM     70  C   UNL A   1      38.991  32.413  37.439  1.00  0.00     0.134 A 
ATOM     71  C   UNL A   1      40.726  33.926  36.787  1.00  0.00     0.134 A 
ATOM     72  F   UNL A   1      38.196  31.360  37.203  1.00  0.00    -0.206 F 
ATOM     73  C   UNL A   1      38.823  33.114  38.636  1.00  0.00     0.040 A 
ATOM     74  C   UNL A   1      40.584  34.623  37.988  1.00  0.00     0.040 A 
ATOM     75  F   UNL A   1      41.656  34.350  35.918  1.00  0.00    -0.206 F 
ATOM     76  C   UNL A   1      39.628  34.218  38.916  1.00  0.00     0.006 A 
ENDBRANCH  48  69
BRANCH  60  77
ATOM     77  C   UNL A   1      44.339  27.768  34.509  1.00  0.00     0.057 A 
ATOM     78  C   UNL A   1      45.643  28.278  34.505  1.00  0.00     0.134 A 
ATOM     79  C   UNL A   1      44.104  26.596  35.240  1.00  0.00     0.134 A 
ATOM     80  F   UNL A   1      45.935  29.389  33.813  1.00  0.00    -0.206 F 
ATOM     81  C   UNL A   1      46.678  27.638  35.189  1.00  0.00     0.040 A 
ATOM     82  C   UNL A   1      45.126  25.961  35.947  1.00  0.00     0.040 A 
ATOM     83  F   UNL A   1      42.875  26.060  35.292  1.00  0.00    -0.206 F 
ATOM     84  C   UNL A   1      46.418  26.480  35.919  1.00  0.00     0.006 A 
ENDBRANCH  60  77
ENDBRANCH  34  35
ENDBRANCH  27  29
ENDBRANCH  26  27
ENDBRANCH  25  26
ENDBRANCH  24  25
ENDBRANCH  23  24
ENDBRANCH  22  23
ENDBRANCH   1  22
TORSDOF 21
ENDMDL
MODEL 3
REMARK VINA RESULT:      -9.0      3.220      7.968
REMARK SMILES CC(C)N(CC(F)(F)F)C(=O)N(CC(=O)OCCOCCOC(=O)c1ccc(-c2c3nc(c(-c4c(F)cccc4F)c4ccc([nH]4)c(-c4c(F)cccc4F)c4nc(c(-c5c(F)cccc5F)c5ccc2[nH]5)C=C4)C=C3)cc1)C(C)(C)C
REMARK SMILES IDX 17 1 16 2 14 3 15 4 13 5 12 6 10 7 11 8 4 9 2 10 1 11 3 12
REMARK SMILES IDX 5 13 6 14 7 15 8 16 9 17 79 18 80 19 81 20 82 21 18 22 19 23
REMARK SMILES IDX 20 24 21 25 22 26 23 27 24 28 25 29 26 30 78 31 27 32 77 33
REMARK SMILES IDX 28 34 29 35 30 36 71 37 31 38 76 39 70 40 72 41 32 42 75 43
REMARK SMILES IDX 69 44 68 45 33 47 59 48 42 49 58 50 43 51 46 52 57 53 73 54
REMARK SMILES IDX 44 55 45 56 56 58 74 59 47 60 34 61 35 62 40 63 36 64 37 65
REMARK SMILES IDX 39 66 41 67 38 68 60 69 61 70 66 71 62 72 63 73 65 74 67 75
REMARK SMILES IDX 64 76 48 77 49 78 54 79 50 80 51 81 53 82 55 83 52 84
REMARK H PARENT 72 46 46 57
REMARK Flexibility Score: inf
ROOT
ATOM      1  C   UNL A   1      37.573  21.938  25.637  1.00  0.00     0.261 C 
ENDROOT
BRANCH   1   2
ATOM      2  O   UNL A   1      37.511  23.108  24.780  1.00  0.00    -0.462 OA
BRANCH   2   3
ATOM      3  C   UNL A   1      36.344  23.268  24.097  1.00  0.00     0.325 C 
ATOM      4  O   UNL A   1      36.215  23.047  22.896  1.00  0.00    -0.250 OA
BRANCH   3   5
ATOM      5  C   UNL A   1      35.141  23.707  24.952  1.00  0.00     0.244 C 
BRANCH   5   6
ATOM      6  N   UNL A   1      33.846  23.996  24.319  1.00  0.00    -0.309 N 
BRANCH   6   7
ATOM      7  C   UNL A   1      33.507  25.173  23.650  1.00  0.00     0.321 C 
ATOM      8  O   UNL A   1      33.917  25.333  22.495  1.00  0.00    -0.248 OA
BRANCH   7   9
ATOM      9  N   UNL A   1      32.790  26.218  24.220  1.00  0.00    -0.313 N 
BRANCH   9  10
ATOM     10  C   UNL A   1      32.914  26.383  25.703  1.00  0.00     0.081 C 
ATOM     11  C   UNL A   1      33.853  27.529  26.107  1.00  0.00     0.031 C 
ATOM     12  C   UNL A   1      31.567  26.471  26.432  1.00  0.00     0.031 C 
ENDBRANCH   9  10
BRANCH   9  13
ATOM     13  C   UNL A   1      32.176  27.392  23.556  1.00  0.00     0.237 C 
BRANCH  13  14
ATOM     14  C   UNL A   1      30.740  27.205  23.064  1.00  0.00     0.406 C 
ATOM     15  F   UNL A   1      30.333  25.922  23.124  1.00  0.00    -0.169 F 
ATOM     16  F   UNL A   1      29.890  27.932  23.828  1.00  0.00    -0.169 F 
ATOM     17  F   UNL A   1      30.598  27.632  21.790  1.00  0.00    -0.169 F 
ENDBRANCH  13  14
ENDBRANCH   9  13
ENDBRANCH   7   9
ENDBRANCH   6   7
BRANCH   6  18
ATOM     18  C   UNL A   1      32.846  22.839  24.205  1.00  0.00     0.037 C 
ATOM     19  C   UNL A   1      32.786  22.311  22.752  1.00  0.00     0.034 C 
ATOM     20  C   UNL A   1      33.225  21.693  25.180  1.00  0.00     0.034 C 
ATOM     21  C   UNL A   1      31.389  23.195  24.601  1.00  0.00     0.034 C 
ENDBRANCH   6  18
ENDBRANCH   5   6
ENDBRANCH   3   5
ENDBRANCH   2   3
ENDBRANCH   1   2
BRANCH   1  22
ATOM     22  C   UNL A   1      39.008  21.456  25.893  1.00  0.00     0.202 C 
BRANCH  22  23
ATOM     23  O   UNL A   1      39.967  22.474  26.205  1.00  0.00    -0.374 OA
BRANCH  23  24
ATOM     24  C   UNL A   1      41.284  22.021  26.494  1.00  0.00     0.202 C 
BRANCH  24  25
ATOM     25  C   UNL A   1      42.407  22.667  25.672  1.00  0.00     0.261 C 
BRANCH  25  26
ATOM     26  O   UNL A   1      42.288  24.097  25.619  1.00  0.00    -0.460 OA
BRANCH  26  27
ATOM     27  C   UNL A   1      43.232  24.769  26.310  1.00  0.00     0.338 C 
ATOM     28  O   UNL A   1      44.448  24.728  26.142  1.00  0.00    -0.246 OA
BRANCH  27  29
ATOM     29  C   UNL A   1      42.608  25.731  27.230  1.00  0.00     0.060 A 
ATOM     30  C   UNL A   1      43.196  26.999  27.322  1.00  0.00     0.016 A 
ATOM     31  C   UNL A   1      41.529  25.385  28.047  1.00  0.00     0.016 A 
ATOM     32  C   UNL A   1      42.739  27.910  28.271  1.00  0.00     0.010 A 
ATOM     33  C   UNL A   1      41.077  26.301  29.006  1.00  0.00     0.010 A 
ATOM     34  C   UNL A   1      41.704  27.552  29.145  1.00  0.00    -0.014 A 
BRANCH  34  35
ATOM     35  C   UNL A   1      41.372  28.455  30.273  1.00  0.00     0.031 A 
ATOM     36  C   UNL A   1      42.178  28.381  31.539  1.00  0.00     0.074 A 
ATOM     37  C   UNL A   1      40.391  29.366  30.152  1.00  0.00     0.049 A 
ATOM     38  N   UNL A   1      42.085  29.104  32.627  1.00  0.00    -0.248 NA
ATOM     39  C   UNL A   1      43.230  27.353  31.586  1.00  0.00     0.031 C 
ATOM     40  C   UNL A   1      39.552  29.546  28.969  1.00  0.00     0.029 A 
ATOM     41  N   UNL A   1      39.935  30.307  31.039  1.00  0.00    -0.354 N 
ATOM     42  C   UNL A   1      43.067  28.625  33.483  1.00  0.00     0.074 A 
ATOM     43  C   UNL A   1      43.722  27.527  32.805  1.00  0.00     0.031 C 
ATOM     44  C   UNL A   1      38.669  30.530  29.211  1.00  0.00     0.029 A 
ATOM     45  C   UNL A   1      38.870  31.034  30.568  1.00  0.00     0.049 A 
ATOM     46  H   UNL A   1      40.332  30.449  31.929  1.00  0.00     0.167 HD
ATOM     47  C   UNL A   1      43.399  29.065  34.721  1.00  0.00     0.037 A 
ATOM     48  C   UNL A   1      38.131  31.985  31.170  1.00  0.00     0.037 A 
ATOM     49  C   UNL A   1      42.741  30.151  35.398  1.00  0.00     0.049 A 
ATOM     50  C   UNL A   1      38.478  32.420  32.567  1.00  0.00     0.074 A 
ATOM     51  C   UNL A   1      43.033  30.702  36.634  1.00  0.00     0.029 A 
ATOM     52  N   UNL A   1      41.643  30.839  34.903  1.00  0.00    -0.354 N 
ATOM     53  N   UNL A   1      39.447  32.002  33.345  1.00  0.00    -0.248 NA
ATOM     54  C   UNL A   1      37.632  33.462  33.169  1.00  0.00     0.031 C 
ATOM     55  C   UNL A   1      42.078  31.689  36.909  1.00  0.00     0.029 A 
ATOM     56  C   UNL A   1      41.220  31.782  35.825  1.00  0.00     0.049 A 
ATOM     57  H   UNL A   1      41.225  30.680  34.027  1.00  0.00     0.167 HD
ATOM     58  C   UNL A   1      39.334  32.732  34.522  1.00  0.00     0.074 A 
ATOM     59  C   UNL A   1      38.214  33.633  34.348  1.00  0.00     0.031 C 
ATOM     60  C   UNL A   1      40.091  32.661  35.645  1.00  0.00     0.037 A 
BRANCH  47  61
ATOM     61  C   UNL A   1      44.511  28.348  35.428  1.00  0.00     0.057 A 
ATOM     62  C   UNL A   1      44.270  27.253  36.269  1.00  0.00     0.134 A 
ATOM     63  C   UNL A   1      45.841  28.752  35.259  1.00  0.00     0.134 A 
ATOM     64  F   UNL A   1      43.017  26.824  36.484  1.00  0.00    -0.206 F 
ATOM     65  C   UNL A   1      45.309  26.605  36.940  1.00  0.00     0.040 A 
ATOM     66  C   UNL A   1      46.891  28.096  35.905  1.00  0.00     0.040 A 
ATOM     67  F   UNL A   1      46.143  29.788  34.463  1.00  0.00    -0.206 F 
ATOM     68  C   UNL A   1      46.624  27.025  36.755  1.00  0.00     0.006 A 
ENDBRANCH  47  61
BRANCH  48  69
ATOM     69  C   UNL A   1      36.973  32.570  30.452  1.00  0.00     0.057 A 
ATOM     70  C   UNL A   1      37.134  33.610  29.530  1.00  0.00     0.134 A 
ATOM     71  C   UNL A   1      35.676  32.086  30.660  1.00  0.00     0.134 A 
ATOM     72  F   UNL A   1      38.349  34.131  29.306  1.00  0.00    -0.206 F 
ATOM     73  C   UNL A   1      36.045  34.149  28.841  1.00  0.00     0.040 A 
ATOM     74  C   UNL A   1      34.581  32.600  29.962  1.00  0.00     0.040 A 
ATOM     75  F   UNL A   1      35.456  31.091  31.531  1.00  0.00    -0.206 F 
ATOM     76  C   UNL A   1      34.765  33.637  29.051  1.00  0.00     0.006 A 
ENDBRANCH  48  69
BRANCH  60  77
ATOM     77  C   UNL A   1      39.729  33.577  36.776  1.00  0.00     0.057 A 
ATOM     78  C   UNL A   1      38.839  33.183  37.783  1.00  0.00     0.134 A 
ATOM     79  C   UNL A   1      40.311  34.846  36.887  1.00  0.00     0.134 A 
ATOM     80  F   UNL A   1      38.237  31.986  37.727  1.00  0.00    -0.206 F 
ATOM     81  C   UNL A   1      38.528  34.026  38.852  1.00  0.00     0.040 A 
ATOM     82  C   UNL A   1      40.027  35.688  37.963  1.00  0.00     0.040 A 
ATOM     83  F   UNL A   1      41.179  35.281  35.960  1.00  0.00    -0.206 F 
ATOM     84  C   UNL A   1      39.129  35.279  38.947  1.00  0.00     0.006 A 
ENDBRANCH  60  77
ENDBRANCH  34  35
ENDBRANCH  27  29
ENDBRANCH  26  27
ENDBRANCH  25  26
ENDBRANCH  24  25
ENDBRANCH  23  24
ENDBRANCH  22  23
ENDBRANCH   1  22
TORSDOF 21
ENDMDL
