MODEL 1
REMARK VINA RESULT:     -11.5      0.000      0.000
REMARK SMILES CC(C)c1cc2c(cc1Cl)C=C(C(=O)OCCOCCOC(=O)c1ccc(-c3c4nc(c(-c5c(F)cccc5F)c5ccc([nH]5)c(-c5c(F)cccc5F)c5nc(c(-c6c(F)cccc6F)c6ccc3[nH]6)C=C5)C=C4)cc1)[C@@H](C(F)(F)F)O2
REMARK SMILES IDX 19 1 18 2 17 3 16 4 15 5 13 6 14 7 12 8 4 9 5 10 9 11 6 12
REMARK SMILES IDX 8 13 10 14 7 15 83 16 11 17 78 18 2 19 1 20 3 21 79 22 80 23
REMARK SMILES IDX 81 24 82 25 20 26 21 27 22 28 23 29 24 30 25 31 77 32 26 33
REMARK SMILES IDX 76 34 27 35 28 36 29 37 70 38 30 39 75 40 69 41 71 42 31 43
REMARK SMILES IDX 74 44 68 45 67 46 32 48 58 49 41 50 57 51 42 52 45 53 56 54
REMARK SMILES IDX 72 55 43 56 44 57 55 59 73 60 46 61 33 62 34 63 39 64 35 65
REMARK SMILES IDX 36 66 38 67 40 68 37 69 59 70 60 71 65 72 61 73 62 74 64 75
REMARK SMILES IDX 66 76 63 77 47 78 48 79 53 80 49 81 50 82 52 83 54 84 51 85
REMARK H PARENT 71 47 45 58
REMARK Flexibility Score: inf
ROOT
ATOM      1  C   UNL A   1      31.444  32.230  26.528  1.00  0.00     0.202 C 
ENDROOT
BRANCH   1   2
ATOM      2  O   UNL A   1      31.473  30.806  26.604  1.00  0.00    -0.374 OA
BRANCH   2   3
ATOM      3  C   UNL A   1      31.832  30.066  25.442  1.00  0.00     0.202 C 
BRANCH   3   4
ATOM      4  C   UNL A   1      30.733  29.738  24.428  1.00  0.00     0.261 C 
BRANCH   4   5
ATOM      5  O   UNL A   1      30.573  28.324  24.237  1.00  0.00    -0.460 OA
BRANCH   5   6
ATOM      6  C   UNL A   1      30.687  27.926  22.949  1.00  0.00     0.338 C 
ATOM      7  O   UNL A   1      30.174  28.447  21.972  1.00  0.00    -0.246 OA
BRANCH   6   8
ATOM      8  C   UNL A   1      31.651  26.815  22.849  1.00  0.00     0.087 C 
ATOM      9  C   UNL A   1      34.292  22.691  24.045  1.00  0.00    -0.023 A 
ATOM     10  C   UNL A   1      34.489  23.804  23.184  1.00  0.00     0.052 A 
ATOM     11  C   UNL A   1      32.984  22.516  24.538  1.00  0.00     0.045 A 
ATOM     12  C   UNL A   1      33.502  24.770  22.965  1.00  0.00     0.128 A 
ATOM     13  C   UNL A   1      31.990  23.481  24.305  1.00  0.00     0.032 A 
ATOM     14  Cl  UNL A   1      32.425  21.151  25.439  1.00  0.00    -0.084 Cl
ATOM     15  C   UNL A   1      32.262  24.627  23.563  1.00  0.00     0.019 A 
ATOM     16  O   UNL A   1      33.838  25.824  22.163  1.00  0.00    -0.475 OA
ATOM     17  C   UNL A   1      31.285  25.691  23.478  1.00  0.00     0.027 C 
ATOM     18  C   UNL A   1      32.958  26.987  22.129  1.00  0.00     0.316 C 
BRANCH   9  19
ATOM     19  C   UNL A   1      35.511  21.794  24.324  1.00  0.00     0.014 C 
ATOM     20  C   UNL A   1      36.810  22.380  23.720  1.00  0.00     0.012 C 
ATOM     21  C   UNL A   1      35.850  21.468  25.786  1.00  0.00     0.012 C 
ENDBRANCH   9  19
BRANCH  18  22
ATOM     22  C   UNL A   1      33.748  28.209  22.623  1.00  0.00     0.430 C 
ATOM     23  F   UNL A   1      33.072  29.359  22.387  1.00  0.00    -0.167 F 
ATOM     24  F   UNL A   1      33.966  28.158  23.959  1.00  0.00    -0.167 F 
ATOM     25  F   UNL A   1      34.953  28.313  22.019  1.00  0.00    -0.167 F 
ENDBRANCH  18  22
ENDBRANCH   6   8
ENDBRANCH   5   6
ENDBRANCH   4   5
ENDBRANCH   3   4
ENDBRANCH   2   3
ENDBRANCH   1   2
BRANCH   1  26
ATOM     26  C   UNL A   1      32.616  33.025  27.120  1.00  0.00     0.261 C 
BRANCH  26  27
ATOM     27  O   UNL A   1      32.210  33.961  28.132  1.00  0.00    -0.460 OA
BRANCH  27  28
ATOM     28  C   UNL A   1      33.184  34.808  28.550  1.00  0.00     0.338 C 
ATOM     29  O   UNL A   1      33.103  36.017  28.698  1.00  0.00    -0.246 OA
BRANCH  28  30
ATOM     30  C   UNL A   1      34.344  34.022  29.009  1.00  0.00     0.060 A 
ATOM     31  C   UNL A   1      35.630  34.300  28.549  1.00  0.00     0.016 A 
ATOM     32  C   UNL A   1      34.126  33.010  29.954  1.00  0.00     0.016 A 
ATOM     33  C   UNL A   1      36.708  33.568  29.053  1.00  0.00     0.010 A 
ATOM     34  C   UNL A   1      35.203  32.279  30.453  1.00  0.00     0.010 A 
ATOM     35  C   UNL A   1      36.505  32.562  30.017  1.00  0.00    -0.014 A 
BRANCH  35  36
ATOM     36  C   UNL A   1      37.664  31.874  30.636  1.00  0.00     0.031 A 
ATOM     37  C   UNL A   1      38.132  32.230  32.016  1.00  0.00     0.074 A 
ATOM     38  C   UNL A   1      38.311  30.931  29.926  1.00  0.00     0.049 A 
ATOM     39  N   UNL A   1      39.101  31.698  32.719  1.00  0.00    -0.248 NA
ATOM     40  C   UNL A   1      37.427  33.326  32.693  1.00  0.00     0.031 C 
ATOM     41  C   UNL A   1      37.973  30.524  28.561  1.00  0.00     0.029 A 
ATOM     42  N   UNL A   1      39.386  30.143  30.252  1.00  0.00    -0.354 N 
ATOM     43  C   UNL A   1      39.110  32.380  33.930  1.00  0.00     0.074 A 
ATOM     44  C   UNL A   1      38.085  33.399  33.842  1.00  0.00     0.031 C 
ATOM     45  C   UNL A   1      38.805  29.544  28.177  1.00  0.00     0.029 A 
ATOM     46  C   UNL A   1      39.756  29.277  29.252  1.00  0.00     0.049 A 
ATOM     47  H   UNL A   1      39.847  30.192  31.120  1.00  0.00     0.167 HD
ATOM     48  C   UNL A   1      39.889  32.162  35.018  1.00  0.00     0.037 A 
ATOM     49  C   UNL A   1      40.754  28.377  29.205  1.00  0.00     0.037 A 
ATOM     50  C   UNL A   1      40.929  31.165  35.089  1.00  0.00     0.049 A 
ATOM     51  C   UNL A   1      41.649  28.207  30.404  1.00  0.00     0.074 A 
ATOM     52  C   UNL A   1      41.753  30.853  36.157  1.00  0.00     0.029 A 
ATOM     53  N   UNL A   1      41.300  30.331  34.045  1.00  0.00    -0.354 N 
ATOM     54  N   UNL A   1      41.595  28.803  31.570  1.00  0.00    -0.248 NA
ATOM     55  C   UNL A   1      42.742  27.234  30.277  1.00  0.00     0.031 C 
ATOM     56  C   UNL A   1      42.661  29.873  35.740  1.00  0.00     0.029 A 
ATOM     57  C   UNL A   1      42.361  29.528  34.433  1.00  0.00     0.049 A 
ATOM     58  H   UNL A   1      40.874  30.313  33.158  1.00  0.00     0.167 HD
ATOM     59  C   UNL A   1      42.623  28.252  32.325  1.00  0.00     0.074 A 
ATOM     60  C   UNL A   1      43.269  27.261  31.492  1.00  0.00     0.031 C 
ATOM     61  C   UNL A   1      42.997  28.540  33.597  1.00  0.00     0.037 A 
BRANCH  48  62
ATOM     62  C   UNL A   1      39.651  33.028  36.222  1.00  0.00     0.057 A 
ATOM     63  C   UNL A   1      38.707  32.669  37.193  1.00  0.00     0.134 A 
ATOM     64  C   UNL A   1      40.330  34.243  36.401  1.00  0.00     0.134 A 
ATOM     65  F   UNL A   1      38.014  31.527  37.080  1.00  0.00    -0.206 F 
ATOM     66  C   UNL A   1      38.448  33.483  38.297  1.00  0.00     0.040 A 
ATOM     67  C   UNL A   1      40.099  35.051  37.515  1.00  0.00     0.040 A 
ATOM     68  F   UNL A   1      41.250  34.644  35.511  1.00  0.00    -0.206 F 
ATOM     69  C   UNL A   1      39.151  34.674  38.465  1.00  0.00     0.006 A 
ENDBRANCH  48  62
BRANCH  49  70
ATOM     70  C   UNL A   1      40.970  27.554  27.988  1.00  0.00     0.057 A 
ATOM     71  C   UNL A   1      40.366  26.301  27.838  1.00  0.00     0.134 A 
ATOM     72  C   UNL A   1      41.743  28.028  26.921  1.00  0.00     0.134 A 
ATOM     73  F   UNL A   1      39.619  25.785  28.825  1.00  0.00    -0.206 F 
ATOM     74  C   UNL A   1      40.514  25.552  26.669  1.00  0.00     0.040 A 
ATOM     75  C   UNL A   1      41.875  27.305  25.735  1.00  0.00     0.040 A 
ATOM     76  F   UNL A   1      42.334  29.230  26.997  1.00  0.00    -0.206 F 
ATOM     77  C   UNL A   1      41.259  26.061  25.608  1.00  0.00     0.006 A 
ENDBRANCH  49  70
BRANCH  61  78
ATOM     78  C   UNL A   1      44.130  27.740  34.175  1.00  0.00     0.057 A 
ATOM     79  C   UNL A   1      43.886  26.504  34.791  1.00  0.00     0.134 A 
ATOM     80  C   UNL A   1      45.457  28.187  34.134  1.00  0.00     0.134 A 
ATOM     81  F   UNL A   1      42.639  26.018  34.874  1.00  0.00    -0.206 F 
ATOM     82  C   UNL A   1      44.920  25.745  35.342  1.00  0.00     0.040 A 
ATOM     83  C   UNL A   1      46.503  27.421  34.652  1.00  0.00     0.040 A 
ATOM     84  F   UNL A   1      45.763  29.354  33.545  1.00  0.00    -0.206 F 
ATOM     85  C   UNL A   1      46.234  26.199  35.265  1.00  0.00     0.006 A 
ENDBRANCH  61  78
ENDBRANCH  35  36
ENDBRANCH  28  30
ENDBRANCH  27  28
ENDBRANCH  26  27
ENDBRANCH   1  26
TORSDOF 16
ENDMDL
MODEL 2
REMARK VINA RESULT:     -11.5      1.552      2.415
REMARK SMILES CC(C)c1cc2c(cc1Cl)C=C(C(=O)OCCOCCOC(=O)c1ccc(-c3c4nc(c(-c5c(F)cccc5F)c5ccc([nH]5)c(-c5c(F)cccc5F)c5nc(c(-c6c(F)cccc6F)c6ccc3[nH]6)C=C5)C=C4)cc1)[C@@H](C(F)(F)F)O2
REMARK SMILES IDX 19 1 18 2 17 3 16 4 15 5 13 6 14 7 12 8 4 9 5 10 9 11 6 12
REMARK SMILES IDX 8 13 10 14 7 15 83 16 11 17 78 18 2 19 1 20 3 21 79 22 80 23
REMARK SMILES IDX 81 24 82 25 20 26 21 27 22 28 23 29 24 30 25 31 77 32 26 33
REMARK SMILES IDX 76 34 27 35 28 36 29 37 70 38 30 39 75 40 69 41 71 42 31 43
REMARK SMILES IDX 74 44 68 45 67 46 32 48 58 49 41 50 57 51 42 52 45 53 56 54
REMARK SMILES IDX 72 55 43 56 44 57 55 59 73 60 46 61 33 62 34 63 39 64 35 65
REMARK SMILES IDX 36 66 38 67 40 68 37 69 59 70 60 71 65 72 61 73 62 74 64 75
REMARK SMILES IDX 66 76 63 77 47 78 48 79 53 80 49 81 50 82 52 83 54 84 51 85
REMARK H PARENT 71 47 45 58
REMARK Flexibility Score: inf
ROOT
ATOM      1  C   UNL A   1      31.761  31.748  26.788  1.00  0.00     0.202 C 
ENDROOT
BRANCH   1   2
ATOM      2  O   UNL A   1      32.500  30.689  27.394  1.00  0.00    -0.374 OA
BRANCH   2   3
ATOM      3  C   UNL A   1      33.431  29.963  26.599  1.00  0.00     0.202 C 
BRANCH   3   4
ATOM      4  C   UNL A   1      32.882  28.954  25.586  1.00  0.00     0.261 C 
BRANCH   4   5
ATOM      5  O   UNL A   1      33.435  27.642  25.771  1.00  0.00    -0.460 OA
BRANCH   5   6
ATOM      6  C   UNL A   1      33.599  26.946  24.621  1.00  0.00     0.338 C 
ATOM      7  O   UNL A   1      34.018  27.375  23.559  1.00  0.00    -0.246 OA
BRANCH   6   8
ATOM      8  C   UNL A   1      33.319  25.518  24.854  1.00  0.00     0.087 C 
ATOM      9  C   UNL A   1      33.815  20.502  24.777  1.00  0.00    -0.023 A 
ATOM     10  C   UNL A   1      32.730  21.409  24.910  1.00  0.00     0.052 A 
ATOM     11  C   UNL A   1      35.104  21.054  24.924  1.00  0.00     0.045 A 
ATOM     12  C   UNL A   1      32.912  22.791  25.011  1.00  0.00     0.128 A 
ATOM     13  C   UNL A   1      35.284  22.443  25.040  1.00  0.00     0.032 A 
ATOM     14  Cl  UNL A   1      36.577  20.157  25.003  1.00  0.00    -0.084 Cl
ATOM     15  C   UNL A   1      34.195  23.311  25.033  1.00  0.00     0.019 A 
ATOM     16  O   UNL A   1      31.784  23.560  25.071  1.00  0.00    -0.475 OA
ATOM     17  C   UNL A   1      34.403  24.742  24.977  1.00  0.00     0.027 C 
ATOM     18  C   UNL A   1      31.908  25.003  24.894  1.00  0.00     0.316 C 
BRANCH   9  19
ATOM     19  C   UNL A   1      33.469  19.026  24.512  1.00  0.00     0.014 C 
ATOM     20  C   UNL A   1      32.827  18.353  25.748  1.00  0.00     0.012 C 
ATOM     21  C   UNL A   1      32.536  18.701  23.337  1.00  0.00     0.012 C 
ENDBRANCH   9  19
BRANCH  18  22
ATOM     22  C   UNL A   1      31.095  25.412  23.657  1.00  0.00     0.430 C 
ATOM     23  F   UNL A   1      31.805  25.225  22.518  1.00  0.00    -0.167 F 
ATOM     24  F   UNL A   1      29.966  24.673  23.531  1.00  0.00    -0.167 F 
ATOM     25  F   UNL A   1      30.726  26.712  23.698  1.00  0.00    -0.167 F 
ENDBRANCH  18  22
ENDBRANCH   6   8
ENDBRANCH   5   6
ENDBRANCH   4   5
ENDBRANCH   3   4
ENDBRANCH   2   3
ENDBRANCH   1   2
BRANCH   1  26
ATOM     26  C   UNL A   1      32.313  33.178  26.876  1.00  0.00     0.261 C 
BRANCH  26  27
ATOM     27  O   UNL A   1      32.154  33.765  28.178  1.00  0.00    -0.460 OA
BRANCH  27  28
ATOM     28  C   UNL A   1      33.148  34.610  28.548  1.00  0.00     0.338 C 
ATOM     29  O   UNL A   1      33.082  35.823  28.675  1.00  0.00    -0.246 OA
BRANCH  28  30
ATOM     30  C   UNL A   1      34.315  33.823  28.985  1.00  0.00     0.060 A 
ATOM     31  C   UNL A   1      35.612  34.209  28.647  1.00  0.00     0.016 A 
ATOM     32  C   UNL A   1      34.091  32.694  29.784  1.00  0.00     0.016 A 
ATOM     33  C   UNL A   1      36.692  33.466  29.129  1.00  0.00     0.010 A 
ATOM     34  C   UNL A   1      35.171  31.953  30.262  1.00  0.00     0.010 A 
ATOM     35  C   UNL A   1      36.481  32.342  29.950  1.00  0.00    -0.014 A 
BRANCH  35  36
ATOM     36  C   UNL A   1      37.634  31.631  30.557  1.00  0.00     0.031 A 
ATOM     37  C   UNL A   1      38.048  31.893  31.974  1.00  0.00     0.074 A 
ATOM     38  C   UNL A   1      38.323  30.755  29.803  1.00  0.00     0.049 A 
ATOM     39  N   UNL A   1      39.004  31.329  32.670  1.00  0.00    -0.248 NA
ATOM     40  C   UNL A   1      37.298  32.923  32.705  1.00  0.00     0.031 C 
ATOM     41  C   UNL A   1      38.038  30.443  28.401  1.00  0.00     0.029 A 
ATOM     42  N   UNL A   1      39.402  29.965  30.107  1.00  0.00    -0.354 N 
ATOM     43  C   UNL A   1      38.959  31.920  33.926  1.00  0.00     0.074 A 
ATOM     44  C   UNL A   1      37.917  32.924  33.878  1.00  0.00     0.031 C 
ATOM     45  C   UNL A   1      38.903  29.509  27.975  1.00  0.00     0.029 A 
ATOM     46  C   UNL A   1      39.823  29.182  29.060  1.00  0.00     0.049 A 
ATOM     47  H   UNL A   1      39.833  29.959  30.992  1.00  0.00     0.167 HD
ATOM     48  C   UNL A   1      39.706  31.637  35.022  1.00  0.00     0.037 A 
ATOM     49  C   UNL A   1      40.842  28.306  28.982  1.00  0.00     0.037 A 
ATOM     50  C   UNL A   1      40.764  30.657  35.056  1.00  0.00     0.049 A 
ATOM     51  C   UNL A   1      41.699  28.065  30.195  1.00  0.00     0.074 A 
ATOM     52  C   UNL A   1      41.559  30.282  36.126  1.00  0.00     0.029 A 
ATOM     53  N   UNL A   1      41.186  29.909  33.967  1.00  0.00    -0.354 N 
ATOM     54  N   UNL A   1      41.594  28.573  31.399  1.00  0.00    -0.248 NA
ATOM     55  C   UNL A   1      42.816  27.124  30.035  1.00  0.00     0.031 C 
ATOM     56  C   UNL A   1      42.500  29.353  35.670  1.00  0.00     0.029 A 
ATOM     57  C   UNL A   1      42.250  29.099  34.332  1.00  0.00     0.049 A 
ATOM     58  H   UNL A   1      40.790  29.949  33.067  1.00  0.00     0.167 HD
ATOM     59  C   UNL A   1      42.608  27.986  32.147  1.00  0.00     0.074 A 
ATOM     60  C   UNL A   1      43.302  27.072  31.266  1.00  0.00     0.031 C 
ATOM     61  C   UNL A   1      42.934  28.187  33.449  1.00  0.00     0.037 A 
BRANCH  48  62
ATOM     62  C   UNL A   1      39.411  32.408  36.277  1.00  0.00     0.057 A 
ATOM     63  C   UNL A   1      38.443  31.962  37.185  1.00  0.00     0.134 A 
ATOM     64  C   UNL A   1      40.058  33.618  36.568  1.00  0.00     0.134 A 
ATOM     65  F   UNL A   1      37.777  30.819  36.965  1.00  0.00    -0.206 F 
ATOM     66  C   UNL A   1      38.130  32.687  38.336  1.00  0.00     0.040 A 
ATOM     67  C   UNL A   1      39.774  34.338  37.728  1.00  0.00     0.040 A 
ATOM     68  F   UNL A   1      40.999  34.100  35.742  1.00  0.00    -0.206 F 
ATOM     69  C   UNL A   1      38.803  33.875  38.615  1.00  0.00     0.006 A 
ENDBRANCH  48  62
BRANCH  49  70
ATOM     70  C   UNL A   1      41.114  27.579  27.716  1.00  0.00     0.057 A 
ATOM     71  C   UNL A   1      41.951  28.116  26.731  1.00  0.00     0.134 A 
ATOM     72  C   UNL A   1      40.588  26.302  27.488  1.00  0.00     0.134 A 
ATOM     73  F   UNL A   1      42.481  29.338  26.885  1.00  0.00    -0.206 F 
ATOM     74  C   UNL A   1      42.261  27.408  25.569  1.00  0.00     0.040 A 
ATOM     75  C   UNL A   1      40.914  25.569  26.345  1.00  0.00     0.040 A 
ATOM     76  F   UNL A   1      39.794  25.725  28.402  1.00  0.00    -0.206 F 
ATOM     77  C   UNL A   1      41.753  26.125  25.381  1.00  0.00     0.006 A 
ENDBRANCH  49  70
BRANCH  61  78
ATOM     78  C   UNL A   1      44.064  27.368  34.006  1.00  0.00     0.057 A 
ATOM     79  C   UNL A   1      45.382  27.843  33.951  1.00  0.00     0.134 A 
ATOM     80  C   UNL A   1      43.859  26.110  34.586  1.00  0.00     0.134 A 
ATOM     81  F   UNL A   1      45.654  29.037  33.401  1.00  0.00    -0.206 F 
ATOM     82  C   UNL A   1      46.449  27.099  34.455  1.00  0.00     0.040 A 
ATOM     83  C   UNL A   1      44.914  25.371  35.124  1.00  0.00     0.040 A 
ATOM     84  F   UNL A   1      42.620  25.601  34.686  1.00  0.00    -0.206 F 
ATOM     85  C   UNL A   1      46.216  25.863  35.052  1.00  0.00     0.006 A 
ENDBRANCH  61  78
ENDBRANCH  35  36
ENDBRANCH  28  30
ENDBRANCH  27  28
ENDBRANCH  26  27
ENDBRANCH   1  26
TORSDOF 16
ENDMDL
MODEL 3
REMARK VINA RESULT:     -11.3      4.580      8.434
REMARK SMILES CC(C)c1cc2c(cc1Cl)C=C(C(=O)OCCOCCOC(=O)c1ccc(-c3c4nc(c(-c5c(F)cccc5F)c5ccc([nH]5)c(-c5c(F)cccc5F)c5nc(c(-c6c(F)cccc6F)c6ccc3[nH]6)C=C5)C=C4)cc1)[C@@H](C(F)(F)F)O2
REMARK SMILES IDX 19 1 18 2 17 3 16 4 15 5 13 6 14 7 12 8 4 9 5 10 9 11 6 12
REMARK SMILES IDX 8 13 10 14 7 15 83 16 11 17 78 18 2 19 1 20 3 21 79 22 80 23
REMARK SMILES IDX 81 24 82 25 20 26 21 27 22 28 23 29 24 30 25 31 77 32 26 33
REMARK SMILES IDX 76 34 27 35 28 36 29 37 70 38 30 39 75 40 69 41 71 42 31 43
REMARK SMILES IDX 74 44 68 45 67 46 32 48 58 49 41 50 57 51 42 52 45 53 56 54
REMARK SMILES IDX 72 55 43 56 44 57 55 59 73 60 46 61 33 62 34 63 39 64 35 65
REMARK SMILES IDX 36 66 38 67 40 68 37 69 59 70 60 71 65 72 61 73 62 74 64 75
REMARK SMILES IDX 66 76 63 77 47 78 48 79 53 80 49 81 50 82 52 83 54 84 51 85
REMARK H PARENT 71 47 45 58
REMARK Flexibility Score: inf
ROOT
ATOM      1  C   UNL A   1      34.112  34.313  29.466  1.00  0.00     0.202 C 
ENDROOT
BRANCH   1   2
ATOM      2  O   UNL A   1      33.986  34.042  30.861  1.00  0.00    -0.374 OA
BRANCH   2   3
ATOM      3  C   UNL A   1      35.157  34.056  31.669  1.00  0.00     0.202 C 
BRANCH   3   4
ATOM      4  C   UNL A   1      35.260  35.112  32.773  1.00  0.00     0.261 C 
BRANCH   4   5
ATOM      5  O   UNL A   1      36.497  35.026  33.496  1.00  0.00    -0.460 OA
BRANCH   5   6
ATOM      6  C   UNL A   1      36.555  33.993  34.368  1.00  0.00     0.338 C 
ATOM      7  O   UNL A   1      35.739  33.718  35.233  1.00  0.00    -0.246 OA
BRANCH   6   8
ATOM      8  C   UNL A   1      37.706  33.130  34.049  1.00  0.00     0.087 C 
ATOM      9  C   UNL A   1      40.500  28.989  33.375  1.00  0.00    -0.023 A 
ATOM     10  C   UNL A   1      40.769  30.355  33.657  1.00  0.00     0.052 A 
ATOM     11  C   UNL A   1      39.191  28.692  32.948  1.00  0.00     0.045 A 
ATOM     12  C   UNL A   1      39.767  31.330  33.678  1.00  0.00     0.128 A 
ATOM     13  C   UNL A   1      38.188  29.676  32.958  1.00  0.00     0.032 A 
ATOM     14  Cl  UNL A   1      38.650  27.160  32.359  1.00  0.00    -0.084 Cl
ATOM     15  C   UNL A   1      38.464  30.978  33.369  1.00  0.00     0.019 A 
ATOM     16  O   UNL A   1      40.146  32.597  34.025  1.00  0.00    -0.475 OA
ATOM     17  C   UNL A   1      37.391  31.933  33.540  1.00  0.00     0.027 C 
ATOM     18  C   UNL A   1      39.112  33.578  34.335  1.00  0.00     0.316 C 
BRANCH   9  19
ATOM     19  C   UNL A   1      41.664  27.995  33.543  1.00  0.00     0.014 C 
ATOM     20  C   UNL A   1      43.024  28.718  33.692  1.00  0.00     0.012 C 
ATOM     21  C   UNL A   1      41.600  26.997  34.708  1.00  0.00     0.012 C 
ENDBRANCH   9  19
BRANCH  18  22
ATOM     22  C   UNL A   1      39.300  34.038  35.789  1.00  0.00     0.430 C 
ATOM     23  F   UNL A   1      38.910  35.326  35.950  1.00  0.00    -0.167 F 
ATOM     24  F   UNL A   1      38.556  33.301  36.649  1.00  0.00    -0.167 F 
ATOM     25  F   UNL A   1      40.588  33.949  36.187  1.00  0.00    -0.167 F 
ENDBRANCH  18  22
ENDBRANCH   6   8
ENDBRANCH   5   6
ENDBRANCH   4   5
ENDBRANCH   3   4
ENDBRANCH   2   3
ENDBRANCH   1   2
BRANCH   1  26
ATOM     26  C   UNL A   1      34.277  33.134  28.497  1.00  0.00     0.261 C 
BRANCH  26  27
ATOM     27  O   UNL A   1      34.421  31.869  29.165  1.00  0.00    -0.460 OA
BRANCH  27  28
ATOM     28  C   UNL A   1      34.572  30.803  28.340  1.00  0.00     0.338 C 
ATOM     29  O   UNL A   1      33.789  30.403  27.493  1.00  0.00    -0.246 OA
BRANCH  28  30
ATOM     30  C   UNL A   1      35.946  30.284  28.467  1.00  0.00     0.060 A 
ATOM     31  C   UNL A   1      36.848  30.365  27.408  1.00  0.00     0.016 A 
ATOM     32  C   UNL A   1      36.336  29.738  29.698  1.00  0.00     0.016 A 
ATOM     33  C   UNL A   1      38.158  29.912  27.590  1.00  0.00     0.010 A 
ATOM     34  C   UNL A   1      37.642  29.283  29.876  1.00  0.00     0.010 A 
ATOM     35  C   UNL A   1      38.567  29.381  28.827  1.00  0.00    -0.014 A 
BRANCH  35  36
ATOM     36  C   UNL A   1      39.988  29.015  29.051  1.00  0.00     0.031 A 
ATOM     37  C   UNL A   1      40.948  29.979  29.681  1.00  0.00     0.074 A 
ATOM     38  C   UNL A   1      40.412  27.800  28.657  1.00  0.00     0.049 A 
ATOM     39  N   UNL A   1      42.211  29.804  29.985  1.00  0.00    -0.248 NA
ATOM     40  C   UNL A   1      40.429  31.314  30.008  1.00  0.00     0.031 C 
ATOM     41  C   UNL A   1      39.581  26.790  27.999  1.00  0.00     0.029 A 
ATOM     42  N   UNL A   1      41.646  27.207  28.751  1.00  0.00    -0.354 N 
ATOM     43  C   UNL A   1      42.633  30.998  30.557  1.00  0.00     0.074 A 
ATOM     44  C   UNL A   1      41.505  31.906  30.507  1.00  0.00     0.031 C 
ATOM     45  C   UNL A   1      40.321  25.692  27.775  1.00  0.00     0.029 A 
ATOM     46  C   UNL A   1      41.684  25.933  28.238  1.00  0.00     0.049 A 
ATOM     47  H   UNL A   1      42.429  27.652  29.149  1.00  0.00     0.167 HD
ATOM     48  C   UNL A   1      43.842  31.299  31.090  1.00  0.00     0.037 A 
ATOM     49  C   UNL A   1      42.705  25.062  28.145  1.00  0.00     0.037 A 
ATOM     50  C   UNL A   1      44.970  30.401  31.111  1.00  0.00     0.049 A 
ATOM     51  C   UNL A   1      44.056  25.453  28.682  1.00  0.00     0.074 A 
ATOM     52  C   UNL A   1      46.228  30.608  31.651  1.00  0.00     0.029 A 
ATOM     53  N   UNL A   1      44.983  29.133  30.550  1.00  0.00    -0.354 N 
ATOM     54  N   UNL A   1      44.420  26.554  29.292  1.00  0.00    -0.248 NA
ATOM     55  C   UNL A   1      45.138  24.472  28.519  1.00  0.00     0.031 C 
ATOM     56  C   UNL A   1      47.019  29.490  31.365  1.00  0.00     0.029 A 
ATOM     57  C   UNL A   1      46.236  28.559  30.704  1.00  0.00     0.049 A 
ATOM     58  H   UNL A   1      44.216  28.703  30.106  1.00  0.00     0.167 HD
ATOM     59  C   UNL A   1      45.760  26.384  29.616  1.00  0.00     0.074 A 
ATOM     60  C   UNL A   1      46.138  25.067  29.152  1.00  0.00     0.031 C 
ATOM     61  C   UNL A   1      46.603  27.243  30.242  1.00  0.00     0.037 A 
BRANCH  48  62
ATOM     62  C   UNL A   1      44.011  32.666  31.690  1.00  0.00     0.057 A 
ATOM     63  C   UNL A   1      44.406  33.755  30.902  1.00  0.00     0.134 A 
ATOM     64  C   UNL A   1      43.820  32.898  33.060  1.00  0.00     0.134 A 
ATOM     65  F   UNL A   1      44.617  33.603  29.586  1.00  0.00    -0.206 F 
ATOM     66  C   UNL A   1      44.604  35.022  31.452  1.00  0.00     0.040 A 
ATOM     67  C   UNL A   1      43.987  34.167  33.617  1.00  0.00     0.040 A 
ATOM     68  F   UNL A   1      43.436  31.901  33.871  1.00  0.00    -0.206 F 
ATOM     69  C   UNL A   1      44.386  35.233  32.812  1.00  0.00     0.006 A 
ENDBRANCH  48  62
BRANCH  49  70
ATOM     70  C   UNL A   1      42.503  23.728  27.526  1.00  0.00     0.057 A 
ATOM     71  C   UNL A   1      42.218  22.599  28.303  1.00  0.00     0.134 A 
ATOM     72  C   UNL A   1      42.536  23.562  26.137  1.00  0.00     0.134 A 
ATOM     73  F   UNL A   1      42.179  22.688  29.640  1.00  0.00    -0.206 F 
ATOM     74  C   UNL A   1      41.964  21.356  27.721  1.00  0.00     0.040 A 
ATOM     75  C   UNL A   1      42.254  22.333  25.539  1.00  0.00     0.040 A 
ATOM     76  F   UNL A   1      42.786  24.610  25.337  1.00  0.00    -0.206 F 
ATOM     77  C   UNL A   1      41.967  21.224  26.334  1.00  0.00     0.006 A 
ENDBRANCH  49  70
BRANCH  61  78
ATOM     78  C   UNL A   1      48.003  26.762  30.500  1.00  0.00     0.057 A 
ATOM     79  C   UNL A   1      49.019  26.994  29.563  1.00  0.00     0.134 A 
ATOM     80  C   UNL A   1      48.350  26.064  31.664  1.00  0.00     0.134 A 
ATOM     81  F   UNL A   1      48.757  27.649  28.422  1.00  0.00    -0.206 F 
ATOM     82  C   UNL A   1      50.326  26.552  29.775  1.00  0.00     0.040 A 
ATOM     83  C   UNL A   1      49.661  25.646  31.903  1.00  0.00     0.040 A 
ATOM     84  F   UNL A   1      47.430  25.821  32.611  1.00  0.00    -0.206 F 
ATOM     85  C   UNL A   1      50.651  25.884  30.953  1.00  0.00     0.006 A 
ENDBRANCH  61  78
ENDBRANCH  35  36
ENDBRANCH  28  30
ENDBRANCH  27  28
ENDBRANCH  26  27
ENDBRANCH   1  26
TORSDOF 16
ENDMDL
