MODEL 1
REMARK VINA RESULT:     -11.5      0.000      0.000
REMARK SMILES Cc1nsc(NC(=O)[C@H]2Cc3[nH]cnc3C[NH2+]2)c1C(=O)OCCOCCOC(=O)c1ccc(-c2c3nc(c(-c4c(F)cccc4F)c4ccc([nH]4)c(-c4c(F)cccc4F)c4nc(c(-c5c(F)cccc5F)c5ccc2[nH]5)C=C4)C=C3)cc1
REMARK SMILES IDX 24 1 23 2 22 3 21 4 19 5 20 6 18 7 1 8 2 9 3 10 4 11 5 12
REMARK SMILES IDX 6 13 7 14 8 16 9 17 10 18 17 19 11 20 16 21 12 24 15 25
REMARK SMILES IDX 13 26 14 28 25 29 26 30 27 31 28 32 29 33 30 34 31 35 83 36
REMARK SMILES IDX 32 37 82 38 33 39 34 40 35 41 76 42 36 43 81 44 75 45 77 46
REMARK SMILES IDX 37 47 80 48 74 49 73 50 38 52 64 53 47 54 63 55 48 56 51 57
REMARK SMILES IDX 62 58 78 59 49 60 50 61 61 63 79 64 52 65 39 66 40 67 45 68
REMARK SMILES IDX 41 69 42 70 44 71 46 72 43 73 65 74 66 75 71 76 67 77 68 78
REMARK SMILES IDX 70 79 72 80 69 81 53 82 54 83 59 84 55 85 56 86 58 87 60 88
REMARK SMILES IDX 57 89
REMARK H PARENT 6 15 17 22 17 23 12 27 77 51 51 62
REMARK Flexibility Score: inf
ROOT
ATOM      1  O   UNL A   1      32.677  30.517  27.127  1.00  0.00    -0.374 OA
ENDROOT
BRANCH   1   2
ATOM      2  C   UNL A   1      31.782  29.497  26.680  1.00  0.00     0.202 C 
BRANCH   2   3
ATOM      3  C   UNL A   1      31.556  28.296  27.606  1.00  0.00     0.261 C 
BRANCH   3   4
ATOM      4  O   UNL A   1      31.341  27.095  26.841  1.00  0.00    -0.460 OA
BRANCH   4   5
ATOM      5  C   UNL A   1      32.375  26.684  26.063  1.00  0.00     0.343 C 
ATOM      6  O   UNL A   1      33.547  26.616  26.428  1.00  0.00    -0.246 OA
BRANCH   5   7
ATOM      7  C   UNL A   1      31.891  26.046  24.857  1.00  0.00     0.117 A 
ATOM      8  C   UNL A   1      33.512  27.031  23.077  1.00  0.00     0.069 C 
ATOM      9  C   UNL A   1      32.291  26.291  23.500  1.00  0.00     0.068 A 
ATOM     10  N   UNL A   1      31.482  25.790  22.560  1.00  0.00    -0.195 NA
ATOM     11  S   UNL A   1      30.203  25.041  23.316  1.00  0.00    -0.017 S 
ATOM     12  C   UNL A   1      30.904  25.078  24.869  1.00  0.00     0.131 A 
BRANCH  12  13
ATOM     13  N   UNL A   1      30.354  24.463  25.964  1.00  0.00    -0.310 N 
ATOM     14  C   UNL A   1      30.770  23.427  26.733  1.00  0.00     0.283 C 
ATOM     15  H   UNL A   1      29.492  24.846  26.245  1.00  0.00     0.171 HD
ATOM     16  O   UNL A   1      29.961  23.095  27.614  1.00  0.00    -0.268 OA
BRANCH  14  17
ATOM     17  C   UNL A   1      32.095  22.658  26.563  1.00  0.00     0.279 C 
ATOM     18  C   UNL A   1      33.039  22.353  27.768  1.00  0.00     0.131 C 
ATOM     19  N   UNL A   1      31.812  21.332  25.882  1.00  0.00    -0.331 N 
ATOM     20  C   UNL A   1      34.312  22.028  27.069  1.00  0.00     0.050 A 
ATOM     21  C   UNL A   1      33.024  20.539  25.514  1.00  0.00     0.320 C 
ATOM     22  H   UNL A   1      31.286  21.520  25.029  1.00  0.00     0.347 HD
ATOM     23  H   UNL A   1      31.298  20.768  26.560  1.00  0.00     0.347 HD
ATOM     24  N   UNL A   1      35.447  22.780  26.967  1.00  0.00    -0.348 N 
ATOM     25  C   UNL A   1      34.282  21.230  25.944  1.00  0.00     0.116 A 
ATOM     26  C   UNL A   1      35.985  22.492  25.736  1.00  0.00     0.197 A 
ATOM     27  H   UNL A   1      35.807  23.403  27.640  1.00  0.00     0.167 HD
ATOM     28  N   UNL A   1      35.342  21.518  25.128  1.00  0.00    -0.236 NA
ENDBRANCH  14  17
ENDBRANCH  12  13
ENDBRANCH   5   7
ENDBRANCH   4   5
ENDBRANCH   3   4
ENDBRANCH   2   3
ENDBRANCH   1   2
BRANCH   1  29
ATOM     29  C   UNL A   1      34.082  30.302  27.101  1.00  0.00     0.202 C 
BRANCH  29  30
ATOM     30  C   UNL A   1      34.955  31.086  28.071  1.00  0.00     0.261 C 
BRANCH  30  31
ATOM     31  O   UNL A   1      36.316  30.693  27.995  1.00  0.00    -0.460 OA
BRANCH  31  32
ATOM     32  C   UNL A   1      36.718  29.934  29.038  1.00  0.00     0.338 C 
ATOM     33  O   UNL A   1      36.326  29.989  30.191  1.00  0.00    -0.246 OA
BRANCH  32  34
ATOM     34  C   UNL A   1      37.824  29.083  28.599  1.00  0.00     0.060 A 
ATOM     35  C   UNL A   1      38.295  28.146  29.521  1.00  0.00     0.016 A 
ATOM     36  C   UNL A   1      38.544  29.426  27.444  1.00  0.00     0.016 A 
ATOM     37  C   UNL A   1      39.599  27.728  29.411  1.00  0.00     0.010 A 
ATOM     38  C   UNL A   1      39.845  29.009  27.336  1.00  0.00     0.010 A 
ATOM     39  C   UNL A   1      40.380  28.254  28.376  1.00  0.00    -0.014 A 
BRANCH  39  40
ATOM     40  C   UNL A   1      41.788  27.940  28.351  1.00  0.00     0.031 A 
ATOM     41  C   UNL A   1      42.051  26.654  27.676  1.00  0.00     0.074 A 
ATOM     42  C   UNL A   1      42.715  28.803  28.807  1.00  0.00     0.049 A 
ATOM     43  N   UNL A   1      42.414  25.543  28.221  1.00  0.00    -0.248 NA
ATOM     44  C   UNL A   1      41.648  26.531  26.264  1.00  0.00     0.031 C 
ATOM     45  C   UNL A   1      42.521  30.182  29.268  1.00  0.00     0.029 A 
ATOM     46  N   UNL A   1      44.063  28.645  28.879  1.00  0.00    -0.354 N 
ATOM     47  C   UNL A   1      42.523  24.643  27.168  1.00  0.00     0.074 A 
ATOM     48  C   UNL A   1      41.828  25.227  26.054  1.00  0.00     0.031 C 
ATOM     49  C   UNL A   1      43.722  30.800  29.357  1.00  0.00     0.029 A 
ATOM     50  C   UNL A   1      44.766  29.825  29.102  1.00  0.00     0.049 A 
ATOM     51  H   UNL A   1      44.505  27.770  28.783  1.00  0.00     0.167 HD
ATOM     52  C   UNL A   1      43.458  23.658  27.205  1.00  0.00     0.037 A 
ATOM     53  C   UNL A   1      46.112  29.976  29.022  1.00  0.00     0.037 A 
ATOM     54  C   UNL A   1      43.942  23.453  28.547  1.00  0.00     0.049 A 
ATOM     55  C   UNL A   1      46.706  28.626  29.166  1.00  0.00     0.074 A 
ATOM     56  C   UNL A   1      43.409  23.002  29.735  1.00  0.00     0.029 A 
ATOM     57  N   UNL A   1      45.093  24.129  28.864  1.00  0.00    -0.354 N 
ATOM     58  N   UNL A   1      46.641  27.928  30.267  1.00  0.00    -0.248 NA
ATOM     59  C   UNL A   1      46.977  27.860  27.960  1.00  0.00     0.031 C 
ATOM     60  C   UNL A   1      44.077  23.742  30.757  1.00  0.00     0.029 A 
ATOM     61  C   UNL A   1      45.024  24.573  30.156  1.00  0.00     0.049 A 
ATOM     62  H   UNL A   1      45.853  24.271  28.255  1.00  0.00     0.167 HD
ATOM     63  C   UNL A   1      46.430  26.622  29.847  1.00  0.00     0.074 A 
ATOM     64  C   UNL A   1      46.772  26.625  28.427  1.00  0.00     0.031 C 
ATOM     65  C   UNL A   1      45.718  25.753  30.626  1.00  0.00     0.037 A 
BRANCH  52  66
ATOM     66  C   UNL A   1      44.274  23.255  25.998  1.00  0.00     0.057 A 
ATOM     67  C   UNL A   1      44.332  21.897  25.643  1.00  0.00     0.134 A 
ATOM     68  C   UNL A   1      45.238  24.078  25.374  1.00  0.00     0.134 A 
ATOM     69  F   UNL A   1      43.486  21.010  26.189  1.00  0.00    -0.206 F 
ATOM     70  C   UNL A   1      45.317  21.388  24.788  1.00  0.00     0.040 A 
ATOM     71  C   UNL A   1      46.189  23.589  24.477  1.00  0.00     0.040 A 
ATOM     72  F   UNL A   1      45.388  25.374  25.672  1.00  0.00    -0.206 F 
ATOM     73  C   UNL A   1      46.252  22.234  24.205  1.00  0.00     0.006 A 
ENDBRANCH  52  66
BRANCH  53  74
ATOM     74  C   UNL A   1      46.866  31.129  28.478  1.00  0.00     0.057 A 
ATOM     75  C   UNL A   1      46.800  31.483  27.123  1.00  0.00     0.134 A 
ATOM     76  C   UNL A   1      47.455  32.076  29.335  1.00  0.00     0.134 A 
ATOM     77  F   UNL A   1      46.205  30.672  26.237  1.00  0.00    -0.206 F 
ATOM     78  C   UNL A   1      47.285  32.711  26.649  1.00  0.00     0.040 A 
ATOM     79  C   UNL A   1      47.945  33.303  28.874  1.00  0.00     0.040 A 
ATOM     80  F   UNL A   1      47.490  31.880  30.661  1.00  0.00    -0.206 F 
ATOM     81  C   UNL A   1      47.854  33.629  27.527  1.00  0.00     0.006 A 
ENDBRANCH  53  74
BRANCH  65  82
ATOM     82  C   UNL A   1      45.467  26.162  32.054  1.00  0.00     0.057 A 
ATOM     83  C   UNL A   1      44.306  26.813  32.497  1.00  0.00     0.134 A 
ATOM     84  C   UNL A   1      46.382  25.765  33.033  1.00  0.00     0.134 A 
ATOM     85  F   UNL A   1      43.335  27.154  31.642  1.00  0.00    -0.206 F 
ATOM     86  C   UNL A   1      44.084  27.087  33.851  1.00  0.00     0.040 A 
ATOM     87  C   UNL A   1      46.158  26.003  34.392  1.00  0.00     0.040 A 
ATOM     88  F   UNL A   1      47.490  25.090  32.688  1.00  0.00    -0.206 F 
ATOM     89  C   UNL A   1      45.010  26.675  34.805  1.00  0.00     0.006 A 
ENDBRANCH  65  82
ENDBRANCH  39  40
ENDBRANCH  32  34
ENDBRANCH  31  32
ENDBRANCH  30  31
ENDBRANCH  29  30
ENDBRANCH   1  29
TORSDOF 16
ENDMDL
MODEL 2
REMARK VINA RESULT:     -11.2      1.450      2.271
REMARK SMILES Cc1nsc(NC(=O)[C@H]2Cc3[nH]cnc3C[NH2+]2)c1C(=O)OCCOCCOC(=O)c1ccc(-c2c3nc(c(-c4c(F)cccc4F)c4ccc([nH]4)c(-c4c(F)cccc4F)c4nc(c(-c5c(F)cccc5F)c5ccc2[nH]5)C=C4)C=C3)cc1
REMARK SMILES IDX 24 1 23 2 22 3 21 4 19 5 20 6 18 7 1 8 2 9 3 10 4 11 5 12
REMARK SMILES IDX 6 13 7 14 8 16 9 17 10 18 17 19 11 20 16 21 12 24 15 25
REMARK SMILES IDX 13 26 14 28 25 29 26 30 27 31 28 32 29 33 30 34 31 35 83 36
REMARK SMILES IDX 32 37 82 38 33 39 34 40 35 41 76 42 36 43 81 44 75 45 77 46
REMARK SMILES IDX 37 47 80 48 74 49 73 50 38 52 64 53 47 54 63 55 48 56 51 57
REMARK SMILES IDX 62 58 78 59 49 60 50 61 61 63 79 64 52 65 39 66 40 67 45 68
REMARK SMILES IDX 41 69 42 70 44 71 46 72 43 73 65 74 66 75 71 76 67 77 68 78
REMARK SMILES IDX 70 79 72 80 69 81 53 82 54 83 59 84 55 85 56 86 58 87 60 88
REMARK SMILES IDX 57 89
REMARK H PARENT 6 15 17 22 17 23 12 27 77 51 51 62
REMARK Flexibility Score: inf
ROOT
ATOM      1  O   UNL A   1      34.245  30.616  27.004  1.00  0.00    -0.374 OA
ENDROOT
BRANCH   1   2
ATOM      2  C   UNL A   1      33.725  29.299  27.194  1.00  0.00     0.202 C 
BRANCH   2   3
ATOM      3  C   UNL A   1      34.316  28.172  26.339  1.00  0.00     0.261 C 
BRANCH   3   4
ATOM      4  O   UNL A   1      33.359  27.713  25.366  1.00  0.00    -0.460 OA
BRANCH   4   5
ATOM      5  C   UNL A   1      33.334  28.382  24.185  1.00  0.00     0.343 C 
ATOM      6  O   UNL A   1      34.312  28.578  23.466  1.00  0.00    -0.246 OA
BRANCH   5   7
ATOM      7  C   UNL A   1      31.973  28.568  23.725  1.00  0.00     0.117 A 
ATOM      8  C   UNL A   1      31.188  30.528  25.244  1.00  0.00     0.069 C 
ATOM      9  C   UNL A   1      30.958  29.420  24.275  1.00  0.00     0.068 A 
ATOM     10  N   UNL A   1      29.711  29.180  23.854  1.00  0.00    -0.195 NA
ATOM     11  S   UNL A   1      29.754  27.889  22.805  1.00  0.00    -0.017 S 
ATOM     12  C   UNL A   1      31.451  27.881  22.645  1.00  0.00     0.131 A 
BRANCH  12  13
ATOM     13  N   UNL A   1      32.126  27.077  21.764  1.00  0.00    -0.310 N 
ATOM     14  C   UNL A   1      32.675  25.844  21.892  1.00  0.00     0.283 C 
ATOM     15  H   UNL A   1      32.232  27.469  20.868  1.00  0.00     0.171 HD
ATOM     16  O   UNL A   1      33.278  25.453  20.880  1.00  0.00    -0.268 OA
BRANCH  14  17
ATOM     17  C   UNL A   1      32.629  24.967  23.158  1.00  0.00     0.279 C 
ATOM     18  C   UNL A   1      32.139  23.486  23.126  1.00  0.00     0.131 C 
ATOM     19  N   UNL A   1      34.002  24.960  23.803  1.00  0.00    -0.331 N 
ATOM     20  C   UNL A   1      31.859  23.237  24.567  1.00  0.00     0.050 A 
ATOM     21  C   UNL A   1      34.075  24.272  25.128  1.00  0.00     0.320 C 
ATOM     22  H   UNL A   1      34.296  25.928  23.934  1.00  0.00     0.347 HD
ATOM     23  H   UNL A   1      34.609  24.433  23.175  1.00  0.00     0.347 HD
ATOM     24  N   UNL A   1      30.653  23.137  25.198  1.00  0.00    -0.348 N 
ATOM     25  C   UNL A   1      32.749  23.693  25.517  1.00  0.00     0.116 A 
ATOM     26  C   UNL A   1      30.840  23.647  26.459  1.00  0.00     0.197 A 
ATOM     27  H   UNL A   1      29.817  22.773  24.823  1.00  0.00     0.167 HD
ATOM     28  N   UNL A   1      32.103  23.927  26.700  1.00  0.00    -0.236 NA
ENDBRANCH  14  17
ENDBRANCH  12  13
ENDBRANCH   5   7
ENDBRANCH   4   5
ENDBRANCH   3   4
ENDBRANCH   2   3
ENDBRANCH   1   2
BRANCH   1  29
ATOM     29  C   UNL A   1      34.182  31.572  28.055  1.00  0.00     0.202 C 
BRANCH  29  30
ATOM     30  C   UNL A   1      35.349  31.659  29.028  1.00  0.00     0.261 C 
BRANCH  30  31
ATOM     31  O   UNL A   1      36.421  30.810  28.648  1.00  0.00    -0.460 OA
BRANCH  31  32
ATOM     32  C   UNL A   1      36.666  29.820  29.535  1.00  0.00     0.338 C 
ATOM     33  O   UNL A   1      36.168  29.671  30.637  1.00  0.00    -0.246 OA
BRANCH  32  34
ATOM     34  C   UNL A   1      37.751  28.986  29.016  1.00  0.00     0.060 A 
ATOM     35  C   UNL A   1      38.271  28.027  29.888  1.00  0.00     0.016 A 
ATOM     36  C   UNL A   1      38.408  29.362  27.835  1.00  0.00     0.016 A 
ATOM     37  C   UNL A   1      39.568  27.617  29.699  1.00  0.00     0.010 A 
ATOM     38  C   UNL A   1      39.702  28.953  27.649  1.00  0.00     0.010 A 
ATOM     39  C   UNL A   1      40.293  28.174  28.639  1.00  0.00    -0.014 A 
BRANCH  39  40
ATOM     40  C   UNL A   1      41.699  27.865  28.532  1.00  0.00     0.031 A 
ATOM     41  C   UNL A   1      41.928  26.573  27.858  1.00  0.00     0.074 A 
ATOM     42  C   UNL A   1      42.647  28.739  28.921  1.00  0.00     0.049 A 
ATOM     43  N   UNL A   1      42.329  25.470  28.393  1.00  0.00    -0.248 NA
ATOM     44  C   UNL A   1      41.441  26.430  26.474  1.00  0.00     0.031 C 
ATOM     45  C   UNL A   1      42.474  30.123  29.376  1.00  0.00     0.029 A 
ATOM     46  N   UNL A   1      43.998  28.588  28.913  1.00  0.00    -0.354 N 
ATOM     47  C   UNL A   1      42.379  24.558  27.347  1.00  0.00     0.074 A 
ATOM     48  C   UNL A   1      41.615  25.125  26.269  1.00  0.00     0.031 C 
ATOM     49  C   UNL A   1      43.675  30.747  29.385  1.00  0.00     0.029 A 
ATOM     50  C   UNL A   1      44.706  29.775  29.079  1.00  0.00     0.049 A 
ATOM     51  H   UNL A   1      44.438  27.714  28.801  1.00  0.00     0.167 HD
ATOM     52  C   UNL A   1      43.320  23.578  27.339  1.00  0.00     0.037 A 
ATOM     53  C   UNL A   1      46.044  29.931  28.915  1.00  0.00     0.037 A 
ATOM     54  C   UNL A   1      43.886  23.392  28.651  1.00  0.00     0.049 A 
ATOM     55  C   UNL A   1      46.654  28.586  29.039  1.00  0.00     0.074 A 
ATOM     56  C   UNL A   1      43.428  22.953  29.875  1.00  0.00     0.029 A 
ATOM     57  N   UNL A   1      45.050  24.077  28.890  1.00  0.00    -0.354 N 
ATOM     58  N   UNL A   1      46.659  27.901  30.150  1.00  0.00    -0.248 NA
ATOM     59  C   UNL A   1      46.855  27.806  27.828  1.00  0.00     0.031 C 
ATOM     60  C   UNL A   1      44.153  23.709  30.846  1.00  0.00     0.029 A 
ATOM     61  C   UNL A   1      45.057  24.537  30.178  1.00  0.00     0.049 A 
ATOM     62  H   UNL A   1      45.771  24.216  28.234  1.00  0.00     0.167 HD
ATOM     63  C   UNL A   1      46.430  26.589  29.759  1.00  0.00     0.074 A 
ATOM     64  C   UNL A   1      46.685  26.576  28.322  1.00  0.00     0.031 C 
ATOM     65  C   UNL A   1      45.772  25.726  30.590  1.00  0.00     0.037 A 
BRANCH  52  66
ATOM     66  C   UNL A   1      44.063  23.164  26.089  1.00  0.00     0.057 A 
ATOM     67  C   UNL A   1      44.094  21.804  25.739  1.00  0.00     0.134 A 
ATOM     68  C   UNL A   1      44.995  23.979  25.406  1.00  0.00     0.134 A 
ATOM     69  F   UNL A   1      43.276  20.924  26.337  1.00  0.00    -0.206 F 
ATOM     70  C   UNL A   1      45.025  21.285  24.832  1.00  0.00     0.040 A 
ATOM     71  C   UNL A   1      45.890  23.480  24.460  1.00  0.00     0.040 A 
ATOM     72  F   UNL A   1      45.168  25.275  25.688  1.00  0.00    -0.206 F 
ATOM     73  C   UNL A   1      45.930  22.123  24.192  1.00  0.00     0.006 A 
ENDBRANCH  52  66
BRANCH  53  74
ATOM     74  C   UNL A   1      46.758  31.080  28.313  1.00  0.00     0.057 A 
ATOM     75  C   UNL A   1      46.517  31.491  26.993  1.00  0.00     0.134 A 
ATOM     76  C   UNL A   1      47.494  31.973  29.112  1.00  0.00     0.134 A 
ATOM     77  F   UNL A   1      45.776  30.736  26.171  1.00  0.00    -0.206 F 
ATOM     78  C   UNL A   1      46.977  32.721  26.500  1.00  0.00     0.040 A 
ATOM     79  C   UNL A   1      47.961  33.202  28.632  1.00  0.00     0.040 A 
ATOM     80  F   UNL A   1      47.705  31.723  30.412  1.00  0.00    -0.206 F 
ATOM     81  C   UNL A   1      47.696  33.585  27.323  1.00  0.00     0.006 A 
ENDBRANCH  53  74
BRANCH  65  82
ATOM     82  C   UNL A   1      45.605  26.151  32.026  1.00  0.00     0.057 A 
ATOM     83  C   UNL A   1      44.451  26.760  32.542  1.00  0.00     0.134 A 
ATOM     84  C   UNL A   1      46.605  25.813  32.943  1.00  0.00     0.134 A 
ATOM     85  F   UNL A   1      43.407  27.041  31.754  1.00  0.00    -0.206 F 
ATOM     86  C   UNL A   1      44.315  27.050  33.904  1.00  0.00     0.040 A 
ATOM     87  C   UNL A   1      46.468  26.068  34.310  1.00  0.00     0.040 A 
ATOM     88  F   UNL A   1      47.714  25.181  32.530  1.00  0.00    -0.206 F 
ATOM     89  C   UNL A   1      45.324  26.698  34.794  1.00  0.00     0.006 A 
ENDBRANCH  65  82
ENDBRANCH  39  40
ENDBRANCH  32  34
ENDBRANCH  31  32
ENDBRANCH  30  31
ENDBRANCH  29  30
ENDBRANCH   1  29
TORSDOF 16
ENDMDL
MODEL 3
REMARK VINA RESULT:     -11.2      3.598      7.598
REMARK SMILES Cc1nsc(NC(=O)[C@H]2Cc3[nH]cnc3C[NH2+]2)c1C(=O)OCCOCCOC(=O)c1ccc(-c2c3nc(c(-c4c(F)cccc4F)c4ccc([nH]4)c(-c4c(F)cccc4F)c4nc(c(-c5c(F)cccc5F)c5ccc2[nH]5)C=C4)C=C3)cc1
REMARK SMILES IDX 24 1 23 2 22 3 21 4 19 5 20 6 18 7 1 8 2 9 3 10 4 11 5 12
REMARK SMILES IDX 6 13 7 14 8 16 9 17 10 18 17 19 11 20 16 21 12 24 15 25
REMARK SMILES IDX 13 26 14 28 25 29 26 30 27 31 28 32 29 33 30 34 31 35 83 36
REMARK SMILES IDX 32 37 82 38 33 39 34 40 35 41 76 42 36 43 81 44 75 45 77 46
REMARK SMILES IDX 37 47 80 48 74 49 73 50 38 52 64 53 47 54 63 55 48 56 51 57
REMARK SMILES IDX 62 58 78 59 49 60 50 61 61 63 79 64 52 65 39 66 40 67 45 68
REMARK SMILES IDX 41 69 42 70 44 71 46 72 43 73 65 74 66 75 71 76 67 77 68 78
REMARK SMILES IDX 70 79 72 80 69 81 53 82 54 83 59 84 55 85 56 86 58 87 60 88
REMARK SMILES IDX 57 89
REMARK H PARENT 6 15 17 22 17 23 12 27 77 51 51 62
REMARK Flexibility Score: inf
ROOT
ATOM      1  O   UNL A   1      37.576  22.453  24.544  1.00  0.00    -0.374 OA
ENDROOT
BRANCH   1   2
ATOM      2  C   UNL A   1      37.043  23.662  25.089  1.00  0.00     0.202 C 
BRANCH   2   3
ATOM      3  C   UNL A   1      35.574  23.987  24.795  1.00  0.00     0.261 C 
BRANCH   3   4
ATOM      4  O   UNL A   1      35.081  23.182  23.708  1.00  0.00    -0.460 OA
BRANCH   4   5
ATOM      5  C   UNL A   1      34.057  22.340  23.999  1.00  0.00     0.343 C 
ATOM      6  O   UNL A   1      34.175  21.136  24.218  1.00  0.00    -0.246 OA
BRANCH   5   7
ATOM      7  C   UNL A   1      32.855  23.081  24.323  1.00  0.00     0.117 A 
ATOM      8  C   UNL A   1      32.655  22.632  26.877  1.00  0.00     0.069 C 
ATOM      9  C   UNL A   1      32.137  23.111  25.565  1.00  0.00     0.068 A 
ATOM     10  N   UNL A   1      30.905  23.628  25.507  1.00  0.00    -0.195 NA
ATOM     11  S   UNL A   1      30.590  24.056  23.930  1.00  0.00    -0.017 S 
ATOM     12  C   UNL A   1      32.201  23.880  23.403  1.00  0.00     0.131 A 
BRANCH  12  13
ATOM     13  N   UNL A   1      32.631  24.230  22.150  1.00  0.00    -0.310 N 
ATOM     14  C   UNL A   1      32.845  25.433  21.561  1.00  0.00     0.283 C 
ATOM     15  H   UNL A   1      32.820  23.462  21.564  1.00  0.00     0.171 HD
ATOM     16  O   UNL A   1      33.174  25.359  20.367  1.00  0.00    -0.268 OA
BRANCH  14  17
ATOM     17  C   UNL A   1      32.677  26.807  22.239  1.00  0.00     0.279 C 
ATOM     18  C   UNL A   1      33.717  27.955  22.058  1.00  0.00     0.131 C 
ATOM     19  N   UNL A   1      31.322  27.379  21.865  1.00  0.00    -0.331 N 
ATOM     20  C   UNL A   1      33.374  28.846  23.200  1.00  0.00     0.050 A 
ATOM     21  C   UNL A   1      30.954  28.644  22.571  1.00  0.00     0.320 C 
ATOM     22  H   UNL A   1      30.613  26.679  22.080  1.00  0.00     0.347 HD
ATOM     23  H   UNL A   1      31.376  27.611  20.873  1.00  0.00     0.347 HD
ATOM     24  N   UNL A   1      34.056  29.040  24.367  1.00  0.00    -0.348 N 
ATOM     25  C   UNL A   1      32.049  29.098  23.487  1.00  0.00     0.116 A 
ATOM     26  C   UNL A   1      33.105  29.281  25.327  1.00  0.00     0.197 A 
ATOM     27  H   UNL A   1      35.033  29.012  24.494  1.00  0.00     0.167 HD
ATOM     28  N   UNL A   1      31.897  29.386  24.816  1.00  0.00    -0.236 NA
ENDBRANCH  14  17
ENDBRANCH  12  13
ENDBRANCH   5   7
ENDBRANCH   4   5
ENDBRANCH   3   4
ENDBRANCH   2   3
ENDBRANCH   1   2
BRANCH   1  29
ATOM     29  C   UNL A   1      37.942  21.379  25.399  1.00  0.00     0.202 C 
BRANCH  29  30
ATOM     30  C   UNL A   1      39.335  21.381  26.013  1.00  0.00     0.261 C 
BRANCH  30  31
ATOM     31  O   UNL A   1      39.537  22.498  26.864  1.00  0.00    -0.460 OA
BRANCH  31  32
ATOM     32  C   UNL A   1      40.788  22.570  27.372  1.00  0.00     0.338 C 
ATOM     33  O   UNL A   1      41.450  21.662  27.844  1.00  0.00    -0.246 OA
BRANCH  32  34
ATOM     34  C   UNL A   1      41.204  23.972  27.391  1.00  0.00     0.060 A 
ATOM     35  C   UNL A   1      42.233  24.305  28.276  1.00  0.00     0.016 A 
ATOM     36  C   UNL A   1      40.395  24.943  26.781  1.00  0.00     0.016 A 
ATOM     37  C   UNL A   1      42.295  25.597  28.738  1.00  0.00     0.010 A 
ATOM     38  C   UNL A   1      40.458  26.231  27.244  1.00  0.00     0.010 A 
ATOM     39  C   UNL A   1      41.334  26.510  28.289  1.00  0.00    -0.014 A 
BRANCH  39  40
ATOM     40  C   UNL A   1      41.301  27.822  28.890  1.00  0.00     0.031 A 
ATOM     41  C   UNL A   1      42.461  28.640  28.487  1.00  0.00     0.074 A 
ATOM     42  C   UNL A   1      40.257  28.234  29.633  1.00  0.00     0.049 A 
ATOM     43  N   UNL A   1      43.471  28.978  29.214  1.00  0.00    -0.248 NA
ATOM     44  C   UNL A   1      42.628  28.926  27.051  1.00  0.00     0.031 C 
ATOM     45  C   UNL A   1      38.981  27.548  29.865  1.00  0.00     0.029 A 
ATOM     46  N   UNL A   1      40.089  29.416  30.284  1.00  0.00    -0.354 N 
ATOM     47  C   UNL A   1      44.281  29.735  28.378  1.00  0.00     0.074 A 
ATOM     48  C   UNL A   1      43.843  29.475  27.034  1.00  0.00     0.031 C 
ATOM     49  C   UNL A   1      38.096  28.414  30.412  1.00  0.00     0.029 A 
ATOM     50  C   UNL A   1      38.783  29.659  30.698  1.00  0.00     0.049 A 
ATOM     51  H   UNL A   1      40.828  30.045  30.450  1.00  0.00     0.167 HD
ATOM     52  C   UNL A   1      45.014  30.763  28.882  1.00  0.00     0.037 A 
ATOM     53  C   UNL A   1      38.311  30.833  31.189  1.00  0.00     0.037 A 
ATOM     54  C   UNL A   1      45.143  30.654  30.313  1.00  0.00     0.049 A 
ATOM     55  C   UNL A   1      39.482  31.601  31.671  1.00  0.00     0.074 A 
ATOM     56  C   UNL A   1      45.750  29.781  31.190  1.00  0.00     0.029 A 
ATOM     57  N   UNL A   1      44.223  31.364  31.040  1.00  0.00    -0.354 N 
ATOM     58  N   UNL A   1      40.213  31.231  32.687  1.00  0.00    -0.248 NA
ATOM     59  C   UNL A   1      40.118  32.535  30.755  1.00  0.00     0.031 C 
ATOM     60  C   UNL A   1      44.907  29.752  32.342  1.00  0.00     0.029 A 
ATOM     61  C   UNL A   1      43.853  30.644  32.143  1.00  0.00     0.049 A 
ATOM     62  H   UNL A   1      43.881  32.257  30.805  1.00  0.00     0.167 HD
ATOM     63  C   UNL A   1      41.516  31.530  32.313  1.00  0.00     0.074 A 
ATOM     64  C   UNL A   1      41.383  32.440  31.179  1.00  0.00     0.031 C 
ATOM     65  C   UNL A   1      42.558  30.775  32.776  1.00  0.00     0.037 A 
BRANCH  52  66
ATOM     66  C   UNL A   1      45.167  32.088  28.170  1.00  0.00     0.057 A 
ATOM     67  C   UNL A   1      44.028  32.885  27.973  1.00  0.00     0.134 A 
ATOM     68  C   UNL A   1      46.298  32.459  27.407  1.00  0.00     0.134 A 
ATOM     69  F   UNL A   1      42.884  32.617  28.619  1.00  0.00    -0.206 F 
ATOM     70  C   UNL A   1      43.997  33.927  27.038  1.00  0.00     0.040 A 
ATOM     71  C   UNL A   1      46.293  33.531  26.514  1.00  0.00     0.040 A 
ATOM     72  F   UNL A   1      47.432  31.750  27.399  1.00  0.00    -0.206 F 
ATOM     73  C   UNL A   1      45.130  34.250  26.302  1.00  0.00     0.006 A 
ENDBRANCH  52  66
BRANCH  53  74
ATOM     74  C   UNL A   1      36.992  31.459  30.936  1.00  0.00     0.057 A 
ATOM     75  C   UNL A   1      36.103  31.757  31.978  1.00  0.00     0.134 A 
ATOM     76  C   UNL A   1      36.691  32.029  29.686  1.00  0.00     0.134 A 
ATOM     77  F   UNL A   1      36.336  31.308  33.219  1.00  0.00    -0.206 F 
ATOM     78  C   UNL A   1      34.983  32.580  31.789  1.00  0.00     0.040 A 
ATOM     79  C   UNL A   1      35.576  32.850  29.484  1.00  0.00     0.040 A 
ATOM     80  F   UNL A   1      37.520  31.884  28.642  1.00  0.00    -0.206 F 
ATOM     81  C   UNL A   1      34.720  33.136  30.540  1.00  0.00     0.006 A 
ENDBRANCH  53  74
BRANCH  65  82
ATOM     82  C   UNL A   1      42.271  29.846  33.927  1.00  0.00     0.057 A 
ATOM     83  C   UNL A   1      41.899  28.500  33.783  1.00  0.00     0.134 A 
ATOM     84  C   UNL A   1      42.507  30.300  35.227  1.00  0.00     0.134 A 
ATOM     85  F   UNL A   1      41.735  27.954  32.572  1.00  0.00    -0.206 F 
ATOM     86  C   UNL A   1      41.734  27.657  34.887  1.00  0.00     0.040 A 
ATOM     87  C   UNL A   1      42.377  29.461  36.337  1.00  0.00     0.040 A 
ATOM     88  F   UNL A   1      42.917  31.561  35.438  1.00  0.00    -0.206 F 
ATOM     89  C   UNL A   1      41.981  28.136  36.170  1.00  0.00     0.006 A 
ENDBRANCH  65  82
ENDBRANCH  39  40
ENDBRANCH  32  34
ENDBRANCH  31  32
ENDBRANCH  30  31
ENDBRANCH  29  30
ENDBRANCH   1  29
TORSDOF 16
ENDMDL
