MODEL 1
REMARK VINA RESULT:     -11.4      0.000      0.000
REMARK SMILES C[C@H]1[C@@H](C(=O)OCCOCCOC(=O)c2ccc(-c3c4nc(c(-c5c(F)cccc5F)c5ccc([nH]5)c(-c5c(F)cccc5F)c5nc(c(-c6c(F)cccc6F)c6ccc3[nH]6)C=C5)C=C4)cc2)CCN1C(=O)c1cc2cc(F)ccc2s1
REMARK SMILES IDX 9 1 8 2 7 3 6 4 4 5 5 6 3 7 1 8 2 9 71 10 69 11 70 12 72 13
REMARK SMILES IDX 73 14 74 15 75 16 83 17 76 18 82 19 77 20 81 21 78 22 80 23
REMARK SMILES IDX 79 24 10 25 11 26 12 27 13 28 14 29 15 30 16 31 68 32 17 33
REMARK SMILES IDX 67 34 18 35 19 36 20 37 61 38 21 39 66 40 60 41 62 42 22 43
REMARK SMILES IDX 65 44 59 45 58 46 23 48 49 49 32 50 48 51 33 52 36 53 47 54
REMARK SMILES IDX 63 55 34 56 35 57 46 59 64 60 37 61 24 62 25 63 30 64 26 65
REMARK SMILES IDX 27 66 29 67 31 68 28 69 50 70 51 71 56 72 52 73 53 74 55 75
REMARK SMILES IDX 57 76 54 77 38 78 39 79 44 80 40 81 41 82 43 83 45 84 42 85
REMARK H PARENT 62 47 36 58
REMARK Flexibility Score: inf
ROOT
ATOM      1  O   UNL A   1      31.653  30.162  26.770  1.00  0.00    -0.374 OA
ENDROOT
BRANCH   1   2
ATOM      2  C   UNL A   1      31.973  29.070  25.901  1.00  0.00     0.202 C 
BRANCH   2   3
ATOM      3  C   UNL A   1      31.493  29.243  24.458  1.00  0.00     0.261 C 
BRANCH   3   4
ATOM      4  O   UNL A   1      32.212  28.327  23.608  1.00  0.00    -0.463 OA
BRANCH   4   5
ATOM      5  C   UNL A   1      31.476  27.352  23.039  1.00  0.00     0.311 C 
ATOM      6  O   UNL A   1      30.719  27.529  22.089  1.00  0.00    -0.252 OA
BRANCH   5   7
ATOM      7  C   UNL A   1      31.745  25.964  23.589  1.00  0.00     0.123 C 
ATOM      8  C   UNL A   1      29.529  25.919  25.015  1.00  0.00     0.032 C 
ATOM      9  C   UNL A   1      30.838  25.249  24.623  1.00  0.00     0.096 C 
ATOM     10  N   UNL A   1      31.716  24.959  25.762  1.00  0.00    -0.334 N 
ATOM     11  C   UNL A   1      33.162  25.932  24.185  1.00  0.00     0.039 C 
ATOM     12  C   UNL A   1      32.977  25.653  25.656  1.00  0.00     0.121 C 
BRANCH  10  13
ATOM     13  C   UNL A   1      31.669  23.816  26.544  1.00  0.00     0.264 C 
ATOM     14  O   UNL A   1      30.775  23.666  27.378  1.00  0.00    -0.268 OA
BRANCH  13  15
ATOM     15  C   UNL A   1      32.604  22.739  26.301  1.00  0.00     0.093 A 
ATOM     16  C   UNL A   1      32.952  22.224  25.066  1.00  0.00     0.034 A 
ATOM     17  S   UNL A   1      33.915  22.553  27.394  1.00  0.00    -0.130 S 
ATOM     18  C   UNL A   1      34.367  22.434  24.863  1.00  0.00    -0.004 A 
ATOM     19  C   UNL A   1      35.021  22.703  26.073  1.00  0.00     0.035 A 
ATOM     20  C   UNL A   1      35.107  22.540  23.663  1.00  0.00     0.048 A 
ATOM     21  C   UNL A   1      36.373  23.088  26.121  1.00  0.00     0.022 A 
ATOM     22  C   UNL A   1      36.421  23.001  23.711  1.00  0.00     0.123 A 
ATOM     23  C   UNL A   1      37.049  23.280  24.914  1.00  0.00     0.041 A 
ATOM     24  F   UNL A   1      37.074  23.222  22.563  1.00  0.00    -0.207 F 
ENDBRANCH  13  15
ENDBRANCH  10  13
ENDBRANCH   5   7
ENDBRANCH   4   5
ENDBRANCH   3   4
ENDBRANCH   2   3
ENDBRANCH   1   2
BRANCH   1  25
ATOM     25  C   UNL A   1      31.970  31.471  26.301  1.00  0.00     0.202 C 
BRANCH  25  26
ATOM     26  C   UNL A   1      31.638  32.614  27.265  1.00  0.00     0.261 C 
BRANCH  26  27
ATOM     27  O   UNL A   1      32.612  33.669  27.205  1.00  0.00    -0.460 OA
BRANCH  27  28
ATOM     28  C   UNL A   1      33.192  33.960  28.390  1.00  0.00     0.338 C 
ATOM     29  O   UNL A   1      32.712  34.628  29.304  1.00  0.00    -0.246 OA
BRANCH  28  30
ATOM     30  C   UNL A   1      34.471  33.245  28.542  1.00  0.00     0.060 A 
ATOM     31  C   UNL A   1      34.411  31.946  29.062  1.00  0.00     0.016 A 
ATOM     32  C   UNL A   1      35.705  33.846  28.276  1.00  0.00     0.016 A 
ATOM     33  C   UNL A   1      35.582  31.277  29.399  1.00  0.00     0.010 A 
ATOM     34  C   UNL A   1      36.884  33.172  28.619  1.00  0.00     0.010 A 
ATOM     35  C   UNL A   1      36.823  31.907  29.231  1.00  0.00    -0.014 A 
BRANCH  35  36
ATOM     36  C   UNL A   1      38.010  31.296  29.876  1.00  0.00     0.031 A 
ATOM     37  C   UNL A   1      38.291  31.612  31.322  1.00  0.00     0.074 A 
ATOM     38  C   UNL A   1      38.766  30.397  29.224  1.00  0.00     0.049 A 
ATOM     39  N   UNL A   1      39.194  31.104  32.122  1.00  0.00    -0.248 NA
ATOM     40  C   UNL A   1      37.435  32.631  31.950  1.00  0.00     0.031 C 
ATOM     41  C   UNL A   1      38.581  29.988  27.833  1.00  0.00     0.029 A 
ATOM     42  N   UNL A   1      39.833  29.652  29.657  1.00  0.00    -0.354 N 
ATOM     43  C   UNL A   1      39.007  31.732  33.347  1.00  0.00     0.074 A 
ATOM     44  C   UNL A   1      37.935  32.688  33.175  1.00  0.00     0.031 C 
ATOM     45  C   UNL A   1      39.501  29.055  27.528  1.00  0.00     0.029 A 
ATOM     46  C   UNL A   1      40.341  28.809  28.700  1.00  0.00     0.049 A 
ATOM     47  H   UNL A   1      40.201  29.715  30.569  1.00  0.00     0.167 HD
ATOM     48  C   UNL A   1      39.658  31.522  34.517  1.00  0.00     0.037 A 
ATOM     49  C   UNL A   1      41.362  27.934  28.765  1.00  0.00     0.037 A 
ATOM     50  C   UNL A   1      40.724  30.575  34.693  1.00  0.00     0.049 A 
ATOM     51  C   UNL A   1      42.097  27.747  30.066  1.00  0.00     0.074 A 
ATOM     52  C   UNL A   1      41.439  30.283  35.842  1.00  0.00     0.029 A 
ATOM     53  N   UNL A   1      41.232  29.765  33.688  1.00  0.00    -0.354 N 
ATOM     54  N   UNL A   1      41.886  28.321  31.226  1.00  0.00    -0.248 NA
ATOM     55  C   UNL A   1      43.205  26.780  30.068  1.00  0.00     0.031 C 
ATOM     56  C   UNL A   1      42.404  29.321  35.522  1.00  0.00     0.029 A 
ATOM     57  C   UNL A   1      42.263  28.987  34.185  1.00  0.00     0.049 A 
ATOM     58  H   UNL A   1      40.908  29.748  32.759  1.00  0.00     0.167 HD
ATOM     59  C   UNL A   1      42.814  27.766  32.100  1.00  0.00     0.074 A 
ATOM     60  C   UNL A   1      43.581  26.802  31.337  1.00  0.00     0.031 C 
ATOM     61  C   UNL A   1      43.013  28.029  33.414  1.00  0.00     0.037 A 
BRANCH  48  62
ATOM     62  C   UNL A   1      39.233  32.349  35.693  1.00  0.00     0.057 A 
ATOM     63  C   UNL A   1      38.327  31.863  36.645  1.00  0.00     0.134 A 
ATOM     64  C   UNL A   1      39.751  33.635  35.887  1.00  0.00     0.134 A 
ATOM     65  F   UNL A   1      37.783  30.645  36.506  1.00  0.00    -0.206 F 
ATOM     66  C   UNL A   1      37.933  32.638  37.737  1.00  0.00     0.040 A 
ATOM     67  C   UNL A   1      39.380  34.410  36.987  1.00  0.00     0.040 A 
ATOM     68  F   UNL A   1      40.624  34.157  35.013  1.00  0.00    -0.206 F 
ATOM     69  C   UNL A   1      38.465  33.915  37.913  1.00  0.00     0.006 A 
ENDBRANCH  48  62
BRANCH  49  70
ATOM     70  C   UNL A   1      41.745  27.151  27.565  1.00  0.00     0.057 A 
ATOM     71  C   UNL A   1      42.617  27.674  26.604  1.00  0.00     0.134 A 
ATOM     72  C   UNL A   1      41.229  25.869  27.343  1.00  0.00     0.134 A 
ATOM     73  F   UNL A   1      43.125  28.906  26.752  1.00  0.00    -0.206 F 
ATOM     74  C   UNL A   1      42.951  26.954  25.455  1.00  0.00     0.040 A 
ATOM     75  C   UNL A   1      41.571  25.131  26.210  1.00  0.00     0.040 A 
ATOM     76  F   UNL A   1      40.389  25.315  28.229  1.00  0.00    -0.206 F 
ATOM     77  C   UNL A   1      42.430  25.677  25.258  1.00  0.00     0.006 A 
ENDBRANCH  49  70
BRANCH  61  78
ATOM     78  C   UNL A   1      44.081  27.246  34.116  1.00  0.00     0.057 A 
ATOM     79  C   UNL A   1      45.403  27.705  34.192  1.00  0.00     0.134 A 
ATOM     80  C   UNL A   1      43.780  26.032  34.747  1.00  0.00     0.134 A 
ATOM     81  F   UNL A   1      45.758  28.854  33.598  1.00  0.00    -0.206 F 
ATOM     82  C   UNL A   1      46.391  26.973  34.853  1.00  0.00     0.040 A 
ATOM     83  C   UNL A   1      44.754  25.303  35.429  1.00  0.00     0.040 A 
ATOM     84  F   UNL A   1      42.531  25.542  34.718  1.00  0.00    -0.206 F 
ATOM     85  C   UNL A   1      46.066  25.771  35.478  1.00  0.00     0.006 A 
ENDBRANCH  61  78
ENDBRANCH  35  36
ENDBRANCH  28  30
ENDBRANCH  27  28
ENDBRANCH  26  27
ENDBRANCH  25  26
ENDBRANCH   1  25
TORSDOF 16
ENDMDL
MODEL 2
REMARK VINA RESULT:     -11.3      4.123      9.227
REMARK SMILES C[C@H]1[C@@H](C(=O)OCCOCCOC(=O)c2ccc(-c3c4nc(c(-c5c(F)cccc5F)c5ccc([nH]5)c(-c5c(F)cccc5F)c5nc(c(-c6c(F)cccc6F)c6ccc3[nH]6)C=C5)C=C4)cc2)CCN1C(=O)c1cc2cc(F)ccc2s1
REMARK SMILES IDX 9 1 8 2 7 3 6 4 4 5 5 6 3 7 1 8 2 9 71 10 69 11 70 12 72 13
REMARK SMILES IDX 73 14 74 15 75 16 83 17 76 18 82 19 77 20 81 21 78 22 80 23
REMARK SMILES IDX 79 24 10 25 11 26 12 27 13 28 14 29 15 30 16 31 68 32 17 33
REMARK SMILES IDX 67 34 18 35 19 36 20 37 61 38 21 39 66 40 60 41 62 42 22 43
REMARK SMILES IDX 65 44 59 45 58 46 23 48 49 49 32 50 48 51 33 52 36 53 47 54
REMARK SMILES IDX 63 55 34 56 35 57 46 59 64 60 37 61 24 62 25 63 30 64 26 65
REMARK SMILES IDX 27 66 29 67 31 68 28 69 50 70 51 71 56 72 52 73 53 74 55 75
REMARK SMILES IDX 57 76 54 77 38 78 39 79 44 80 40 81 41 82 43 83 45 84 42 85
REMARK H PARENT 62 47 36 58
REMARK Flexibility Score: inf
ROOT
ATOM      1  O   UNL A   1      35.038  22.218  24.042  1.00  0.00    -0.374 OA
ENDROOT
BRANCH   1   2
ATOM      2  C   UNL A   1      33.644  22.385  23.758  1.00  0.00     0.202 C 
BRANCH   2   3
ATOM      3  C   UNL A   1      33.140  23.825  23.873  1.00  0.00     0.261 C 
BRANCH   3   4
ATOM      4  O   UNL A   1      32.880  24.341  22.552  1.00  0.00    -0.463 OA
BRANCH   4   5
ATOM      5  C   UNL A   1      33.247  25.621  22.338  1.00  0.00     0.311 C 
ATOM      6  O   UNL A   1      33.652  26.047  21.261  1.00  0.00    -0.252 OA
BRANCH   5   7
ATOM      7  C   UNL A   1      33.003  26.546  23.516  1.00  0.00     0.123 C 
ATOM      8  C   UNL A   1      30.438  26.822  22.982  1.00  0.00     0.032 C 
ATOM      9  C   UNL A   1      31.640  27.215  23.827  1.00  0.00     0.096 C 
ATOM     10  N   UNL A   1      31.915  28.657  23.825  1.00  0.00    -0.334 N 
ATOM     11  C   UNL A   1      34.028  27.691  23.467  1.00  0.00     0.039 C 
ATOM     12  C   UNL A   1      33.220  28.952  23.282  1.00  0.00     0.121 C 
BRANCH  10  13
ATOM     13  C   UNL A   1      31.343  29.586  24.678  1.00  0.00     0.264 C 
ATOM     14  O   UNL A   1      30.438  30.323  24.282  1.00  0.00    -0.268 OA
BRANCH  13  15
ATOM     15  C   UNL A   1      31.724  29.613  26.073  1.00  0.00     0.093 A 
ATOM     16  C   UNL A   1      32.623  28.764  26.690  1.00  0.00     0.034 A 
ATOM     17  S   UNL A   1      31.721  31.131  26.876  1.00  0.00    -0.130 S 
ATOM     18  C   UNL A   1      33.725  29.549  27.195  1.00  0.00    -0.004 A 
ATOM     19  C   UNL A   1      33.387  30.906  27.280  1.00  0.00     0.035 A 
ATOM     20  C   UNL A   1      35.063  29.173  27.460  1.00  0.00     0.048 A 
ATOM     21  C   UNL A   1      34.337  31.893  27.602  1.00  0.00     0.022 A 
ATOM     22  C   UNL A   1      36.015  30.162  27.697  1.00  0.00     0.123 A 
ATOM     23  C   UNL A   1      35.668  31.502  27.761  1.00  0.00     0.041 A 
ATOM     24  F   UNL A   1      37.301  29.811  27.819  1.00  0.00    -0.207 F 
ENDBRANCH  13  15
ENDBRANCH  10  13
ENDBRANCH   5   7
ENDBRANCH   4   5
ENDBRANCH   3   4
ENDBRANCH   2   3
ENDBRANCH   1   2
BRANCH   1  25
ATOM     25  C   UNL A   1      35.372  21.630  25.297  1.00  0.00     0.202 C 
BRANCH  25  26
ATOM     26  C   UNL A   1      36.710  20.884  25.340  1.00  0.00     0.261 C 
BRANCH  26  27
ATOM     27  O   UNL A   1      37.825  21.766  25.129  1.00  0.00    -0.460 OA
BRANCH  27  28
ATOM     28  C   UNL A   1      38.935  21.437  25.824  1.00  0.00     0.338 C 
ATOM     29  O   UNL A   1      39.565  20.383  25.757  1.00  0.00    -0.246 OA
BRANCH  28  30
ATOM     30  C   UNL A   1      39.422  22.582  26.613  1.00  0.00     0.060 A 
ATOM     31  C   UNL A   1      38.868  23.834  26.321  1.00  0.00     0.016 A 
ATOM     32  C   UNL A   1      40.456  22.465  27.549  1.00  0.00     0.016 A 
ATOM     33  C   UNL A   1      39.400  24.982  26.896  1.00  0.00     0.010 A 
ATOM     34  C   UNL A   1      40.993  23.623  28.125  1.00  0.00     0.010 A 
ATOM     35  C   UNL A   1      40.501  24.889  27.759  1.00  0.00    -0.014 A 
BRANCH  35  36
ATOM     36  C   UNL A   1      41.226  26.135  28.106  1.00  0.00     0.031 A 
ATOM     37  C   UNL A   1      42.619  26.335  27.570  1.00  0.00     0.074 A 
ATOM     38  C   UNL A   1      40.621  27.118  28.795  1.00  0.00     0.049 A 
ATOM     39  N   UNL A   1      43.392  27.390  27.641  1.00  0.00    -0.248 NA
ATOM     40  C   UNL A   1      43.218  25.197  26.855  1.00  0.00     0.031 C 
ATOM     41  C   UNL A   1      39.268  27.056  29.343  1.00  0.00     0.029 A 
ATOM     42  N   UNL A   1      41.068  28.370  29.134  1.00  0.00    -0.354 N 
ATOM     43  C   UNL A   1      44.560  27.046  26.971  1.00  0.00     0.074 A 
ATOM     44  C   UNL A   1      44.412  25.673  26.538  1.00  0.00     0.031 C 
ATOM     45  C   UNL A   1      38.989  28.226  29.945  1.00  0.00     0.029 A 
ATOM     46  C   UNL A   1      40.146  29.113  29.829  1.00  0.00     0.049 A 
ATOM     47  H   UNL A   1      41.964  28.704  28.901  1.00  0.00     0.167 HD
ATOM     48  C   UNL A   1      45.651  27.808  26.723  1.00  0.00     0.037 A 
ATOM     49  C   UNL A   1      40.226  30.368  30.309  1.00  0.00     0.037 A 
ATOM     50  C   UNL A   1      45.804  29.171  27.152  1.00  0.00     0.049 A 
ATOM     51  C   UNL A   1      41.466  31.183  30.055  1.00  0.00     0.074 A 
ATOM     52  C   UNL A   1      46.869  30.029  26.941  1.00  0.00     0.029 A 
ATOM     53  N   UNL A   1      44.860  29.876  27.884  1.00  0.00    -0.354 N 
ATOM     54  N   UNL A   1      42.548  30.858  29.389  1.00  0.00    -0.248 NA
ATOM     55  C   UNL A   1      41.490  32.543  30.611  1.00  0.00     0.031 C 
ATOM     56  C   UNL A   1      46.584  31.244  27.577  1.00  0.00     0.029 A 
ATOM     57  C   UNL A   1      45.326  31.153  28.149  1.00  0.00     0.049 A 
ATOM     58  H   UNL A   1      43.990  29.521  28.173  1.00  0.00     0.167 HD
ATOM     59  C   UNL A   1      43.367  31.981  29.422  1.00  0.00     0.074 A 
ATOM     60  C   UNL A   1      42.652  32.998  30.165  1.00  0.00     0.031 C 
ATOM     61  C   UNL A   1      44.599  32.154  28.886  1.00  0.00     0.037 A 
BRANCH  48  62
ATOM     62  C   UNL A   1      46.772  27.169  25.959  1.00  0.00     0.057 A 
ATOM     63  C   UNL A   1      46.923  27.358  24.579  1.00  0.00     0.134 A 
ATOM     64  C   UNL A   1      47.720  26.373  26.613  1.00  0.00     0.134 A 
ATOM     65  F   UNL A   1      46.039  28.096  23.893  1.00  0.00    -0.206 F 
ATOM     66  C   UNL A   1      47.967  26.758  23.872  1.00  0.00     0.040 A 
ATOM     67  C   UNL A   1      48.780  25.786  25.919  1.00  0.00     0.040 A 
ATOM     68  F   UNL A   1      47.632  26.155  27.933  1.00  0.00    -0.206 F 
ATOM     69  C   UNL A   1      48.903  25.973  24.545  1.00  0.00     0.006 A 
ENDBRANCH  48  62
BRANCH  49  70
ATOM     70  C   UNL A   1      39.089  30.945  31.068  1.00  0.00     0.057 A 
ATOM     71  C   UNL A   1      38.881  30.631  32.416  1.00  0.00     0.134 A 
ATOM     72  C   UNL A   1      38.172  31.807  30.455  1.00  0.00     0.134 A 
ATOM     73  F   UNL A   1      39.713  29.793  33.050  1.00  0.00    -0.206 F 
ATOM     74  C   UNL A   1      37.791  31.143  33.123  1.00  0.00     0.040 A 
ATOM     75  C   UNL A   1      37.092  32.342  31.155  1.00  0.00     0.040 A 
ATOM     76  F   UNL A   1      38.320  32.145  29.165  1.00  0.00    -0.206 F 
ATOM     77  C   UNL A   1      36.896  32.005  32.493  1.00  0.00     0.006 A 
ENDBRANCH  49  70
BRANCH  61  78
ATOM     78  C   UNL A   1      45.238  33.499  29.059  1.00  0.00     0.057 A 
ATOM     79  C   UNL A   1      46.062  33.789  30.155  1.00  0.00     0.134 A 
ATOM     80  C   UNL A   1      45.052  34.507  28.104  1.00  0.00     0.134 A 
ATOM     81  F   UNL A   1      46.271  32.871  31.109  1.00  0.00    -0.206 F 
ATOM     82  C   UNL A   1      46.659  35.042  30.305  1.00  0.00     0.040 A 
ATOM     83  C   UNL A   1      45.661  35.755  28.233  1.00  0.00     0.040 A 
ATOM     84  F   UNL A   1      44.281  34.290  27.027  1.00  0.00    -0.206 F 
ATOM     85  C   UNL A   1      46.463  36.028  29.340  1.00  0.00     0.006 A 
ENDBRANCH  61  78
ENDBRANCH  35  36
ENDBRANCH  28  30
ENDBRANCH  27  28
ENDBRANCH  26  27
ENDBRANCH  25  26
ENDBRANCH   1  25
TORSDOF 16
ENDMDL
MODEL 3
REMARK VINA RESULT:     -11.2      4.352      9.075
REMARK SMILES C[C@H]1[C@@H](C(=O)OCCOCCOC(=O)c2ccc(-c3c4nc(c(-c5c(F)cccc5F)c5ccc([nH]5)c(-c5c(F)cccc5F)c5nc(c(-c6c(F)cccc6F)c6ccc3[nH]6)C=C5)C=C4)cc2)CCN1C(=O)c1cc2cc(F)ccc2s1
REMARK SMILES IDX 9 1 8 2 7 3 6 4 4 5 5 6 3 7 1 8 2 9 71 10 69 11 70 12 72 13
REMARK SMILES IDX 73 14 74 15 75 16 83 17 76 18 82 19 77 20 81 21 78 22 80 23
REMARK SMILES IDX 79 24 10 25 11 26 12 27 13 28 14 29 15 30 16 31 68 32 17 33
REMARK SMILES IDX 67 34 18 35 19 36 20 37 61 38 21 39 66 40 60 41 62 42 22 43
REMARK SMILES IDX 65 44 59 45 58 46 23 48 49 49 32 50 48 51 33 52 36 53 47 54
REMARK SMILES IDX 63 55 34 56 35 57 46 59 64 60 37 61 24 62 25 63 30 64 26 65
REMARK SMILES IDX 27 66 29 67 31 68 28 69 50 70 51 71 56 72 52 73 53 74 55 75
REMARK SMILES IDX 57 76 54 77 38 78 39 79 44 80 40 81 41 82 43 83 45 84 42 85
REMARK H PARENT 62 47 36 58
REMARK Flexibility Score: inf
ROOT
ATOM      1  O   UNL A   1      37.250  21.406  24.236  1.00  0.00    -0.374 OA
ENDROOT
BRANCH   1   2
ATOM      2  C   UNL A   1      36.111  22.049  24.820  1.00  0.00     0.202 C 
BRANCH   2   3
ATOM      3  C   UNL A   1      34.921  21.123  25.077  1.00  0.00     0.261 C 
BRANCH   3   4
ATOM      4  O   UNL A   1      33.941  21.823  25.871  1.00  0.00    -0.463 OA
BRANCH   4   5
ATOM      5  C   UNL A   1      32.708  21.916  25.335  1.00  0.00     0.311 C 
ATOM      6  O   UNL A   1      31.873  21.017  25.376  1.00  0.00    -0.252 OA
BRANCH   5   7
ATOM      7  C   UNL A   1      32.372  23.284  24.771  1.00  0.00     0.123 C 
ATOM      8  C   UNL A   1      32.764  22.534  22.276  1.00  0.00     0.032 C 
ATOM      9  C   UNL A   1      32.455  23.646  23.267  1.00  0.00     0.096 C 
ATOM     10  N   UNL A   1      33.392  24.774  23.199  1.00  0.00    -0.334 N 
ATOM     11  C   UNL A   1      33.214  24.342  25.503  1.00  0.00     0.039 C 
ATOM     12  C   UNL A   1      34.096  24.960  24.445  1.00  0.00     0.121 C 
BRANCH  10  13
ATOM     13  C   UNL A   1      33.284  25.861  22.347  1.00  0.00     0.264 C 
ATOM     14  O   UNL A   1      33.603  25.759  21.161  1.00  0.00    -0.268 OA
BRANCH  13  15
ATOM     15  C   UNL A   1      32.682  27.088  22.820  1.00  0.00     0.093 A 
ATOM     16  C   UNL A   1      31.538  27.193  23.589  1.00  0.00     0.034 A 
ATOM     17  S   UNL A   1      33.721  28.416  23.147  1.00  0.00    -0.130 S 
ATOM     18  C   UNL A   1      31.885  27.812  24.846  1.00  0.00    -0.004 A 
ATOM     19  C   UNL A   1      33.120  28.469  24.768  1.00  0.00     0.035 A 
ATOM     20  C   UNL A   1      31.252  27.724  26.108  1.00  0.00     0.048 A 
ATOM     21  C   UNL A   1      33.745  29.022  25.901  1.00  0.00     0.022 A 
ATOM     22  C   UNL A   1      31.913  28.200  27.238  1.00  0.00     0.123 A 
ATOM     23  C   UNL A   1      33.142  28.832  27.146  1.00  0.00     0.041 A 
ATOM     24  F   UNL A   1      31.368  27.998  28.444  1.00  0.00    -0.207 F 
ENDBRANCH  13  15
ENDBRANCH  10  13
ENDBRANCH   5   7
ENDBRANCH   4   5
ENDBRANCH   3   4
ENDBRANCH   2   3
ENDBRANCH   1   2
BRANCH   1  25
ATOM     25  C   UNL A   1      37.947  20.467  25.050  1.00  0.00     0.202 C 
BRANCH  25  26
ATOM     26  C   UNL A   1      39.220  20.992  25.721  1.00  0.00     0.261 C 
BRANCH  26  27
ATOM     27  O   UNL A   1      39.983  19.937  26.328  1.00  0.00    -0.460 OA
BRANCH  27  28
ATOM     28  C   UNL A   1      41.296  19.946  26.012  1.00  0.00     0.338 C 
ATOM     29  O   UNL A   1      41.887  19.151  25.283  1.00  0.00    -0.246 OA
BRANCH  28  30
ATOM     30  C   UNL A   1      41.960  21.148  26.546  1.00  0.00     0.060 A 
ATOM     31  C   UNL A   1      41.956  21.307  27.938  1.00  0.00     0.016 A 
ATOM     32  C   UNL A   1      42.491  22.144  25.720  1.00  0.00     0.016 A 
ATOM     33  C   UNL A   1      42.403  22.495  28.503  1.00  0.00     0.010 A 
ATOM     34  C   UNL A   1      42.938  23.342  26.292  1.00  0.00     0.010 A 
ATOM     35  C   UNL A   1      42.845  23.540  27.681  1.00  0.00    -0.014 A 
BRANCH  35  36
ATOM     36  C   UNL A   1      43.021  24.882  28.289  1.00  0.00     0.031 A 
ATOM     37  C   UNL A   1      44.412  25.346  28.630  1.00  0.00     0.074 A 
ATOM     38  C   UNL A   1      41.977  25.715  28.437  1.00  0.00     0.049 A 
ATOM     39  N   UNL A   1      44.816  26.518  29.053  1.00  0.00    -0.248 NA
ATOM     40  C   UNL A   1      45.492  24.360  28.467  1.00  0.00     0.031 C 
ATOM     41  C   UNL A   1      40.587  25.394  28.119  1.00  0.00     0.029 A 
ATOM     42  N   UNL A   1      41.932  27.013  28.880  1.00  0.00    -0.354 N 
ATOM     43  C   UNL A   1      46.194  26.412  29.194  1.00  0.00     0.074 A 
ATOM     44  C   UNL A   1      46.553  25.052  28.854  1.00  0.00     0.031 C 
ATOM     45  C   UNL A   1      39.823  26.472  28.369  1.00  0.00     0.029 A 
ATOM     46  C   UNL A   1      40.670  27.554  28.870  1.00  0.00     0.049 A 
ATOM     47  H   UNL A   1      42.728  27.510  29.176  1.00  0.00     0.167 HD
ATOM     48  C   UNL A   1      47.085  27.365  29.558  1.00  0.00     0.037 A 
ATOM     49  C   UNL A   1      40.250  28.785  29.218  1.00  0.00     0.037 A 
ATOM     50  C   UNL A   1      46.734  28.717  29.898  1.00  0.00     0.049 A 
ATOM     51  C   UNL A   1      41.254  29.816  29.658  1.00  0.00     0.074 A 
ATOM     52  C   UNL A   1      47.567  29.758  30.270  1.00  0.00     0.029 A 
ATOM     53  N   UNL A   1      45.440  29.215  29.909  1.00  0.00    -0.354 N 
ATOM     54  N   UNL A   1      42.558  29.713  29.752  1.00  0.00    -0.248 NA
ATOM     55  C   UNL A   1      40.728  31.137  30.029  1.00  0.00     0.031 C 
ATOM     56  C   UNL A   1      46.771  30.878  30.541  1.00  0.00     0.029 A 
ATOM     57  C   UNL A   1      45.449  30.543  30.299  1.00  0.00     0.049 A 
ATOM     58  H   UNL A   1      44.635  28.700  29.675  1.00  0.00     0.167 HD
ATOM     59  C   UNL A   1      43.010  30.962  30.165  1.00  0.00     0.074 A 
ATOM     60  C   UNL A   1      41.840  31.807  30.292  1.00  0.00     0.031 C 
ATOM     61  C   UNL A   1      44.277  31.372  30.416  1.00  0.00     0.037 A 
BRANCH  48  62
ATOM     62  C   UNL A   1      48.529  26.964  29.618  1.00  0.00     0.057 A 
ATOM     63  C   UNL A   1      49.376  27.102  28.511  1.00  0.00     0.134 A 
ATOM     64  C   UNL A   1      49.080  26.454  30.798  1.00  0.00     0.134 A 
ATOM     65  F   UNL A   1      48.903  27.569  27.346  1.00  0.00    -0.206 F 
ATOM     66  C   UNL A   1      50.719  26.724  28.570  1.00  0.00     0.040 A 
ATOM     67  C   UNL A   1      50.427  26.094  30.875  1.00  0.00     0.040 A 
ATOM     68  F   UNL A   1      48.323  26.300  31.894  1.00  0.00    -0.206 F 
ATOM     69  C   UNL A   1      51.249  26.223  29.758  1.00  0.00     0.006 A 
ENDBRANCH  48  62
BRANCH  49  70
ATOM     70  C   UNL A   1      38.807  29.122  29.149  1.00  0.00     0.057 A 
ATOM     71  C   UNL A   1      38.216  29.550  27.954  1.00  0.00     0.134 A 
ATOM     72  C   UNL A   1      37.990  29.044  30.283  1.00  0.00     0.134 A 
ATOM     73  F   UNL A   1      38.954  29.667  26.841  1.00  0.00    -0.206 F 
ATOM     74  C   UNL A   1      36.867  29.904  27.894  1.00  0.00     0.040 A 
ATOM     75  C   UNL A   1      36.636  29.373  30.232  1.00  0.00     0.040 A 
ATOM     76  F   UNL A   1      38.499  28.639  31.456  1.00  0.00    -0.206 F 
ATOM     77  C   UNL A   1      36.072  29.811  29.035  1.00  0.00     0.006 A 
ENDBRANCH  49  70
BRANCH  61  78
ATOM     78  C   UNL A   1      44.466  32.801  30.825  1.00  0.00     0.057 A 
ATOM     79  C   UNL A   1      44.486  33.187  32.172  1.00  0.00     0.134 A 
ATOM     80  C   UNL A   1      44.659  33.800  29.862  1.00  0.00     0.134 A 
ATOM     81  F   UNL A   1      44.296  32.280  33.141  1.00  0.00    -0.206 F 
ATOM     82  C   UNL A   1      44.670  34.519  32.545  1.00  0.00     0.040 A 
ATOM     83  C   UNL A   1      44.865  35.132  30.224  1.00  0.00     0.040 A 
ATOM     84  F   UNL A   1      44.659  33.495  28.555  1.00  0.00    -0.206 F 
ATOM     85  C   UNL A   1      44.865  35.495  31.570  1.00  0.00     0.006 A 
ENDBRANCH  61  78
ENDBRANCH  35  36
ENDBRANCH  28  30
ENDBRANCH  27  28
ENDBRANCH  26  27
ENDBRANCH  25  26
ENDBRANCH   1  25
TORSDOF 16
ENDMDL
