MODEL 1
REMARK VINA RESULT:     -10.4      0.000      0.000
REMARK SMILES C=CC[N@H+](CC(=O)OCCOCCOC(=O)c1ccc(-c2c3nc(c(-c4c(F)cccc4F)c4ccc([nH]4)c(-c4c(F)cccc4F)c4nc(c(-c5c(F)cccc5F)c5ccc2[nH]5)C=C4)C=C3)cc1)[C@H]1CC(=O)N(c2ccccc2)C1=O
REMARK SMILES IDX 10 1 9 2 8 3 6 4 7 5 5 6 4 7 3 9 2 10 1 11 71 12 72 13 82 14
REMARK SMILES IDX 73 15 75 16 83 17 74 18 76 19 77 20 81 21 78 22 80 23 79 24
REMARK SMILES IDX 11 25 12 26 13 27 14 28 15 29 16 30 17 31 18 32 70 33 19 34
REMARK SMILES IDX 69 35 20 36 21 37 22 38 63 39 23 40 68 41 62 42 64 43 24 44
REMARK SMILES IDX 67 45 61 46 60 47 25 49 51 50 34 51 50 52 35 53 38 54 49 55
REMARK SMILES IDX 65 56 36 57 37 58 48 60 66 61 39 62 26 63 27 64 32 65 28 66
REMARK SMILES IDX 29 67 31 68 33 69 30 70 52 71 53 72 58 73 54 74 55 75 57 76
REMARK SMILES IDX 59 77 56 78 40 79 41 80 46 81 42 82 43 83 45 84 47 85 44 86
REMARK H PARENT 4 8 64 48 38 59
REMARK Flexibility Score: inf
ROOT
ATOM      1  C   UNL A   1      37.650  23.429  25.967  1.00  0.00     0.202 C 
ENDROOT
BRANCH   1   2
ATOM      2  C   UNL A   1      36.124  23.335  25.971  1.00  0.00     0.261 C 
BRANCH   2   3
ATOM      3  O   UNL A   1      35.565  24.021  24.835  1.00  0.00    -0.459 OA
BRANCH   3   4
ATOM      4  C   UNL A   1      35.054  23.237  23.854  1.00  0.00     0.361 C 
ATOM      5  O   UNL A   1      35.465  23.218  22.698  1.00  0.00    -0.245 OA
BRANCH   4   6
ATOM      6  C   UNL A   1      33.830  22.435  24.279  1.00  0.00     0.387 C 
BRANCH   6   7
ATOM      7  N   UNL A   1      32.655  22.355  23.313  1.00  0.00    -0.312 N 
ATOM      8  H   UNL A   1      32.841  22.631  22.349  1.00  0.00     0.349 HD
BRANCH   7   9
ATOM      9  C   UNL A   1      32.249  20.936  23.234  1.00  0.00     0.291 C 
BRANCH   9  10
ATOM     10  C   UNL A   1      32.975  19.931  24.074  1.00  0.00     0.025 C 
ATOM     11  C   UNL A   1      32.687  18.632  24.209  1.00  0.00     0.010 C 
ENDBRANCH   9  10
ENDBRANCH   7   9
BRANCH   7  12
ATOM     12  C   UNL A   1      31.629  23.317  23.858  1.00  0.00     0.285 C 
ATOM     13  C   UNL A   1      31.228  22.864  25.260  1.00  0.00     0.176 C 
ATOM     14  C   UNL A   1      31.986  24.784  24.081  1.00  0.00     0.292 C 
ATOM     15  C   UNL A   1      31.511  24.016  26.163  1.00  0.00     0.240 C 
ATOM     16  N   UNL A   1      32.005  25.068  25.432  1.00  0.00    -0.245 N 
ATOM     17  O   UNL A   1      32.077  25.580  23.150  1.00  0.00    -0.267 OA
ATOM     18  O   UNL A   1      31.228  23.968  27.353  1.00  0.00    -0.274 OA
BRANCH  16  19
ATOM     19  C   UNL A   1      32.314  26.340  26.011  1.00  0.00     0.052 A 
ATOM     20  C   UNL A   1      31.351  27.113  26.677  1.00  0.00     0.027 A 
ATOM     21  C   UNL A   1      33.618  26.866  25.940  1.00  0.00     0.027 A 
ATOM     22  C   UNL A   1      31.679  28.345  27.263  1.00  0.00     0.002 A 
ATOM     23  C   UNL A   1      33.944  28.103  26.511  1.00  0.00     0.002 A 
ATOM     24  C   UNL A   1      32.974  28.841  27.177  1.00  0.00     0.000 A 
ENDBRANCH  16  19
ENDBRANCH   7  12
ENDBRANCH   6   7
ENDBRANCH   4   6
ENDBRANCH   3   4
ENDBRANCH   2   3
ENDBRANCH   1   2
BRANCH   1  25
ATOM     25  O   UNL A   1      38.327  22.174  26.021  1.00  0.00    -0.374 OA
BRANCH  25  26
ATOM     26  C   UNL A   1      37.850  21.153  25.144  1.00  0.00     0.202 C 
BRANCH  26  27
ATOM     27  C   UNL A   1      38.746  19.914  25.046  1.00  0.00     0.261 C 
BRANCH  27  28
ATOM     28  O   UNL A   1      39.497  19.713  26.259  1.00  0.00    -0.460 OA
BRANCH  28  29
ATOM     29  C   UNL A   1      40.840  19.680  26.119  1.00  0.00     0.338 C 
ATOM     30  O   UNL A   1      41.508  18.823  25.553  1.00  0.00    -0.246 OA
BRANCH  29  31
ATOM     31  C   UNL A   1      41.419  20.946  26.609  1.00  0.00     0.060 A 
ATOM     32  C   UNL A   1      41.397  21.179  27.989  1.00  0.00     0.016 A 
ATOM     33  C   UNL A   1      41.933  21.910  25.738  1.00  0.00     0.016 A 
ATOM     34  C   UNL A   1      41.848  22.397  28.499  1.00  0.00     0.010 A 
ATOM     35  C   UNL A   1      42.393  23.127  26.252  1.00  0.00     0.010 A 
ATOM     36  C   UNL A   1      42.318  23.392  27.631  1.00  0.00    -0.014 A 
BRANCH  36  37
ATOM     37  C   UNL A   1      42.590  24.756  28.151  1.00  0.00     0.031 A 
ATOM     38  C   UNL A   1      44.002  25.134  28.508  1.00  0.00     0.074 A 
ATOM     39  C   UNL A   1      41.601  25.659  28.276  1.00  0.00     0.049 A 
ATOM     40  N   UNL A   1      44.463  26.258  28.996  1.00  0.00    -0.248 NA
ATOM     41  C   UNL A   1      45.032  24.105  28.292  1.00  0.00     0.031 C 
ATOM     42  C   UNL A   1      40.196  25.428  27.946  1.00  0.00     0.029 A 
ATOM     43  N   UNL A   1      41.633  26.957  28.722  1.00  0.00    -0.354 N 
ATOM     44  C   UNL A   1      45.830  26.068  29.156  1.00  0.00     0.074 A 
ATOM     45  C   UNL A   1      46.119  24.709  28.746  1.00  0.00     0.031 C 
ATOM     46  C   UNL A   1      39.499  26.547  28.201  1.00  0.00     0.029 A 
ATOM     47  C   UNL A   1      40.401  27.564  28.738  1.00  0.00     0.049 A 
ATOM     48  H   UNL A   1      42.460  27.410  29.004  1.00  0.00     0.167 HD
ATOM     49  C   UNL A   1      46.764  26.946  29.589  1.00  0.00     0.037 A 
ATOM     50  C   UNL A   1      40.042  28.795  29.151  1.00  0.00     0.037 A 
ATOM     51  C   UNL A   1      46.485  28.302  29.981  1.00  0.00     0.049 A 
ATOM     52  C   UNL A   1      41.092  29.740  29.674  1.00  0.00     0.074 A 
ATOM     53  C   UNL A   1      47.371  29.279  30.401  1.00  0.00     0.029 A 
ATOM     54  N   UNL A   1      45.221  28.871  30.003  1.00  0.00    -0.354 N 
ATOM     55  N   UNL A   1      42.385  29.558  29.788  1.00  0.00    -0.248 NA
ATOM     56  C   UNL A   1      40.631  31.062  30.123  1.00  0.00     0.031 C 
ATOM     57  C   UNL A   1      46.637  30.427  30.718  1.00  0.00     0.029 A 
ATOM     58  C   UNL A   1      45.300  30.179  30.452  1.00  0.00     0.049 A 
ATOM     59  H   UNL A   1      44.390  28.414  29.739  1.00  0.00     0.167 HD
ATOM     60  C   UNL A   1      42.894  30.748  30.296  1.00  0.00     0.074 A 
ATOM     61  C   UNL A   1      41.771  31.648  30.457  1.00  0.00     0.031 C 
ATOM     62  C   UNL A   1      44.176  31.067  30.601  1.00  0.00     0.037 A 
BRANCH  49  63
ATOM     63  C   UNL A   1      48.181  26.459  29.676  1.00  0.00     0.057 A 
ATOM     64  C   UNL A   1      49.092  26.644  28.628  1.00  0.00     0.134 A 
ATOM     65  C   UNL A   1      48.646  25.820  30.832  1.00  0.00     0.134 A 
ATOM     66  F   UNL A   1      48.706  27.235  27.487  1.00  0.00    -0.206 F 
ATOM     67  C   UNL A   1      50.409  26.188  28.717  1.00  0.00     0.040 A 
ATOM     68  C   UNL A   1      49.967  25.384  30.943  1.00  0.00     0.040 A 
ATOM     69  F   UNL A   1      47.826  25.616  31.874  1.00  0.00    -0.206 F 
ATOM     70  C   UNL A   1      50.851  25.561  29.880  1.00  0.00     0.006 A 
ENDBRANCH  49  63
BRANCH  50  71
ATOM     71  C   UNL A   1      38.619  29.212  29.093  1.00  0.00     0.057 A 
ATOM     72  C   UNL A   1      38.054  29.699  27.909  1.00  0.00     0.134 A 
ATOM     73  C   UNL A   1      37.797  29.155  30.226  1.00  0.00     0.134 A 
ATOM     74  F   UNL A   1      38.797  29.801  26.799  1.00  0.00    -0.206 F 
ATOM     75  C   UNL A   1      36.727  30.129  27.856  1.00  0.00     0.040 A 
ATOM     76  C   UNL A   1      36.462  29.559  30.181  1.00  0.00     0.040 A 
ATOM     77  F   UNL A   1      38.279  28.698  31.390  1.00  0.00    -0.206 F 
ATOM     78  C   UNL A   1      35.925  30.055  28.994  1.00  0.00     0.006 A 
ENDBRANCH  50  71
BRANCH  62  79
ATOM     79  C   UNL A   1      44.441  32.453  31.108  1.00  0.00     0.057 A 
ATOM     80  C   UNL A   1      44.691  33.523  30.239  1.00  0.00     0.134 A 
ATOM     81  C   UNL A   1      44.404  32.730  32.481  1.00  0.00     0.134 A 
ATOM     82  F   UNL A   1      44.752  33.322  28.914  1.00  0.00    -0.206 F 
ATOM     83  C   UNL A   1      44.914  34.815  30.719  1.00  0.00     0.040 A 
ATOM     84  C   UNL A   1      44.600  34.022  32.970  1.00  0.00     0.040 A 
ATOM     85  F   UNL A   1      44.160  31.752  33.367  1.00  0.00    -0.206 F 
ATOM     86  C   UNL A   1      44.862  35.068  32.088  1.00  0.00     0.006 A 
ENDBRANCH  62  79
ENDBRANCH  36  37
ENDBRANCH  29  31
ENDBRANCH  28  29
ENDBRANCH  27  28
ENDBRANCH  26  27
ENDBRANCH  25  26
ENDBRANCH   1  25
TORSDOF 19
ENDMDL
MODEL 2
REMARK VINA RESULT:     -10.0      1.170      3.623
REMARK SMILES C=CC[N@H+](CC(=O)OCCOCCOC(=O)c1ccc(-c2c3nc(c(-c4c(F)cccc4F)c4ccc([nH]4)c(-c4c(F)cccc4F)c4nc(c(-c5c(F)cccc5F)c5ccc2[nH]5)C=C4)C=C3)cc1)[C@H]1CC(=O)N(c2ccccc2)C1=O
REMARK SMILES IDX 10 1 9 2 8 3 6 4 7 5 5 6 4 7 3 9 2 10 1 11 71 12 72 13 82 14
REMARK SMILES IDX 73 15 75 16 83 17 74 18 76 19 77 20 81 21 78 22 80 23 79 24
REMARK SMILES IDX 11 25 12 26 13 27 14 28 15 29 16 30 17 31 18 32 70 33 19 34
REMARK SMILES IDX 69 35 20 36 21 37 22 38 63 39 23 40 68 41 62 42 64 43 24 44
REMARK SMILES IDX 67 45 61 46 60 47 25 49 51 50 34 51 50 52 35 53 38 54 49 55
REMARK SMILES IDX 65 56 36 57 37 58 48 60 66 61 39 62 26 63 27 64 32 65 28 66
REMARK SMILES IDX 29 67 31 68 33 69 30 70 52 71 53 72 58 73 54 74 55 75 57 76
REMARK SMILES IDX 59 77 56 78 40 79 41 80 46 81 42 82 43 83 45 84 47 85 44 86
REMARK H PARENT 4 8 64 48 38 59
REMARK Flexibility Score: inf
ROOT
ATOM      1  C   UNL A   1      38.050  23.060  26.142  1.00  0.00     0.202 C 
ENDROOT
BRANCH   1   2
ATOM      2  C   UNL A   1      36.599  22.810  25.732  1.00  0.00     0.261 C 
BRANCH   2   3
ATOM      3  O   UNL A   1      36.177  23.759  24.734  1.00  0.00    -0.459 OA
BRANCH   3   4
ATOM      4  C   UNL A   1      35.837  23.245  23.526  1.00  0.00     0.361 C 
ATOM      5  O   UNL A   1      36.645  22.903  22.667  1.00  0.00    -0.245 OA
BRANCH   4   6
ATOM      6  C   UNL A   1      34.337  23.221  23.263  1.00  0.00     0.387 C 
BRANCH   6   7
ATOM      7  N   UNL A   1      33.408  23.698  24.373  1.00  0.00    -0.312 N 
ATOM      8  H   UNL A   1      33.844  23.902  25.272  1.00  0.00     0.349 HD
BRANCH   7   9
ATOM      9  C   UNL A   1      32.820  24.980  23.932  1.00  0.00     0.291 C 
BRANCH   9  10
ATOM     10  C   UNL A   1      33.641  26.227  24.050  1.00  0.00     0.025 C 
ATOM     11  C   UNL A   1      33.473  27.225  24.925  1.00  0.00     0.010 C 
ENDBRANCH   9  10
ENDBRANCH   7   9
BRANCH   7  12
ATOM     12  C   UNL A   1      32.443  22.559  24.597  1.00  0.00     0.285 C 
ATOM     13  C   UNL A   1      31.979  22.035  23.240  1.00  0.00     0.176 C 
ATOM     14  C   UNL A   1      32.901  21.284  25.299  1.00  0.00     0.292 C 
ATOM     15  C   UNL A   1      32.326  20.586  23.218  1.00  0.00     0.240 C 
ATOM     16  N   UNL A   1      32.912  20.230  24.407  1.00  0.00    -0.245 N 
ATOM     17  O   UNL A   1      33.071  21.235  26.514  1.00  0.00    -0.267 OA
ATOM     18  O   UNL A   1      32.015  19.878  22.268  1.00  0.00    -0.274 OA
BRANCH  16  19
ATOM     19  C   UNL A   1      33.300  18.886  24.711  1.00  0.00     0.052 A 
ATOM     20  C   UNL A   1      32.464  18.004  25.411  1.00  0.00     0.027 A 
ATOM     21  C   UNL A   1      34.554  18.389  24.305  1.00  0.00     0.027 A 
ATOM     22  C   UNL A   1      32.850  16.682  25.676  1.00  0.00     0.002 A 
ATOM     23  C   UNL A   1      34.949  17.074  24.581  1.00  0.00     0.002 A 
ATOM     24  C   UNL A   1      34.093  16.219  25.263  1.00  0.00     0.000 A 
ENDBRANCH  16  19
ENDBRANCH   7  12
ENDBRANCH   6   7
ENDBRANCH   4   6
ENDBRANCH   3   4
ENDBRANCH   2   3
ENDBRANCH   1   2
BRANCH   1  25
ATOM     25  O   UNL A   1      38.907  21.924  26.035  1.00  0.00    -0.374 OA
BRANCH  25  26
ATOM     26  C   UNL A   1      38.421  20.829  25.257  1.00  0.00     0.202 C 
BRANCH  26  27
ATOM     27  C   UNL A   1      39.248  19.544  25.364  1.00  0.00     0.261 C 
BRANCH  27  28
ATOM     28  O   UNL A   1      40.141  19.587  26.493  1.00  0.00    -0.460 OA
BRANCH  28  29
ATOM     29  C   UNL A   1      41.457  19.651  26.198  1.00  0.00     0.338 C 
ATOM     30  O   UNL A   1      42.115  18.846  25.549  1.00  0.00    -0.246 OA
BRANCH  29  31
ATOM     31  C   UNL A   1      41.999  20.953  26.633  1.00  0.00     0.060 A 
ATOM     32  C   UNL A   1      42.030  21.218  28.008  1.00  0.00     0.016 A 
ATOM     33  C   UNL A   1      42.425  21.918  25.718  1.00  0.00     0.016 A 
ATOM     34  C   UNL A   1      42.446  22.467  28.469  1.00  0.00     0.010 A 
ATOM     35  C   UNL A   1      42.851  23.168  26.183  1.00  0.00     0.010 A 
ATOM     36  C   UNL A   1      42.827  23.462  27.559  1.00  0.00    -0.014 A 
BRANCH  36  37
ATOM     37  C   UNL A   1      43.059  24.848  28.035  1.00  0.00     0.031 A 
ATOM     38  C   UNL A   1      44.468  25.303  28.306  1.00  0.00     0.074 A 
ATOM     39  C   UNL A   1      42.034  25.704  28.197  1.00  0.00     0.049 A 
ATOM     40  N   UNL A   1      44.898  26.458  28.745  1.00  0.00    -0.248 NA
ATOM     41  C   UNL A   1      45.534  24.320  28.054  1.00  0.00     0.031 C 
ATOM     42  C   UNL A   1      40.627  25.397  27.950  1.00  0.00     0.029 A 
ATOM     43  N   UNL A   1      42.026  27.012  28.615  1.00  0.00    -0.354 N 
ATOM     44  C   UNL A   1      46.279  26.339  28.833  1.00  0.00     0.074 A 
ATOM     45  C   UNL A   1      46.613  24.987  28.435  1.00  0.00     0.031 C 
ATOM     46  C   UNL A   1      39.889  26.487  28.221  1.00  0.00     0.029 A 
ATOM     47  C   UNL A   1      40.768  27.559  28.688  1.00  0.00     0.049 A 
ATOM     48  H   UNL A   1      42.843  27.511  28.842  1.00  0.00     0.167 HD
ATOM     49  C   UNL A   1      47.191  27.271  29.196  1.00  0.00     0.037 A 
ATOM     50  C   UNL A   1      40.371  28.779  29.096  1.00  0.00     0.037 A 
ATOM     51  C   UNL A   1      46.865  28.621  29.576  1.00  0.00     0.049 A 
ATOM     52  C   UNL A   1      41.398  29.786  29.540  1.00  0.00     0.074 A 
ATOM     53  C   UNL A   1      47.723  29.649  29.927  1.00  0.00     0.029 A 
ATOM     54  N   UNL A   1      45.577  29.128  29.657  1.00  0.00    -0.354 N 
ATOM     55  N   UNL A   1      42.703  29.670  29.587  1.00  0.00    -0.248 NA
ATOM     56  C   UNL A   1      40.897  31.093  29.988  1.00  0.00     0.031 C 
ATOM     57  C   UNL A   1      46.951  30.767  30.262  1.00  0.00     0.029 A 
ATOM     58  C   UNL A   1      45.616  30.448  30.075  1.00  0.00     0.049 A 
ATOM     59  H   UNL A   1      44.757  28.624  29.449  1.00  0.00     0.167 HD
ATOM     60  C   UNL A   1      43.179  30.895  30.042  1.00  0.00     0.074 A 
ATOM     61  C   UNL A   1      42.023  31.743  30.246  1.00  0.00     0.031 C 
ATOM     62  C   UNL A   1      44.458  31.283  30.269  1.00  0.00     0.037 A 
BRANCH  49  63
ATOM     63  C   UNL A   1      48.632  26.856  29.214  1.00  0.00     0.057 A 
ATOM     64  C   UNL A   1      49.478  27.074  28.118  1.00  0.00     0.134 A 
ATOM     65  C   UNL A   1      49.187  26.255  30.350  1.00  0.00     0.134 A 
ATOM     66  F   UNL A   1      49.005  27.632  26.994  1.00  0.00    -0.206 F 
ATOM     67  C   UNL A   1      50.819  26.685  28.144  1.00  0.00     0.040 A 
ATOM     68  C   UNL A   1      50.533  25.886  30.397  1.00  0.00     0.040 A 
ATOM     69  F   UNL A   1      48.433  26.023  31.435  1.00  0.00    -0.206 F 
ATOM     70  C   UNL A   1      51.351  26.094  29.288  1.00  0.00     0.006 A 
ENDBRANCH  49  63
BRANCH  50  71
ATOM     71  C   UNL A   1      38.927  29.125  29.108  1.00  0.00     0.057 A 
ATOM     72  C   UNL A   1      38.162  29.001  30.273  1.00  0.00     0.134 A 
ATOM     73  C   UNL A   1      38.274  29.565  27.949  1.00  0.00     0.134 A 
ATOM     74  F   UNL A   1      38.725  28.562  31.406  1.00  0.00    -0.206 F 
ATOM     75  C   UNL A   1      36.795  29.289  30.283  1.00  0.00     0.040 A 
ATOM     76  C   UNL A   1      36.914  29.878  27.951  1.00  0.00     0.040 A 
ATOM     77  F   UNL A   1      38.953  29.704  26.802  1.00  0.00    -0.206 F 
ATOM     78  C   UNL A   1      36.169  29.733  29.120  1.00  0.00     0.006 A 
ENDBRANCH  50  71
BRANCH  62  79
ATOM     79  C   UNL A   1      44.680  32.691  30.733  1.00  0.00     0.057 A 
ATOM     80  C   UNL A   1      44.756  33.019  32.092  1.00  0.00     0.134 A 
ATOM     81  C   UNL A   1      44.863  33.727  29.807  1.00  0.00     0.134 A 
ATOM     82  F   UNL A   1      44.578  32.075  33.029  1.00  0.00    -0.206 F 
ATOM     83  C   UNL A   1      44.987  34.329  32.515  1.00  0.00     0.040 A 
ATOM     84  C   UNL A   1      45.119  35.036  30.217  1.00  0.00     0.040 A 
ATOM     85  F   UNL A   1      44.811  33.480  28.489  1.00  0.00    -0.206 F 
ATOM     86  C   UNL A   1      45.176  35.341  31.576  1.00  0.00     0.006 A 
ENDBRANCH  62  79
ENDBRANCH  36  37
ENDBRANCH  29  31
ENDBRANCH  28  29
ENDBRANCH  27  28
ENDBRANCH  26  27
ENDBRANCH  25  26
ENDBRANCH   1  25
TORSDOF 19
ENDMDL
MODEL 3
REMARK VINA RESULT:      -9.8      4.032      8.041
REMARK SMILES C=CC[N@H+](CC(=O)OCCOCCOC(=O)c1ccc(-c2c3nc(c(-c4c(F)cccc4F)c4ccc([nH]4)c(-c4c(F)cccc4F)c4nc(c(-c5c(F)cccc5F)c5ccc2[nH]5)C=C4)C=C3)cc1)[C@H]1CC(=O)N(c2ccccc2)C1=O
REMARK SMILES IDX 10 1 9 2 8 3 6 4 7 5 5 6 4 7 3 9 2 10 1 11 71 12 72 13 82 14
REMARK SMILES IDX 73 15 75 16 83 17 74 18 76 19 77 20 81 21 78 22 80 23 79 24
REMARK SMILES IDX 11 25 12 26 13 27 14 28 15 29 16 30 17 31 18 32 70 33 19 34
REMARK SMILES IDX 69 35 20 36 21 37 22 38 63 39 23 40 68 41 62 42 64 43 24 44
REMARK SMILES IDX 67 45 61 46 60 47 25 49 51 50 34 51 50 52 35 53 38 54 49 55
REMARK SMILES IDX 65 56 36 57 37 58 48 60 66 61 39 62 26 63 27 64 32 65 28 66
REMARK SMILES IDX 29 67 31 68 33 69 30 70 52 71 53 72 58 73 54 74 55 75 57 76
REMARK SMILES IDX 59 77 56 78 40 79 41 80 46 81 42 82 43 83 45 84 47 85 44 86
REMARK H PARENT 4 8 64 48 38 59
REMARK Flexibility Score: inf
ROOT
ATOM      1  C   UNL A   1      37.226  21.960  25.051  1.00  0.00     0.202 C 
ENDROOT
BRANCH   1   2
ATOM      2  C   UNL A   1      35.788  21.627  25.448  1.00  0.00     0.261 C 
BRANCH   2   3
ATOM      3  O   UNL A   1      35.063  22.821  25.799  1.00  0.00    -0.459 OA
BRANCH   3   4
ATOM      4  C   UNL A   1      33.763  22.651  26.147  1.00  0.00     0.361 C 
ATOM      5  O   UNL A   1      33.381  21.947  27.076  1.00  0.00    -0.245 OA
BRANCH   4   6
ATOM      6  C   UNL A   1      32.778  23.335  25.207  1.00  0.00     0.387 C 
BRANCH   6   7
ATOM      7  N   UNL A   1      33.339  24.213  24.095  1.00  0.00    -0.312 N 
ATOM      8  H   UNL A   1      34.314  24.497  24.192  1.00  0.00     0.349 HD
BRANCH   7   9
ATOM      9  C   UNL A   1      33.291  23.423  22.847  1.00  0.00     0.291 C 
BRANCH   9  10
ATOM     10  C   UNL A   1      32.982  21.960  22.932  1.00  0.00     0.025 C 
ATOM     11  C   UNL A   1      31.958  21.316  22.361  1.00  0.00     0.010 C 
ENDBRANCH   9  10
ENDBRANCH   7   9
BRANCH   7  12
ATOM     12  C   UNL A   1      32.506  25.470  24.126  1.00  0.00     0.285 C 
ATOM     13  C   UNL A   1      31.471  25.345  25.241  1.00  0.00     0.176 C 
ATOM     14  C   UNL A   1      33.152  26.819  24.430  1.00  0.00     0.292 C 
ATOM     15  C   UNL A   1      31.693  26.513  26.141  1.00  0.00     0.240 C 
ATOM     16  N   UNL A   1      32.716  27.288  25.654  1.00  0.00    -0.245 N 
ATOM     17  O   UNL A   1      33.829  27.418  23.600  1.00  0.00    -0.267 OA
ATOM     18  O   UNL A   1      30.961  26.716  27.102  1.00  0.00    -0.274 OA
BRANCH  16  19
ATOM     19  C   UNL A   1      33.122  28.515  26.268  1.00  0.00     0.052 A 
ATOM     20  C   UNL A   1      32.278  29.633  26.340  1.00  0.00     0.027 A 
ATOM     21  C   UNL A   1      34.403  28.645  26.839  1.00  0.00     0.027 A 
ATOM     22  C   UNL A   1      32.683  30.818  26.970  1.00  0.00     0.002 A 
ATOM     23  C   UNL A   1      34.817  29.833  27.456  1.00  0.00     0.002 A 
ATOM     24  C   UNL A   1      33.953  30.919  27.525  1.00  0.00     0.000 A 
ENDBRANCH  16  19
ENDBRANCH   7  12
ENDBRANCH   6   7
ENDBRANCH   4   6
ENDBRANCH   3   4
ENDBRANCH   2   3
ENDBRANCH   1   2
BRANCH   1  25
ATOM     25  O   UNL A   1      38.114  22.178  26.147  1.00  0.00    -0.374 OA
BRANCH  25  26
ATOM     26  C   UNL A   1      39.378  21.517  26.085  1.00  0.00     0.202 C 
BRANCH  26  27
ATOM     27  C   UNL A   1      40.583  22.392  26.445  1.00  0.00     0.261 C 
BRANCH  27  28
ATOM     28  O   UNL A   1      40.228  23.787  26.476  1.00  0.00    -0.460 OA
BRANCH  28  29
ATOM     29  C   UNL A   1      41.259  24.654  26.573  1.00  0.00     0.338 C 
ATOM     30  O   UNL A   1      42.286  24.665  25.905  1.00  0.00    -0.246 OA
BRANCH  29  31
ATOM     31  C   UNL A   1      40.909  25.736  27.512  1.00  0.00     0.060 A 
ATOM     32  C   UNL A   1      41.701  26.891  27.498  1.00  0.00     0.016 A 
ATOM     33  C   UNL A   1      39.858  25.613  28.424  1.00  0.00     0.016 A 
ATOM     34  C   UNL A   1      41.472  27.906  28.427  1.00  0.00     0.010 A 
ATOM     35  C   UNL A   1      39.624  26.636  29.349  1.00  0.00     0.010 A 
ATOM     36  C   UNL A   1      40.453  27.772  29.380  1.00  0.00    -0.014 A 
BRANCH  36  37
ATOM     37  C   UNL A   1      40.352  28.746  30.495  1.00  0.00     0.031 A 
ATOM     38  C   UNL A   1      39.312  29.831  30.427  1.00  0.00     0.074 A 
ATOM     39  C   UNL A   1      41.155  28.651  31.571  1.00  0.00     0.049 A 
ATOM     40  N   UNL A   1      39.062  30.797  31.274  1.00  0.00    -0.248 NA
ATOM     41  C   UNL A   1      38.442  29.832  29.240  1.00  0.00     0.031 C 
ATOM     42  C   UNL A   1      42.187  27.637  31.771  1.00  0.00     0.029 A 
ATOM     43  N   UNL A   1      41.224  29.430  32.700  1.00  0.00    -0.354 N 
ATOM     44  C   UNL A   1      38.016  31.524  30.720  1.00  0.00     0.074 A 
ATOM     45  C   UNL A   1      37.703  30.911  29.447  1.00  0.00     0.031 C 
ATOM     46  C   UNL A   1      42.789  27.855  32.952  1.00  0.00     0.029 A 
ATOM     47  C   UNL A   1      42.205  29.039  33.579  1.00  0.00     0.049 A 
ATOM     48  H   UNL A   1      40.629  30.197  32.863  1.00  0.00     0.167 HD
ATOM     49  C   UNL A   1      37.365  32.596  31.229  1.00  0.00     0.037 A 
ATOM     50  C   UNL A   1      42.593  29.583  34.748  1.00  0.00     0.037 A 
ATOM     51  C   UNL A   1      37.662  33.199  32.501  1.00  0.00     0.049 A 
ATOM     52  C   UNL A   1      41.885  30.804  35.272  1.00  0.00     0.074 A 
ATOM     53  C   UNL A   1      37.034  34.267  33.118  1.00  0.00     0.029 A 
ATOM     54  N   UNL A   1      38.677  32.786  33.351  1.00  0.00    -0.354 N 
ATOM     55  N   UNL A   1      40.877  31.462  34.754  1.00  0.00    -0.248 NA
ATOM     56  C   UNL A   1      42.369  31.356  36.546  1.00  0.00     0.031 C 
ATOM     57  C   UNL A   1      37.696  34.528  34.322  1.00  0.00     0.029 A 
ATOM     58  C   UNL A   1      38.707  33.593  34.476  1.00  0.00     0.049 A 
ATOM     59  H   UNL A   1      39.286  32.032  33.180  1.00  0.00     0.167 HD
ATOM     60  C   UNL A   1      40.589  32.487  35.648  1.00  0.00     0.074 A 
ATOM     61  C   UNL A   1      41.522  32.356  36.747  1.00  0.00     0.031 C 
ATOM     62  C   UNL A   1      39.638  33.449  35.567  1.00  0.00     0.037 A 
BRANCH  49  63
ATOM     63  C   UNL A   1      36.271  33.197  30.396  1.00  0.00     0.057 A 
ATOM     64  C   UNL A   1      34.917  32.984  30.688  1.00  0.00     0.134 A 
ATOM     65  C   UNL A   1      36.575  34.020  29.305  1.00  0.00     0.134 A 
ATOM     66  F   UNL A   1      34.559  32.193  31.711  1.00  0.00    -0.206 F 
ATOM     67  C   UNL A   1      33.905  33.547  29.909  1.00  0.00     0.040 A 
ATOM     68  C   UNL A   1      35.572  34.610  28.534  1.00  0.00     0.040 A 
ATOM     69  F   UNL A   1      37.851  34.269  28.974  1.00  0.00    -0.206 F 
ATOM     70  C   UNL A   1      34.232  34.368  28.831  1.00  0.00     0.006 A 
ENDBRANCH  49  63
BRANCH  50  71
ATOM     71  C   UNL A   1      43.716  28.981  35.510  1.00  0.00     0.057 A 
ATOM     72  C   UNL A   1      43.487  28.016  36.496  1.00  0.00     0.134 A 
ATOM     73  C   UNL A   1      45.041  29.375  35.286  1.00  0.00     0.134 A 
ATOM     74  F   UNL A   1      42.238  27.617  36.773  1.00  0.00    -0.206 F 
ATOM     75  C   UNL A   1      44.533  27.472  37.244  1.00  0.00     0.040 A 
ATOM     76  C   UNL A   1      46.099  28.823  36.010  1.00  0.00     0.040 A 
ATOM     77  F   UNL A   1      45.326  30.296  34.355  1.00  0.00    -0.206 F 
ATOM     78  C   UNL A   1      45.845  27.873  36.997  1.00  0.00     0.006 A 
ENDBRANCH  50  71
BRANCH  62  79
ATOM     79  C   UNL A   1      39.534  34.416  36.708  1.00  0.00     0.057 A 
ATOM     80  C   UNL A   1      38.848  34.098  37.886  1.00  0.00     0.134 A 
ATOM     81  C   UNL A   1      40.164  35.666  36.643  1.00  0.00     0.134 A 
ATOM     82  F   UNL A   1      38.213  32.923  38.007  1.00  0.00    -0.206 F 
ATOM     83  C   UNL A   1      38.776  34.997  38.954  1.00  0.00     0.040 A 
ATOM     84  C   UNL A   1      40.120  36.562  37.712  1.00  0.00     0.040 A 
ATOM     85  F   UNL A   1      40.845  36.030  35.546  1.00  0.00    -0.206 F 
ATOM     86  C   UNL A   1      39.420  36.229  38.870  1.00  0.00     0.006 A 
ENDBRANCH  62  79
ENDBRANCH  36  37
ENDBRANCH  29  31
ENDBRANCH  28  29
ENDBRANCH  27  28
ENDBRANCH  26  27
ENDBRANCH  25  26
ENDBRANCH   1  25
TORSDOF 19
ENDMDL
