MODEL 1
REMARK VINA RESULT:     -10.9      0.000      0.000
REMARK SMILES Cc1c(CC(=O)OCCOCCOC(=O)c2ccc(-c3c4nc(c(-c5c(F)cccc5F)c5ccc([nH]5)c(-c5c(F)cccc5F)c5nc(c(-c6c(F)cccc6F)c6ccc3[nH]6)C=C5)C=C4)cc2)cccc1-c1ccn(C(F)F)c(=O)c1
REMARK SMILES IDX 9 1 8 2 7 3 5 4 6 5 4 6 3 7 1 8 2 9 73 10 70 11 72 12 71 13
REMARK SMILES IDX 74 14 75 15 83 16 76 17 81 18 77 19 82 20 78 21 79 22 80 23
REMARK SMILES IDX 10 24 11 25 12 26 13 27 14 28 15 29 16 30 17 31 69 32 18 33
REMARK SMILES IDX 68 34 19 35 20 36 21 37 62 38 22 39 67 40 61 41 63 42 23 43
REMARK SMILES IDX 66 44 60 45 59 46 24 48 50 49 33 50 49 51 34 52 37 53 48 54
REMARK SMILES IDX 64 55 35 56 36 57 47 59 65 60 38 61 25 62 26 63 31 64 27 65
REMARK SMILES IDX 28 66 30 67 32 68 29 69 51 70 52 71 57 72 53 73 54 74 56 75
REMARK SMILES IDX 58 76 55 77 39 78 40 79 45 80 41 81 42 82 44 83 46 84 43 85
REMARK H PARENT 63 47 37 58
REMARK Flexibility Score: inf
ROOT
ATOM      1  C   UNL A   1      36.025  23.762  25.165  1.00  0.00     0.202 C 
ENDROOT
BRANCH   1   2
ATOM      2  C   UNL A   1      34.822  23.305  24.405  1.00  0.00     0.261 C 
BRANCH   2   3
ATOM      3  O   UNL A   1      34.502  24.140  23.297  1.00  0.00    -0.463 OA
BRANCH   3   4
ATOM      4  C   UNL A   1      33.347  23.861  22.609  1.00  0.00     0.310 C 
ATOM      5  O   UNL A   1      32.988  22.772  22.226  1.00  0.00    -0.252 OA
BRANCH   4   6
ATOM      6  C   UNL A   1      32.561  25.150  22.424  1.00  0.00     0.158 C 
BRANCH   6   7
ATOM      7  C   UNL A   1      32.161  25.706  23.783  1.00  0.00    -0.033 A 
ATOM      8  C   UNL A   1      33.795  27.627  23.507  1.00  0.00     0.045 C 
ATOM      9  C   UNL A   1      32.789  26.849  24.332  1.00  0.00    -0.039 A 
ATOM     10  C   UNL A   1      32.511  27.196  25.674  1.00  0.00    -0.015 A 
ATOM     11  C   UNL A   1      31.341  24.900  24.596  1.00  0.00     0.004 A 
ATOM     12  C   UNL A   1      31.741  26.344  26.480  1.00  0.00     0.009 A 
ATOM     13  C   UNL A   1      31.164  25.197  25.943  1.00  0.00     0.001 A 
BRANCH  10  14
ATOM     14  C   UNL A   1      32.899  28.521  26.194  1.00  0.00    -0.011 A 
ATOM     15  C   UNL A   1      34.211  28.690  26.787  1.00  0.00     0.027 A 
ATOM     16  C   UNL A   1      32.044  29.557  26.172  1.00  0.00     0.080 A 
ATOM     17  C   UNL A   1      34.541  29.831  27.395  1.00  0.00     0.095 A 
ATOM     18  C   UNL A   1      32.425  30.859  26.797  1.00  0.00     0.255 A 
ATOM     19  N   UNL A   1      33.663  30.893  27.424  1.00  0.00    -0.258 N 
ATOM     20  O   UNL A   1      31.631  31.792  26.735  1.00  0.00    -0.269 OA
BRANCH  19  21
ATOM     21  C   UNL A   1      34.025  32.102  28.116  1.00  0.00     0.451 C 
ATOM     22  F   UNL A   1      34.324  31.853  29.413  1.00  0.00    -0.185 F 
ATOM     23  F   UNL A   1      35.100  32.691  27.538  1.00  0.00    -0.185 F 
ENDBRANCH  19  21
ENDBRANCH  10  14
ENDBRANCH   6   7
ENDBRANCH   4   6
ENDBRANCH   3   4
ENDBRANCH   2   3
ENDBRANCH   1   2
BRANCH   1  24
ATOM     24  O   UNL A   1      37.147  23.075  24.634  1.00  0.00    -0.374 OA
BRANCH  24  25
ATOM     25  C   UNL A   1      37.359  21.782  25.184  1.00  0.00     0.202 C 
BRANCH  25  26
ATOM     26  C   UNL A   1      38.821  21.465  25.561  1.00  0.00     0.261 C 
BRANCH  26  27
ATOM     27  O   UNL A   1      39.228  22.293  26.670  1.00  0.00    -0.460 OA
BRANCH  27  28
ATOM     28  C   UNL A   1      40.315  23.090  26.471  1.00  0.00     0.338 C 
ATOM     29  O   UNL A   1      41.466  22.703  26.337  1.00  0.00    -0.246 OA
BRANCH  28  30
ATOM     30  C   UNL A   1      39.949  24.504  26.785  1.00  0.00     0.060 A 
ATOM     31  C   UNL A   1      40.648  25.564  26.176  1.00  0.00     0.016 A 
ATOM     32  C   UNL A   1      39.203  24.740  27.936  1.00  0.00     0.016 A 
ATOM     33  C   UNL A   1      40.746  26.807  26.822  1.00  0.00     0.010 A 
ATOM     34  C   UNL A   1      39.402  25.921  28.618  1.00  0.00     0.010 A 
ATOM     35  C   UNL A   1      40.199  26.953  28.094  1.00  0.00    -0.014 A 
BRANCH  35  36
ATOM     36  C   UNL A   1      40.453  28.069  29.020  1.00  0.00     0.031 A 
ATOM     37  C   UNL A   1      39.414  29.120  29.129  1.00  0.00     0.074 A 
ATOM     38  C   UNL A   1      41.480  28.073  29.910  1.00  0.00     0.049 A 
ATOM     39  N   UNL A   1      39.647  30.321  29.529  1.00  0.00    -0.248 NA
ATOM     40  C   UNL A   1      38.017  28.915  28.759  1.00  0.00     0.031 C 
ATOM     41  C   UNL A   1      41.638  28.894  31.114  1.00  0.00     0.029 A 
ATOM     42  N   UNL A   1      42.662  27.320  29.915  1.00  0.00    -0.354 N 
ATOM     43  C   UNL A   1      38.433  30.919  29.784  1.00  0.00     0.074 A 
ATOM     44  C   UNL A   1      37.457  30.044  29.191  1.00  0.00     0.031 C 
ATOM     45  C   UNL A   1      42.921  28.848  31.525  1.00  0.00     0.029 A 
ATOM     46  C   UNL A   1      43.662  28.074  30.543  1.00  0.00     0.049 A 
ATOM     47  H   UNL A   1      42.771  26.416  29.540  1.00  0.00     0.167 HD
ATOM     48  C   UNL A   1      38.396  32.008  30.604  1.00  0.00     0.037 A 
ATOM     49  C   UNL A   1      44.815  28.389  29.896  1.00  0.00     0.037 A 
ATOM     50  C   UNL A   1      39.753  32.331  31.072  1.00  0.00     0.049 A 
ATOM     51  C   UNL A   1      44.876  29.877  29.757  1.00  0.00     0.074 A 
ATOM     52  C   UNL A   1      40.409  32.061  32.264  1.00  0.00     0.029 A 
ATOM     53  N   UNL A   1      40.744  32.690  30.157  1.00  0.00    -0.354 N 
ATOM     54  N   UNL A   1      43.805  30.614  29.866  1.00  0.00    -0.248 NA
ATOM     55  C   UNL A   1      46.084  30.668  29.561  1.00  0.00     0.031 C 
ATOM     56  C   UNL A   1      41.805  32.192  32.036  1.00  0.00     0.029 A 
ATOM     57  C   UNL A   1      42.004  32.567  30.716  1.00  0.00     0.049 A 
ATOM     58  H   UNL A   1      40.569  32.991  29.236  1.00  0.00     0.167 HD
ATOM     59  C   UNL A   1      44.144  31.924  29.818  1.00  0.00     0.074 A 
ATOM     60  C   UNL A   1      45.581  31.916  29.593  1.00  0.00     0.031 C 
ATOM     61  C   UNL A   1      43.208  32.901  29.960  1.00  0.00     0.037 A 
BRANCH  48  62
ATOM     62  C   UNL A   1      37.133  32.588  31.221  1.00  0.00     0.057 A 
ATOM     63  C   UNL A   1      36.510  33.716  30.649  1.00  0.00     0.134 A 
ATOM     64  C   UNL A   1      36.481  32.116  32.378  1.00  0.00     0.134 A 
ATOM     65  F   UNL A   1      36.930  34.239  29.489  1.00  0.00    -0.206 F 
ATOM     66  C   UNL A   1      35.409  34.367  31.227  1.00  0.00     0.040 A 
ATOM     67  C   UNL A   1      35.412  32.784  32.996  1.00  0.00     0.040 A 
ATOM     68  F   UNL A   1      36.781  30.940  32.935  1.00  0.00    -0.206 F 
ATOM     69  C   UNL A   1      34.874  33.922  32.424  1.00  0.00     0.006 A 
ENDBRANCH  48  62
BRANCH  49  70
ATOM     70  C   UNL A   1      45.202  27.334  28.910  1.00  0.00     0.057 A 
ATOM     71  C   UNL A   1      45.775  26.149  29.425  1.00  0.00     0.134 A 
ATOM     72  C   UNL A   1      44.599  27.239  27.652  1.00  0.00     0.134 A 
ATOM     73  F   UNL A   1      46.362  26.158  30.635  1.00  0.00    -0.206 F 
ATOM     74  C   UNL A   1      45.618  24.909  28.796  1.00  0.00     0.040 A 
ATOM     75  C   UNL A   1      44.443  26.000  27.010  1.00  0.00     0.040 A 
ATOM     76  F   UNL A   1      44.023  28.312  27.090  1.00  0.00    -0.206 F 
ATOM     77  C   UNL A   1      44.908  24.826  27.604  1.00  0.00     0.006 A 
ENDBRANCH  49  70
BRANCH  61  78
ATOM     78  C   UNL A   1      43.422  34.291  29.459  1.00  0.00     0.057 A 
ATOM     79  C   UNL A   1      43.642  34.580  28.103  1.00  0.00     0.134 A 
ATOM     80  C   UNL A   1      43.238  35.399  30.304  1.00  0.00     0.134 A 
ATOM     81  F   UNL A   1      43.701  33.613  27.176  1.00  0.00    -0.206 F 
ATOM     82  C   UNL A   1      43.758  35.887  27.632  1.00  0.00     0.040 A 
ATOM     83  C   UNL A   1      43.290  36.710  29.832  1.00  0.00     0.040 A 
ATOM     84  F   UNL A   1      42.970  35.255  31.611  1.00  0.00    -0.206 F 
ATOM     85  C   UNL A   1      43.574  36.957  28.497  1.00  0.00     0.006 A 
ENDBRANCH  61  78
ENDBRANCH  35  36
ENDBRANCH  28  30
ENDBRANCH  27  28
ENDBRANCH  26  27
ENDBRANCH  25  26
ENDBRANCH  24  25
ENDBRANCH   1  24
TORSDOF 17
ENDMDL
MODEL 2
REMARK VINA RESULT:     -10.8      4.257      9.435
REMARK SMILES Cc1c(CC(=O)OCCOCCOC(=O)c2ccc(-c3c4nc(c(-c5c(F)cccc5F)c5ccc([nH]5)c(-c5c(F)cccc5F)c5nc(c(-c6c(F)cccc6F)c6ccc3[nH]6)C=C5)C=C4)cc2)cccc1-c1ccn(C(F)F)c(=O)c1
REMARK SMILES IDX 9 1 8 2 7 3 5 4 6 5 4 6 3 7 1 8 2 9 73 10 70 11 72 12 71 13
REMARK SMILES IDX 74 14 75 15 83 16 76 17 81 18 77 19 82 20 78 21 79 22 80 23
REMARK SMILES IDX 10 24 11 25 12 26 13 27 14 28 15 29 16 30 17 31 69 32 18 33
REMARK SMILES IDX 68 34 19 35 20 36 21 37 62 38 22 39 67 40 61 41 63 42 23 43
REMARK SMILES IDX 66 44 60 45 59 46 24 48 50 49 33 50 49 51 34 52 37 53 48 54
REMARK SMILES IDX 64 55 35 56 36 57 47 59 65 60 38 61 25 62 26 63 31 64 27 65
REMARK SMILES IDX 28 66 30 67 32 68 29 69 51 70 52 71 57 72 53 73 54 74 56 75
REMARK SMILES IDX 58 76 55 77 39 78 40 79 45 80 41 81 42 82 44 83 46 84 43 85
REMARK H PARENT 63 47 37 58
REMARK Flexibility Score: inf
ROOT
ATOM      1  C   UNL A   1      32.180  29.559  25.476  1.00  0.00     0.202 C 
ENDROOT
BRANCH   1   2
ATOM      2  C   UNL A   1      32.209  28.170  24.924  1.00  0.00     0.261 C 
BRANCH   2   3
ATOM      3  O   UNL A   1      31.102  27.375  25.335  1.00  0.00    -0.463 OA
BRANCH   3   4
ATOM      4  C   UNL A   1      31.354  26.069  25.675  1.00  0.00     0.310 C 
ATOM      5  O   UNL A   1      32.156  25.686  26.495  1.00  0.00    -0.252 OA
BRANCH   4   6
ATOM      6  C   UNL A   1      30.436  25.164  24.868  1.00  0.00     0.158 C 
BRANCH   6   7
ATOM      7  C   UNL A   1      31.265  24.299  23.929  1.00  0.00    -0.033 A 
ATOM      8  C   UNL A   1      31.124  22.355  25.553  1.00  0.00     0.045 C 
ATOM      9  C   UNL A   1      31.649  22.983  24.277  1.00  0.00    -0.039 A 
ATOM     10  C   UNL A   1      32.578  22.307  23.452  1.00  0.00    -0.015 A 
ATOM     11  C   UNL A   1      31.865  24.934  22.825  1.00  0.00     0.004 A 
ATOM     12  C   UNL A   1      33.206  22.982  22.395  1.00  0.00     0.009 A 
ATOM     13  C   UNL A   1      32.855  24.294  22.088  1.00  0.00     0.001 A 
BRANCH  10  14
ATOM     14  C   UNL A   1      32.781  20.854  23.598  1.00  0.00    -0.011 A 
ATOM     15  C   UNL A   1      33.608  20.362  24.684  1.00  0.00     0.027 A 
ATOM     16  C   UNL A   1      32.258  19.983  22.720  1.00  0.00     0.080 A 
ATOM     17  C   UNL A   1      33.931  19.071  24.763  1.00  0.00     0.095 A 
ATOM     18  C   UNL A   1      32.563  18.525  22.832  1.00  0.00     0.255 A 
ATOM     19  N   UNL A   1      33.441  18.165  23.846  1.00  0.00    -0.258 N 
ATOM     20  O   UNL A   1      32.047  17.756  22.029  1.00  0.00    -0.269 OA
BRANCH  19  21
ATOM     21  C   UNL A   1      33.831  16.782  23.928  1.00  0.00     0.451 C 
ATOM     22  F   UNL A   1      34.311  16.338  22.742  1.00  0.00    -0.185 F 
ATOM     23  F   UNL A   1      34.790  16.602  24.868  1.00  0.00    -0.185 F 
ENDBRANCH  19  21
ENDBRANCH  10  14
ENDBRANCH   6   7
ENDBRANCH   4   6
ENDBRANCH   3   4
ENDBRANCH   2   3
ENDBRANCH   1   2
BRANCH   1  24
ATOM     24  O   UNL A   1      32.693  29.499  26.798  1.00  0.00    -0.374 OA
BRANCH  24  25
ATOM     25  C   UNL A   1      33.228  30.725  27.277  1.00  0.00     0.202 C 
BRANCH  25  26
ATOM     26  C   UNL A   1      34.768  30.802  27.295  1.00  0.00     0.261 C 
BRANCH  26  27
ATOM     27  O   UNL A   1      35.238  30.859  28.658  1.00  0.00    -0.460 OA
BRANCH  27  28
ATOM     28  C   UNL A   1      36.572  31.066  28.837  1.00  0.00     0.338 C 
ATOM     29  O   UNL A   1      37.139  32.146  28.777  1.00  0.00    -0.246 OA
BRANCH  28  30
ATOM     30  C   UNL A   1      37.284  29.754  28.770  1.00  0.00     0.060 A 
ATOM     31  C   UNL A   1      37.453  28.985  29.937  1.00  0.00     0.016 A 
ATOM     32  C   UNL A   1      38.082  29.505  27.657  1.00  0.00     0.016 A 
ATOM     33  C   UNL A   1      38.539  28.101  30.048  1.00  0.00     0.010 A 
ATOM     34  C   UNL A   1      39.209  28.727  27.818  1.00  0.00     0.010 A 
ATOM     35  C   UNL A   1      39.474  28.046  29.018  1.00  0.00    -0.014 A 
BRANCH  35  36
ATOM     36  C   UNL A   1      40.799  27.407  29.087  1.00  0.00     0.031 A 
ATOM     37  C   UNL A   1      40.895  25.985  28.686  1.00  0.00     0.074 A 
ATOM     38  C   UNL A   1      41.945  28.104  29.301  1.00  0.00     0.049 A 
ATOM     39  N   UNL A   1      41.827  25.189  29.081  1.00  0.00    -0.248 NA
ATOM     40  C   UNL A   1      39.921  25.320  27.826  1.00  0.00     0.031 C 
ATOM     41  C   UNL A   1      43.325  27.693  29.026  1.00  0.00     0.029 A 
ATOM     42  N   UNL A   1      42.127  29.380  29.853  1.00  0.00    -0.354 N 
ATOM     43  C   UNL A   1      41.773  24.060  28.295  1.00  0.00     0.074 A 
ATOM     44  C   UNL A   1      40.512  24.146  27.607  1.00  0.00     0.031 C 
ATOM     45  C   UNL A   1      44.176  28.504  29.685  1.00  0.00     0.029 A 
ATOM     46  C   UNL A   1      43.375  29.410  30.490  1.00  0.00     0.049 A 
ATOM     47  H   UNL A   1      41.487  30.126  29.802  1.00  0.00     0.167 HD
ATOM     48  C   UNL A   1      42.879  23.265  28.208  1.00  0.00     0.037 A 
ATOM     49  C   UNL A   1      43.481  29.704  31.813  1.00  0.00     0.037 A 
ATOM     50  C   UNL A   1      43.965  23.825  29.027  1.00  0.00     0.049 A 
ATOM     51  C   UNL A   1      44.033  28.500  32.510  1.00  0.00     0.074 A 
ATOM     52  C   UNL A   1      45.079  24.582  28.695  1.00  0.00     0.029 A 
ATOM     53  N   UNL A   1      43.807  23.953  30.408  1.00  0.00    -0.354 N 
ATOM     54  N   UNL A   1      43.982  27.316  31.965  1.00  0.00    -0.248 NA
ATOM     55  C   UNL A   1      44.726  28.499  33.792  1.00  0.00     0.031 C 
ATOM     56  C   UNL A   1      45.544  25.220  29.876  1.00  0.00     0.029 A 
ATOM     57  C   UNL A   1      44.734  24.837  30.934  1.00  0.00     0.049 A 
ATOM     58  H   UNL A   1      43.127  23.478  30.938  1.00  0.00     0.167 HD
ATOM     59  C   UNL A   1      44.648  26.427  32.740  1.00  0.00     0.074 A 
ATOM     60  C   UNL A   1      45.073  27.202  33.894  1.00  0.00     0.031 C 
ATOM     61  C   UNL A   1      44.783  25.127  32.365  1.00  0.00     0.037 A 
BRANCH  48  62
ATOM     62  C   UNL A   1      43.085  22.175  27.169  1.00  0.00     0.057 A 
ATOM     63  C   UNL A   1      42.303  21.003  27.196  1.00  0.00     0.134 A 
ATOM     64  C   UNL A   1      44.037  22.187  26.129  1.00  0.00     0.134 A 
ATOM     65  F   UNL A   1      41.280  20.859  28.050  1.00  0.00    -0.206 F 
ATOM     66  C   UNL A   1      42.513  19.912  26.337  1.00  0.00     0.040 A 
ATOM     67  C   UNL A   1      44.294  21.087  25.297  1.00  0.00     0.040 A 
ATOM     68  F   UNL A   1      44.717  23.288  25.800  1.00  0.00    -0.206 F 
ATOM     69  C   UNL A   1      43.534  19.937  25.403  1.00  0.00     0.006 A 
ENDBRANCH  48  62
BRANCH  49  70
ATOM     70  C   UNL A   1      42.405  30.640  32.260  1.00  0.00     0.057 A 
ATOM     71  C   UNL A   1      42.569  32.008  31.942  1.00  0.00     0.134 A 
ATOM     72  C   UNL A   1      41.097  30.208  32.497  1.00  0.00     0.134 A 
ATOM     73  F   UNL A   1      43.796  32.496  31.688  1.00  0.00    -0.206 F 
ATOM     74  C   UNL A   1      41.480  32.858  31.718  1.00  0.00     0.040 A 
ATOM     75  C   UNL A   1      39.999  31.056  32.282  1.00  0.00     0.040 A 
ATOM     76  F   UNL A   1      40.848  28.925  32.798  1.00  0.00    -0.206 F 
ATOM     77  C   UNL A   1      40.186  32.367  31.844  1.00  0.00     0.006 A 
ENDBRANCH  49  70
BRANCH  61  78
ATOM     78  C   UNL A   1      45.068  24.038  33.345  1.00  0.00     0.057 A 
ATOM     79  C   UNL A   1      44.102  23.097  33.733  1.00  0.00     0.134 A 
ATOM     80  C   UNL A   1      46.378  23.798  33.797  1.00  0.00     0.134 A 
ATOM     81  F   UNL A   1      42.847  23.140  33.261  1.00  0.00    -0.206 F 
ATOM     82  C   UNL A   1      44.399  22.035  34.585  1.00  0.00     0.040 A 
ATOM     83  C   UNL A   1      46.699  22.704  34.598  1.00  0.00     0.040 A 
ATOM     84  F   UNL A   1      47.401  24.595  33.453  1.00  0.00    -0.206 F 
ATOM     85  C   UNL A   1      45.704  21.831  35.014  1.00  0.00     0.006 A 
ENDBRANCH  61  78
ENDBRANCH  35  36
ENDBRANCH  28  30
ENDBRANCH  27  28
ENDBRANCH  26  27
ENDBRANCH  25  26
ENDBRANCH  24  25
ENDBRANCH   1  24
TORSDOF 17
ENDMDL
MODEL 3
REMARK VINA RESULT:     -10.6      2.092      2.508
REMARK SMILES Cc1c(CC(=O)OCCOCCOC(=O)c2ccc(-c3c4nc(c(-c5c(F)cccc5F)c5ccc([nH]5)c(-c5c(F)cccc5F)c5nc(c(-c6c(F)cccc6F)c6ccc3[nH]6)C=C5)C=C4)cc2)cccc1-c1ccn(C(F)F)c(=O)c1
REMARK SMILES IDX 9 1 8 2 7 3 5 4 6 5 4 6 3 7 1 8 2 9 73 10 70 11 72 12 71 13
REMARK SMILES IDX 74 14 75 15 83 16 76 17 81 18 77 19 82 20 78 21 79 22 80 23
REMARK SMILES IDX 10 24 11 25 12 26 13 27 14 28 15 29 16 30 17 31 69 32 18 33
REMARK SMILES IDX 68 34 19 35 20 36 21 37 62 38 22 39 67 40 61 41 63 42 23 43
REMARK SMILES IDX 66 44 60 45 59 46 24 48 50 49 33 50 49 51 34 52 37 53 48 54
REMARK SMILES IDX 64 55 35 56 36 57 47 59 65 60 38 61 25 62 26 63 31 64 27 65
REMARK SMILES IDX 28 66 30 67 32 68 29 69 51 70 52 71 57 72 53 73 54 74 56 75
REMARK SMILES IDX 58 76 55 77 39 78 40 79 45 80 41 81 42 82 44 83 46 84 43 85
REMARK H PARENT 63 47 37 58
REMARK Flexibility Score: inf
ROOT
ATOM      1  C   UNL A   1      35.470  21.204  25.014  1.00  0.00     0.202 C 
ENDROOT
BRANCH   1   2
ATOM      2  C   UNL A   1      35.042  22.259  25.982  1.00  0.00     0.261 C 
BRANCH   2   3
ATOM      3  O   UNL A   1      33.667  22.171  26.344  1.00  0.00    -0.463 OA
BRANCH   3   4
ATOM      4  C   UNL A   1      32.801  23.053  25.746  1.00  0.00     0.310 C 
ATOM      5  O   UNL A   1      31.850  22.765  25.057  1.00  0.00    -0.252 OA
BRANCH   4   6
ATOM      6  C   UNL A   1      33.210  24.471  26.113  1.00  0.00     0.158 C 
BRANCH   6   7
ATOM      7  C   UNL A   1      33.130  25.362  24.882  1.00  0.00    -0.033 A 
ATOM      8  C   UNL A   1      31.139  26.588  25.868  1.00  0.00     0.045 C 
ATOM      9  C   UNL A   1      32.108  26.329  24.731  1.00  0.00    -0.039 A 
ATOM     10  C   UNL A   1      31.974  26.984  23.485  1.00  0.00    -0.015 A 
ATOM     11  C   UNL A   1      33.935  25.018  23.779  1.00  0.00     0.004 A 
ATOM     12  C   UNL A   1      32.747  26.580  22.386  1.00  0.00     0.009 A 
ATOM     13  C   UNL A   1      33.719  25.595  22.533  1.00  0.00     0.001 A 
BRANCH  10  14
ATOM     14  C   UNL A   1      31.135  28.192  23.368  1.00  0.00    -0.011 A 
ATOM     15  C   UNL A   1      31.236  29.223  24.383  1.00  0.00     0.027 A 
ATOM     16  C   UNL A   1      30.247  28.332  22.370  1.00  0.00     0.080 A 
ATOM     17  C   UNL A   1      30.394  30.257  24.390  1.00  0.00     0.095 A 
ATOM     18  C   UNL A   1      29.338  29.516  22.332  1.00  0.00     0.255 A 
ATOM     19  N   UNL A   1      29.444  30.398  23.399  1.00  0.00    -0.258 N 
ATOM     20  O   UNL A   1      28.558  29.626  21.392  1.00  0.00    -0.269 OA
BRANCH  19  21
ATOM     21  C   UNL A   1      28.522  31.502  23.445  1.00  0.00     0.451 C 
ATOM     22  F   UNL A   1      27.481  31.236  24.270  1.00  0.00    -0.185 F 
ATOM     23  F   UNL A   1      29.133  32.630  23.882  1.00  0.00    -0.185 F 
ENDBRANCH  19  21
ENDBRANCH  10  14
ENDBRANCH   6   7
ENDBRANCH   4   6
ENDBRANCH   3   4
ENDBRANCH   2   3
ENDBRANCH   1   2
BRANCH   1  24
ATOM     24  O   UNL A   1      36.780  20.800  25.381  1.00  0.00    -0.374 OA
BRANCH  24  25
ATOM     25  C   UNL A   1      37.746  21.842  25.359  1.00  0.00     0.202 C 
BRANCH  25  26
ATOM     26  C   UNL A   1      39.163  21.427  25.802  1.00  0.00     0.261 C 
BRANCH  26  27
ATOM     27  O   UNL A   1      39.634  22.323  26.831  1.00  0.00    -0.460 OA
BRANCH  27  28
ATOM     28  C   UNL A   1      40.574  23.238  26.461  1.00  0.00     0.338 C 
ATOM     29  O   UNL A   1      41.739  22.992  26.192  1.00  0.00    -0.246 OA
BRANCH  28  30
ATOM     30  C   UNL A   1      40.067  24.609  26.769  1.00  0.00     0.060 A 
ATOM     31  C   UNL A   1      40.671  25.733  26.173  1.00  0.00     0.016 A 
ATOM     32  C   UNL A   1      39.281  24.770  27.906  1.00  0.00     0.016 A 
ATOM     33  C   UNL A   1      40.637  26.979  26.820  1.00  0.00     0.010 A 
ATOM     34  C   UNL A   1      39.353  25.964  28.592  1.00  0.00     0.010 A 
ATOM     35  C   UNL A   1      40.057  27.069  28.083  1.00  0.00    -0.014 A 
BRANCH  35  36
ATOM     36  C   UNL A   1      40.185  28.202  29.013  1.00  0.00     0.031 A 
ATOM     37  C   UNL A   1      39.196  29.299  28.898  1.00  0.00     0.074 A 
ATOM     38  C   UNL A   1      41.025  28.191  30.081  1.00  0.00     0.049 A 
ATOM     39  N   UNL A   1      39.407  30.502  29.306  1.00  0.00    -0.248 NA
ATOM     40  C   UNL A   1      37.885  29.143  28.275  1.00  0.00     0.031 C 
ATOM     41  C   UNL A   1      40.993  29.043  31.273  1.00  0.00     0.029 A 
ATOM     42  N   UNL A   1      42.148  27.389  30.328  1.00  0.00    -0.354 N 
ATOM     43  C   UNL A   1      38.196  31.159  29.313  1.00  0.00     0.074 A 
ATOM     44  C   UNL A   1      37.308  30.308  28.567  1.00  0.00     0.031 C 
ATOM     45  C   UNL A   1      42.172  28.956  31.920  1.00  0.00     0.029 A 
ATOM     46  C   UNL A   1      43.047  28.120  31.115  1.00  0.00     0.049 A 
ATOM     47  H   UNL A   1      42.282  26.470  30.001  1.00  0.00     0.167 HD
ATOM     48  C   UNL A   1      38.058  32.275  30.085  1.00  0.00     0.037 A 
ATOM     49  C   UNL A   1      44.315  28.364  30.691  1.00  0.00     0.037 A 
ATOM     50  C   UNL A   1      39.317  32.554  30.794  1.00  0.00     0.049 A 
ATOM     51  C   UNL A   1      44.472  29.844  30.531  1.00  0.00     0.074 A 
ATOM     52  C   UNL A   1      39.723  32.295  32.094  1.00  0.00     0.029 A 
ATOM     53  N   UNL A   1      40.478  32.841  30.075  1.00  0.00    -0.354 N 
ATOM     54  N   UNL A   1      43.436  30.628  30.418  1.00  0.00    -0.248 NA
ATOM     55  C   UNL A   1      45.731  30.575  30.549  1.00  0.00     0.031 C 
ATOM     56  C   UNL A   1      41.142  32.359  32.132  1.00  0.00     0.029 A 
ATOM     57  C   UNL A   1      41.604  32.682  30.865  1.00  0.00     0.049 A 
ATOM     58  H   UNL A   1      40.494  33.119  29.130  1.00  0.00     0.167 HD
ATOM     59  C   UNL A   1      43.841  31.920  30.404  1.00  0.00     0.074 A 
ATOM     60  C   UNL A   1      45.292  31.844  30.455  1.00  0.00     0.031 C 
ATOM     61  C   UNL A   1      42.943  32.940  30.343  1.00  0.00     0.037 A 
BRANCH  48  62
ATOM     62  C   UNL A   1      36.731  32.928  30.437  1.00  0.00     0.057 A 
ATOM     63  C   UNL A   1      35.998  33.632  29.461  1.00  0.00     0.134 A 
ATOM     64  C   UNL A   1      36.118  32.931  31.706  1.00  0.00     0.134 A 
ATOM     65  F   UNL A   1      36.375  33.649  28.175  1.00  0.00    -0.206 F 
ATOM     66  C   UNL A   1      34.824  34.349  29.742  1.00  0.00     0.040 A 
ATOM     67  C   UNL A   1      34.974  33.684  32.016  1.00  0.00     0.040 A 
ATOM     68  F   UNL A   1      36.536  32.144  32.701  1.00  0.00    -0.206 F 
ATOM     69  C   UNL A   1      34.324  34.405  31.032  1.00  0.00     0.006 A 
ENDBRANCH  48  62
BRANCH  49  70
ATOM     70  C   UNL A   1      44.829  27.263  29.822  1.00  0.00     0.057 A 
ATOM     71  C   UNL A   1      45.237  26.071  30.464  1.00  0.00     0.134 A 
ATOM     72  C   UNL A   1      44.470  27.153  28.475  1.00  0.00     0.134 A 
ATOM     73  F   UNL A   1      45.585  26.094  31.762  1.00  0.00    -0.206 F 
ATOM     74  C   UNL A   1      45.141  24.819  29.846  1.00  0.00     0.040 A 
ATOM     75  C   UNL A   1      44.378  25.902  27.844  1.00  0.00     0.040 A 
ATOM     76  F   UNL A   1      44.063  28.231  27.789  1.00  0.00    -0.206 F 
ATOM     77  C   UNL A   1      44.665  24.729  28.543  1.00  0.00     0.006 A 
ENDBRANCH  49  70
BRANCH  61  78
ATOM     78  C   UNL A   1      43.314  34.303  29.858  1.00  0.00     0.057 A 
ATOM     79  C   UNL A   1      43.533  34.589  28.502  1.00  0.00     0.134 A 
ATOM     80  C   UNL A   1      43.289  35.409  30.726  1.00  0.00     0.134 A 
ATOM     81  F   UNL A   1      43.449  33.640  27.558  1.00  0.00    -0.206 F 
ATOM     82  C   UNL A   1      43.797  35.881  28.049  1.00  0.00     0.040 A 
ATOM     83  C   UNL A   1      43.490  36.712  30.274  1.00  0.00     0.040 A 
ATOM     84  F   UNL A   1      43.037  35.273  32.037  1.00  0.00    -0.206 F 
ATOM     85  C   UNL A   1      43.768  36.949  28.936  1.00  0.00     0.006 A 
ENDBRANCH  61  78
ENDBRANCH  35  36
ENDBRANCH  28  30
ENDBRANCH  27  28
ENDBRANCH  26  27
ENDBRANCH  25  26
ENDBRANCH  24  25
ENDBRANCH   1  24
TORSDOF 17
ENDMDL
