MODEL 1
REMARK VINA RESULT:     -12.9      0.000      0.000
REMARK SMILES C[C@H](C(=O)OCCOCCOC(=O)c1ccc(-c2c3nc(c(-c4c(F)cccc4F)c4ccc([nH]4)c(-c4c(F)cccc4F)c4nc(c(-c5c(F)cccc5F)c5ccc2[nH]5)C=C4)C=C3)cc1)c1ccc2c3cc(Cl)ccc3n(C(=O)c3ccc(Cl)cc3)c2c1
REMARK SMILES IDX 7 1 6 2 5 3 3 4 4 5 2 6 1 7 68 8 69 9 90 10 70 11 89 12
REMARK SMILES IDX 71 13 79 14 72 15 78 16 73 17 77 18 74 19 76 20 75 21 80 22
REMARK SMILES IDX 81 23 82 24 83 25 88 26 84 27 87 28 85 29 86 30 8 31 9 32
REMARK SMILES IDX 10 33 11 34 12 35 13 36 14 37 15 38 67 39 16 40 66 41 17 42
REMARK SMILES IDX 18 43 19 44 60 45 20 46 65 47 59 48 61 49 21 50 64 51 58 52
REMARK SMILES IDX 57 53 22 55 48 56 31 57 47 58 32 59 35 60 46 61 62 62 33 63
REMARK SMILES IDX 34 64 45 66 63 67 36 68 23 69 24 70 29 71 25 72 26 73 28 74
REMARK SMILES IDX 30 75 27 76 49 77 50 78 55 79 51 80 52 81 54 82 56 83 53 84
REMARK SMILES IDX 37 85 38 86 43 87 39 88 40 89 42 90 44 91 41 92
REMARK H PARENT 61 54 35 65
REMARK Flexibility Score: inf
ROOT
ATOM      1  C   UNL A   1      33.802  34.519  28.692  1.00  0.00     0.202 C 
ENDROOT
BRANCH   1   2
ATOM      2  C   UNL A   1      34.363  33.141  28.313  1.00  0.00     0.261 C 
BRANCH   2   3
ATOM      3  O   UNL A   1      33.413  32.364  27.559  1.00  0.00    -0.463 OA
BRANCH   3   4
ATOM      4  C   UNL A   1      33.638  31.022  27.515  1.00  0.00     0.313 C 
ATOM      5  O   UNL A   1      34.679  30.486  27.881  1.00  0.00    -0.252 OA
BRANCH   4   6
ATOM      6  C   UNL A   1      32.426  30.211  27.077  1.00  0.00     0.126 C 
ATOM      7  C   UNL A   1      31.428  31.112  26.331  1.00  0.00     0.025 C 
BRANCH   6   8
ATOM      8  C   UNL A   1      32.644  28.878  26.371  1.00  0.00    -0.032 A 
ATOM      9  C   UNL A   1      33.846  28.170  26.350  1.00  0.00     0.005 A 
ATOM     10  C   UNL A   1      31.518  28.295  25.761  1.00  0.00     0.032 A 
ATOM     11  C   UNL A   1      33.917  26.876  25.808  1.00  0.00     0.011 A 
ATOM     12  C   UNL A   1      31.614  27.042  25.139  1.00  0.00     0.057 A 
ATOM     13  C   UNL A   1      32.770  26.288  25.233  1.00  0.00     0.008 A 
ATOM     14  N   UNL A   1      30.669  26.338  24.384  1.00  0.00    -0.276 N 
ATOM     15  C   UNL A   1      32.460  25.003  24.715  1.00  0.00     0.009 A 
ATOM     16  C   UNL A   1      31.184  25.063  24.128  1.00  0.00     0.057 A 
ATOM     17  C   UNL A   1      33.194  23.799  24.684  1.00  0.00     0.031 A 
ATOM     18  C   UNL A   1      30.703  23.978  23.370  1.00  0.00     0.029 A 
ATOM     19  C   UNL A   1      32.670  22.700  24.013  1.00  0.00     0.041 A 
ATOM     20  C   UNL A   1      31.460  22.796  23.337  1.00  0.00     0.023 A 
ATOM     21  Cl  UNL A   1      33.549  21.220  24.005  1.00  0.00    -0.084 Cl
BRANCH  14  22
ATOM     22  C   UNL A   1      29.470  26.954  23.939  1.00  0.00     0.262 C 
ATOM     23  O   UNL A   1      28.439  26.309  24.155  1.00  0.00    -0.268 OA
BRANCH  22  24
ATOM     24  C   UNL A   1      29.274  28.224  23.183  1.00  0.00     0.040 A 
ATOM     25  C   UNL A   1      27.961  28.744  23.153  1.00  0.00     0.015 A 
ATOM     26  C   UNL A   1      30.251  28.836  22.395  1.00  0.00     0.015 A 
ATOM     27  C   UNL A   1      27.632  29.853  22.372  1.00  0.00     0.021 A 
ATOM     28  C   UNL A   1      29.925  29.972  21.632  1.00  0.00     0.021 A 
ATOM     29  C   UNL A   1      28.621  30.470  21.619  1.00  0.00     0.041 A 
ATOM     30  Cl  UNL A   1      28.224  31.831  20.647  1.00  0.00    -0.084 Cl
ENDBRANCH  22  24
ENDBRANCH  14  22
ENDBRANCH   6   8
ENDBRANCH   4   6
ENDBRANCH   3   4
ENDBRANCH   2   3
ENDBRANCH   1   2
BRANCH   1  31
ATOM     31  O   UNL A   1      34.361  35.164  29.838  1.00  0.00    -0.374 OA
BRANCH  31  32
ATOM     32  C   UNL A   1      33.856  34.755  31.106  1.00  0.00     0.202 C 
BRANCH  32  33
ATOM     33  C   UNL A   1      34.838  34.190  32.134  1.00  0.00     0.261 C 
BRANCH  33  34
ATOM     34  O   UNL A   1      35.036  32.780  31.979  1.00  0.00    -0.460 OA
BRANCH  34  35
ATOM     35  C   UNL A   1      35.988  32.279  32.795  1.00  0.00     0.338 C 
ATOM     36  O   UNL A   1      36.035  32.346  34.017  1.00  0.00    -0.246 OA
BRANCH  35  37
ATOM     37  C   UNL A   1      36.929  31.461  32.019  1.00  0.00     0.060 A 
ATOM     38  C   UNL A   1      37.938  30.803  32.732  1.00  0.00     0.016 A 
ATOM     39  C   UNL A   1      36.874  31.399  30.625  1.00  0.00     0.016 A 
ATOM     40  C   UNL A   1      38.949  30.143  32.048  1.00  0.00     0.010 A 
ATOM     41  C   UNL A   1      37.895  30.738  29.938  1.00  0.00     0.010 A 
ATOM     42  C   UNL A   1      38.958  30.151  30.648  1.00  0.00    -0.014 A 
BRANCH  42  43
ATOM     43  C   UNL A   1      40.172  29.694  29.937  1.00  0.00     0.031 A 
ATOM     44  C   UNL A   1      41.308  30.660  29.749  1.00  0.00     0.074 A 
ATOM     45  C   UNL A   1      40.275  28.423  29.516  1.00  0.00     0.049 A 
ATOM     46  N   UNL A   1      42.455  30.486  29.147  1.00  0.00    -0.248 NA
ATOM     47  C   UNL A   1      41.124  32.006  30.317  1.00  0.00     0.031 C 
ATOM     48  C   UNL A   1      39.251  27.393  29.685  1.00  0.00     0.029 A 
ATOM     49  N   UNL A   1      41.293  27.784  28.857  1.00  0.00    -0.354 N 
ATOM     50  C   UNL A   1      43.127  31.697  29.258  1.00  0.00     0.074 A 
ATOM     51  C   UNL A   1      42.244  32.610  29.951  1.00  0.00     0.031 C 
ATOM     52  C   UNL A   1      39.690  26.250  29.134  1.00  0.00     0.029 A 
ATOM     53  C   UNL A   1      41.007  26.479  28.545  1.00  0.00     0.049 A 
ATOM     54  H   UNL A   1      42.145  28.219  28.630  1.00  0.00     0.167 HD
ATOM     55  C   UNL A   1      44.372  32.013  28.831  1.00  0.00     0.037 A 
ATOM     56  C   UNL A   1      41.722  25.582  27.842  1.00  0.00     0.037 A 
ATOM     57  C   UNL A   1      45.239  31.095  28.140  1.00  0.00     0.049 A 
ATOM     58  C   UNL A   1      43.075  25.979  27.312  1.00  0.00     0.074 A 
ATOM     59  C   UNL A   1      46.523  31.307  27.671  1.00  0.00     0.029 A 
ATOM     60  N   UNL A   1      44.903  29.789  27.812  1.00  0.00    -0.354 N 
ATOM     61  N   UNL A   1      43.711  27.119  27.438  1.00  0.00    -0.248 NA
ATOM     62  C   UNL A   1      43.810  24.963  26.548  1.00  0.00     0.031 C 
ATOM     63  C   UNL A   1      46.943  30.149  27.010  1.00  0.00     0.029 A 
ATOM     64  C   UNL A   1      45.946  29.192  27.122  1.00  0.00     0.049 A 
ATOM     65  H   UNL A   1      44.050  29.352  28.036  1.00  0.00     0.167 HD
ATOM     66  C   UNL A   1      44.931  26.949  26.796  1.00  0.00     0.074 A 
ATOM     67  C   UNL A   1      44.950  25.590  26.294  1.00  0.00     0.031 C 
ATOM     68  C   UNL A   1      45.945  27.835  26.635  1.00  0.00     0.037 A 
BRANCH  55  69
ATOM     69  C   UNL A   1      44.854  33.414  29.076  1.00  0.00     0.057 A 
ATOM     70  C   UNL A   1      45.589  33.760  30.217  1.00  0.00     0.134 A 
ATOM     71  C   UNL A   1      44.597  34.428  28.144  1.00  0.00     0.134 A 
ATOM     72  F   UNL A   1      45.857  32.840  31.157  1.00  0.00    -0.206 F 
ATOM     73  C   UNL A   1      46.027  35.068  30.437  1.00  0.00     0.040 A 
ATOM     74  C   UNL A   1      45.055  35.733  28.338  1.00  0.00     0.040 A 
ATOM     75  F   UNL A   1      43.901  34.168  27.028  1.00  0.00    -0.206 F 
ATOM     76  C   UNL A   1      45.767  36.057  29.491  1.00  0.00     0.006 A 
ENDBRANCH  55  69
BRANCH  56  77
ATOM     77  C   UNL A   1      41.166  24.229  27.586  1.00  0.00     0.057 A 
ATOM     78  C   UNL A   1      40.151  24.024  26.646  1.00  0.00     0.134 A 
ATOM     79  C   UNL A   1      41.635  23.108  28.283  1.00  0.00     0.134 A 
ATOM     80  F   UNL A   1      39.646  25.060  25.961  1.00  0.00    -0.206 F 
ATOM     81  C   UNL A   1      39.608  22.757  26.421  1.00  0.00     0.040 A 
ATOM     82  C   UNL A   1      41.122  21.832  28.048  1.00  0.00     0.040 A 
ATOM     83  F   UNL A   1      42.612  23.235  29.194  1.00  0.00    -0.206 F 
ATOM     84  C   UNL A   1      40.099  21.656  27.120  1.00  0.00     0.006 A 
ENDBRANCH  56  77
BRANCH  68  85
ATOM     85  C   UNL A   1      47.174  27.351  25.921  1.00  0.00     0.057 A 
ATOM     86  C   UNL A   1      48.243  26.755  26.603  1.00  0.00     0.134 A 
ATOM     87  C   UNL A   1      47.271  27.446  24.526  1.00  0.00     0.134 A 
ATOM     88  F   UNL A   1      48.220  26.644  27.940  1.00  0.00    -0.206 F 
ATOM     89  C   UNL A   1      49.374  26.297  25.926  1.00  0.00     0.040 A 
ATOM     90  C   UNL A   1      48.382  26.964  23.836  1.00  0.00     0.040 A 
ATOM     91  F   UNL A   1      46.277  27.995  23.811  1.00  0.00    -0.206 F 
ATOM     92  C   UNL A   1      49.442  26.394  24.538  1.00  0.00     0.006 A 
ENDBRANCH  68  85
ENDBRANCH  42  43
ENDBRANCH  35  37
ENDBRANCH  34  35
ENDBRANCH  33  34
ENDBRANCH  32  33
ENDBRANCH  31  32
ENDBRANCH   1  31
TORSDOF 17
ENDMDL
MODEL 2
REMARK VINA RESULT:     -12.6      2.893      8.001
REMARK SMILES C[C@H](C(=O)OCCOCCOC(=O)c1ccc(-c2c3nc(c(-c4c(F)cccc4F)c4ccc([nH]4)c(-c4c(F)cccc4F)c4nc(c(-c5c(F)cccc5F)c5ccc2[nH]5)C=C4)C=C3)cc1)c1ccc2c3cc(Cl)ccc3n(C(=O)c3ccc(Cl)cc3)c2c1
REMARK SMILES IDX 7 1 6 2 5 3 3 4 4 5 2 6 1 7 68 8 69 9 90 10 70 11 89 12
REMARK SMILES IDX 71 13 79 14 72 15 78 16 73 17 77 18 74 19 76 20 75 21 80 22
REMARK SMILES IDX 81 23 82 24 83 25 88 26 84 27 87 28 85 29 86 30 8 31 9 32
REMARK SMILES IDX 10 33 11 34 12 35 13 36 14 37 15 38 67 39 16 40 66 41 17 42
REMARK SMILES IDX 18 43 19 44 60 45 20 46 65 47 59 48 61 49 21 50 64 51 58 52
REMARK SMILES IDX 57 53 22 55 48 56 31 57 47 58 32 59 35 60 46 61 62 62 33 63
REMARK SMILES IDX 34 64 45 66 63 67 36 68 23 69 24 70 29 71 25 72 26 73 28 74
REMARK SMILES IDX 30 75 27 76 49 77 50 78 55 79 51 80 52 81 54 82 56 83 53 84
REMARK SMILES IDX 37 85 38 86 43 87 39 88 40 89 42 90 44 91 41 92
REMARK H PARENT 61 54 35 65
REMARK Flexibility Score: inf
ROOT
ATOM      1  C   UNL A   1      33.410  20.268  25.664  1.00  0.00     0.202 C 
ENDROOT
BRANCH   1   2
ATOM      2  C   UNL A   1      32.602  21.553  25.894  1.00  0.00     0.261 C 
BRANCH   2   3
ATOM      3  O   UNL A   1      33.000  22.605  24.994  1.00  0.00    -0.463 OA
BRANCH   3   4
ATOM      4  C   UNL A   1      33.786  23.581  25.525  1.00  0.00     0.313 C 
ATOM      5  O   UNL A   1      34.055  23.676  26.718  1.00  0.00    -0.252 OA
BRANCH   4   6
ATOM      6  C   UNL A   1      34.415  24.496  24.483  1.00  0.00     0.126 C 
ATOM      7  C   UNL A   1      35.082  23.660  23.378  1.00  0.00     0.025 C 
BRANCH   6   8
ATOM      8  C   UNL A   1      33.595  25.650  23.921  1.00  0.00    -0.032 A 
ATOM      9  C   UNL A   1      33.319  25.851  22.567  1.00  0.00     0.005 A 
ATOM     10  C   UNL A   1      33.016  26.529  24.854  1.00  0.00     0.032 A 
ATOM     11  C   UNL A   1      32.426  26.852  22.150  1.00  0.00     0.011 A 
ATOM     12  C   UNL A   1      32.198  27.584  24.427  1.00  0.00     0.057 A 
ATOM     13  C   UNL A   1      31.824  27.702  23.101  1.00  0.00     0.008 A 
ATOM     14  N   UNL A   1      31.623  28.629  25.160  1.00  0.00    -0.276 N 
ATOM     15  C   UNL A   1      30.823  28.708  23.049  1.00  0.00     0.009 A 
ATOM     16  C   UNL A   1      30.755  29.325  24.311  1.00  0.00     0.057 A 
ATOM     17  C   UNL A   1      29.988  29.151  22.003  1.00  0.00     0.031 A 
ATOM     18  C   UNL A   1      29.977  30.484  24.490  1.00  0.00     0.029 A 
ATOM     19  C   UNL A   1      29.151  30.241  22.215  1.00  0.00     0.041 A 
ATOM     20  C   UNL A   1      29.169  30.919  23.427  1.00  0.00     0.023 A 
ATOM     21  Cl  UNL A   1      28.107  30.760  20.949  1.00  0.00    -0.084 Cl
BRANCH  14  22
ATOM     22  C   UNL A   1      32.005  28.891  26.502  1.00  0.00     0.262 C 
ATOM     23  O   UNL A   1      31.402  28.233  27.355  1.00  0.00    -0.268 OA
BRANCH  22  24
ATOM     24  C   UNL A   1      32.969  29.892  27.039  1.00  0.00     0.040 A 
ATOM     25  C   UNL A   1      32.481  31.207  27.214  1.00  0.00     0.015 A 
ATOM     26  C   UNL A   1      34.332  29.658  27.233  1.00  0.00     0.015 A 
ATOM     27  C   UNL A   1      33.322  32.256  27.587  1.00  0.00     0.021 A 
ATOM     28  C   UNL A   1      35.174  30.709  27.637  1.00  0.00     0.021 A 
ATOM     29  C   UNL A   1      34.668  32.000  27.806  1.00  0.00     0.041 A 
ATOM     30  Cl  UNL A   1      35.715  33.287  28.256  1.00  0.00    -0.084 Cl
ENDBRANCH  22  24
ENDBRANCH  14  22
ENDBRANCH   6   8
ENDBRANCH   4   6
ENDBRANCH   3   4
ENDBRANCH   2   3
ENDBRANCH   1   2
BRANCH   1  31
ATOM     31  O   UNL A   1      34.379  20.278  24.614  1.00  0.00    -0.374 OA
BRANCH  31  32
ATOM     32  C   UNL A   1      35.730  20.035  24.994  1.00  0.00     0.202 C 
BRANCH  32  33
ATOM     33  C   UNL A   1      36.494  21.145  25.720  1.00  0.00     0.261 C 
BRANCH  33  34
ATOM     34  O   UNL A   1      37.716  21.488  25.056  1.00  0.00    -0.460 OA
BRANCH  34  35
ATOM     35  C   UNL A   1      38.819  21.150  25.756  1.00  0.00     0.338 C 
ATOM     36  O   UNL A   1      39.406  20.075  25.751  1.00  0.00    -0.246 OA
BRANCH  35  37
ATOM     37  C   UNL A   1      39.359  22.333  26.438  1.00  0.00     0.060 A 
ATOM     38  C   UNL A   1      38.838  23.577  26.064  1.00  0.00     0.016 A 
ATOM     39  C   UNL A   1      40.400  22.237  27.364  1.00  0.00     0.016 A 
ATOM     40  C   UNL A   1      39.411  24.742  26.554  1.00  0.00     0.010 A 
ATOM     41  C   UNL A   1      40.978  23.411  27.854  1.00  0.00     0.010 A 
ATOM     42  C   UNL A   1      40.516  24.663  27.412  1.00  0.00    -0.014 A 
BRANCH  42  43
ATOM     43  C   UNL A   1      41.286  25.892  27.702  1.00  0.00     0.031 A 
ATOM     44  C   UNL A   1      40.643  26.972  28.525  1.00  0.00     0.074 A 
ATOM     45  C   UNL A   1      42.556  26.013  27.282  1.00  0.00     0.049 A 
ATOM     46  N   UNL A   1      41.119  28.135  28.888  1.00  0.00    -0.248 NA
ATOM     47  C   UNL A   1      39.275  26.706  29.001  1.00  0.00     0.031 C 
ATOM     48  C   UNL A   1      43.290  25.007  26.515  1.00  0.00     0.029 A 
ATOM     49  N   UNL A   1      43.451  27.038  27.442  1.00  0.00    -0.354 N 
ATOM     50  C   UNL A   1      40.111  28.739  29.629  1.00  0.00     0.074 A 
ATOM     51  C   UNL A   1      38.983  27.834  29.631  1.00  0.00     0.031 C 
ATOM     52  C   UNL A   1      44.525  25.471  26.262  1.00  0.00     0.029 A 
ATOM     53  C   UNL A   1      44.653  26.816  26.819  1.00  0.00     0.049 A 
ATOM     54  H   UNL A   1      43.251  27.855  27.953  1.00  0.00     0.167 HD
ATOM     55  C   UNL A   1      40.132  29.937  30.260  1.00  0.00     0.037 A 
ATOM     56  C   UNL A   1      45.724  27.621  26.694  1.00  0.00     0.037 A 
ATOM     57  C   UNL A   1      41.260  30.830  30.247  1.00  0.00     0.049 A 
ATOM     58  C   UNL A   1      45.696  28.980  27.341  1.00  0.00     0.074 A 
ATOM     59  C   UNL A   1      41.392  32.063  30.859  1.00  0.00     0.029 A 
ATOM     60  N   UNL A   1      42.451  30.586  29.577  1.00  0.00    -0.354 N 
ATOM     61  N   UNL A   1      44.749  29.537  28.057  1.00  0.00    -0.248 NA
ATOM     62  C   UNL A   1      46.890  29.819  27.170  1.00  0.00     0.031 C 
ATOM     63  C   UNL A   1      42.640  32.590  30.514  1.00  0.00     0.029 A 
ATOM     64  C   UNL A   1      43.313  31.658  29.739  1.00  0.00     0.049 A 
ATOM     65  H   UNL A   1      42.652  29.771  29.063  1.00  0.00     0.167 HD
ATOM     66  C   UNL A   1      45.240  30.777  28.444  1.00  0.00     0.074 A 
ATOM     67  C   UNL A   1      46.576  30.883  27.896  1.00  0.00     0.031 C 
ATOM     68  C   UNL A   1      44.642  31.741  29.187  1.00  0.00     0.037 A 
BRANCH  55  69
ATOM     69  C   UNL A   1      38.889  30.357  30.990  1.00  0.00     0.057 A 
ATOM     70  C   UNL A   1      37.893  31.132  30.380  1.00  0.00     0.134 A 
ATOM     71  C   UNL A   1      38.674  29.962  32.317  1.00  0.00     0.134 A 
ATOM     72  F   UNL A   1      38.043  31.558  29.116  1.00  0.00    -0.206 F 
ATOM     73  C   UNL A   1      36.744  31.522  31.070  1.00  0.00     0.040 A 
ATOM     74  C   UNL A   1      37.515  30.321  33.008  1.00  0.00     0.040 A 
ATOM     75  F   UNL A   1      39.583  29.217  32.962  1.00  0.00    -0.206 F 
ATOM     76  C   UNL A   1      36.548  31.109  32.387  1.00  0.00     0.006 A 
ENDBRANCH  55  69
BRANCH  56  77
ATOM     77  C   UNL A   1      46.903  27.169  25.911  1.00  0.00     0.057 A 
ATOM     78  C   UNL A   1      47.008  27.424  24.540  1.00  0.00     0.134 A 
ATOM     79  C   UNL A   1      47.949  26.464  26.518  1.00  0.00     0.134 A 
ATOM     80  F   UNL A   1      46.029  28.078  23.897  1.00  0.00    -0.206 F 
ATOM     81  C   UNL A   1      48.103  26.979  23.796  1.00  0.00     0.040 A 
ATOM     82  C   UNL A   1      49.062  26.038  25.793  1.00  0.00     0.040 A 
ATOM     83  F   UNL A   1      47.912  26.191  27.831  1.00  0.00    -0.206 F 
ATOM     84  C   UNL A   1      49.137  26.289  24.425  1.00  0.00     0.006 A 
ENDBRANCH  56  77
BRANCH  68  85
ATOM     85  C   UNL A   1      45.443  32.977  29.481  1.00  0.00     0.057 A 
ATOM     86  C   UNL A   1      46.305  33.059  30.583  1.00  0.00     0.134 A 
ATOM     87  C   UNL A   1      45.379  34.087  28.627  1.00  0.00     0.134 A 
ATOM     88  F   UNL A   1      46.403  32.037  31.446  1.00  0.00    -0.206 F 
ATOM     89  C   UNL A   1      47.053  34.209  30.838  1.00  0.00     0.040 A 
ATOM     90  C   UNL A   1      46.145  35.229  28.855  1.00  0.00     0.040 A 
ATOM     91  F   UNL A   1      44.581  34.070  27.548  1.00  0.00    -0.206 F 
ATOM     92  C   UNL A   1      46.980  35.295  29.968  1.00  0.00     0.006 A 
ENDBRANCH  68  85
ENDBRANCH  42  43
ENDBRANCH  35  37
ENDBRANCH  34  35
ENDBRANCH  33  34
ENDBRANCH  32  33
ENDBRANCH  31  32
ENDBRANCH   1  31
TORSDOF 17
ENDMDL
MODEL 3
REMARK VINA RESULT:     -12.4      4.877      9.900
REMARK SMILES C[C@H](C(=O)OCCOCCOC(=O)c1ccc(-c2c3nc(c(-c4c(F)cccc4F)c4ccc([nH]4)c(-c4c(F)cccc4F)c4nc(c(-c5c(F)cccc5F)c5ccc2[nH]5)C=C4)C=C3)cc1)c1ccc2c3cc(Cl)ccc3n(C(=O)c3ccc(Cl)cc3)c2c1
REMARK SMILES IDX 7 1 6 2 5 3 3 4 4 5 2 6 1 7 68 8 69 9 90 10 70 11 89 12
REMARK SMILES IDX 71 13 79 14 72 15 78 16 73 17 77 18 74 19 76 20 75 21 80 22
REMARK SMILES IDX 81 23 82 24 83 25 88 26 84 27 87 28 85 29 86 30 8 31 9 32
REMARK SMILES IDX 10 33 11 34 12 35 13 36 14 37 15 38 67 39 16 40 66 41 17 42
REMARK SMILES IDX 18 43 19 44 60 45 20 46 65 47 59 48 61 49 21 50 64 51 58 52
REMARK SMILES IDX 57 53 22 55 48 56 31 57 47 58 32 59 35 60 46 61 62 62 33 63
REMARK SMILES IDX 34 64 45 66 63 67 36 68 23 69 24 70 29 71 25 72 26 73 28 74
REMARK SMILES IDX 30 75 27 76 49 77 50 78 55 79 51 80 52 81 54 82 56 83 53 84
REMARK SMILES IDX 37 85 38 86 43 87 39 88 40 89 42 90 44 91 41 92
REMARK H PARENT 61 54 35 65
REMARK Flexibility Score: inf
ROOT
ATOM      1  C   UNL A   1      43.152  20.540  25.562  1.00  0.00     0.202 C 
ENDROOT
BRANCH   1   2
ATOM      2  C   UNL A   1      42.884  21.630  26.609  1.00  0.00     0.261 C 
BRANCH   2   3
ATOM      3  O   UNL A   1      41.676  22.362  26.326  1.00  0.00    -0.463 OA
BRANCH   3   4
ATOM      4  C   UNL A   1      40.672  22.235  27.236  1.00  0.00     0.313 C 
ATOM      5  O   UNL A   1      40.809  21.733  28.347  1.00  0.00    -0.252 OA
BRANCH   4   6
ATOM      6  C   UNL A   1      39.367  22.888  26.804  1.00  0.00     0.126 C 
ATOM      7  C   UNL A   1      39.652  24.212  26.074  1.00  0.00     0.025 C 
BRANCH   6   8
ATOM      8  C   UNL A   1      38.321  22.044  26.084  1.00  0.00    -0.032 A 
ATOM      9  C   UNL A   1      38.594  20.897  25.337  1.00  0.00     0.005 A 
ATOM     10  C   UNL A   1      36.977  22.420  26.258  1.00  0.00     0.032 A 
ATOM     11  C   UNL A   1      37.556  20.093  24.838  1.00  0.00     0.011 A 
ATOM     12  C   UNL A   1      35.946  21.665  25.680  1.00  0.00     0.057 A 
ATOM     13  C   UNL A   1      36.211  20.463  25.052  1.00  0.00     0.008 A 
ATOM     14  N   UNL A   1      34.570  21.916  25.628  1.00  0.00    -0.276 N 
ATOM     15  C   UNL A   1      34.955  19.851  24.799  1.00  0.00     0.009 A 
ATOM     16  C   UNL A   1      33.945  20.784  25.092  1.00  0.00     0.057 A 
ATOM     17  C   UNL A   1      34.613  18.571  24.316  1.00  0.00     0.031 A 
ATOM     18  C   UNL A   1      32.607  20.507  24.754  1.00  0.00     0.029 A 
ATOM     19  C   UNL A   1      33.277  18.271  24.072  1.00  0.00     0.041 A 
ATOM     20  C   UNL A   1      32.292  19.233  24.254  1.00  0.00     0.023 A 
ATOM     21  Cl  UNL A   1      32.855  16.698  23.515  1.00  0.00    -0.084 Cl
BRANCH  14  22
ATOM     22  C   UNL A   1      34.031  23.176  25.998  1.00  0.00     0.262 C 
ATOM     23  O   UNL A   1      33.661  23.262  27.173  1.00  0.00    -0.268 OA
BRANCH  22  24
ATOM     24  C   UNL A   1      33.776  24.385  25.164  1.00  0.00     0.040 A 
ATOM     25  C   UNL A   1      33.848  24.212  23.763  1.00  0.00     0.015 A 
ATOM     26  C   UNL A   1      33.625  25.679  25.667  1.00  0.00     0.015 A 
ATOM     27  C   UNL A   1      33.757  25.294  22.887  1.00  0.00     0.021 A 
ATOM     28  C   UNL A   1      33.503  26.765  24.783  1.00  0.00     0.021 A 
ATOM     29  C   UNL A   1      33.575  26.569  23.402  1.00  0.00     0.041 A 
ATOM     30  Cl  UNL A   1      33.469  27.911  22.331  1.00  0.00    -0.084 Cl
ENDBRANCH  22  24
ENDBRANCH  14  22
ENDBRANCH   6   8
ENDBRANCH   4   6
ENDBRANCH   3   4
ENDBRANCH   2   3
ENDBRANCH   1   2
BRANCH   1  31
ATOM     31  O   UNL A   1      44.365  20.633  24.812  1.00  0.00    -0.374 OA
BRANCH  31  32
ATOM     32  C   UNL A   1      45.161  21.793  25.033  1.00  0.00     0.202 C 
BRANCH  32  33
ATOM     33  C   UNL A   1      45.054  22.950  24.037  1.00  0.00     0.261 C 
BRANCH  33  34
ATOM     34  O   UNL A   1      44.193  23.993  24.506  1.00  0.00    -0.460 OA
BRANCH  34  35
ATOM     35  C   UNL A   1      44.856  25.025  25.070  1.00  0.00     0.338 C 
ATOM     36  O   UNL A   1      45.990  25.412  24.814  1.00  0.00    -0.246 OA
BRANCH  35  37
ATOM     37  C   UNL A   1      43.956  25.770  25.960  1.00  0.00     0.060 A 
ATOM     38  C   UNL A   1      44.117  27.159  26.010  1.00  0.00     0.016 A 
ATOM     39  C   UNL A   1      43.032  25.122  26.782  1.00  0.00     0.016 A 
ATOM     40  C   UNL A   1      43.409  27.903  26.942  1.00  0.00     0.010 A 
ATOM     41  C   UNL A   1      42.322  25.871  27.722  1.00  0.00     0.010 A 
ATOM     42  C   UNL A   1      42.546  27.255  27.836  1.00  0.00    -0.014 A 
BRANCH  42  43
ATOM     43  C   UNL A   1      42.017  28.008  28.993  1.00  0.00     0.031 A 
ATOM     44  C   UNL A   1      42.766  27.956  30.295  1.00  0.00     0.074 A 
ATOM     45  C   UNL A   1      40.917  28.768  28.865  1.00  0.00     0.049 A 
ATOM     46  N   UNL A   1      42.482  28.519  31.440  1.00  0.00    -0.248 NA
ATOM     47  C   UNL A   1      44.003  27.157  30.307  1.00  0.00     0.031 C 
ATOM     48  C   UNL A   1      40.139  28.924  27.637  1.00  0.00     0.029 A 
ATOM     49  N   UNL A   1      40.263  29.547  29.783  1.00  0.00    -0.354 N 
ATOM     50  C   UNL A   1      43.499  28.141  32.308  1.00  0.00     0.074 A 
ATOM     51  C   UNL A   1      44.386  27.268  31.570  1.00  0.00     0.031 C 
ATOM     52  C   UNL A   1      39.104  29.744  27.880  1.00  0.00     0.029 A 
ATOM     53  C   UNL A   1      39.129  30.140  29.287  1.00  0.00     0.049 A 
ATOM     54  H   UNL A   1      40.576  29.671  30.707  1.00  0.00     0.167 HD
ATOM     55  C   UNL A   1      43.682  28.500  33.601  1.00  0.00     0.037 A 
ATOM     56  C   UNL A   1      38.206  30.897  29.908  1.00  0.00     0.037 A 
ATOM     57  C   UNL A   1      42.789  29.367  34.324  1.00  0.00     0.049 A 
ATOM     58  C   UNL A   1      38.390  31.223  31.366  1.00  0.00     0.074 A 
ATOM     59  C   UNL A   1      42.883  29.804  35.634  1.00  0.00     0.029 A 
ATOM     60  N   UNL A   1      41.632  29.924  33.799  1.00  0.00    -0.354 N 
ATOM     61  N   UNL A   1      39.364  30.879  32.175  1.00  0.00    -0.248 NA
ATOM     62  C   UNL A   1      37.352  32.049  31.996  1.00  0.00     0.031 C 
ATOM     63  C   UNL A   1      41.754  30.578  35.917  1.00  0.00     0.029 A 
ATOM     64  C   UNL A   1      40.988  30.678  34.766  1.00  0.00     0.049 A 
ATOM     65  H   UNL A   1      41.316  29.801  32.875  1.00  0.00     0.167 HD
ATOM     66  C   UNL A   1      39.071  31.467  33.399  1.00  0.00     0.074 A 
ATOM     67  C   UNL A   1      37.836  32.202  33.220  1.00  0.00     0.031 C 
ATOM     68  C   UNL A   1      39.760  31.406  34.565  1.00  0.00     0.037 A 
BRANCH  55  69
ATOM     69  C   UNL A   1      44.873  27.933  34.316  1.00  0.00     0.057 A 
ATOM     70  C   UNL A   1      44.838  26.680  34.943  1.00  0.00     0.134 A 
ATOM     71  C   UNL A   1      46.081  28.641  34.361  1.00  0.00     0.134 A 
ATOM     72  F   UNL A   1      43.708  25.956  34.952  1.00  0.00    -0.206 F 
ATOM     73  C   UNL A   1      45.951  26.164  35.611  1.00  0.00     0.040 A 
ATOM     74  C   UNL A   1      47.210  28.123  35.000  1.00  0.00     0.040 A 
ATOM     75  F   UNL A   1      46.188  29.845  33.780  1.00  0.00    -0.206 F 
ATOM     76  C   UNL A   1      47.144  26.883  35.634  1.00  0.00     0.006 A 
ENDBRANCH  55  69
BRANCH  56  77
ATOM     77  C   UNL A   1      37.020  31.382  29.159  1.00  0.00     0.057 A 
ATOM     78  C   UNL A   1      36.959  32.686  28.655  1.00  0.00     0.134 A 
ATOM     79  C   UNL A   1      35.914  30.553  28.935  1.00  0.00     0.134 A 
ATOM     80  F   UNL A   1      37.978  33.535  28.853  1.00  0.00    -0.206 F 
ATOM     81  C   UNL A   1      35.834  33.154  27.971  1.00  0.00     0.040 A 
ATOM     82  C   UNL A   1      34.795  30.998  28.230  1.00  0.00     0.040 A 
ATOM     83  F   UNL A   1      35.911  29.290  29.388  1.00  0.00    -0.206 F 
ATOM     84  C   UNL A   1      34.751  32.306  27.753  1.00  0.00     0.006 A 
ENDBRANCH  56  77
BRANCH  68  85
ATOM     85  C   UNL A   1      39.215  32.185  35.727  1.00  0.00     0.057 A 
ATOM     86  C   UNL A   1      38.351  31.610  36.668  1.00  0.00     0.134 A 
ATOM     87  C   UNL A   1      39.592  33.520  35.928  1.00  0.00     0.134 A 
ATOM     88  F   UNL A   1      37.941  30.341  36.528  1.00  0.00    -0.206 F 
ATOM     89  C   UNL A   1      37.862  32.342  37.751  1.00  0.00     0.040 A 
ATOM     90  C   UNL A   1      39.134  34.252  37.023  1.00  0.00     0.040 A 
ATOM     91  F   UNL A   1      40.426  34.128  35.070  1.00  0.00    -0.206 F 
ATOM     92  C   UNL A   1      38.260  33.665  37.935  1.00  0.00     0.006 A 
ENDBRANCH  68  85
ENDBRANCH  42  43
ENDBRANCH  35  37
ENDBRANCH  34  35
ENDBRANCH  33  34
ENDBRANCH  32  33
ENDBRANCH  31  32
ENDBRANCH   1  31
TORSDOF 17
ENDMDL
