MODEL 1
REMARK VINA RESULT:     -10.9      0.000      0.000
REMARK SMILES O=C(C[NH+]1CC[NH+](Cc2cc(Cl)ccc2[N+](=O)[O-])CC1)OCCOCCOC(=O)c1ccc(-c2c3nc(c(-c4c(F)cccc4F)c4ccc([nH]4)c(-c4c(F)cccc4F)c4nc(c(-c5c(F)cccc5F)c5ccc2[nH]5)C=C4)C=C3)cc1
REMARK SMILES IDX 23 1 22 2 21 3 2 4 1 5 3 6 4 7 5 8 20 9 6 11 19 12 7 13 8 15
REMARK SMILES IDX 9 16 10 17 15 18 11 19 14 20 12 21 13 22 16 23 17 24 18 25
REMARK SMILES IDX 24 26 25 27 26 28 27 29 28 30 29 31 30 32 31 33 83 34 32 35
REMARK SMILES IDX 82 36 33 37 34 38 35 39 76 40 36 41 81 42 75 43 77 44 37 45
REMARK SMILES IDX 80 46 74 47 73 48 38 50 64 51 47 52 63 53 48 54 51 55 62 56
REMARK SMILES IDX 78 57 49 58 50 59 61 61 79 62 52 63 39 64 40 65 45 66 41 67
REMARK SMILES IDX 42 68 44 69 46 70 43 71 65 72 66 73 71 74 67 75 68 76 70 77
REMARK SMILES IDX 72 78 69 79 53 80 54 81 59 82 55 83 56 84 58 85 60 86 57 87
REMARK H PARENT 4 10 7 14 77 49 51 60
REMARK Flexibility Score: inf
ROOT
ATOM      1  C   UNL A   1      40.356  21.347  26.707  1.00  0.00     0.202 C 
ENDROOT
BRANCH   1   2
ATOM      2  C   UNL A   1      39.104  22.146  26.297  1.00  0.00     0.261 C 
BRANCH   2   3
ATOM      3  O   UNL A   1      38.217  21.707  25.239  1.00  0.00    -0.459 OA
BRANCH   3   4
ATOM      4  C   UNL A   1      37.563  20.552  25.001  1.00  0.00     0.361 C 
ATOM      5  O   UNL A   1      38.190  19.494  24.998  1.00  0.00    -0.245 OA
BRANCH   4   6
ATOM      6  C   UNL A   1      36.086  20.578  24.687  1.00  0.00     0.386 C 
BRANCH   6   7
ATOM      7  N   UNL A   1      35.380  21.805  25.051  1.00  0.00    -0.316 N 
ATOM      8  C   UNL A   1      35.722  22.990  24.255  1.00  0.00     0.325 C 
ATOM      9  C   UNL A   1      33.947  21.652  25.246  1.00  0.00     0.325 C 
ATOM     10  H   UNL A   1      35.760  22.000  25.977  1.00  0.00     0.348 HD
ATOM     11  C   UNL A   1      34.727  23.409  23.142  1.00  0.00     0.324 C 
ATOM     12  C   UNL A   1      33.061  21.917  24.011  1.00  0.00     0.324 C 
ATOM     13  N   UNL A   1      33.293  23.232  23.422  1.00  0.00    -0.322 N 
ATOM     14  H   UNL A   1      32.820  23.249  22.519  1.00  0.00     0.348 HD
BRANCH  13  15
ATOM     15  C   UNL A   1      32.573  24.364  24.030  1.00  0.00     0.306 C 
BRANCH  15  16
ATOM     16  C   UNL A   1      33.148  25.755  23.798  1.00  0.00     0.085 A 
ATOM     17  C   UNL A   1      33.670  26.405  24.943  1.00  0.00     0.037 A 
ATOM     18  C   UNL A   1      33.027  26.524  22.609  1.00  0.00     0.278 A 
ATOM     19  C   UNL A   1      33.907  27.781  24.958  1.00  0.00     0.042 A 
ATOM     20  C   UNL A   1      33.294  27.913  22.635  1.00  0.00     0.088 A 
ATOM     21  Cl  UNL A   1      34.358  28.551  26.427  1.00  0.00    -0.084 Cl
ATOM     22  C   UNL A   1      33.699  28.541  23.814  1.00  0.00     0.027 A 
BRANCH  18  23
ATOM     23  N   UNL A   1      32.537  25.979  21.323  1.00  0.00     0.063 N 
ATOM     24  O   UNL A   1      33.278  25.185  20.722  1.00  0.00    -0.258 OA
ATOM     25  O   UNL A   1      31.426  26.322  20.909  1.00  0.00    -0.258 OA
ENDBRANCH  18  23
ENDBRANCH  15  16
ENDBRANCH  13  15
ENDBRANCH   6   7
ENDBRANCH   4   6
ENDBRANCH   3   4
ENDBRANCH   2   3
ENDBRANCH   1   2
BRANCH   1  26
ATOM     26  O   UNL A   1      41.230  20.755  25.760  1.00  0.00    -0.374 OA
BRANCH  26  27
ATOM     27  C   UNL A   1      42.524  20.326  26.134  1.00  0.00     0.202 C 
BRANCH  27  28
ATOM     28  C   UNL A   1      43.680  21.241  25.746  1.00  0.00     0.261 C 
BRANCH  28  29
ATOM     29  O   UNL A   1      43.678  22.482  26.456  1.00  0.00    -0.460 OA
BRANCH  29  30
ATOM     30  C   UNL A   1      43.414  23.578  25.706  1.00  0.00     0.338 C 
ATOM     31  O   UNL A   1      43.440  23.675  24.490  1.00  0.00    -0.246 OA
BRANCH  30  32
ATOM     32  C   UNL A   1      42.923  24.643  26.596  1.00  0.00     0.060 A 
ATOM     33  C   UNL A   1      43.518  25.911  26.529  1.00  0.00     0.016 A 
ATOM     34  C   UNL A   1      41.884  24.388  27.494  1.00  0.00     0.016 A 
ATOM     35  C   UNL A   1      43.081  26.929  27.373  1.00  0.00     0.010 A 
ATOM     36  C   UNL A   1      41.463  25.399  28.353  1.00  0.00     0.010 A 
ATOM     37  C   UNL A   1      42.074  26.664  28.309  1.00  0.00    -0.014 A 
BRANCH  37  38
ATOM     38  C   UNL A   1      41.741  27.655  29.353  1.00  0.00     0.031 A 
ATOM     39  C   UNL A   1      42.466  27.580  30.663  1.00  0.00     0.074 A 
ATOM     40  C   UNL A   1      40.772  28.563  29.144  1.00  0.00     0.049 A 
ATOM     41  N   UNL A   1      42.236  28.225  31.776  1.00  0.00    -0.248 NA
ATOM     42  C   UNL A   1      43.600  26.640  30.733  1.00  0.00     0.031 C 
ATOM     43  C   UNL A   1      40.033  28.741  27.893  1.00  0.00     0.029 A 
ATOM     44  N   UNL A   1      40.220  29.486  29.995  1.00  0.00    -0.354 N 
ATOM     45  C   UNL A   1      43.179  27.757  32.682  1.00  0.00     0.074 A 
ATOM     46  C   UNL A   1      43.979  26.767  31.996  1.00  0.00     0.031 C 
ATOM     47  C   UNL A   1      39.098  29.689  28.072  1.00  0.00     0.029 A 
ATOM     48  C   UNL A   1      39.144  30.149  29.457  1.00  0.00     0.049 A 
ATOM     49  H   UNL A   1      40.563  29.656  30.903  1.00  0.00     0.167 HD
ATOM     50  C   UNL A   1      43.351  28.123  33.971  1.00  0.00     0.037 A 
ATOM     51  C   UNL A   1      38.268  30.990  30.041  1.00  0.00     0.037 A 
ATOM     52  C   UNL A   1      42.548  29.115  34.634  1.00  0.00     0.049 A 
ATOM     53  C   UNL A   1      38.441  31.322  31.501  1.00  0.00     0.074 A 
ATOM     54  C   UNL A   1      42.670  29.598  35.924  1.00  0.00     0.029 A 
ATOM     55  N   UNL A   1      41.464  29.762  34.062  1.00  0.00    -0.354 N 
ATOM     56  N   UNL A   1      39.367  30.919  32.339  1.00  0.00    -0.248 NA
ATOM     57  C   UNL A   1      37.445  32.223  32.099  1.00  0.00     0.031 C 
ATOM     58  C   UNL A   1      41.619  30.490  36.154  1.00  0.00     0.029 A 
ATOM     59  C   UNL A   1      40.880  30.608  34.987  1.00  0.00     0.049 A 
ATOM     60  H   UNL A   1      41.156  29.639  33.135  1.00  0.00     0.167 HD
ATOM     61  C   UNL A   1      39.077  31.531  33.552  1.00  0.00     0.074 A 
ATOM     62  C   UNL A   1      37.905  32.353  33.336  1.00  0.00     0.031 C 
ATOM     63  C   UNL A   1      39.717  31.421  34.743  1.00  0.00     0.037 A 
BRANCH  50  64
ATOM     64  C   UNL A   1      44.419  27.435  34.766  1.00  0.00     0.057 A 
ATOM     65  C   UNL A   1      44.204  26.201  35.390  1.00  0.00     0.134 A 
ATOM     66  C   UNL A   1      45.707  27.982  34.840  1.00  0.00     0.134 A 
ATOM     67  F   UNL A   1      42.989  25.631  35.371  1.00  0.00    -0.206 F 
ATOM     68  C   UNL A   1      45.231  25.535  36.062  1.00  0.00     0.040 A 
ATOM     69  C   UNL A   1      46.747  27.316  35.488  1.00  0.00     0.040 A 
ATOM     70  F   UNL A   1      45.979  29.163  34.264  1.00  0.00    -0.206 F 
ATOM     71  C   UNL A   1      46.511  26.087  36.101  1.00  0.00     0.006 A 
ENDBRANCH  50  64
BRANCH  51  72
ATOM     72  C   UNL A   1      37.115  31.532  29.274  1.00  0.00     0.057 A 
ATOM     73  C   UNL A   1      37.131  32.832  28.756  1.00  0.00     0.134 A 
ATOM     74  C   UNL A   1      35.946  30.782  29.090  1.00  0.00     0.134 A 
ATOM     75  F   UNL A   1      38.211  33.611  28.920  1.00  0.00    -0.206 F 
ATOM     76  C   UNL A   1      36.017  33.378  28.115  1.00  0.00     0.040 A 
ATOM     77  C   UNL A   1      34.837  31.304  28.421  1.00  0.00     0.040 A 
ATOM     78  F   UNL A   1      35.863  29.528  29.561  1.00  0.00    -0.206 F 
ATOM     79  C   UNL A   1      34.867  32.611  27.943  1.00  0.00     0.006 A 
ENDBRANCH  51  72
BRANCH  63  80
ATOM     80  C   UNL A   1      39.179  32.224  35.891  1.00  0.00     0.057 A 
ATOM     81  C   UNL A   1      39.569  33.551  36.109  1.00  0.00     0.134 A 
ATOM     82  C   UNL A   1      38.216  31.682  36.750  1.00  0.00     0.134 A 
ATOM     83  F   UNL A   1      40.495  34.125  35.327  1.00  0.00    -0.206 F 
ATOM     84  C   UNL A   1      39.035  34.304  37.156  1.00  0.00     0.040 A 
ATOM     85  C   UNL A   1      37.651  32.434  37.781  1.00  0.00     0.040 A 
ATOM     86  F   UNL A   1      37.789  30.420  36.588  1.00  0.00    -0.206 F 
ATOM     87  C   UNL A   1      38.065  33.748  37.989  1.00  0.00     0.006 A 
ENDBRANCH  63  80
ENDBRANCH  37  38
ENDBRANCH  30  32
ENDBRANCH  29  30
ENDBRANCH  28  29
ENDBRANCH  27  28
ENDBRANCH  26  27
ENDBRANCH   1  26
TORSDOF 18
ENDMDL
MODEL 2
REMARK VINA RESULT:     -10.8      1.663      2.293
REMARK SMILES O=C(C[NH+]1CC[NH+](Cc2cc(Cl)ccc2[N+](=O)[O-])CC1)OCCOCCOC(=O)c1ccc(-c2c3nc(c(-c4c(F)cccc4F)c4ccc([nH]4)c(-c4c(F)cccc4F)c4nc(c(-c5c(F)cccc5F)c5ccc2[nH]5)C=C4)C=C3)cc1
REMARK SMILES IDX 23 1 22 2 21 3 2 4 1 5 3 6 4 7 5 8 20 9 6 11 19 12 7 13 8 15
REMARK SMILES IDX 9 16 10 17 15 18 11 19 14 20 12 21 13 22 16 23 17 24 18 25
REMARK SMILES IDX 24 26 25 27 26 28 27 29 28 30 29 31 30 32 31 33 83 34 32 35
REMARK SMILES IDX 82 36 33 37 34 38 35 39 76 40 36 41 81 42 75 43 77 44 37 45
REMARK SMILES IDX 80 46 74 47 73 48 38 50 64 51 47 52 63 53 48 54 51 55 62 56
REMARK SMILES IDX 78 57 49 58 50 59 61 61 79 62 52 63 39 64 40 65 45 66 41 67
REMARK SMILES IDX 42 68 44 69 46 70 43 71 65 72 66 73 71 74 67 75 68 76 70 77
REMARK SMILES IDX 72 78 69 79 53 80 54 81 59 82 55 83 56 84 58 85 60 86 57 87
REMARK H PARENT 4 10 7 14 77 49 51 60
REMARK Flexibility Score: inf
ROOT
ATOM      1  C   UNL A   1      42.336  19.237  26.256  1.00  0.00     0.202 C 
ENDROOT
BRANCH   1   2
ATOM      2  C   UNL A   1      40.845  19.601  26.126  1.00  0.00     0.261 C 
BRANCH   2   3
ATOM      3  O   UNL A   1      40.402  20.939  25.789  1.00  0.00    -0.459 OA
BRANCH   3   4
ATOM      4  C   UNL A   1      39.316  21.664  26.125  1.00  0.00     0.361 C 
ATOM      5  O   UNL A   1      39.395  22.475  27.047  1.00  0.00    -0.245 OA
BRANCH   4   6
ATOM      6  C   UNL A   1      38.007  21.432  25.407  1.00  0.00     0.386 C 
BRANCH   6   7
ATOM      7  N   UNL A   1      36.867  22.204  25.900  1.00  0.00    -0.316 N 
ATOM      8  C   UNL A   1      36.735  23.558  25.349  1.00  0.00     0.325 C 
ATOM      9  C   UNL A   1      35.605  21.481  25.927  1.00  0.00     0.325 C 
ATOM     10  H   UNL A   1      37.117  22.348  26.878  1.00  0.00     0.348 HD
ATOM     11  C   UNL A   1      35.683  23.770  24.230  1.00  0.00     0.324 C 
ATOM     12  C   UNL A   1      34.717  21.619  24.673  1.00  0.00     0.324 C 
ATOM     13  N   UNL A   1      34.428  23.009  24.336  1.00  0.00    -0.322 N 
ATOM     14  H   UNL A   1      34.008  23.017  23.407  1.00  0.00     0.348 HD
BRANCH  13  15
ATOM     15  C   UNL A   1      33.307  23.642  25.051  1.00  0.00     0.306 C 
BRANCH  15  16
ATOM     16  C   UNL A   1      32.363  24.510  24.229  1.00  0.00     0.085 A 
ATOM     17  C   UNL A   1      32.593  24.517  22.831  1.00  0.00     0.037 A 
ATOM     18  C   UNL A   1      31.427  25.449  24.741  1.00  0.00     0.278 A 
ATOM     19  C   UNL A   1      32.051  25.504  22.006  1.00  0.00     0.042 A 
ATOM     20  C   UNL A   1      30.868  26.428  23.887  1.00  0.00     0.088 A 
ATOM     21  Cl  UNL A   1      32.514  25.581  20.352  1.00  0.00    -0.084 Cl
ATOM     22  C   UNL A   1      31.207  26.473  22.534  1.00  0.00     0.027 A 
BRANCH  18  23
ATOM     23  N   UNL A   1      31.050  25.538  26.170  1.00  0.00     0.063 N 
ATOM     24  O   UNL A   1      30.090  24.850  26.550  1.00  0.00    -0.258 OA
ATOM     25  O   UNL A   1      31.700  26.275  26.917  1.00  0.00    -0.258 OA
ENDBRANCH  18  23
ENDBRANCH  15  16
ENDBRANCH  13  15
ENDBRANCH   6   7
ENDBRANCH   4   6
ENDBRANCH   3   4
ENDBRANCH   2   3
ENDBRANCH   1   2
BRANCH   1  26
ATOM     26  O   UNL A   1      43.238  19.301  25.163  1.00  0.00    -0.374 OA
BRANCH  26  27
ATOM     27  C   UNL A   1      43.997  20.467  24.914  1.00  0.00     0.202 C 
BRANCH  27  28
ATOM     28  C   UNL A   1      43.886  21.581  25.948  1.00  0.00     0.261 C 
BRANCH  28  29
ATOM     29  O   UNL A   1      43.035  22.653  25.532  1.00  0.00    -0.460 OA
BRANCH  29  30
ATOM     30  C   UNL A   1      43.661  23.829  25.289  1.00  0.00     0.338 C 
ATOM     31  O   UNL A   1      44.445  24.085  24.390  1.00  0.00    -0.246 OA
BRANCH  30  32
ATOM     32  C   UNL A   1      43.122  24.842  26.212  1.00  0.00     0.060 A 
ATOM     33  C   UNL A   1      43.633  26.146  26.159  1.00  0.00     0.016 A 
ATOM     34  C   UNL A   1      42.123  24.502  27.126  1.00  0.00     0.016 A 
ATOM     35  C   UNL A   1      43.151  27.116  27.034  1.00  0.00     0.010 A 
ATOM     36  C   UNL A   1      41.657  25.467  28.015  1.00  0.00     0.010 A 
ATOM     37  C   UNL A   1      42.184  26.769  27.984  1.00  0.00    -0.014 A 
BRANCH  37  38
ATOM     38  C   UNL A   1      41.812  27.716  29.056  1.00  0.00     0.031 A 
ATOM     39  C   UNL A   1      42.538  27.629  30.366  1.00  0.00     0.074 A 
ATOM     40  C   UNL A   1      40.810  28.592  28.871  1.00  0.00     0.049 A 
ATOM     41  N   UNL A   1      42.281  28.232  31.496  1.00  0.00    -0.248 NA
ATOM     42  C   UNL A   1      43.706  26.731  30.411  1.00  0.00     0.031 C 
ATOM     43  C   UNL A   1      40.068  28.778  27.624  1.00  0.00     0.029 A 
ATOM     44  N   UNL A   1      40.222  29.468  29.748  1.00  0.00    -0.354 N 
ATOM     45  C   UNL A   1      43.239  27.774  32.391  1.00  0.00     0.074 A 
ATOM     46  C   UNL A   1      44.078  26.835  31.679  1.00  0.00     0.031 C 
ATOM     47  C   UNL A   1      39.097  29.685  27.828  1.00  0.00     0.029 A 
ATOM     48  C   UNL A   1      39.123  30.105  29.226  1.00  0.00     0.049 A 
ATOM     49  H   UNL A   1      40.557  29.624  30.661  1.00  0.00     0.167 HD
ATOM     50  C   UNL A   1      43.395  28.108  33.691  1.00  0.00     0.037 A 
ATOM     51  C   UNL A   1      38.215  30.895  29.832  1.00  0.00     0.037 A 
ATOM     52  C   UNL A   1      42.554  29.049  34.380  1.00  0.00     0.049 A 
ATOM     53  C   UNL A   1      38.372  31.191  31.301  1.00  0.00     0.074 A 
ATOM     54  C   UNL A   1      42.656  29.498  35.685  1.00  0.00     0.029 A 
ATOM     55  N   UNL A   1      41.448  29.671  33.824  1.00  0.00    -0.354 N 
ATOM     56  N   UNL A   1      39.311  30.797  32.130  1.00  0.00    -0.248 NA
ATOM     57  C   UNL A   1      37.342  32.035  31.923  1.00  0.00     0.031 C 
ATOM     58  C   UNL A   1      41.571  30.342  35.937  1.00  0.00     0.029 A 
ATOM     59  C   UNL A   1      40.830  30.467  34.773  1.00  0.00     0.049 A 
ATOM     60  H   UNL A   1      41.146  29.563  32.893  1.00  0.00     0.167 HD
ATOM     61  C   UNL A   1      38.996  31.363  33.360  1.00  0.00     0.074 A 
ATOM     62  C   UNL A   1      37.794  32.145  33.164  1.00  0.00     0.031 C 
ATOM     63  C   UNL A   1      39.638  31.242  34.549  1.00  0.00     0.037 A 
BRANCH  50  64
ATOM     64  C   UNL A   1      44.487  27.437  34.469  1.00  0.00     0.057 A 
ATOM     65  C   UNL A   1      45.766  27.995  34.587  1.00  0.00     0.134 A 
ATOM     66  C   UNL A   1      44.229  26.255  35.174  1.00  0.00     0.134 A 
ATOM     67  F   UNL A   1      46.083  29.117  33.924  1.00  0.00    -0.206 F 
ATOM     68  C   UNL A   1      46.750  27.398  35.378  1.00  0.00     0.040 A 
ATOM     69  C   UNL A   1      45.196  25.662  35.986  1.00  0.00     0.040 A 
ATOM     70  F   UNL A   1      43.023  25.669  35.102  1.00  0.00    -0.206 F 
ATOM     71  C   UNL A   1      46.461  26.235  36.090  1.00  0.00     0.006 A 
ENDBRANCH  50  64
BRANCH  51  72
ATOM     72  C   UNL A   1      37.043  31.415  29.078  1.00  0.00     0.057 A 
ATOM     73  C   UNL A   1      36.995  32.740  28.629  1.00  0.00     0.134 A 
ATOM     74  C   UNL A   1      35.918  30.616  28.838  1.00  0.00     0.134 A 
ATOM     75  F   UNL A   1      38.031  33.565  28.849  1.00  0.00    -0.206 F 
ATOM     76  C   UNL A   1      35.862  33.260  28.001  1.00  0.00     0.040 A 
ATOM     77  C   UNL A   1      34.790  31.113  28.182  1.00  0.00     0.040 A 
ATOM     78  F   UNL A   1      35.896  29.336  29.242  1.00  0.00    -0.206 F 
ATOM     79  C   UNL A   1      34.756  32.444  27.773  1.00  0.00     0.006 A 
ENDBRANCH  51  72
BRANCH  63  80
ATOM     80  C   UNL A   1      39.067  31.990  35.718  1.00  0.00     0.057 A 
ATOM     81  C   UNL A   1      38.188  31.382  36.623  1.00  0.00     0.134 A 
ATOM     82  C   UNL A   1      39.447  33.313  35.972  1.00  0.00     0.134 A 
ATOM     83  F   UNL A   1      37.777  30.120  36.429  1.00  0.00    -0.206 F 
ATOM     84  C   UNL A   1      37.691  32.072  37.730  1.00  0.00     0.040 A 
ATOM     85  C   UNL A   1      38.982  34.003  37.093  1.00  0.00     0.040 A 
ATOM     86  F   UNL A   1      40.297  33.949  35.151  1.00  0.00    -0.206 F 
ATOM     87  C   UNL A   1      38.097  33.384  37.972  1.00  0.00     0.006 A 
ENDBRANCH  63  80
ENDBRANCH  37  38
ENDBRANCH  30  32
ENDBRANCH  29  30
ENDBRANCH  28  29
ENDBRANCH  27  28
ENDBRANCH  26  27
ENDBRANCH   1  26
TORSDOF 18
ENDMDL
MODEL 3
REMARK VINA RESULT:     -10.7      5.300     10.297
REMARK SMILES O=C(C[NH+]1CC[NH+](Cc2cc(Cl)ccc2[N+](=O)[O-])CC1)OCCOCCOC(=O)c1ccc(-c2c3nc(c(-c4c(F)cccc4F)c4ccc([nH]4)c(-c4c(F)cccc4F)c4nc(c(-c5c(F)cccc5F)c5ccc2[nH]5)C=C4)C=C3)cc1
REMARK SMILES IDX 23 1 22 2 21 3 2 4 1 5 3 6 4 7 5 8 20 9 6 11 19 12 7 13 8 15
REMARK SMILES IDX 9 16 10 17 15 18 11 19 14 20 12 21 13 22 16 23 17 24 18 25
REMARK SMILES IDX 24 26 25 27 26 28 27 29 28 30 29 31 30 32 31 33 83 34 32 35
REMARK SMILES IDX 82 36 33 37 34 38 35 39 76 40 36 41 81 42 75 43 77 44 37 45
REMARK SMILES IDX 80 46 74 47 73 48 38 50 64 51 47 52 63 53 48 54 51 55 62 56
REMARK SMILES IDX 78 57 49 58 50 59 61 61 79 62 52 63 39 64 40 65 45 66 41 67
REMARK SMILES IDX 42 68 44 69 46 70 43 71 65 72 66 73 71 74 67 75 68 76 70 77
REMARK SMILES IDX 72 78 69 79 53 80 54 81 59 82 55 83 56 84 58 85 60 86 57 87
REMARK H PARENT 4 10 7 14 77 49 51 60
REMARK Flexibility Score: inf
ROOT
ATOM      1  C   UNL A   1      32.932  35.763  30.367  1.00  0.00     0.202 C 
ENDROOT
BRANCH   1   2
ATOM      2  C   UNL A   1      33.576  35.222  29.077  1.00  0.00     0.261 C 
BRANCH   2   3
ATOM      3  O   UNL A   1      33.449  33.837  28.671  1.00  0.00    -0.459 OA
BRANCH   3   4
ATOM      4  C   UNL A   1      34.305  32.955  28.116  1.00  0.00     0.361 C 
ATOM      5  O   UNL A   1      35.309  33.371  27.540  1.00  0.00    -0.245 OA
BRANCH   4   6
ATOM      6  C   UNL A   1      33.992  31.478  28.159  1.00  0.00     0.386 C 
BRANCH   6   7
ATOM      7  N   UNL A   1      33.959  30.798  26.865  1.00  0.00    -0.316 N 
ATOM      8  C   UNL A   1      34.557  29.458  26.840  1.00  0.00     0.325 C 
ATOM      9  C   UNL A   1      32.680  30.856  26.175  1.00  0.00     0.325 C 
ATOM     10  H   UNL A   1      34.592  31.372  26.309  1.00  0.00     0.348 HD
ATOM     11  C   UNL A   1      33.589  28.247  26.874  1.00  0.00     0.324 C 
ATOM     12  C   UNL A   1      31.716  29.679  26.431  1.00  0.00     0.324 C 
ATOM     13  N   UNL A   1      32.320  28.383  26.142  1.00  0.00    -0.322 N 
ATOM     14  H   UNL A   1      31.696  27.666  26.514  1.00  0.00     0.348 HD
BRANCH  13  15
ATOM     15  C   UNL A   1      32.293  27.941  24.737  1.00  0.00     0.306 C 
BRANCH  15  16
ATOM     16  C   UNL A   1      30.939  27.544  24.162  1.00  0.00     0.085 A 
ATOM     17  C   UNL A   1      30.305  28.517  23.352  1.00  0.00     0.037 A 
ATOM     18  C   UNL A   1      30.180  26.398  24.520  1.00  0.00     0.278 A 
ATOM     19  C   UNL A   1      28.945  28.441  23.047  1.00  0.00     0.042 A 
ATOM     20  C   UNL A   1      28.808  26.325  24.183  1.00  0.00     0.088 A 
ATOM     21  Cl  UNL A   1      28.182  29.743  22.223  1.00  0.00    -0.084 Cl
ATOM     22  C   UNL A   1      28.189  27.359  23.479  1.00  0.00     0.027 A 
BRANCH  18  23
ATOM     23  N   UNL A   1      30.713  25.277  25.327  1.00  0.00     0.063 N 
ATOM     24  O   UNL A   1      30.393  25.236  26.526  1.00  0.00    -0.258 OA
ATOM     25  O   UNL A   1      31.437  24.437  24.786  1.00  0.00    -0.258 OA
ENDBRANCH  18  23
ENDBRANCH  15  16
ENDBRANCH  13  15
ENDBRANCH   6   7
ENDBRANCH   4   6
ENDBRANCH   3   4
ENDBRANCH   2   3
ENDBRANCH   1   2
BRANCH   1  26
ATOM     26  O   UNL A   1      33.696  36.207  31.477  1.00  0.00    -0.374 OA
BRANCH  26  27
ATOM     27  C   UNL A   1      34.058  35.316  32.513  1.00  0.00     0.202 C 
BRANCH  27  28
ATOM     28  C   UNL A   1      35.523  34.902  32.570  1.00  0.00     0.261 C 
BRANCH  28  29
ATOM     29  O   UNL A   1      35.906  34.037  31.497  1.00  0.00    -0.460 OA
BRANCH  29  30
ATOM     30  C   UNL A   1      35.638  32.724  31.689  1.00  0.00     0.338 C 
ATOM     31  O   UNL A   1      34.592  32.223  32.071  1.00  0.00    -0.246 OA
BRANCH  30  32
ATOM     32  C   UNL A   1      36.785  31.939  31.205  1.00  0.00     0.060 A 
ATOM     33  C   UNL A   1      37.679  31.397  32.139  1.00  0.00     0.016 A 
ATOM     34  C   UNL A   1      36.979  31.745  29.835  1.00  0.00     0.016 A 
ATOM     35  C   UNL A   1      38.781  30.666  31.704  1.00  0.00     0.010 A 
ATOM     36  C   UNL A   1      38.093  31.033  29.400  1.00  0.00     0.010 A 
ATOM     37  C   UNL A   1      39.006  30.510  30.332  1.00  0.00    -0.014 A 
BRANCH  37  38
ATOM     38  C   UNL A   1      40.272  29.926  29.841  1.00  0.00     0.031 A 
ATOM     39  C   UNL A   1      41.443  30.839  29.634  1.00  0.00     0.074 A 
ATOM     40  C   UNL A   1      40.345  28.618  29.539  1.00  0.00     0.049 A 
ATOM     41  N   UNL A   1      42.593  30.594  29.063  1.00  0.00    -0.248 NA
ATOM     42  C   UNL A   1      41.295  32.220  30.126  1.00  0.00     0.031 C 
ATOM     43  C   UNL A   1      39.273  27.642  29.739  1.00  0.00     0.029 A 
ATOM     44  N   UNL A   1      41.359  27.894  28.967  1.00  0.00    -0.354 N 
ATOM     45  C   UNL A   1      43.296  31.791  29.109  1.00  0.00     0.074 A 
ATOM     46  C   UNL A   1      42.444  32.765  29.754  1.00  0.00     0.031 C 
ATOM     47  C   UNL A   1      39.675  26.452  29.260  1.00  0.00     0.029 A 
ATOM     48  C   UNL A   1      41.009  26.596  28.683  1.00  0.00     0.049 A 
ATOM     49  H   UNL A   1      42.251  28.268  28.779  1.00  0.00     0.167 HD
ATOM     50  C   UNL A   1      44.540  32.046  28.648  1.00  0.00     0.037 A 
ATOM     51  C   UNL A   1      41.674  25.655  27.986  1.00  0.00     0.037 A 
ATOM     52  C   UNL A   1      45.376  31.061  28.015  1.00  0.00     0.049 A 
ATOM     53  C   UNL A   1      43.030  25.992  27.419  1.00  0.00     0.074 A 
ATOM     54  C   UNL A   1      46.673  31.201  27.556  1.00  0.00     0.029 A 
ATOM     55  N   UNL A   1      44.988  29.760  27.738  1.00  0.00    -0.354 N 
ATOM     56  N   UNL A   1      43.713  27.109  27.512  1.00  0.00    -0.248 NA
ATOM     57  C   UNL A   1      43.706  24.941  26.645  1.00  0.00     0.031 C 
ATOM     58  C   UNL A   1      47.046  30.002  26.942  1.00  0.00     0.029 A 
ATOM     59  C   UNL A   1      46.004  29.098  27.074  1.00  0.00     0.049 A 
ATOM     60  H   UNL A   1      44.118  29.365  27.979  1.00  0.00     0.167 HD
ATOM     61  C   UNL A   1      44.903  26.887  26.830  1.00  0.00     0.074 A 
ATOM     62  C   UNL A   1      44.860  25.522  26.349  1.00  0.00     0.031 C 
ATOM     63  C   UNL A   1      45.938  27.736  26.612  1.00  0.00     0.037 A 
BRANCH  50  64
ATOM     64  C   UNL A   1      45.070  33.443  28.775  1.00  0.00     0.057 A 
ATOM     65  C   UNL A   1      45.736  33.884  29.924  1.00  0.00     0.134 A 
ATOM     66  C   UNL A   1      44.979  34.333  27.697  1.00  0.00     0.134 A 
ATOM     67  F   UNL A   1      45.843  33.087  30.998  1.00  0.00    -0.206 F 
ATOM     68  C   UNL A   1      46.291  35.163  29.998  1.00  0.00     0.040 A 
ATOM     69  C   UNL A   1      45.551  35.604  27.749  1.00  0.00     0.040 A 
ATOM     70  F   UNL A   1      44.352  33.972  26.566  1.00  0.00    -0.206 F 
ATOM     71  C   UNL A   1      46.210  36.023  28.903  1.00  0.00     0.006 A 
ENDBRANCH  50  64
BRANCH  51  72
ATOM     72  C   UNL A   1      41.057  24.327  27.729  1.00  0.00     0.057 A 
ATOM     73  C   UNL A   1      41.552  23.164  28.332  1.00  0.00     0.134 A 
ATOM     74  C   UNL A   1      39.993  24.180  26.831  1.00  0.00     0.134 A 
ATOM     75  F   UNL A   1      42.587  23.233  29.183  1.00  0.00    -0.206 F 
ATOM     76  C   UNL A   1      41.036  21.903  28.025  1.00  0.00     0.040 A 
ATOM     77  C   UNL A   1      39.445  22.929  26.539  1.00  0.00     0.040 A 
ATOM     78  F   UNL A   1      39.470  25.253  26.217  1.00  0.00    -0.206 F 
ATOM     79  C   UNL A   1      39.976  21.784  27.128  1.00  0.00     0.006 A 
ENDBRANCH  51  72
BRANCH  63  80
ATOM     80  C   UNL A   1      47.113  27.206  25.844  1.00  0.00     0.057 A 
ATOM     81  C   UNL A   1      47.306  27.510  24.490  1.00  0.00     0.134 A 
ATOM     82  C   UNL A   1      48.090  26.431  26.480  1.00  0.00     0.134 A 
ATOM     83  F   UNL A   1      46.401  28.239  23.821  1.00  0.00    -0.206 F 
ATOM     84  C   UNL A   1      48.422  27.045  23.792  1.00  0.00     0.040 A 
ATOM     85  C   UNL A   1      49.226  25.987  25.801  1.00  0.00     0.040 A 
ATOM     86  F   UNL A   1      47.972  26.114  27.779  1.00  0.00    -0.206 F 
ATOM     87  C   UNL A   1      49.390  26.289  24.451  1.00  0.00     0.006 A 
ENDBRANCH  63  80
ENDBRANCH  37  38
ENDBRANCH  30  32
ENDBRANCH  29  30
ENDBRANCH  28  29
ENDBRANCH  27  28
ENDBRANCH  26  27
ENDBRANCH   1  26
TORSDOF 18
ENDMDL
