MODEL 1
REMARK VINA RESULT:     -11.6      0.000      0.000
REMARK SMILES Cc1nn(C(C)C)c(C)c1S(=O)(=O)Nc1cccc(C(=O)OCCOCCOC(=O)c2ccc(-c3c4nc(c(-c5c(F)cccc5F)c5ccc([nH]5)c(-c5c(F)cccc5F)c5nc(c(-c6c(F)cccc6F)c6ccc3[nH]6)C=C5)C=C4)cc2)c1C
REMARK SMILES IDX 24 1 23 2 22 3 20 4 21 5 19 6 15 7 16 8 85 9 17 10 86 11
REMARK SMILES IDX 18 12 14 13 11 15 12 16 13 17 10 18 1 19 2 20 3 21 4 22 8 23
REMARK SMILES IDX 9 24 5 25 6 26 7 27 25 28 26 29 27 30 28 31 29 32 30 33
REMARK SMILES IDX 31 34 32 35 84 36 33 37 83 38 34 39 35 40 36 41 77 42 37 43
REMARK SMILES IDX 82 44 76 45 78 46 38 47 81 48 75 49 74 50 39 52 65 53 48 54
REMARK SMILES IDX 64 55 49 56 52 57 63 58 79 59 50 60 51 61 62 63 80 64 53 65
REMARK SMILES IDX 40 66 41 67 46 68 42 69 43 70 45 71 47 72 44 73 66 74 67 75
REMARK SMILES IDX 72 76 68 77 69 78 71 79 73 80 70 81 54 82 55 83 60 84 56 85
REMARK SMILES IDX 57 86 59 87 61 88 58 89
REMARK H PARENT 14 14 78 51 52 62
REMARK Flexibility Score: inf
ROOT
ATOM      1  C   UNL A   1      31.708  28.855  26.183  1.00  0.00     0.202 C 
ENDROOT
BRANCH   1   2
ATOM      2  C   UNL A   1      31.594  29.593  24.871  1.00  0.00     0.261 C 
BRANCH   2   3
ATOM      3  O   UNL A   1      32.050  28.794  23.768  1.00  0.00    -0.460 OA
BRANCH   3   4
ATOM      4  C   UNL A   1      31.082  28.347  22.922  1.00  0.00     0.338 C 
ATOM      5  O   UNL A   1      30.213  29.025  22.425  1.00  0.00    -0.246 OA
BRANCH   4   6
ATOM      6  C   UNL A   1      31.196  26.878  22.773  1.00  0.00     0.065 A 
ATOM      7  C   UNL A   1      30.951  24.737  23.770  1.00  0.00     0.053 A 
ATOM      8  C   UNL A   1      31.872  24.186  22.877  1.00  0.00     0.027 A 
ATOM      9  C   UNL A   1      30.451  26.033  23.605  1.00  0.00    -0.012 A 
ATOM     10  C   UNL A   1      32.469  24.995  21.920  1.00  0.00     0.003 A 
ATOM     11  C   UNL A   1      29.264  26.484  24.426  1.00  0.00     0.047 C 
ATOM     12  C   UNL A   1      32.173  26.350  21.908  1.00  0.00     0.016 A 
BRANCH   7  13
ATOM     13  N   UNL A   1      30.498  24.050  24.920  1.00  0.00    -0.279 N 
ATOM     14  H   UNL A   1      29.532  23.999  25.105  1.00  0.00     0.180 HD
BRANCH  13  15
ATOM     15  S   UNL A   1      31.577  23.323  25.967  1.00  0.00     0.265 S 
ATOM     16  O   UNL A   1      31.441  21.898  25.730  1.00  0.00    -0.201 OA
ATOM     17  O   UNL A   1      31.287  23.866  27.278  1.00  0.00    -0.201 OA
BRANCH  15  18
ATOM     18  C   UNL A   1      33.273  23.593  25.777  1.00  0.00     0.131 A 
ATOM     19  C   UNL A   1      33.781  26.205  25.564  1.00  0.00     0.070 C 
ATOM     20  C   UNL A   1      34.063  24.754  25.570  1.00  0.00     0.080 A 
ATOM     21  N   UNL A   1      35.347  24.430  25.358  1.00  0.00    -0.176 NA
ATOM     22  N   UNL A   1      35.420  23.117  25.607  1.00  0.00    -0.266 N 
ATOM     23  C   UNL A   1      34.203  22.561  25.887  1.00  0.00     0.056 A 
ATOM     24  C   UNL A   1      34.025  21.139  26.276  1.00  0.00     0.068 C 
BRANCH  22  25
ATOM     25  C   UNL A   1      36.732  22.475  25.621  1.00  0.00     0.101 C 
ATOM     26  C   UNL A   1      37.043  21.812  24.281  1.00  0.00     0.033 C 
ATOM     27  C   UNL A   1      37.827  23.464  26.025  1.00  0.00     0.033 C 
ENDBRANCH  22  25
ENDBRANCH  15  18
ENDBRANCH  13  15
ENDBRANCH   7  13
ENDBRANCH   4   6
ENDBRANCH   3   4
ENDBRANCH   2   3
ENDBRANCH   1   2
BRANCH   1  28
ATOM     28  O   UNL A   1      31.790  29.834  27.210  1.00  0.00    -0.374 OA
BRANCH  28  29
ATOM     29  C   UNL A   1      32.130  31.145  26.799  1.00  0.00     0.202 C 
BRANCH  29  30
ATOM     30  C   UNL A   1      33.307  31.724  27.594  1.00  0.00     0.261 C 
BRANCH  30  31
ATOM     31  O   UNL A   1      34.537  31.068  27.210  1.00  0.00    -0.460 OA
BRANCH  31  32
ATOM     32  C   UNL A   1      35.660  31.458  27.877  1.00  0.00     0.338 C 
ATOM     33  O   UNL A   1      36.064  32.607  27.963  1.00  0.00    -0.246 OA
BRANCH  32  34
ATOM     34  C   UNL A   1      36.481  30.263  28.233  1.00  0.00     0.060 A 
ATOM     35  C   UNL A   1      36.444  29.742  29.541  1.00  0.00     0.016 A 
ATOM     36  C   UNL A   1      37.526  29.922  27.383  1.00  0.00     0.016 A 
ATOM     37  C   UNL A   1      37.544  29.030  30.047  1.00  0.00     0.010 A 
ATOM     38  C   UNL A   1      38.659  29.370  27.934  1.00  0.00     0.010 A 
ATOM     39  C   UNL A   1      38.693  28.940  29.272  1.00  0.00    -0.014 A 
BRANCH  39  40
ATOM     40  C   UNL A   1      40.002  28.428  29.688  1.00  0.00     0.031 A 
ATOM     41  C   UNL A   1      40.378  27.088  29.175  1.00  0.00     0.074 A 
ATOM     42  C   UNL A   1      40.954  29.247  30.207  1.00  0.00     0.049 A 
ATOM     43  N   UNL A   1      41.480  26.497  29.461  1.00  0.00    -0.248 NA
ATOM     44  C   UNL A   1      39.526  26.270  28.304  1.00  0.00     0.031 C 
ATOM     45  C   UNL A   1      42.414  29.114  30.104  1.00  0.00     0.029 A 
ATOM     46  N   UNL A   1      40.821  30.441  30.929  1.00  0.00    -0.354 N 
ATOM     47  C   UNL A   1      41.650  25.477  28.558  1.00  0.00     0.074 A 
ATOM     48  C   UNL A   1      40.355  25.277  27.970  1.00  0.00     0.031 C 
ATOM     49  C   UNL A   1      43.011  29.956  30.966  1.00  0.00     0.029 A 
ATOM     50  C   UNL A   1      41.955  30.558  31.758  1.00  0.00     0.049 A 
ATOM     51  H   UNL A   1      40.075  31.080  30.867  1.00  0.00     0.167 HD
ATOM     52  C   UNL A   1      42.916  25.034  28.337  1.00  0.00     0.037 A 
ATOM     53  C   UNL A   1      41.827  30.527  33.113  1.00  0.00     0.037 A 
ATOM     54  C   UNL A   1      43.829  25.597  29.341  1.00  0.00     0.049 A 
ATOM     55  C   UNL A   1      42.524  29.303  33.634  1.00  0.00     0.074 A 
ATOM     56  C   UNL A   1      44.831  26.551  29.301  1.00  0.00     0.029 A 
ATOM     57  N   UNL A   1      43.530  25.402  30.691  1.00  0.00    -0.354 N 
ATOM     58  N   UNL A   1      42.719  28.242  32.897  1.00  0.00    -0.248 NA
ATOM     59  C   UNL A   1      43.161  29.203  34.941  1.00  0.00     0.031 C 
ATOM     60  C   UNL A   1      45.046  27.004  30.640  1.00  0.00     0.029 A 
ATOM     61  C   UNL A   1      44.212  26.293  31.494  1.00  0.00     0.049 A 
ATOM     62  H   UNL A   1      42.911  24.715  31.028  1.00  0.00     0.167 HD
ATOM     63  C   UNL A   1      43.564  27.392  33.538  1.00  0.00     0.074 A 
ATOM     64  C   UNL A   1      43.776  28.011  34.836  1.00  0.00     0.031 C 
ATOM     65  C   UNL A   1      44.050  26.263  32.948  1.00  0.00     0.037 A 
BRANCH  52  66
ATOM     66  C   UNL A   1      43.368  24.221  27.144  1.00  0.00     0.057 A 
ATOM     67  C   UNL A   1      43.774  24.873  25.965  1.00  0.00     0.134 A 
ATOM     68  C   UNL A   1      43.344  22.813  27.045  1.00  0.00     0.134 A 
ATOM     69  F   UNL A   1      43.818  26.210  25.888  1.00  0.00    -0.206 F 
ATOM     70  C   UNL A   1      44.141  24.185  24.797  1.00  0.00     0.040 A 
ATOM     71  C   UNL A   1      43.757  22.113  25.902  1.00  0.00     0.040 A 
ATOM     72  F   UNL A   1      42.864  22.032  28.019  1.00  0.00    -0.206 F 
ATOM     73  C   UNL A   1      44.152  22.799  24.767  1.00  0.00     0.006 A 
ENDBRANCH  52  66
BRANCH  53  74
ATOM     74  C   UNL A   1      40.544  31.157  33.547  1.00  0.00     0.057 A 
ATOM     75  C   UNL A   1      40.498  32.568  33.535  1.00  0.00     0.134 A 
ATOM     76  C   UNL A   1      39.322  30.490  33.402  1.00  0.00     0.134 A 
ATOM     77  F   UNL A   1      41.630  33.280  33.665  1.00  0.00    -0.206 F 
ATOM     78  C   UNL A   1      39.328  33.273  33.223  1.00  0.00     0.040 A 
ATOM     79  C   UNL A   1      38.146  31.191  33.088  1.00  0.00     0.040 A 
ATOM     80  F   UNL A   1      39.273  29.151  33.392  1.00  0.00    -0.206 F 
ATOM     81  C   UNL A   1      38.158  32.578  32.945  1.00  0.00     0.006 A 
ENDBRANCH  53  74
BRANCH  65  82
ATOM     82  C   UNL A   1      44.481  25.047  33.724  1.00  0.00     0.057 A 
ATOM     83  C   UNL A   1      43.602  24.269  34.498  1.00  0.00     0.134 A 
ATOM     84  C   UNL A   1      45.773  24.503  33.562  1.00  0.00     0.134 A 
ATOM     85  F   UNL A   1      42.304  24.576  34.623  1.00  0.00    -0.206 F 
ATOM     86  C   UNL A   1      44.003  23.093  35.135  1.00  0.00     0.040 A 
ATOM     87  C   UNL A   1      46.161  23.290  34.132  1.00  0.00     0.040 A 
ATOM     88  F   UNL A   1      46.709  25.100  32.810  1.00  0.00    -0.206 F 
ATOM     89  C   UNL A   1      45.282  22.593  34.944  1.00  0.00     0.006 A 
ENDBRANCH  65  82
ENDBRANCH  39  40
ENDBRANCH  32  34
ENDBRANCH  31  32
ENDBRANCH  30  31
ENDBRANCH  29  30
ENDBRANCH  28  29
ENDBRANCH   1  28
TORSDOF 18
ENDMDL
MODEL 2
REMARK VINA RESULT:     -11.5      3.395      8.454
REMARK SMILES Cc1nn(C(C)C)c(C)c1S(=O)(=O)Nc1cccc(C(=O)OCCOCCOC(=O)c2ccc(-c3c4nc(c(-c5c(F)cccc5F)c5ccc([nH]5)c(-c5c(F)cccc5F)c5nc(c(-c6c(F)cccc6F)c6ccc3[nH]6)C=C5)C=C4)cc2)c1C
REMARK SMILES IDX 24 1 23 2 22 3 20 4 21 5 19 6 15 7 16 8 85 9 17 10 86 11
REMARK SMILES IDX 18 12 14 13 11 15 12 16 13 17 10 18 1 19 2 20 3 21 4 22 8 23
REMARK SMILES IDX 9 24 5 25 6 26 7 27 25 28 26 29 27 30 28 31 29 32 30 33
REMARK SMILES IDX 31 34 32 35 84 36 33 37 83 38 34 39 35 40 36 41 77 42 37 43
REMARK SMILES IDX 82 44 76 45 78 46 38 47 81 48 75 49 74 50 39 52 65 53 48 54
REMARK SMILES IDX 64 55 49 56 52 57 63 58 79 59 50 60 51 61 62 63 80 64 53 65
REMARK SMILES IDX 40 66 41 67 46 68 42 69 43 70 45 71 47 72 44 73 66 74 67 75
REMARK SMILES IDX 72 76 68 77 69 78 71 79 73 80 70 81 54 82 55 83 60 84 56 85
REMARK SMILES IDX 57 86 59 87 61 88 58 89
REMARK H PARENT 14 14 78 51 52 62
REMARK Flexibility Score: inf
ROOT
ATOM      1  C   UNL A   1      35.446  21.904  24.299  1.00  0.00     0.202 C 
ENDROOT
BRANCH   1   2
ATOM      2  C   UNL A   1      34.994  20.702  25.090  1.00  0.00     0.261 C 
BRANCH   2   3
ATOM      3  O   UNL A   1      33.845  20.996  25.901  1.00  0.00    -0.460 OA
BRANCH   3   4
ATOM      4  C   UNL A   1      32.648  20.581  25.403  1.00  0.00     0.338 C 
ATOM      5  O   UNL A   1      32.336  19.434  25.187  1.00  0.00    -0.246 OA
BRANCH   4   6
ATOM      6  C   UNL A   1      31.814  21.761  25.077  1.00  0.00     0.065 A 
ATOM      7  C   UNL A   1      31.419  23.598  23.625  1.00  0.00     0.053 A 
ATOM      8  C   UNL A   1      30.738  24.283  24.634  1.00  0.00     0.027 A 
ATOM      9  C   UNL A   1      31.788  22.256  23.767  1.00  0.00    -0.012 A 
ATOM     10  C   UNL A   1      30.598  23.700  25.885  1.00  0.00     0.003 A 
ATOM     11  C   UNL A   1      32.271  21.484  22.561  1.00  0.00     0.047 C 
ATOM     12  C   UNL A   1      31.186  22.467  26.121  1.00  0.00     0.016 A 
BRANCH   7  13
ATOM     13  N   UNL A   1      31.823  24.217  22.419  1.00  0.00    -0.279 N 
ATOM     14  H   UNL A   1      31.450  23.903  21.564  1.00  0.00     0.180 HD
BRANCH  13  15
ATOM     15  S   UNL A   1      32.922  25.475  22.427  1.00  0.00     0.265 S 
ATOM     16  O   UNL A   1      32.771  26.124  21.138  1.00  0.00    -0.201 OA
ATOM     17  O   UNL A   1      34.195  24.889  22.794  1.00  0.00    -0.201 OA
BRANCH  15  18
ATOM     18  C   UNL A   1      32.732  26.777  23.547  1.00  0.00     0.131 A 
ATOM     19  C   UNL A   1      31.043  28.601  22.574  1.00  0.00     0.070 C 
ATOM     20  C   UNL A   1      32.015  28.001  23.512  1.00  0.00     0.080 A 
ATOM     21  N   UNL A   1      32.283  28.746  24.595  1.00  0.00    -0.176 NA
ATOM     22  N   UNL A   1      33.002  27.950  25.395  1.00  0.00    -0.266 N 
ATOM     23  C   UNL A   1      33.284  26.740  24.825  1.00  0.00     0.056 A 
ATOM     24  C   UNL A   1      33.999  25.649  25.536  1.00  0.00     0.068 C 
BRANCH  22  25
ATOM     25  C   UNL A   1      33.324  28.411  26.743  1.00  0.00     0.101 C 
ATOM     26  C   UNL A   1      34.748  28.959  26.820  1.00  0.00     0.033 C 
ATOM     27  C   UNL A   1      32.301  29.436  27.236  1.00  0.00     0.033 C 
ENDBRANCH  22  25
ENDBRANCH  15  18
ENDBRANCH  13  15
ENDBRANCH   7  13
ENDBRANCH   4   6
ENDBRANCH   3   4
ENDBRANCH   2   3
ENDBRANCH   1   2
BRANCH   1  28
ATOM     28  O   UNL A   1      36.867  21.885  24.280  1.00  0.00    -0.374 OA
BRANCH  28  29
ATOM     29  C   UNL A   1      37.486  20.748  24.852  1.00  0.00     0.202 C 
BRANCH  29  30
ATOM     30  C   UNL A   1      38.730  21.107  25.674  1.00  0.00     0.261 C 
BRANCH  30  31
ATOM     31  O   UNL A   1      38.592  22.434  26.232  1.00  0.00    -0.460 OA
BRANCH  31  32
ATOM     32  C   UNL A   1      39.688  22.935  26.869  1.00  0.00     0.338 C 
ATOM     33  O   UNL A   1      40.533  22.269  27.445  1.00  0.00    -0.246 OA
BRANCH  32  34
ATOM     34  C   UNL A   1      39.558  24.415  27.018  1.00  0.00     0.060 A 
ATOM     35  C   UNL A   1      40.291  25.279  26.182  1.00  0.00     0.016 A 
ATOM     36  C   UNL A   1      39.009  24.898  28.199  1.00  0.00     0.016 A 
ATOM     37  C   UNL A   1      40.623  26.571  26.621  1.00  0.00     0.010 A 
ATOM     38  C   UNL A   1      39.472  26.097  28.689  1.00  0.00     0.010 A 
ATOM     39  C   UNL A   1      40.299  26.935  27.923  1.00  0.00    -0.014 A 
BRANCH  39  40
ATOM     40  C   UNL A   1      40.730  28.142  28.635  1.00  0.00     0.031 A 
ATOM     41  C   UNL A   1      39.749  29.253  28.701  1.00  0.00     0.074 A 
ATOM     42  C   UNL A   1      41.796  28.128  29.477  1.00  0.00     0.049 A 
ATOM     43  N   UNL A   1      39.981  30.377  29.274  1.00  0.00    -0.248 NA
ATOM     44  C   UNL A   1      38.412  29.208  28.099  1.00  0.00     0.031 C 
ATOM     45  C   UNL A   1      42.009  28.947  30.679  1.00  0.00     0.029 A 
ATOM     46  N   UNL A   1      42.943  27.323  29.467  1.00  0.00    -0.354 N 
ATOM     47  C   UNL A   1      38.775  31.006  29.456  1.00  0.00     0.074 A 
ATOM     48  C   UNL A   1      37.861  30.326  28.581  1.00  0.00     0.031 C 
ATOM     49  C   UNL A   1      43.288  28.840  31.084  1.00  0.00     0.029 A 
ATOM     50  C   UNL A   1      43.979  28.061  30.074  1.00  0.00     0.049 A 
ATOM     51  H   UNL A   1      43.012  26.410  29.105  1.00  0.00     0.167 HD
ATOM     52  C   UNL A   1      38.691  31.939  30.442  1.00  0.00     0.037 A 
ATOM     53  C   UNL A   1      45.073  28.437  29.355  1.00  0.00     0.037 A 
ATOM     54  C   UNL A   1      40.033  32.260  30.946  1.00  0.00     0.049 A 
ATOM     55  C   UNL A   1      45.098  29.936  29.266  1.00  0.00     0.074 A 
ATOM     56  C   UNL A   1      40.707  31.992  32.124  1.00  0.00     0.029 A 
ATOM     57  N   UNL A   1      41.002  32.680  30.030  1.00  0.00    -0.354 N 
ATOM     58  N   UNL A   1      44.017  30.662  29.382  1.00  0.00    -0.248 NA
ATOM     59  C   UNL A   1      46.308  30.742  29.175  1.00  0.00     0.031 C 
ATOM     60  C   UNL A   1      42.104  32.149  31.866  1.00  0.00     0.029 A 
ATOM     61  C   UNL A   1      42.275  32.557  30.548  1.00  0.00     0.049 A 
ATOM     62  H   UNL A   1      40.801  33.020  29.128  1.00  0.00     0.167 HD
ATOM     63  C   UNL A   1      44.360  31.972  29.493  1.00  0.00     0.074 A 
ATOM     64  C   UNL A   1      45.801  31.982  29.309  1.00  0.00     0.031 C 
ATOM     65  C   UNL A   1      43.443  32.946  29.759  1.00  0.00     0.037 A 
BRANCH  52  66
ATOM     66  C   UNL A   1      37.410  32.456  31.057  1.00  0.00     0.057 A 
ATOM     67  C   UNL A   1      36.899  31.853  32.222  1.00  0.00     0.134 A 
ATOM     68  C   UNL A   1      36.583  33.467  30.522  1.00  0.00     0.134 A 
ATOM     69  F   UNL A   1      37.551  30.854  32.833  1.00  0.00    -0.206 F 
ATOM     70  C   UNL A   1      35.683  32.234  32.811  1.00  0.00     0.040 A 
ATOM     71  C   UNL A   1      35.392  33.891  31.129  1.00  0.00     0.040 A 
ATOM     72  F   UNL A   1      36.840  34.061  29.352  1.00  0.00    -0.206 F 
ATOM     73  C   UNL A   1      34.932  33.269  32.276  1.00  0.00     0.006 A 
ENDBRANCH  52  66
BRANCH  53  74
ATOM     74  C   UNL A   1      45.421  27.410  28.327  1.00  0.00     0.057 A 
ATOM     75  C   UNL A   1      45.099  27.723  26.989  1.00  0.00     0.134 A 
ATOM     76  C   UNL A   1      46.481  26.517  28.523  1.00  0.00     0.134 A 
ATOM     77  F   UNL A   1      44.096  28.577  26.720  1.00  0.00    -0.206 F 
ATOM     78  C   UNL A   1      45.894  27.307  25.913  1.00  0.00     0.040 A 
ATOM     79  C   UNL A   1      47.283  26.097  27.449  1.00  0.00     0.040 A 
ATOM     80  F   UNL A   1      46.862  26.172  29.760  1.00  0.00    -0.206 F 
ATOM     81  C   UNL A   1      47.024  26.534  26.151  1.00  0.00     0.006 A 
ENDBRANCH  53  74
BRANCH  65  82
ATOM     82  C   UNL A   1      43.620  34.382  29.340  1.00  0.00     0.057 A 
ATOM     83  C   UNL A   1      43.646  34.801  27.999  1.00  0.00     0.134 A 
ATOM     84  C   UNL A   1      43.578  35.424  30.290  1.00  0.00     0.134 A 
ATOM     85  F   UNL A   1      43.541  33.936  26.981  1.00  0.00    -0.206 F 
ATOM     86  C   UNL A   1      43.719  36.147  27.634  1.00  0.00     0.040 A 
ATOM     87  C   UNL A   1      43.574  36.773  29.933  1.00  0.00     0.040 A 
ATOM     88  F   UNL A   1      43.497  35.187  31.607  1.00  0.00    -0.206 F 
ATOM     89  C   UNL A   1      43.671  37.139  28.601  1.00  0.00     0.006 A 
ENDBRANCH  65  82
ENDBRANCH  39  40
ENDBRANCH  32  34
ENDBRANCH  31  32
ENDBRANCH  30  31
ENDBRANCH  29  30
ENDBRANCH  28  29
ENDBRANCH   1  28
TORSDOF 18
ENDMDL
MODEL 3
REMARK VINA RESULT:     -11.5      3.570      8.689
REMARK SMILES Cc1nn(C(C)C)c(C)c1S(=O)(=O)Nc1cccc(C(=O)OCCOCCOC(=O)c2ccc(-c3c4nc(c(-c5c(F)cccc5F)c5ccc([nH]5)c(-c5c(F)cccc5F)c5nc(c(-c6c(F)cccc6F)c6ccc3[nH]6)C=C5)C=C4)cc2)c1C
REMARK SMILES IDX 24 1 23 2 22 3 20 4 21 5 19 6 15 7 16 8 85 9 17 10 86 11
REMARK SMILES IDX 18 12 14 13 11 15 12 16 13 17 10 18 1 19 2 20 3 21 4 22 8 23
REMARK SMILES IDX 9 24 5 25 6 26 7 27 25 28 26 29 27 30 28 31 29 32 30 33
REMARK SMILES IDX 31 34 32 35 84 36 33 37 83 38 34 39 35 40 36 41 77 42 37 43
REMARK SMILES IDX 82 44 76 45 78 46 38 47 81 48 75 49 74 50 39 52 65 53 48 54
REMARK SMILES IDX 64 55 49 56 52 57 63 58 79 59 50 60 51 61 62 63 80 64 53 65
REMARK SMILES IDX 40 66 41 67 46 68 42 69 43 70 45 71 47 72 44 73 66 74 67 75
REMARK SMILES IDX 72 76 68 77 69 78 71 79 73 80 70 81 54 82 55 83 60 84 56 85
REMARK SMILES IDX 57 86 59 87 61 88 58 89
REMARK H PARENT 14 14 78 51 52 62
REMARK Flexibility Score: inf
ROOT
ATOM      1  C   UNL A   1      36.339  20.620  25.192  1.00  0.00     0.202 C 
ENDROOT
BRANCH   1   2
ATOM      2  C   UNL A   1      34.926  20.319  24.758  1.00  0.00     0.261 C 
BRANCH   2   3
ATOM      3  O   UNL A   1      33.966  21.111  25.476  1.00  0.00    -0.460 OA
BRANCH   3   4
ATOM      4  C   UNL A   1      32.667  20.725  25.349  1.00  0.00     0.338 C 
ATOM      5  O   UNL A   1      32.262  19.588  25.408  1.00  0.00    -0.246 OA
BRANCH   4   6
ATOM      6  C   UNL A   1      31.831  21.905  25.032  1.00  0.00     0.065 A 
ATOM      7  C   UNL A   1      31.427  23.748  23.591  1.00  0.00     0.053 A 
ATOM      8  C   UNL A   1      30.750  24.428  24.606  1.00  0.00     0.027 A 
ATOM      9  C   UNL A   1      31.798  22.406  23.725  1.00  0.00    -0.012 A 
ATOM     10  C   UNL A   1      30.616  23.839  25.855  1.00  0.00     0.003 A 
ATOM     11  C   UNL A   1      32.277  21.641  22.512  1.00  0.00     0.047 C 
ATOM     12  C   UNL A   1      31.206  22.605  26.082  1.00  0.00     0.016 A 
BRANCH   7  13
ATOM     13  N   UNL A   1      31.825  24.374  22.386  1.00  0.00    -0.279 N 
ATOM     14  H   UNL A   1      31.737  23.887  21.535  1.00  0.00     0.180 HD
BRANCH  13  15
ATOM     15  S   UNL A   1      32.441  25.927  22.388  1.00  0.00     0.265 S 
ATOM     16  O   UNL A   1      31.325  26.783  22.031  1.00  0.00    -0.201 OA
ATOM     17  O   UNL A   1      33.618  25.889  21.545  1.00  0.00    -0.201 OA
BRANCH  15  18
ATOM     18  C   UNL A   1      33.015  26.622  23.862  1.00  0.00     0.131 A 
ATOM     19  C   UNL A   1      34.472  24.846  25.223  1.00  0.00     0.070 C 
ATOM     20  C   UNL A   1      33.766  26.117  24.956  1.00  0.00     0.080 A 
ATOM     21  N   UNL A   1      33.855  27.027  25.937  1.00  0.00    -0.176 NA
ATOM     22  N   UNL A   1      33.342  28.149  25.420  1.00  0.00    -0.266 N 
ATOM     23  C   UNL A   1      32.839  27.971  24.161  1.00  0.00     0.056 A 
ATOM     24  C   UNL A   1      32.286  29.078  23.339  1.00  0.00     0.068 C 
BRANCH  22  25
ATOM     25  C   UNL A   1      33.436  29.387  26.189  1.00  0.00     0.101 C 
ATOM     26  C   UNL A   1      32.182  29.620  27.029  1.00  0.00     0.033 C 
ATOM     27  C   UNL A   1      34.701  29.408  27.050  1.00  0.00     0.033 C 
ENDBRANCH  22  25
ENDBRANCH  15  18
ENDBRANCH  13  15
ENDBRANCH   7  13
ENDBRANCH   4   6
ENDBRANCH   3   4
ENDBRANCH   2   3
ENDBRANCH   1   2
BRANCH   1  28
ATOM     28  O   UNL A   1      36.381  21.991  25.566  1.00  0.00    -0.374 OA
BRANCH  28  29
ATOM     29  C   UNL A   1      37.471  22.743  25.066  1.00  0.00     0.202 C 
BRANCH  29  30
ATOM     30  C   UNL A   1      38.015  23.744  26.093  1.00  0.00     0.261 C 
BRANCH  30  31
ATOM     31  O   UNL A   1      38.986  23.099  26.949  1.00  0.00    -0.460 OA
BRANCH  31  32
ATOM     32  C   UNL A   1      40.125  23.804  27.204  1.00  0.00     0.338 C 
ATOM     33  O   UNL A   1      41.204  23.316  27.498  1.00  0.00    -0.246 OA
BRANCH  32  34
ATOM     34  C   UNL A   1      39.802  25.253  27.363  1.00  0.00     0.060 A 
ATOM     35  C   UNL A   1      40.322  26.199  26.458  1.00  0.00     0.016 A 
ATOM     36  C   UNL A   1      39.304  25.672  28.591  1.00  0.00     0.016 A 
ATOM     37  C   UNL A   1      40.508  27.531  26.862  1.00  0.00     0.010 A 
ATOM     38  C   UNL A   1      39.638  26.931  29.032  1.00  0.00     0.010 A 
ATOM     39  C   UNL A   1      40.262  27.866  28.188  1.00  0.00    -0.014 A 
BRANCH  39  40
ATOM     40  C   UNL A   1      40.584  29.132  28.854  1.00  0.00     0.031 A 
ATOM     41  C   UNL A   1      39.468  30.097  29.008  1.00  0.00     0.074 A 
ATOM     42  C   UNL A   1      41.714  29.279  29.593  1.00  0.00     0.049 A 
ATOM     43  N   UNL A   1      39.592  31.252  29.553  1.00  0.00    -0.248 NA
ATOM     44  C   UNL A   1      38.100  29.858  28.532  1.00  0.00     0.031 C 
ATOM     45  C   UNL A   1      41.920  30.138  30.767  1.00  0.00     0.029 A 
ATOM     46  N   UNL A   1      42.957  28.640  29.479  1.00  0.00    -0.354 N 
ATOM     47  C   UNL A   1      38.332  31.710  29.845  1.00  0.00     0.074 A 
ATOM     48  C   UNL A   1      37.446  30.896  29.060  1.00  0.00     0.031 C 
ATOM     49  C   UNL A   1      43.233  30.215  31.052  1.00  0.00     0.029 A 
ATOM     50  C   UNL A   1      43.931  29.524  29.985  1.00  0.00     0.049 A 
ATOM     51  H   UNL A   1      43.119  27.740  29.115  1.00  0.00     0.167 HD
ATOM     52  C   UNL A   1      38.210  32.638  30.831  1.00  0.00     0.037 A 
ATOM     53  C   UNL A   1      44.892  30.037  29.167  1.00  0.00     0.037 A 
ATOM     54  C   UNL A   1      39.535  33.149  31.207  1.00  0.00     0.049 A 
ATOM     55  C   UNL A   1      44.698  31.523  29.071  1.00  0.00     0.074 A 
ATOM     56  C   UNL A   1      40.345  32.996  32.318  1.00  0.00     0.029 A 
ATOM     57  N   UNL A   1      40.347  33.685  30.204  1.00  0.00    -0.354 N 
ATOM     58  N   UNL A   1      43.543  32.094  29.285  1.00  0.00    -0.248 NA
ATOM     59  C   UNL A   1      45.771  32.488  28.865  1.00  0.00     0.031 C 
ATOM     60  C   UNL A   1      41.676  33.341  31.931  1.00  0.00     0.029 A 
ATOM     61  C   UNL A   1      41.667  33.748  30.603  1.00  0.00     0.049 A 
ATOM     62  H   UNL A   1      40.020  33.980  29.324  1.00  0.00     0.167 HD
ATOM     63  C   UNL A   1      43.708  33.441  29.360  1.00  0.00     0.074 A 
ATOM     64  C   UNL A   1      45.111  33.647  29.042  1.00  0.00     0.031 C 
ATOM     65  C   UNL A   1      42.692  34.283  29.706  1.00  0.00     0.037 A 
BRANCH  52  66
ATOM     66  C   UNL A   1      36.932  32.982  31.562  1.00  0.00     0.057 A 
ATOM     67  C   UNL A   1      35.958  33.780  30.931  1.00  0.00     0.134 A 
ATOM     68  C   UNL A   1      36.628  32.653  32.900  1.00  0.00     0.134 A 
ATOM     69  F   UNL A   1      36.115  34.204  29.670  1.00  0.00    -0.206 F 
ATOM     70  C   UNL A   1      34.779  34.196  31.570  1.00  0.00     0.040 A 
ATOM     71  C   UNL A   1      35.430  33.019  33.532  1.00  0.00     0.040 A 
ATOM     72  F   UNL A   1      37.490  32.012  33.696  1.00  0.00    -0.206 F 
ATOM     73  C   UNL A   1      34.501  33.801  32.869  1.00  0.00     0.006 A 
ENDBRANCH  52  66
BRANCH  53  74
ATOM     74  C   UNL A   1      45.283  29.052  28.113  1.00  0.00     0.057 A 
ATOM     75  C   UNL A   1      46.113  27.986  28.524  1.00  0.00     0.134 A 
ATOM     76  C   UNL A   1      44.469  28.817  27.000  1.00  0.00     0.134 A 
ATOM     77  F   UNL A   1      46.921  28.133  29.587  1.00  0.00    -0.206 F 
ATOM     78  C   UNL A   1      46.013  26.705  27.966  1.00  0.00     0.040 A 
ATOM     79  C   UNL A   1      44.362  27.536  26.436  1.00  0.00     0.040 A 
ATOM     80  F   UNL A   1      43.642  29.770  26.547  1.00  0.00    -0.206 F 
ATOM     81  C   UNL A   1      45.092  26.466  26.952  1.00  0.00     0.006 A 
ENDBRANCH  53  74
BRANCH  65  82
ATOM     82  C   UNL A   1      42.628  35.722  29.269  1.00  0.00     0.057 A 
ATOM     83  C   UNL A   1      43.392  36.745  29.857  1.00  0.00     0.134 A 
ATOM     84  C   UNL A   1      41.928  36.095  28.103  1.00  0.00     0.134 A 
ATOM     85  F   UNL A   1      44.223  36.513  30.881  1.00  0.00    -0.206 F 
ATOM     86  C   UNL A   1      43.386  38.056  29.377  1.00  0.00     0.040 A 
ATOM     87  C   UNL A   1      41.977  37.384  27.571  1.00  0.00     0.040 A 
ATOM     88  F   UNL A   1      41.198  35.219  27.398  1.00  0.00    -0.206 F 
ATOM     89  C   UNL A   1      42.687  38.378  28.223  1.00  0.00     0.006 A 
ENDBRANCH  65  82
ENDBRANCH  39  40
ENDBRANCH  32  34
ENDBRANCH  31  32
ENDBRANCH  30  31
ENDBRANCH  29  30
ENDBRANCH  28  29
ENDBRANCH   1  28
TORSDOF 18
ENDMDL
