MODEL 1
REMARK VINA RESULT:     -11.4      0.000      0.000
REMARK SMILES Cc1nsc(NC(=O)N2CCC[C@@H](C)C2)c1C(=O)OCCOCCOC(=O)c1ccc(-c2c3nc(c(-c4c(F)cccc4F)c4ccc([nH]4)c(-c4c(F)cccc4F)c4nc(c(-c5c(F)cccc5F)c5ccc2[nH]5)C=C4)C=C3)cc1
REMARK SMILES IDX 22 1 21 2 20 3 19 4 17 5 18 6 16 7 1 8 2 9 3 10 4 11 5 12
REMARK SMILES IDX 6 13 7 14 8 16 9 17 10 18 15 19 11 20 13 21 12 22 14 23
REMARK SMILES IDX 23 24 24 25 25 26 26 27 27 28 28 29 29 30 81 31 30 32 80 33
REMARK SMILES IDX 31 34 32 35 33 36 74 37 34 38 79 39 73 40 75 41 35 42 78 43
REMARK SMILES IDX 72 44 71 45 36 47 62 48 45 49 61 50 46 51 49 52 60 53 76 54
REMARK SMILES IDX 47 55 48 56 59 58 77 59 50 60 37 61 38 62 43 63 39 64 40 65
REMARK SMILES IDX 42 66 44 67 41 68 63 69 64 70 69 71 65 72 66 73 68 74 70 75
REMARK SMILES IDX 67 76 51 77 52 78 57 79 53 80 54 81 56 82 58 83 55 84
REMARK H PARENT 6 15 75 46 49 57
REMARK Flexibility Score: inf
ROOT
ATOM      1  O   UNL A   1      40.400  21.597  26.082  1.00  0.00    -0.374 OA
ENDROOT
BRANCH   1   2
ATOM      2  C   UNL A   1      39.056  22.078  26.134  1.00  0.00     0.202 C 
BRANCH   2   3
ATOM      3  C   UNL A   1      38.014  21.445  25.210  1.00  0.00     0.261 C 
BRANCH   3   4
ATOM      4  O   UNL A   1      36.782  22.188  25.226  1.00  0.00    -0.460 OA
BRANCH   4   5
ATOM      5  C   UNL A   1      36.272  22.526  24.009  1.00  0.00     0.343 C 
ATOM      6  O   UNL A   1      36.948  22.757  23.010  1.00  0.00    -0.246 OA
BRANCH   5   7
ATOM      7  C   UNL A   1      34.837  22.313  23.950  1.00  0.00     0.117 A 
ATOM      8  C   UNL A   1      34.601  19.913  25.002  1.00  0.00     0.069 C 
ATOM      9  C   UNL A   1      34.092  21.134  24.316  1.00  0.00     0.068 A 
ATOM     10  N   UNL A   1      32.793  21.153  24.010  1.00  0.00    -0.195 NA
ATOM     11  S   UNL A   1      32.449  22.555  23.210  1.00  0.00    -0.017 S 
ATOM     12  C   UNL A   1      33.981  23.262  23.403  1.00  0.00     0.132 A 
BRANCH  12  13
ATOM     13  N   UNL A   1      34.305  24.511  22.900  1.00  0.00    -0.297 N 
ATOM     14  C   UNL A   1      33.507  25.589  22.676  1.00  0.00     0.322 C 
ATOM     15  H   UNL A   1      35.254  24.637  22.670  1.00  0.00     0.172 HD
ATOM     16  O   UNL A   1      33.668  26.205  21.620  1.00  0.00    -0.248 OA
BRANCH  14  17
ATOM     17  N   UNL A   1      32.629  26.016  23.647  1.00  0.00    -0.324 N 
ATOM     18  C   UNL A   1      33.046  26.527  24.954  1.00  0.00     0.121 C 
ATOM     19  C   UNL A   1      31.295  26.441  23.226  1.00  0.00     0.124 C 
ATOM     20  C   UNL A   1      32.044  26.144  26.039  1.00  0.00     0.022 C 
ATOM     21  C   UNL A   1      30.233  26.082  24.274  1.00  0.00     0.005 C 
ATOM     22  C   UNL A   1      30.632  26.591  25.666  1.00  0.00     0.007 C 
ATOM     23  C   UNL A   1      28.868  26.640  23.877  1.00  0.00     0.009 C 
ENDBRANCH  14  17
ENDBRANCH  12  13
ENDBRANCH   5   7
ENDBRANCH   4   5
ENDBRANCH   3   4
ENDBRANCH   2   3
ENDBRANCH   1   2
BRANCH   1  24
ATOM     24  C   UNL A   1      40.764  20.360  26.686  1.00  0.00     0.202 C 
BRANCH  24  25
ATOM     25  C   UNL A   1      42.164  19.806  26.454  1.00  0.00     0.261 C 
BRANCH  25  26
ATOM     26  O   UNL A   1      42.644  20.160  25.169  1.00  0.00    -0.460 OA
BRANCH  26  27
ATOM     27  C   UNL A   1      43.989  20.079  25.056  1.00  0.00     0.338 C 
ATOM     28  O   UNL A   1      44.685  19.085  25.177  1.00  0.00    -0.246 OA
BRANCH  27  29
ATOM     29  C   UNL A   1      44.523  21.435  24.882  1.00  0.00     0.060 A 
ATOM     30  C   UNL A   1      45.576  21.740  25.745  1.00  0.00     0.016 A 
ATOM     31  C   UNL A   1      43.683  22.415  24.336  1.00  0.00     0.016 A 
ATOM     32  C   UNL A   1      45.527  22.953  26.379  1.00  0.00     0.010 A 
ATOM     33  C   UNL A   1      43.627  23.620  24.980  1.00  0.00     0.010 A 
ATOM     34  C   UNL A   1      44.465  23.807  26.074  1.00  0.00    -0.014 A 
BRANCH  34  35
ATOM     35  C   UNL A   1      44.273  24.957  26.920  1.00  0.00     0.031 A 
ATOM     36  C   UNL A   1      45.382  25.918  26.787  1.00  0.00     0.074 A 
ATOM     37  C   UNL A   1      43.153  25.127  27.644  1.00  0.00     0.049 A 
ATOM     38  N   UNL A   1      46.324  26.160  27.636  1.00  0.00    -0.248 NA
ATOM     39  C   UNL A   1      45.609  26.487  25.449  1.00  0.00     0.031 C 
ATOM     40  C   UNL A   1      41.903  24.363  27.602  1.00  0.00     0.029 A 
ATOM     41  N   UNL A   1      42.870  26.130  28.513  1.00  0.00    -0.354 N 
ATOM     42  C   UNL A   1      47.140  27.091  27.006  1.00  0.00     0.074 A 
ATOM     43  C   UNL A   1      46.809  27.040  25.610  1.00  0.00     0.031 C 
ATOM     44  C   UNL A   1      40.928  25.074  28.218  1.00  0.00     0.029 A 
ATOM     45  C   UNL A   1      41.516  26.265  28.801  1.00  0.00     0.049 A 
ATOM     46  H   UNL A   1      43.562  26.711  28.905  1.00  0.00     0.167 HD
ATOM     47  C   UNL A   1      47.796  28.044  27.719  1.00  0.00     0.037 A 
ATOM     48  C   UNL A   1      40.967  27.373  29.362  1.00  0.00     0.037 A 
ATOM     49  C   UNL A   1      47.868  27.683  29.113  1.00  0.00     0.049 A 
ATOM     50  C   UNL A   1      42.083  28.131  30.004  1.00  0.00     0.074 A 
ATOM     51  C   UNL A   1      48.419  26.628  29.814  1.00  0.00     0.029 A 
ATOM     52  N   UNL A   1      46.967  28.273  29.968  1.00  0.00    -0.354 N 
ATOM     53  N   UNL A   1      42.752  27.692  31.038  1.00  0.00    -0.248 NA
ATOM     54  C   UNL A   1      42.781  29.113  29.183  1.00  0.00     0.031 C 
ATOM     55  C   UNL A   1      47.485  26.347  30.852  1.00  0.00     0.029 A 
ATOM     56  C   UNL A   1      46.456  27.286  30.770  1.00  0.00     0.049 A 
ATOM     57  H   UNL A   1      46.731  29.228  29.998  1.00  0.00     0.167 HD
ATOM     58  C   UNL A   1      44.077  28.019  30.774  1.00  0.00     0.074 A 
ATOM     59  C   UNL A   1      44.026  28.935  29.636  1.00  0.00     0.031 C 
ATOM     60  C   UNL A   1      45.110  27.298  31.298  1.00  0.00     0.037 A 
BRANCH  47  61
ATOM     61  C   UNL A   1      47.989  29.462  27.239  1.00  0.00     0.057 A 
ATOM     62  C   UNL A   1      49.276  30.022  27.314  1.00  0.00     0.134 A 
ATOM     63  C   UNL A   1      46.951  30.387  26.992  1.00  0.00     0.134 A 
ATOM     64  F   UNL A   1      50.351  29.252  27.536  1.00  0.00    -0.206 F 
ATOM     65  C   UNL A   1      49.497  31.403  27.253  1.00  0.00     0.040 A 
ATOM     66  C   UNL A   1      47.168  31.760  26.877  1.00  0.00     0.040 A 
ATOM     67  F   UNL A   1      45.659  30.047  26.944  1.00  0.00    -0.206 F 
ATOM     68  C   UNL A   1      48.439  32.277  27.048  1.00  0.00     0.006 A 
ENDBRANCH  47  61
BRANCH  48  69
ATOM     69  C   UNL A   1      39.669  28.001  29.018  1.00  0.00     0.057 A 
ATOM     70  C   UNL A   1      38.654  28.149  29.973  1.00  0.00     0.134 A 
ATOM     71  C   UNL A   1      39.488  28.709  27.815  1.00  0.00     0.134 A 
ATOM     72  F   UNL A   1      38.759  27.558  31.172  1.00  0.00    -0.206 F 
ATOM     73  C   UNL A   1      37.528  28.956  29.746  1.00  0.00     0.040 A 
ATOM     74  C   UNL A   1      38.369  29.511  27.574  1.00  0.00     0.040 A 
ATOM     75  F   UNL A   1      40.434  28.717  26.866  1.00  0.00    -0.206 F 
ATOM     76  C   UNL A   1      37.387  29.647  28.547  1.00  0.00     0.006 A 
ENDBRANCH  48  69
BRANCH  60  77
ATOM     77  C   UNL A   1      44.805  26.252  32.333  1.00  0.00     0.057 A 
ATOM     78  C   UNL A   1      44.529  24.911  32.026  1.00  0.00     0.134 A 
ATOM     79  C   UNL A   1      45.024  26.562  33.679  1.00  0.00     0.134 A 
ATOM     80  F   UNL A   1      44.397  24.506  30.756  1.00  0.00    -0.206 F 
ATOM     81  C   UNL A   1      44.462  23.927  33.018  1.00  0.00     0.040 A 
ATOM     82  C   UNL A   1      44.991  25.585  34.675  1.00  0.00     0.040 A 
ATOM     83  F   UNL A   1      45.349  27.815  34.037  1.00  0.00    -0.206 F 
ATOM     84  C   UNL A   1      44.707  24.262  34.346  1.00  0.00     0.006 A 
ENDBRANCH  60  77
ENDBRANCH  34  35
ENDBRANCH  27  29
ENDBRANCH  26  27
ENDBRANCH  25  26
ENDBRANCH  24  25
ENDBRANCH   1  24
TORSDOF 16
ENDMDL
MODEL 2
REMARK VINA RESULT:     -11.0      5.113     10.095
REMARK SMILES Cc1nsc(NC(=O)N2CCC[C@@H](C)C2)c1C(=O)OCCOCCOC(=O)c1ccc(-c2c3nc(c(-c4c(F)cccc4F)c4ccc([nH]4)c(-c4c(F)cccc4F)c4nc(c(-c5c(F)cccc5F)c5ccc2[nH]5)C=C4)C=C3)cc1
REMARK SMILES IDX 22 1 21 2 20 3 19 4 17 5 18 6 16 7 1 8 2 9 3 10 4 11 5 12
REMARK SMILES IDX 6 13 7 14 8 16 9 17 10 18 15 19 11 20 13 21 12 22 14 23
REMARK SMILES IDX 23 24 24 25 25 26 26 27 27 28 28 29 29 30 81 31 30 32 80 33
REMARK SMILES IDX 31 34 32 35 33 36 74 37 34 38 79 39 73 40 75 41 35 42 78 43
REMARK SMILES IDX 72 44 71 45 36 47 62 48 45 49 61 50 46 51 49 52 60 53 76 54
REMARK SMILES IDX 47 55 48 56 59 58 77 59 50 60 37 61 38 62 43 63 39 64 40 65
REMARK SMILES IDX 42 66 44 67 41 68 63 69 64 70 69 71 65 72 66 73 68 74 70 75
REMARK SMILES IDX 67 76 51 77 52 78 57 79 53 80 54 81 56 82 58 83 55 84
REMARK H PARENT 6 15 75 46 49 57
REMARK Flexibility Score: inf
ROOT
ATOM      1  O   UNL A   1      33.860  32.527  28.374  1.00  0.00    -0.374 OA
ENDROOT
BRANCH   1   2
ATOM      2  C   UNL A   1      33.054  31.814  27.435  1.00  0.00     0.202 C 
BRANCH   2   3
ATOM      3  C   UNL A   1      33.633  30.563  26.770  1.00  0.00     0.261 C 
BRANCH   3   4
ATOM      4  O   UNL A   1      32.737  30.040  25.773  1.00  0.00    -0.460 OA
BRANCH   4   5
ATOM      5  C   UNL A   1      33.077  28.835  25.238  1.00  0.00     0.343 C 
ATOM      6  O   UNL A   1      34.200  28.543  24.837  1.00  0.00    -0.246 OA
BRANCH   5   7
ATOM      7  C   UNL A   1      32.038  27.842  25.445  1.00  0.00     0.117 A 
ATOM      8  C   UNL A   1      31.466  28.179  27.991  1.00  0.00     0.069 C 
ATOM      9  C   UNL A   1      31.370  27.490  26.673  1.00  0.00     0.068 A 
ATOM     10  N   UNL A   1      30.564  26.428  26.609  1.00  0.00    -0.195 NA
ATOM     11  S   UNL A   1      30.645  25.782  25.092  1.00  0.00    -0.017 S 
ATOM     12  C   UNL A   1      31.618  27.001  24.421  1.00  0.00     0.132 A 
BRANCH  12  13
ATOM     13  N   UNL A   1      32.042  26.989  23.102  1.00  0.00    -0.297 N 
ATOM     14  C   UNL A   1      33.118  26.373  22.545  1.00  0.00     0.322 C 
ATOM     15  H   UNL A   1      31.481  27.501  22.476  1.00  0.00     0.172 HD
ATOM     16  O   UNL A   1      33.778  27.015  21.724  1.00  0.00    -0.248 OA
BRANCH  14  17
ATOM     17  N   UNL A   1      33.385  25.052  22.825  1.00  0.00    -0.324 N 
ATOM     18  C   UNL A   1      33.068  23.946  21.918  1.00  0.00     0.121 C 
ATOM     19  C   UNL A   1      34.433  24.755  23.800  1.00  0.00     0.124 C 
ATOM     20  C   UNL A   1      32.676  22.694  22.694  1.00  0.00     0.022 C 
ATOM     21  C   UNL A   1      34.099  23.504  24.621  1.00  0.00     0.005 C 
ATOM     22  C   UNL A   1      33.751  22.317  23.711  1.00  0.00     0.007 C 
ATOM     23  C   UNL A   1      35.256  23.138  25.549  1.00  0.00     0.009 C 
ENDBRANCH  14  17
ENDBRANCH  12  13
ENDBRANCH   5   7
ENDBRANCH   4   5
ENDBRANCH   3   4
ENDBRANCH   2   3
ENDBRANCH   1   2
BRANCH   1  24
ATOM     24  C   UNL A   1      34.232  33.883  28.145  1.00  0.00     0.202 C 
BRANCH  24  25
ATOM     25  C   UNL A   1      33.544  34.983  28.943  1.00  0.00     0.261 C 
BRANCH  25  26
ATOM     26  O   UNL A   1      33.073  34.492  30.185  1.00  0.00    -0.460 OA
BRANCH  26  27
ATOM     27  C   UNL A   1      33.331  35.320  31.223  1.00  0.00     0.338 C 
ATOM     28  O   UNL A   1      33.009  36.490  31.336  1.00  0.00    -0.246 OA
BRANCH  27  29
ATOM     29  C   UNL A   1      34.194  34.613  32.178  1.00  0.00     0.060 A 
ATOM     30  C   UNL A   1      35.314  35.345  32.573  1.00  0.00     0.016 A 
ATOM     31  C   UNL A   1      34.160  33.212  32.192  1.00  0.00     0.016 A 
ATOM     32  C   UNL A   1      36.515  34.686  32.580  1.00  0.00     0.010 A 
ATOM     33  C   UNL A   1      35.361  32.558  32.186  1.00  0.00     0.010 A 
ATOM     34  C   UNL A   1      36.518  33.330  32.248  1.00  0.00    -0.014 A 
BRANCH  34  35
ATOM     35  C   UNL A   1      37.793  32.707  32.005  1.00  0.00     0.031 A 
ATOM     36  C   UNL A   1      38.624  32.682  33.222  1.00  0.00     0.074 A 
ATOM     37  C   UNL A   1      38.096  32.146  30.822  1.00  0.00     0.049 A 
ATOM     38  N   UNL A   1      39.663  33.401  33.484  1.00  0.00    -0.248 NA
ATOM     39  C   UNL A   1      38.080  31.955  34.380  1.00  0.00     0.031 C 
ATOM     40  C   UNL A   1      37.222  31.883  29.675  1.00  0.00     0.029 A 
ATOM     41  N   UNL A   1      39.271  31.577  30.448  1.00  0.00    -0.354 N 
ATOM     42  C   UNL A   1      40.030  33.039  34.774  1.00  0.00     0.074 A 
ATOM     43  C   UNL A   1      38.893  32.375  35.347  1.00  0.00     0.031 C 
ATOM     44  C   UNL A   1      37.829  30.997  28.848  1.00  0.00     0.029 A 
ATOM     45  C   UNL A   1      39.168  30.739  29.343  1.00  0.00     0.049 A 
ATOM     46  H   UNL A   1      40.120  31.742  30.919  1.00  0.00     0.167 HD
ATOM     47  C   UNL A   1      41.334  33.037  35.157  1.00  0.00     0.037 A 
ATOM     48  C   UNL A   1      40.108  29.823  28.996  1.00  0.00     0.037 A 
ATOM     49  C   UNL A   1      42.136  33.825  34.255  1.00  0.00     0.049 A 
ATOM     50  C   UNL A   1      41.373  30.218  29.686  1.00  0.00     0.074 A 
ATOM     51  C   UNL A   1      42.140  35.152  33.870  1.00  0.00     0.029 A 
ATOM     52  N   UNL A   1      42.860  33.154  33.298  1.00  0.00    -0.354 N 
ATOM     53  N   UNL A   1      42.039  31.307  29.404  1.00  0.00    -0.248 NA
ATOM     54  C   UNL A   1      41.599  29.679  31.022  1.00  0.00     0.031 C 
ATOM     55  C   UNL A   1      42.442  35.132  32.478  1.00  0.00     0.029 A 
ATOM     56  C   UNL A   1      42.672  33.807  32.108  1.00  0.00     0.049 A 
ATOM     57  H   UNL A   1      43.412  32.352  33.441  1.00  0.00     0.167 HD
ATOM     58  C   UNL A   1      42.440  31.812  30.636  1.00  0.00     0.074 A 
ATOM     59  C   UNL A   1      42.178  30.740  31.594  1.00  0.00     0.031 C 
ATOM     60  C   UNL A   1      42.667  33.145  30.822  1.00  0.00     0.037 A 
BRANCH  47  61
ATOM     61  C   UNL A   1      41.934  31.998  36.075  1.00  0.00     0.057 A 
ATOM     62  C   UNL A   1      42.688  32.438  37.176  1.00  0.00     0.134 A 
ATOM     63  C   UNL A   1      42.059  30.623  35.779  1.00  0.00     0.134 A 
ATOM     64  F   UNL A   1      42.652  33.720  37.568  1.00  0.00    -0.206 F 
ATOM     65  C   UNL A   1      43.576  31.600  37.859  1.00  0.00     0.040 A 
ATOM     66  C   UNL A   1      42.901  29.768  36.488  1.00  0.00     0.040 A 
ATOM     67  F   UNL A   1      41.461  30.039  34.736  1.00  0.00    -0.206 F 
ATOM     68  C   UNL A   1      43.694  30.262  37.507  1.00  0.00     0.006 A 
ENDBRANCH  47  61
BRANCH  48  69
ATOM     69  C   UNL A   1      39.876  28.454  28.478  1.00  0.00     0.057 A 
ATOM     70  C   UNL A   1      40.409  28.037  27.251  1.00  0.00     0.134 A 
ATOM     71  C   UNL A   1      39.345  27.437  29.293  1.00  0.00     0.134 A 
ATOM     72  F   UNL A   1      40.986  28.923  26.426  1.00  0.00    -0.206 F 
ATOM     73  C   UNL A   1      40.418  26.689  26.861  1.00  0.00     0.040 A 
ATOM     74  C   UNL A   1      39.342  26.091  28.915  1.00  0.00     0.040 A 
ATOM     75  F   UNL A   1      38.890  27.703  30.526  1.00  0.00    -0.206 F 
ATOM     76  C   UNL A   1      39.891  25.710  27.697  1.00  0.00     0.006 A 
ENDBRANCH  48  69
BRANCH  60  77
ATOM     77  C   UNL A   1      42.670  34.049  29.622  1.00  0.00     0.057 A 
ATOM     78  C   UNL A   1      41.540  34.752  29.175  1.00  0.00     0.134 A 
ATOM     79  C   UNL A   1      43.899  34.393  29.049  1.00  0.00     0.134 A 
ATOM     80  F   UNL A   1      40.339  34.554  29.732  1.00  0.00    -0.206 F 
ATOM     81  C   UNL A   1      41.631  35.742  28.192  1.00  0.00     0.040 A 
ATOM     82  C   UNL A   1      44.008  35.401  28.089  1.00  0.00     0.040 A 
ATOM     83  F   UNL A   1      45.028  33.801  29.470  1.00  0.00    -0.206 F 
ATOM     84  C   UNL A   1      42.871  36.078  27.656  1.00  0.00     0.006 A 
ENDBRANCH  60  77
ENDBRANCH  34  35
ENDBRANCH  27  29
ENDBRANCH  26  27
ENDBRANCH  25  26
ENDBRANCH  24  25
ENDBRANCH   1  24
TORSDOF 16
ENDMDL
MODEL 3
REMARK VINA RESULT:     -11.0      5.124      9.976
REMARK SMILES Cc1nsc(NC(=O)N2CCC[C@@H](C)C2)c1C(=O)OCCOCCOC(=O)c1ccc(-c2c3nc(c(-c4c(F)cccc4F)c4ccc([nH]4)c(-c4c(F)cccc4F)c4nc(c(-c5c(F)cccc5F)c5ccc2[nH]5)C=C4)C=C3)cc1
REMARK SMILES IDX 22 1 21 2 20 3 19 4 17 5 18 6 16 7 1 8 2 9 3 10 4 11 5 12
REMARK SMILES IDX 6 13 7 14 8 16 9 17 10 18 15 19 11 20 13 21 12 22 14 23
REMARK SMILES IDX 23 24 24 25 25 26 26 27 27 28 28 29 29 30 81 31 30 32 80 33
REMARK SMILES IDX 31 34 32 35 33 36 74 37 34 38 79 39 73 40 75 41 35 42 78 43
REMARK SMILES IDX 72 44 71 45 36 47 62 48 45 49 61 50 46 51 49 52 60 53 76 54
REMARK SMILES IDX 47 55 48 56 59 58 77 59 50 60 37 61 38 62 43 63 39 64 40 65
REMARK SMILES IDX 42 66 44 67 41 68 63 69 64 70 69 71 65 72 66 73 68 74 70 75
REMARK SMILES IDX 67 76 51 77 52 78 57 79 53 80 54 81 56 82 58 83 55 84
REMARK H PARENT 6 15 75 46 49 57
REMARK Flexibility Score: inf
ROOT
ATOM      1  O   UNL A   1      33.677  32.007  28.083  1.00  0.00    -0.374 OA
ENDROOT
BRANCH   1   2
ATOM      2  C   UNL A   1      34.013  30.935  27.202  1.00  0.00     0.202 C 
BRANCH   2   3
ATOM      3  C   UNL A   1      33.731  29.499  27.650  1.00  0.00     0.261 C 
BRANCH   3   4
ATOM      4  O   UNL A   1      33.097  28.741  26.604  1.00  0.00    -0.460 OA
BRANCH   4   5
ATOM      5  C   UNL A   1      31.963  28.074  26.954  1.00  0.00     0.343 C 
ATOM      6  O   UNL A   1      31.386  28.197  28.031  1.00  0.00    -0.246 OA
BRANCH   5   7
ATOM      7  C   UNL A   1      31.356  27.410  25.814  1.00  0.00     0.117 A 
ATOM      8  C   UNL A   1      31.096  29.394  24.106  1.00  0.00     0.069 C 
ATOM      9  C   UNL A   1      30.900  27.994  24.578  1.00  0.00     0.068 A 
ATOM     10  N   UNL A   1      30.234  27.174  23.762  1.00  0.00    -0.195 NA
ATOM     11  S   UNL A   1      30.076  25.701  24.491  1.00  0.00    -0.017 S 
ATOM     12  C   UNL A   1      31.044  26.055  25.840  1.00  0.00     0.132 A 
BRANCH  12  13
ATOM     13  N   UNL A   1      31.282  25.147  26.858  1.00  0.00    -0.297 N 
ATOM     14  C   UNL A   1      31.607  23.828  26.784  1.00  0.00     0.322 C 
ATOM     15  H   UNL A   1      31.204  25.509  27.770  1.00  0.00     0.172 HD
ATOM     16  O   UNL A   1      31.036  23.058  27.560  1.00  0.00    -0.248 OA
BRANCH  14  17
ATOM     17  N   UNL A   1      32.608  23.406  25.939  1.00  0.00    -0.324 N 
ATOM     18  C   UNL A   1      32.369  22.666  24.698  1.00  0.00     0.121 C 
ATOM     19  C   UNL A   1      33.890  24.108  25.989  1.00  0.00     0.124 C 
ATOM     20  C   UNL A   1      33.488  21.664  24.431  1.00  0.00     0.022 C 
ATOM     21  C   UNL A   1      35.064  23.155  25.732  1.00  0.00     0.005 C 
ATOM     22  C   UNL A   1      34.853  22.348  24.442  1.00  0.00     0.007 C 
ATOM     23  C   UNL A   1      36.382  23.923  25.667  1.00  0.00     0.009 C 
ENDBRANCH  14  17
ENDBRANCH  12  13
ENDBRANCH   5   7
ENDBRANCH   4   5
ENDBRANCH   3   4
ENDBRANCH   2   3
ENDBRANCH   1   2
BRANCH   1  24
ATOM     24  C   UNL A   1      34.540  33.129  28.241  1.00  0.00     0.202 C 
BRANCH  24  25
ATOM     25  C   UNL A   1      33.983  34.413  28.843  1.00  0.00     0.261 C 
BRANCH  25  26
ATOM     26  O   UNL A   1      33.309  34.152  30.061  1.00  0.00    -0.460 OA
BRANCH  26  27
ATOM     27  C   UNL A   1      33.619  35.026  31.045  1.00  0.00     0.338 C 
ATOM     28  O   UNL A   1      33.349  36.214  31.094  1.00  0.00    -0.246 OA
BRANCH  27  29
ATOM     29  C   UNL A   1      34.467  34.340  32.027  1.00  0.00     0.060 A 
ATOM     30  C   UNL A   1      35.544  35.106  32.474  1.00  0.00     0.016 A 
ATOM     31  C   UNL A   1      34.484  32.938  32.025  1.00  0.00     0.016 A 
ATOM     32  C   UNL A   1      36.766  34.490  32.523  1.00  0.00     0.010 A 
ATOM     33  C   UNL A   1      35.706  32.327  32.061  1.00  0.00     0.010 A 
ATOM     34  C   UNL A   1      36.831  33.138  32.177  1.00  0.00    -0.014 A 
BRANCH  34  35
ATOM     35  C   UNL A   1      38.137  32.564  31.980  1.00  0.00     0.031 A 
ATOM     36  C   UNL A   1      38.944  32.619  33.212  1.00  0.00     0.074 A 
ATOM     37  C   UNL A   1      38.486  31.975  30.823  1.00  0.00     0.049 A 
ATOM     38  N   UNL A   1      39.946  33.391  33.466  1.00  0.00    -0.248 NA
ATOM     39  C   UNL A   1      38.410  31.910  34.385  1.00  0.00     0.031 C 
ATOM     40  C   UNL A   1      37.647  31.633  29.671  1.00  0.00     0.029 A 
ATOM     41  N   UNL A   1      39.692  31.445  30.492  1.00  0.00    -0.354 N 
ATOM     42  C   UNL A   1      40.303  33.092  34.775  1.00  0.00     0.074 A 
ATOM     43  C   UNL A   1      39.185  32.400  35.351  1.00  0.00     0.031 C 
ATOM     44  C   UNL A   1      38.307  30.746  28.889  1.00  0.00     0.029 A 
ATOM     45  C   UNL A   1      39.647  30.565  29.416  1.00  0.00     0.049 A 
ATOM     46  H   UNL A   1      40.524  31.664  30.971  1.00  0.00     0.167 HD
ATOM     47  C   UNL A   1      41.598  33.160  35.180  1.00  0.00     0.037 A 
ATOM     48  C   UNL A   1      40.632  29.679  29.120  1.00  0.00     0.037 A 
ATOM     49  C   UNL A   1      42.383  33.951  34.264  1.00  0.00     0.049 A 
ATOM     50  C   UNL A   1      41.865  30.153  29.817  1.00  0.00     0.074 A 
ATOM     51  C   UNL A   1      42.337  35.262  33.832  1.00  0.00     0.029 A 
ATOM     52  N   UNL A   1      43.153  33.278  33.346  1.00  0.00    -0.354 N 
ATOM     53  N   UNL A   1      42.489  31.260  29.507  1.00  0.00    -0.248 NA
ATOM     54  C   UNL A   1      42.088  29.673  31.175  1.00  0.00     0.031 C 
ATOM     55  C   UNL A   1      42.666  35.206  32.447  1.00  0.00     0.029 A 
ATOM     56  C   UNL A   1      42.960  33.879  32.129  1.00  0.00     0.049 A 
ATOM     57  H   UNL A   1      43.737  32.507  33.528  1.00  0.00     0.167 HD
ATOM     58  C   UNL A   1      42.844  31.826  30.727  1.00  0.00     0.074 A 
ATOM     59  C   UNL A   1      42.609  30.778  31.718  1.00  0.00     0.031 C 
ATOM     60  C   UNL A   1      43.009  33.173  30.869  1.00  0.00     0.037 A 
BRANCH  47  61
ATOM     61  C   UNL A   1      42.224  32.182  36.146  1.00  0.00     0.057 A 
ATOM     62  C   UNL A   1      42.941  32.694  37.241  1.00  0.00     0.134 A 
ATOM     63  C   UNL A   1      42.411  30.804  35.904  1.00  0.00     0.134 A 
ATOM     64  F   UNL A   1      42.846  33.987  37.584  1.00  0.00    -0.206 F 
ATOM     65  C   UNL A   1      43.851  31.919  37.969  1.00  0.00     0.040 A 
ATOM     66  C   UNL A   1      43.276  30.011  36.658  1.00  0.00     0.040 A 
ATOM     67  F   UNL A   1      41.856  30.157  34.874  1.00  0.00    -0.206 F 
ATOM     68  C   UNL A   1      44.030  30.576  37.669  1.00  0.00     0.006 A 
ENDBRANCH  47  61
BRANCH  48  69
ATOM     69  C   UNL A   1      40.468  28.284  28.647  1.00  0.00     0.057 A 
ATOM     70  C   UNL A   1      39.756  27.337  29.395  1.00  0.00     0.134 A 
ATOM     71  C   UNL A   1      40.782  27.911  27.326  1.00  0.00     0.134 A 
ATOM     72  F   UNL A   1      39.363  27.618  30.646  1.00  0.00    -0.206 F 
ATOM     73  C   UNL A   1      39.374  26.097  28.861  1.00  0.00     0.040 A 
ATOM     74  C   UNL A   1      40.414  26.677  26.783  1.00  0.00     0.040 A 
ATOM     75  F   UNL A   1      41.381  28.769  26.487  1.00  0.00    -0.206 F 
ATOM     76  C   UNL A   1      39.696  25.767  27.548  1.00  0.00     0.006 A 
ENDBRANCH  48  69
BRANCH  60  77
ATOM     77  C   UNL A   1      42.996  34.033  29.636  1.00  0.00     0.057 A 
ATOM     78  C   UNL A   1      41.855  34.701  29.167  1.00  0.00     0.134 A 
ATOM     79  C   UNL A   1      44.218  34.375  29.049  1.00  0.00     0.134 A 
ATOM     80  F   UNL A   1      40.657  34.505  29.733  1.00  0.00    -0.206 F 
ATOM     81  C   UNL A   1      41.929  35.657  28.148  1.00  0.00     0.040 A 
ATOM     82  C   UNL A   1      44.310  35.349  28.054  1.00  0.00     0.040 A 
ATOM     83  F   UNL A   1      45.357  33.816  29.489  1.00  0.00    -0.206 F 
ATOM     84  C   UNL A   1      43.163  35.992  27.598  1.00  0.00     0.006 A 
ENDBRANCH  60  77
ENDBRANCH  34  35
ENDBRANCH  27  29
ENDBRANCH  26  27
ENDBRANCH  25  26
ENDBRANCH  24  25
ENDBRANCH   1  24
TORSDOF 16
ENDMDL
