MODEL 1
REMARK VINA RESULT:     -11.7      0.000      0.000
REMARK SMILES Cc1ccc(S(=O)(=O)Nc2ccc(C(=O)CCC(=O)OCCOCCOC(=O)c3ccc(-c4c5nc(c(-c6c(F)cccc6F)c6ccc([nH]6)c(-c6c(F)cccc6F)c6nc(c(-c7c(F)cccc7F)c7ccc4[nH]7)C=C6)C=C5)cc3)cc2)c(C)c1
REMARK SMILES IDX 21 1 20 2 18 3 19 4 17 5 16 6 14 7 15 8 13 9 10 10 11 11
REMARK SMILES IDX 84 12 12 13 83 14 9 15 6 17 7 18 8 19 5 20 1 21 2 22 3 23
REMARK SMILES IDX 87 24 4 25 85 26 86 27 22 28 23 29 24 30 25 31 26 32 27 33
REMARK SMILES IDX 28 34 29 35 30 36 82 37 31 38 81 39 32 40 33 41 34 42 75 43
REMARK SMILES IDX 35 44 80 45 74 46 76 47 36 48 79 49 73 50 72 51 37 53 63 54
REMARK SMILES IDX 46 55 62 56 47 57 50 58 61 59 77 60 48 61 49 62 60 64 78 65
REMARK SMILES IDX 51 66 38 67 39 68 44 69 40 70 41 71 43 72 45 73 42 74 64 75
REMARK SMILES IDX 65 76 70 77 66 78 67 79 69 80 71 81 68 82 52 83 53 84 58 85
REMARK SMILES IDX 54 86 55 87 57 88 59 89 56 90
REMARK H PARENT 9 16 76 52 50 63
REMARK Flexibility Score: inf
ROOT
ATOM      1  C   UNL A   1      45.048  18.753  25.518  1.00  0.00     0.261 C 
ENDROOT
BRANCH   1   2
ATOM      2  O   UNL A   1      43.809  19.485  25.499  1.00  0.00    -0.463 OA
BRANCH   2   3
ATOM      3  C   UNL A   1      42.708  18.859  25.966  1.00  0.00     0.306 C 
ATOM      4  O   UNL A   1      42.460  17.671  25.798  1.00  0.00    -0.252 OA
BRANCH   3   5
ATOM      5  C   UNL A   1      41.778  19.794  26.720  1.00  0.00     0.131 C 
BRANCH   5   6
ATOM      6  C   UNL A   1      40.422  20.112  26.087  1.00  0.00     0.093 C 
BRANCH   6   7
ATOM      7  C   UNL A   1      39.812  21.394  26.645  1.00  0.00     0.163 C 
ATOM      8  O   UNL A   1      40.255  21.912  27.668  1.00  0.00    -0.294 OA
BRANCH   7   9
ATOM      9  C   UNL A   1      38.605  21.984  26.001  1.00  0.00     0.018 A 
ATOM     10  C   UNL A   1      36.511  23.185  24.531  1.00  0.00     0.049 A 
ATOM     11  C   UNL A   1      36.799  21.823  24.389  1.00  0.00     0.027 A 
ATOM     12  C   UNL A   1      37.222  23.906  25.472  1.00  0.00     0.027 A 
ATOM     13  C   UNL A   1      37.838  21.222  25.119  1.00  0.00     0.014 A 
ATOM     14  C   UNL A   1      38.238  23.304  26.220  1.00  0.00     0.014 A 
BRANCH  10  15
ATOM     15  N   UNL A   1      35.483  23.755  23.727  1.00  0.00    -0.280 N 
ATOM     16  H   UNL A   1      35.771  24.320  22.975  1.00  0.00     0.180 HD
BRANCH  15  17
ATOM     17  S   UNL A   1      33.829  23.558  23.939  1.00  0.00     0.262 S 
ATOM     18  O   UNL A   1      33.610  22.475  24.872  1.00  0.00    -0.201 OA
ATOM     19  O   UNL A   1      33.273  23.522  22.602  1.00  0.00    -0.201 OA
BRANCH  17  20
ATOM     20  C   UNL A   1      33.217  25.048  24.714  1.00  0.00     0.090 A 
ATOM     21  C   UNL A   1      32.065  28.103  27.505  1.00  0.00     0.044 C 
ATOM     22  C   UNL A   1      32.431  27.098  26.454  1.00  0.00    -0.051 A 
ATOM     23  C   UNL A   1      33.713  27.102  25.900  1.00  0.00     0.005 A 
ATOM     24  C   UNL A   1      31.501  26.151  26.010  1.00  0.00     0.008 A 
ATOM     25  C   UNL A   1      34.106  26.082  25.034  1.00  0.00     0.023 A 
ATOM     26  C   UNL A   1      31.875  25.116  25.135  1.00  0.00    -0.030 A 
ATOM     27  C   UNL A   1      30.791  24.209  24.613  1.00  0.00     0.046 C 
ENDBRANCH  17  20
ENDBRANCH  15  17
ENDBRANCH  10  15
ENDBRANCH   7   9
ENDBRANCH   6   7
ENDBRANCH   5   6
ENDBRANCH   3   5
ENDBRANCH   2   3
ENDBRANCH   1   2
BRANCH   1  28
ATOM     28  C   UNL A   1      46.161  19.552  24.829  1.00  0.00     0.202 C 
BRANCH  28  29
ATOM     29  O   UNL A   1      45.686  20.748  24.216  1.00  0.00    -0.374 OA
BRANCH  29  30
ATOM     30  C   UNL A   1      46.237  21.966  24.724  1.00  0.00     0.202 C 
BRANCH  30  31
ATOM     31  C   UNL A   1      45.886  23.211  23.896  1.00  0.00     0.261 C 
BRANCH  31  32
ATOM     32  O   UNL A   1      45.111  24.180  24.648  1.00  0.00    -0.460 OA
BRANCH  32  33
ATOM     33  C   UNL A   1      43.776  23.929  24.747  1.00  0.00     0.338 C 
ATOM     34  O   UNL A   1      43.177  23.025  24.188  1.00  0.00    -0.246 OA
BRANCH  33  35
ATOM     35  C   UNL A   1      43.098  24.865  25.692  1.00  0.00     0.060 A 
ATOM     36  C   UNL A   1      43.722  26.091  25.961  1.00  0.00     0.016 A 
ATOM     37  C   UNL A   1      41.889  24.566  26.332  1.00  0.00     0.016 A 
ATOM     38  C   UNL A   1      43.149  27.010  26.856  1.00  0.00     0.010 A 
ATOM     39  C   UNL A   1      41.319  25.485  27.237  1.00  0.00     0.010 A 
ATOM     40  C   UNL A   1      41.955  26.707  27.525  1.00  0.00    -0.014 A 
BRANCH  40  41
ATOM     41  C   UNL A   1      41.510  27.558  28.672  1.00  0.00     0.031 A 
ATOM     42  C   UNL A   1      42.265  27.453  29.965  1.00  0.00     0.074 A 
ATOM     43  C   UNL A   1      40.485  28.430  28.607  1.00  0.00     0.049 A 
ATOM     44  N   UNL A   1      42.094  28.116  31.080  1.00  0.00    -0.248 NA
ATOM     45  C   UNL A   1      43.357  26.471  29.999  1.00  0.00     0.031 C 
ATOM     46  C   UNL A   1      39.674  28.664  27.428  1.00  0.00     0.029 A 
ATOM     47  N   UNL A   1      39.945  29.276  29.548  1.00  0.00    -0.354 N 
ATOM     48  C   UNL A   1      43.075  27.651  31.942  1.00  0.00     0.074 A 
ATOM     49  C   UNL A   1      43.805  26.619  31.235  1.00  0.00     0.031 C 
ATOM     50  C   UNL A   1      38.733  29.583  27.699  1.00  0.00     0.029 A 
ATOM     51  C   UNL A   1      38.852  29.983  29.100  1.00  0.00     0.049 A 
ATOM     52  H   UNL A   1      40.306  29.368  30.460  1.00  0.00     0.167 HD
ATOM     53  C   UNL A   1      43.354  28.049  33.204  1.00  0.00     0.037 A 
ATOM     54  C   UNL A   1      38.023  30.833  29.742  1.00  0.00     0.037 A 
ATOM     55  C   UNL A   1      42.607  29.029  33.943  1.00  0.00     0.049 A 
ATOM     56  C   UNL A   1      38.270  31.166  31.190  1.00  0.00     0.074 A 
ATOM     57  C   UNL A   1      42.827  29.486  35.230  1.00  0.00     0.029 A 
ATOM     58  N   UNL A   1      41.476  29.680  33.474  1.00  0.00    -0.354 N 
ATOM     59  N   UNL A   1      39.242  30.767  31.972  1.00  0.00    -0.248 NA
ATOM     60  C   UNL A   1      37.308  32.066  31.847  1.00  0.00     0.031 C 
ATOM     61  C   UNL A   1      41.793  30.368  35.563  1.00  0.00     0.029 A 
ATOM     62  C   UNL A   1      40.962  30.504  34.462  1.00  0.00     0.049 A 
ATOM     63  H   UNL A   1      41.094  29.572  32.573  1.00  0.00     0.167 HD
ATOM     64  C   UNL A   1      39.033  31.395  33.195  1.00  0.00     0.074 A 
ATOM     65  C   UNL A   1      37.838  32.199  33.056  1.00  0.00     0.031 C 
ATOM     66  C   UNL A   1      39.780  31.318  34.322  1.00  0.00     0.037 A 
BRANCH  53  67
ATOM     67  C   UNL A   1      44.509  27.367  33.869  1.00  0.00     0.057 A 
ATOM     68  C   UNL A   1      44.345  26.170  34.578  1.00  0.00     0.134 A 
ATOM     69  C   UNL A   1      45.786  27.938  33.838  1.00  0.00     0.134 A 
ATOM     70  F   UNL A   1      43.138  25.588  34.663  1.00  0.00    -0.206 F 
ATOM     71  C   UNL A   1      45.406  25.585  35.269  1.00  0.00     0.040 A 
ATOM     72  C   UNL A   1      46.859  27.348  34.503  1.00  0.00     0.040 A 
ATOM     73  F   UNL A   1      46.003  29.085  33.178  1.00  0.00    -0.206 F 
ATOM     74  C   UNL A   1      46.668  26.174  35.230  1.00  0.00     0.006 A 
ENDBRANCH  53  67
BRANCH  54  75
ATOM     75  C   UNL A   1      36.853  31.418  29.032  1.00  0.00     0.057 A 
ATOM     76  C   UNL A   1      36.848  32.751  28.603  1.00  0.00     0.134 A 
ATOM     77  C   UNL A   1      35.696  30.664  28.801  1.00  0.00     0.134 A 
ATOM     78  F   UNL A   1      37.913  33.534  28.822  1.00  0.00    -0.206 F 
ATOM     79  C   UNL A   1      35.733  33.314  27.978  1.00  0.00     0.040 A 
ATOM     80  C   UNL A   1      34.582  31.208  28.159  1.00  0.00     0.040 A 
ATOM     81  F   UNL A   1      35.634  29.383  29.191  1.00  0.00    -0.206 F 
ATOM     82  C   UNL A   1      34.596  32.540  27.751  1.00  0.00     0.006 A 
ENDBRANCH  54  75
BRANCH  66  83
ATOM     83  C   UNL A   1      39.372  32.160  35.496  1.00  0.00     0.057 A 
ATOM     84  C   UNL A   1      39.819  33.477  35.660  1.00  0.00     0.134 A 
ATOM     85  C   UNL A   1      38.452  31.670  36.433  1.00  0.00     0.134 A 
ATOM     86  F   UNL A   1      40.710  34.004  34.808  1.00  0.00    -0.206 F 
ATOM     87  C   UNL A   1      39.369  34.273  36.716  1.00  0.00     0.040 A 
ATOM     88  C   UNL A   1      37.977  32.462  37.478  1.00  0.00     0.040 A 
ATOM     89  F   UNL A   1      37.979  30.418  36.330  1.00  0.00    -0.206 F 
ATOM     90  C   UNL A   1      38.437  33.770  37.622  1.00  0.00     0.006 A 
ENDBRANCH  66  83
ENDBRANCH  40  41
ENDBRANCH  33  35
ENDBRANCH  32  33
ENDBRANCH  31  32
ENDBRANCH  30  31
ENDBRANCH  29  30
ENDBRANCH  28  29
ENDBRANCH   1  28
TORSDOF 20
ENDMDL
MODEL 2
REMARK VINA RESULT:     -10.7      5.428     10.988
REMARK SMILES Cc1ccc(S(=O)(=O)Nc2ccc(C(=O)CCC(=O)OCCOCCOC(=O)c3ccc(-c4c5nc(c(-c6c(F)cccc6F)c6ccc([nH]6)c(-c6c(F)cccc6F)c6nc(c(-c7c(F)cccc7F)c7ccc4[nH]7)C=C6)C=C5)cc3)cc2)c(C)c1
REMARK SMILES IDX 21 1 20 2 18 3 19 4 17 5 16 6 14 7 15 8 13 9 10 10 11 11
REMARK SMILES IDX 84 12 12 13 83 14 9 15 6 17 7 18 8 19 5 20 1 21 2 22 3 23
REMARK SMILES IDX 87 24 4 25 85 26 86 27 22 28 23 29 24 30 25 31 26 32 27 33
REMARK SMILES IDX 28 34 29 35 30 36 82 37 31 38 81 39 32 40 33 41 34 42 75 43
REMARK SMILES IDX 35 44 80 45 74 46 76 47 36 48 79 49 73 50 72 51 37 53 63 54
REMARK SMILES IDX 46 55 62 56 47 57 50 58 61 59 77 60 48 61 49 62 60 64 78 65
REMARK SMILES IDX 51 66 38 67 39 68 44 69 40 70 41 71 43 72 45 73 42 74 64 75
REMARK SMILES IDX 65 76 70 77 66 78 67 79 69 80 71 81 68 82 52 83 53 84 58 85
REMARK SMILES IDX 54 86 55 87 57 88 59 89 56 90
REMARK H PARENT 9 16 76 52 50 63
REMARK Flexibility Score: inf
ROOT
ATOM      1  C   UNL A   1      33.487  35.619  29.837  1.00  0.00     0.261 C 
ENDROOT
BRANCH   1   2
ATOM      2  O   UNL A   1      32.607  34.567  29.401  1.00  0.00    -0.463 OA
BRANCH   2   3
ATOM      3  C   UNL A   1      32.897  33.957  28.232  1.00  0.00     0.306 C 
ATOM      4  O   UNL A   1      32.147  33.916  27.265  1.00  0.00    -0.252 OA
BRANCH   3   5
ATOM      5  C   UNL A   1      34.264  33.294  28.241  1.00  0.00     0.131 C 
BRANCH   5   6
ATOM      6  C   UNL A   1      34.376  31.900  28.859  1.00  0.00     0.093 C 
BRANCH   6   7
ATOM      7  C   UNL A   1      34.932  30.875  27.876  1.00  0.00     0.163 C 
ATOM      8  O   UNL A   1      36.122  30.878  27.566  1.00  0.00    -0.294 OA
BRANCH   7   9
ATOM      9  C   UNL A   1      34.014  29.911  27.208  1.00  0.00     0.018 A 
ATOM     10  C   UNL A   1      32.228  27.949  26.234  1.00  0.00     0.049 A 
ATOM     11  C   UNL A   1      31.760  29.194  26.668  1.00  0.00     0.027 A 
ATOM     12  C   UNL A   1      33.594  27.738  26.214  1.00  0.00     0.027 A 
ATOM     13  C   UNL A   1      32.645  30.172  27.152  1.00  0.00     0.014 A 
ATOM     14  C   UNL A   1      34.479  28.721  26.668  1.00  0.00     0.014 A 
BRANCH  10  15
ATOM     15  N   UNL A   1      31.285  26.973  25.804  1.00  0.00    -0.280 N 
ATOM     16  H   UNL A   1      30.815  26.471  26.508  1.00  0.00     0.180 HD
BRANCH  15  17
ATOM     17  S   UNL A   1      30.895  26.597  24.215  1.00  0.00     0.262 S 
ATOM     18  O   UNL A   1      29.921  25.526  24.221  1.00  0.00    -0.201 OA
ATOM     19  O   UNL A   1      32.163  26.453  23.532  1.00  0.00    -0.201 OA
BRANCH  17  20
ATOM     20  C   UNL A   1      30.090  28.032  23.517  1.00  0.00     0.090 A 
ATOM     21  C   UNL A   1      28.048  30.811  20.956  1.00  0.00     0.044 C 
ATOM     22  C   UNL A   1      28.764  29.916  21.923  1.00  0.00    -0.051 A 
ATOM     23  C   UNL A   1      28.036  29.077  22.770  1.00  0.00     0.005 A 
ATOM     24  C   UNL A   1      30.161  29.909  21.997  1.00  0.00     0.008 A 
ATOM     25  C   UNL A   1      28.694  28.138  23.563  1.00  0.00     0.023 A 
ATOM     26  C   UNL A   1      30.846  28.973  22.793  1.00  0.00    -0.030 A 
ATOM     27  C   UNL A   1      32.342  29.108  22.908  1.00  0.00     0.046 C 
ENDBRANCH  17  20
ENDBRANCH  15  17
ENDBRANCH  10  15
ENDBRANCH   7   9
ENDBRANCH   6   7
ENDBRANCH   5   6
ENDBRANCH   3   5
ENDBRANCH   2   3
ENDBRANCH   1   2
BRANCH   1  28
ATOM     28  C   UNL A   1      32.983  36.240  31.146  1.00  0.00     0.202 C 
BRANCH  28  29
ATOM     29  O   UNL A   1      34.006  36.360  32.132  1.00  0.00    -0.374 OA
BRANCH  29  30
ATOM     30  C   UNL A   1      34.353  35.153  32.815  1.00  0.00     0.202 C 
BRANCH  30  31
ATOM     31  C   UNL A   1      35.849  34.806  32.761  1.00  0.00     0.261 C 
BRANCH  31  32
ATOM     32  O   UNL A   1      36.145  33.518  33.361  1.00  0.00    -0.460 OA
BRANCH  32  33
ATOM     33  C   UNL A   1      36.009  32.435  32.546  1.00  0.00     0.338 C 
ATOM     34  O   UNL A   1      34.962  31.865  32.285  1.00  0.00    -0.246 OA
BRANCH  33  35
ATOM     35  C   UNL A   1      37.307  32.032  31.928  1.00  0.00     0.060 A 
ATOM     36  C   UNL A   1      37.481  32.263  30.557  1.00  0.00     0.016 A 
ATOM     37  C   UNL A   1      38.341  31.421  32.648  1.00  0.00     0.016 A 
ATOM     38  C   UNL A   1      38.669  31.890  29.908  1.00  0.00     0.010 A 
ATOM     39  C   UNL A   1      39.531  31.037  31.994  1.00  0.00     0.010 A 
ATOM     40  C   UNL A   1      39.697  31.248  30.613  1.00  0.00    -0.014 A 
BRANCH  40  41
ATOM     41  C   UNL A   1      40.824  30.608  29.864  1.00  0.00     0.031 A 
ATOM     42  C   UNL A   1      42.029  31.444  29.549  1.00  0.00     0.074 A 
ATOM     43  C   UNL A   1      40.829  29.318  29.475  1.00  0.00     0.049 A 
ATOM     44  N   UNL A   1      43.141  31.102  28.950  1.00  0.00    -0.248 NA
ATOM     45  C   UNL A   1      41.969  32.851  29.969  1.00  0.00     0.031 C 
ATOM     46  C   UNL A   1      39.755  28.376  29.723  1.00  0.00     0.029 A 
ATOM     47  N   UNL A   1      41.761  28.576  28.787  1.00  0.00    -0.354 N 
ATOM     48  C   UNL A   1      43.926  32.244  28.945  1.00  0.00     0.074 A 
ATOM     49  C   UNL A   1      43.144  33.298  29.557  1.00  0.00     0.031 C 
ATOM     50  C   UNL A   1      40.068  27.180  29.198  1.00  0.00     0.029 A 
ATOM     51  C   UNL A   1      41.367  27.281  28.536  1.00  0.00     0.049 A 
ATOM     52  H   UNL A   1      42.631  28.937  28.500  1.00  0.00     0.167 HD
ATOM     53  C   UNL A   1      45.186  32.406  28.482  1.00  0.00     0.037 A 
ATOM     54  C   UNL A   1      41.963  26.294  27.833  1.00  0.00     0.037 A 
ATOM     55  C   UNL A   1      45.957  31.390  27.820  1.00  0.00     0.049 A 
ATOM     56  C   UNL A   1      43.313  26.533  27.209  1.00  0.00     0.074 A 
ATOM     57  C   UNL A   1      47.244  31.477  27.319  1.00  0.00     0.029 A 
ATOM     58  N   UNL A   1      45.502  30.111  27.535  1.00  0.00    -0.354 N 
ATOM     59  N   UNL A   1      44.071  27.599  27.269  1.00  0.00    -0.248 NA
ATOM     60  C   UNL A   1      43.894  25.433  26.421  1.00  0.00     0.031 C 
ATOM     61  C   UNL A   1      47.545  30.271  26.677  1.00  0.00     0.029 A 
ATOM     62  C   UNL A   1      46.468  29.413  26.829  1.00  0.00     0.049 A 
ATOM     63  H   UNL A   1      44.623  29.753  27.796  1.00  0.00     0.167 HD
ATOM     64  C   UNL A   1      45.228  27.288  26.565  1.00  0.00     0.074 A 
ATOM     65  C   UNL A   1      45.074  25.934  26.080  1.00  0.00     0.031 C 
ATOM     66  C   UNL A   1      46.324  28.058  26.357  1.00  0.00     0.037 A 
BRANCH  53  67
ATOM     67  C   UNL A   1      45.779  33.770  28.649  1.00  0.00     0.057 A 
ATOM     68  C   UNL A   1      45.639  34.757  27.664  1.00  0.00     0.134 A 
ATOM     69  C   UNL A   1      46.535  34.082  29.784  1.00  0.00     0.134 A 
ATOM     70  F   UNL A   1      44.946  34.507  26.543  1.00  0.00    -0.206 F 
ATOM     71  C   UNL A   1      46.266  35.996  27.786  1.00  0.00     0.040 A 
ATOM     72  C   UNL A   1      47.145  35.327  29.928  1.00  0.00     0.040 A 
ATOM     73  F   UNL A   1      46.707  33.177  30.758  1.00  0.00    -0.206 F 
ATOM     74  C   UNL A   1      47.021  36.284  28.922  1.00  0.00     0.006 A 
ENDBRANCH  53  67
BRANCH  54  75
ATOM     75  C   UNL A   1      41.279  24.985  27.651  1.00  0.00     0.057 A 
ATOM     76  C   UNL A   1      41.660  23.853  28.380  1.00  0.00     0.134 A 
ATOM     77  C   UNL A   1      40.252  24.831  26.712  1.00  0.00     0.134 A 
ATOM     78  F   UNL A   1      42.657  23.927  29.272  1.00  0.00    -0.206 F 
ATOM     79  C   UNL A   1      41.049  22.613  28.177  1.00  0.00     0.040 A 
ATOM     80  C   UNL A   1      39.618  23.603  26.513  1.00  0.00     0.040 A 
ATOM     81  F   UNL A   1      39.843  25.875  25.978  1.00  0.00    -0.206 F 
ATOM     82  C   UNL A   1      40.022  22.486  27.243  1.00  0.00     0.006 A 
ENDBRANCH  54  75
BRANCH  66  83
ATOM     83  C   UNL A   1      47.479  27.453  25.615  1.00  0.00     0.057 A 
ATOM     84  C   UNL A   1      47.599  27.539  24.222  1.00  0.00     0.134 A 
ATOM     85  C   UNL A   1      48.529  26.843  26.316  1.00  0.00     0.134 A 
ATOM     86  F   UNL A   1      46.624  28.097  23.489  1.00  0.00    -0.206 F 
ATOM     87  C   UNL A   1      48.718  27.038  23.554  1.00  0.00     0.040 A 
ATOM     88  C   UNL A   1      49.663  26.360  25.662  1.00  0.00     0.040 A 
ATOM     89  F   UNL A   1      48.480  26.734  27.652  1.00  0.00    -0.206 F 
ATOM     90  C   UNL A   1      49.759  26.456  24.276  1.00  0.00     0.006 A 
ENDBRANCH  66  83
ENDBRANCH  40  41
ENDBRANCH  33  35
ENDBRANCH  32  33
ENDBRANCH  31  32
ENDBRANCH  30  31
ENDBRANCH  29  30
ENDBRANCH  28  29
ENDBRANCH   1  28
TORSDOF 20
ENDMDL
MODEL 3
REMARK VINA RESULT:     -10.7      1.841      3.030
REMARK SMILES Cc1ccc(S(=O)(=O)Nc2ccc(C(=O)CCC(=O)OCCOCCOC(=O)c3ccc(-c4c5nc(c(-c6c(F)cccc6F)c6ccc([nH]6)c(-c6c(F)cccc6F)c6nc(c(-c7c(F)cccc7F)c7ccc4[nH]7)C=C6)C=C5)cc3)cc2)c(C)c1
REMARK SMILES IDX 21 1 20 2 18 3 19 4 17 5 16 6 14 7 15 8 13 9 10 10 11 11
REMARK SMILES IDX 84 12 12 13 83 14 9 15 6 17 7 18 8 19 5 20 1 21 2 22 3 23
REMARK SMILES IDX 87 24 4 25 85 26 86 27 22 28 23 29 24 30 25 31 26 32 27 33
REMARK SMILES IDX 28 34 29 35 30 36 82 37 31 38 81 39 32 40 33 41 34 42 75 43
REMARK SMILES IDX 35 44 80 45 74 46 76 47 36 48 79 49 73 50 72 51 37 53 63 54
REMARK SMILES IDX 46 55 62 56 47 57 50 58 61 59 77 60 48 61 49 62 60 64 78 65
REMARK SMILES IDX 51 66 38 67 39 68 44 69 40 70 41 71 43 72 45 73 42 74 64 75
REMARK SMILES IDX 65 76 70 77 66 78 67 79 69 80 71 81 68 82 52 83 53 84 58 85
REMARK SMILES IDX 54 86 55 87 57 88 59 89 56 90
REMARK H PARENT 9 16 76 52 50 63
REMARK Flexibility Score: inf
ROOT
ATOM      1  C   UNL A   1      43.167  19.518  25.853  1.00  0.00     0.261 C 
ENDROOT
BRANCH   1   2
ATOM      2  O   UNL A   1      41.919  19.311  25.167  1.00  0.00    -0.463 OA
BRANCH   2   3
ATOM      3  C   UNL A   1      40.799  19.784  25.754  1.00  0.00     0.306 C 
ATOM      4  O   UNL A   1      39.721  19.203  25.763  1.00  0.00    -0.252 OA
BRANCH   3   5
ATOM      5  C   UNL A   1      41.006  21.144  26.398  1.00  0.00     0.131 C 
BRANCH   5   6
ATOM      6  C   UNL A   1      39.814  21.781  27.116  1.00  0.00     0.093 C 
BRANCH   6   7
ATOM      7  C   UNL A   1      39.289  23.011  26.383  1.00  0.00     0.163 C 
ATOM      8  O   UNL A   1      39.925  24.063  26.379  1.00  0.00    -0.294 OA
BRANCH   7   9
ATOM      9  C   UNL A   1      37.948  22.976  25.737  1.00  0.00     0.018 A 
ATOM     10  C   UNL A   1      35.286  22.811  24.800  1.00  0.00     0.049 A 
ATOM     11  C   UNL A   1      35.786  24.002  25.336  1.00  0.00     0.027 A 
ATOM     12  C   UNL A   1      36.154  21.744  24.662  1.00  0.00     0.027 A 
ATOM     13  C   UNL A   1      37.109  24.088  25.802  1.00  0.00     0.014 A 
ATOM     14  C   UNL A   1      37.479  21.836  25.099  1.00  0.00     0.014 A 
BRANCH  10  15
ATOM     15  N   UNL A   1      33.923  22.761  24.392  1.00  0.00    -0.280 N 
ATOM     16  H   UNL A   1      33.707  23.159  23.519  1.00  0.00     0.180 HD
BRANCH  15  17
ATOM     17  S   UNL A   1      32.648  22.092  25.256  1.00  0.00     0.262 S 
ATOM     18  O   UNL A   1      31.419  22.721  24.824  1.00  0.00    -0.201 OA
ATOM     19  O   UNL A   1      33.063  22.129  26.643  1.00  0.00    -0.201 OA
BRANCH  17  20
ATOM     20  C   UNL A   1      32.545  20.369  24.792  1.00  0.00     0.090 A 
ATOM     21  C   UNL A   1      33.404  16.334  23.594  1.00  0.00     0.044 C 
ATOM     22  C   UNL A   1      33.002  17.717  24.014  1.00  0.00    -0.051 A 
ATOM     23  C   UNL A   1      32.973  18.055  25.368  1.00  0.00     0.005 A 
ATOM     24  C   UNL A   1      32.649  18.683  23.064  1.00  0.00     0.008 A 
ATOM     25  C   UNL A   1      32.746  19.375  25.757  1.00  0.00     0.023 A 
ATOM     26  C   UNL A   1      32.413  20.019  23.434  1.00  0.00    -0.030 A 
ATOM     27  C   UNL A   1      31.923  20.968  22.372  1.00  0.00     0.046 C 
ENDBRANCH  17  20
ENDBRANCH  15  17
ENDBRANCH  10  15
ENDBRANCH   7   9
ENDBRANCH   6   7
ENDBRANCH   5   6
ENDBRANCH   3   5
ENDBRANCH   2   3
ENDBRANCH   1   2
BRANCH   1  28
ATOM     28  C   UNL A   1      44.332  18.925  25.051  1.00  0.00     0.202 C 
BRANCH  28  29
ATOM     29  O   UNL A   1      45.186  19.923  24.494  1.00  0.00    -0.374 OA
BRANCH  29  30
ATOM     30  C   UNL A   1      45.975  20.657  25.433  1.00  0.00     0.202 C 
BRANCH  30  31
ATOM     31  C   UNL A   1      46.018  22.171  25.173  1.00  0.00     0.261 C 
BRANCH  31  32
ATOM     32  O   UNL A   1      44.936  22.880  25.829  1.00  0.00    -0.460 OA
BRANCH  32  33
ATOM     33  C   UNL A   1      44.713  24.155  25.405  1.00  0.00     0.338 C 
ATOM     34  O   UNL A   1      45.066  24.622  24.334  1.00  0.00    -0.246 OA
BRANCH  33  35
ATOM     35  C   UNL A   1      43.910  24.941  26.387  1.00  0.00     0.060 A 
ATOM     36  C   UNL A   1      43.841  26.331  26.216  1.00  0.00     0.016 A 
ATOM     37  C   UNL A   1      43.247  24.360  27.475  1.00  0.00     0.016 A 
ATOM     38  C   UNL A   1      43.120  27.133  27.115  1.00  0.00     0.010 A 
ATOM     39  C   UNL A   1      42.531  25.167  28.383  1.00  0.00     0.010 A 
ATOM     40  C   UNL A   1      42.479  26.564  28.225  1.00  0.00    -0.014 A 
BRANCH  40  41
ATOM     41  C   UNL A   1      41.962  27.447  29.317  1.00  0.00     0.031 A 
ATOM     42  C   UNL A   1      42.661  27.414  30.644  1.00  0.00     0.074 A 
ATOM     43  C   UNL A   1      40.919  28.287  29.172  1.00  0.00     0.049 A 
ATOM     44  N   UNL A   1      42.423  28.114  31.723  1.00  0.00    -0.248 NA
ATOM     45  C   UNL A   1      43.775  26.464  30.765  1.00  0.00     0.031 C 
ATOM     46  C   UNL A   1      40.156  28.454  27.950  1.00  0.00     0.029 A 
ATOM     47  N   UNL A   1      40.315  29.155  30.054  1.00  0.00    -0.354 N 
ATOM     48  C   UNL A   1      43.376  27.710  32.645  1.00  0.00     0.074 A 
ATOM     49  C   UNL A   1      44.163  26.671  32.013  1.00  0.00     0.031 C 
ATOM     50  C   UNL A   1      39.180  29.356  28.142  1.00  0.00     0.029 A 
ATOM     51  C   UNL A   1      39.227  29.813  29.530  1.00  0.00     0.049 A 
ATOM     52  H   UNL A   1      40.633  29.292  30.975  1.00  0.00     0.167 HD
ATOM     53  C   UNL A   1      43.588  28.165  33.901  1.00  0.00     0.037 A 
ATOM     54  C   UNL A   1      38.348  30.665  30.100  1.00  0.00     0.037 A 
ATOM     55  C   UNL A   1      42.784  29.152  34.567  1.00  0.00     0.049 A 
ATOM     56  C   UNL A   1      38.521  31.060  31.543  1.00  0.00     0.074 A 
ATOM     57  C   UNL A   1      42.934  29.665  35.843  1.00  0.00     0.029 A 
ATOM     58  N   UNL A   1      41.658  29.753  34.023  1.00  0.00    -0.354 N 
ATOM     59  N   UNL A   1      39.467  30.719  32.383  1.00  0.00    -0.248 NA
ATOM     60  C   UNL A   1      37.508  31.959  32.121  1.00  0.00     0.031 C 
ATOM     61  C   UNL A   1      41.864  30.530  36.094  1.00  0.00     0.029 A 
ATOM     62  C   UNL A   1      41.080  30.601  34.954  1.00  0.00     0.049 A 
ATOM     63  H   UNL A   1      41.320  29.599  33.111  1.00  0.00     0.167 HD
ATOM     64  C   UNL A   1      39.188  31.388  33.568  1.00  0.00     0.074 A 
ATOM     65  C   UNL A   1      37.980  32.153  33.345  1.00  0.00     0.031 C 
ATOM     66  C   UNL A   1      39.885  31.376  34.730  1.00  0.00     0.037 A 
BRANCH  53  67
ATOM     67  C   UNL A   1      44.729  27.541  34.643  1.00  0.00     0.057 A 
ATOM     68  C   UNL A   1      44.551  26.401  35.439  1.00  0.00     0.134 A 
ATOM     69  C   UNL A   1      46.004  28.113  34.597  1.00  0.00     0.134 A 
ATOM     70  F   UNL A   1      43.345  25.823  35.541  1.00  0.00    -0.206 F 
ATOM     71  C   UNL A   1      45.598  25.876  36.196  1.00  0.00     0.040 A 
ATOM     72  C   UNL A   1      47.064  27.581  35.329  1.00  0.00     0.040 A 
ATOM     73  F   UNL A   1      46.234  29.207  33.855  1.00  0.00    -0.206 F 
ATOM     74  C   UNL A   1      46.859  26.466  36.141  1.00  0.00     0.006 A 
ENDBRANCH  53  67
BRANCH  54  75
ATOM     75  C   UNL A   1      37.196  31.190  29.317  1.00  0.00     0.057 A 
ATOM     76  C   UNL A   1      36.075  30.398  29.044  1.00  0.00     0.134 A 
ATOM     77  C   UNL A   1      37.211  32.488  28.793  1.00  0.00     0.134 A 
ATOM     78  F   UNL A   1      36.014  29.136  29.491  1.00  0.00    -0.206 F 
ATOM     79  C   UNL A   1      35.014  30.875  28.270  1.00  0.00     0.040 A 
ATOM     80  C   UNL A   1      36.148  32.985  28.036  1.00  0.00     0.040 A 
ATOM     81  F   UNL A   1      38.257  33.297  29.014  1.00  0.00    -0.206 F 
ATOM     82  C   UNL A   1      35.047  32.174  27.767  1.00  0.00     0.006 A 
ENDBRANCH  54  75
BRANCH  66  83
ATOM     83  C   UNL A   1      39.404  32.252  35.850  1.00  0.00     0.057 A 
ATOM     84  C   UNL A   1      38.479  31.805  36.801  1.00  0.00     0.134 A 
ATOM     85  C   UNL A   1      39.937  33.537  36.022  1.00  0.00     0.134 A 
ATOM     86  F   UNL A   1      37.918  30.592  36.688  1.00  0.00    -0.206 F 
ATOM     87  C   UNL A   1      38.099  32.606  37.881  1.00  0.00     0.040 A 
ATOM     88  C   UNL A   1      39.584  34.337  37.110  1.00  0.00     0.040 A 
ATOM     89  F   UNL A   1      40.833  34.023  35.150  1.00  0.00    -0.206 F 
ATOM     90  C   UNL A   1      38.661  33.871  38.043  1.00  0.00     0.006 A 
ENDBRANCH  66  83
ENDBRANCH  40  41
ENDBRANCH  33  35
ENDBRANCH  32  33
ENDBRANCH  31  32
ENDBRANCH  30  31
ENDBRANCH  29  30
ENDBRANCH  28  29
ENDBRANCH   1  28
TORSDOF 20
ENDMDL
