MODEL 1
REMARK VINA RESULT:     -11.5      0.000      0.000
REMARK SMILES COC(=O)c1ccc(C)c(NC(=O)[C@H]2CC=CC[C@H]2C(=O)OCCOCCOC(=O)c2ccc(-c3c4nc(c(-c5c(F)cccc5F)c5ccc([nH]5)c(-c5c(F)cccc5F)c5nc(c(-c6c(F)cccc6F)c6ccc3[nH]6)C=C5)C=C4)cc2)c1
REMARK SMILES IDX 24 1 23 2 22 3 20 4 21 5 19 6 14 7 15 8 16 9 18 10 17 11
REMARK SMILES IDX 12 12 11 13 13 15 10 16 5 17 6 18 85 19 7 20 8 21 9 22 3 23
REMARK SMILES IDX 4 24 2 25 1 26 25 27 26 28 27 29 28 30 29 31 30 32 31 33
REMARK SMILES IDX 32 34 84 35 33 36 83 37 34 38 35 39 36 40 77 41 37 42 82 43
REMARK SMILES IDX 76 44 78 45 38 46 81 47 75 48 74 49 39 51 65 52 48 53 64 54
REMARK SMILES IDX 49 55 52 56 63 57 79 58 50 59 51 60 62 62 80 63 53 64 40 65
REMARK SMILES IDX 41 66 46 67 42 68 43 69 45 70 47 71 44 72 66 73 67 74 72 75
REMARK SMILES IDX 68 76 69 77 71 78 73 79 70 80 54 81 55 82 60 83 56 84 57 85
REMARK SMILES IDX 59 86 61 87 58 88
REMARK H PARENT 11 14 78 50 52 61
REMARK Flexibility Score: inf
ROOT
ATOM      1  C   UNL A   1      32.743  27.308  25.829  1.00  0.00     0.202 C 
ENDROOT
BRANCH   1   2
ATOM      2  C   UNL A   1      33.170  27.438  24.396  1.00  0.00     0.261 C 
BRANCH   2   3
ATOM      3  O   UNL A   1      33.750  26.248  23.844  1.00  0.00    -0.463 OA
BRANCH   3   4
ATOM      4  C   UNL A   1      33.620  26.047  22.515  1.00  0.00     0.310 C 
ATOM      5  O   UNL A   1      34.030  26.809  21.650  1.00  0.00    -0.252 OA
BRANCH   4   6
ATOM      6  C   UNL A   1      32.889  24.756  22.214  1.00  0.00     0.116 C 
ATOM      7  C   UNL A   1      33.684  23.426  22.425  1.00  0.00     0.097 C 
ATOM      8  C   UNL A   1      32.821  22.165  22.458  1.00  0.00     0.041 C 
ATOM      9  C   UNL A   1      31.419  22.343  22.943  1.00  0.00    -0.030 C 
ATOM     10  C   UNL A   1      31.449  24.838  22.762  1.00  0.00     0.043 C 
ATOM     11  C   UNL A   1      30.814  23.525  23.089  1.00  0.00    -0.030 C 
BRANCH   7  12
ATOM     12  C   UNL A   1      35.008  23.291  23.241  1.00  0.00     0.228 C 
ATOM     13  N   UNL A   1      35.198  23.062  24.564  1.00  0.00    -0.326 N 
ATOM     14  H   UNL A   1      36.145  23.118  24.824  1.00  0.00     0.169 HD
ATOM     15  O   UNL A   1      36.082  23.355  22.612  1.00  0.00    -0.274 OA
BRANCH  13  16
ATOM     16  C   UNL A   1      34.366  22.764  25.641  1.00  0.00     0.044 A 
ATOM     17  C   UNL A   1      32.410  23.215  26.976  1.00  0.00     0.062 A 
ATOM     18  C   UNL A   1      32.903  22.376  27.980  1.00  0.00     0.016 A 
ATOM     19  C   UNL A   1      33.226  23.532  25.875  1.00  0.00     0.042 A 
ATOM     20  C   UNL A   1      34.021  21.608  27.705  1.00  0.00     0.006 A 
ATOM     21  C   UNL A   1      34.472  21.604  26.384  1.00  0.00    -0.027 A 
ATOM     22  C   UNL A   1      33.989  20.377  25.598  1.00  0.00     0.046 C 
BRANCH  17  23
ATOM     23  C   UNL A   1      30.934  23.415  26.946  1.00  0.00     0.337 C 
ATOM     24  O   UNL A   1      30.151  22.572  26.555  1.00  0.00    -0.246 OA
BRANCH  23  25
ATOM     25  O   UNL A   1      30.672  24.737  27.110  1.00  0.00    -0.465 OA
ATOM     26  C   UNL A   1      29.804  25.275  26.110  1.00  0.00     0.282 C 
ENDBRANCH  23  25
ENDBRANCH  17  23
ENDBRANCH  13  16
ENDBRANCH   7  12
ENDBRANCH   4   6
ENDBRANCH   3   4
ENDBRANCH   2   3
ENDBRANCH   1   2
BRANCH   1  27
ATOM     27  O   UNL A   1      33.476  28.269  26.573  1.00  0.00    -0.374 OA
BRANCH  27  28
ATOM     28  C   UNL A   1      32.706  29.351  27.067  1.00  0.00     0.202 C 
BRANCH  28  29
ATOM     29  C   UNL A   1      33.412  30.711  26.953  1.00  0.00     0.261 C 
BRANCH  29  30
ATOM     30  O   UNL A   1      34.110  31.009  28.184  1.00  0.00    -0.460 OA
BRANCH  30  31
ATOM     31  C   UNL A   1      35.407  31.412  28.067  1.00  0.00     0.338 C 
ATOM     32  O   UNL A   1      35.776  32.482  27.614  1.00  0.00    -0.246 OA
BRANCH  31  33
ATOM     33  C   UNL A   1      36.318  30.249  28.295  1.00  0.00     0.060 A 
ATOM     34  C   UNL A   1      36.395  29.643  29.564  1.00  0.00     0.016 A 
ATOM     35  C   UNL A   1      37.323  30.020  27.361  1.00  0.00     0.016 A 
ATOM     36  C   UNL A   1      37.561  28.960  29.947  1.00  0.00     0.010 A 
ATOM     37  C   UNL A   1      38.514  29.485  27.796  1.00  0.00     0.010 A 
ATOM     38  C   UNL A   1      38.662  28.980  29.097  1.00  0.00    -0.014 A 
BRANCH  38  39
ATOM     39  C   UNL A   1      40.025  28.542  29.418  1.00  0.00     0.031 A 
ATOM     40  C   UNL A   1      40.429  27.220  28.891  1.00  0.00     0.074 A 
ATOM     41  C   UNL A   1      40.963  29.380  29.933  1.00  0.00     0.049 A 
ATOM     42  N   UNL A   1      41.519  26.618  29.203  1.00  0.00    -0.248 NA
ATOM     43  C   UNL A   1      39.606  26.434  27.976  1.00  0.00     0.031 C 
ATOM     44  C   UNL A   1      42.424  29.250  29.906  1.00  0.00     0.029 A 
ATOM     45  N   UNL A   1      40.794  30.569  30.657  1.00  0.00    -0.354 N 
ATOM     46  C   UNL A   1      41.697  25.568  28.332  1.00  0.00     0.074 A 
ATOM     47  C   UNL A   1      40.436  25.441  27.655  1.00  0.00     0.031 C 
ATOM     48  C   UNL A   1      42.963  30.062  30.837  1.00  0.00     0.029 A 
ATOM     49  C   UNL A   1      41.857  30.655  31.569  1.00  0.00     0.049 A 
ATOM     50  H   UNL A   1      40.067  31.223  30.545  1.00  0.00     0.167 HD
ATOM     51  C   UNL A   1      42.947  25.032  28.236  1.00  0.00     0.037 A 
ATOM     52  C   UNL A   1      41.624  30.618  32.908  1.00  0.00     0.037 A 
ATOM     53  C   UNL A   1      43.814  25.621  29.273  1.00  0.00     0.049 A 
ATOM     54  C   UNL A   1      42.309  29.404  33.462  1.00  0.00     0.074 A 
ATOM     55  C   UNL A   1      44.802  26.593  29.249  1.00  0.00     0.029 A 
ATOM     56  N   UNL A   1      43.451  25.475  30.615  1.00  0.00    -0.354 N 
ATOM     57  N   UNL A   1      42.526  28.329  32.750  1.00  0.00    -0.248 NA
ATOM     58  C   UNL A   1      42.941  29.358  34.773  1.00  0.00     0.031 C 
ATOM     59  C   UNL A   1      44.973  27.077  30.579  1.00  0.00     0.029 A 
ATOM     60  C   UNL A   1      44.111  26.385  31.420  1.00  0.00     0.049 A 
ATOM     61  H   UNL A   1      42.806  24.809  30.945  1.00  0.00     0.167 HD
ATOM     62  C   UNL A   1      43.393  27.519  33.420  1.00  0.00     0.074 A 
ATOM     63  C   UNL A   1      43.594  28.184  34.697  1.00  0.00     0.031 C 
ATOM     64  C   UNL A   1      43.921  26.386  32.870  1.00  0.00     0.037 A 
BRANCH  51  65
ATOM     65  C   UNL A   1      43.456  24.156  27.101  1.00  0.00     0.057 A 
ATOM     66  C   UNL A   1      44.073  24.741  25.975  1.00  0.00     0.134 A 
ATOM     67  C   UNL A   1      43.335  22.754  27.002  1.00  0.00     0.134 A 
ATOM     68  F   UNL A   1      44.314  26.057  25.910  1.00  0.00    -0.206 F 
ATOM     69  C   UNL A   1      44.478  24.007  24.846  1.00  0.00     0.040 A 
ATOM     70  C   UNL A   1      43.718  22.011  25.874  1.00  0.00     0.040 A 
ATOM     71  F   UNL A   1      42.873  21.996  27.994  1.00  0.00    -0.206 F 
ATOM     72  C   UNL A   1      44.288  22.638  24.784  1.00  0.00     0.006 A 
ENDBRANCH  51  65
BRANCH  52  73
ATOM     73  C   UNL A   1      40.292  31.200  33.257  1.00  0.00     0.057 A 
ATOM     74  C   UNL A   1      39.249  30.294  33.557  1.00  0.00     0.134 A 
ATOM     75  C   UNL A   1      40.155  32.495  33.765  1.00  0.00     0.134 A 
ATOM     76  F   UNL A   1      39.309  29.027  33.111  1.00  0.00    -0.206 F 
ATOM     77  C   UNL A   1      38.215  30.612  34.446  1.00  0.00     0.040 A 
ATOM     78  C   UNL A   1      39.112  32.826  34.648  1.00  0.00     0.040 A 
ATOM     79  F   UNL A   1      41.095  33.422  33.535  1.00  0.00    -0.206 F 
ATOM     80  C   UNL A   1      38.175  31.869  35.036  1.00  0.00     0.006 A 
ENDBRANCH  52  73
BRANCH  64  81
ATOM     81  C   UNL A   1      44.374  25.202  33.685  1.00  0.00     0.057 A 
ATOM     82  C   UNL A   1      43.520  24.444  34.502  1.00  0.00     0.134 A 
ATOM     83  C   UNL A   1      45.667  24.659  33.512  1.00  0.00     0.134 A 
ATOM     84  F   UNL A   1      42.225  24.750  34.659  1.00  0.00    -0.206 F 
ATOM     85  C   UNL A   1      43.938  23.282  35.156  1.00  0.00     0.040 A 
ATOM     86  C   UNL A   1      46.069  23.458  34.098  1.00  0.00     0.040 A 
ATOM     87  F   UNL A   1      46.590  25.243  32.735  1.00  0.00    -0.206 F 
ATOM     88  C   UNL A   1      45.210  22.775  34.942  1.00  0.00     0.006 A 
ENDBRANCH  64  81
ENDBRANCH  38  39
ENDBRANCH  31  33
ENDBRANCH  30  31
ENDBRANCH  29  30
ENDBRANCH  28  29
ENDBRANCH  27  28
ENDBRANCH   1  27
TORSDOF 18
ENDMDL
MODEL 2
REMARK VINA RESULT:     -11.4      1.237      2.563
REMARK SMILES COC(=O)c1ccc(C)c(NC(=O)[C@H]2CC=CC[C@H]2C(=O)OCCOCCOC(=O)c2ccc(-c3c4nc(c(-c5c(F)cccc5F)c5ccc([nH]5)c(-c5c(F)cccc5F)c5nc(c(-c6c(F)cccc6F)c6ccc3[nH]6)C=C5)C=C4)cc2)c1
REMARK SMILES IDX 24 1 23 2 22 3 20 4 21 5 19 6 14 7 15 8 16 9 18 10 17 11
REMARK SMILES IDX 12 12 11 13 13 15 10 16 5 17 6 18 85 19 7 20 8 21 9 22 3 23
REMARK SMILES IDX 4 24 2 25 1 26 25 27 26 28 27 29 28 30 29 31 30 32 31 33
REMARK SMILES IDX 32 34 84 35 33 36 83 37 34 38 35 39 36 40 77 41 37 42 82 43
REMARK SMILES IDX 76 44 78 45 38 46 81 47 75 48 74 49 39 51 65 52 48 53 64 54
REMARK SMILES IDX 49 55 52 56 63 57 79 58 50 59 51 60 62 62 80 63 53 64 40 65
REMARK SMILES IDX 41 66 46 67 42 68 43 69 45 70 47 71 44 72 66 73 67 74 72 75
REMARK SMILES IDX 68 76 69 77 71 78 73 79 70 80 54 81 55 82 60 83 56 84 57 85
REMARK SMILES IDX 59 86 61 87 58 88
REMARK H PARENT 11 14 78 50 52 61
REMARK Flexibility Score: inf
ROOT
ATOM      1  C   UNL A   1      31.460  28.840  26.594  1.00  0.00     0.202 C 
ENDROOT
BRANCH   1   2
ATOM      2  C   UNL A   1      31.705  27.428  27.040  1.00  0.00     0.261 C 
BRANCH   2   3
ATOM      3  O   UNL A   1      30.789  26.470  26.490  1.00  0.00    -0.463 OA
BRANCH   3   4
ATOM      4  C   UNL A   1      31.249  25.219  26.271  1.00  0.00     0.310 C 
ATOM      5  O   UNL A   1      31.420  24.377  27.141  1.00  0.00    -0.252 OA
BRANCH   4   6
ATOM      6  C   UNL A   1      31.540  24.981  24.805  1.00  0.00     0.116 C 
ATOM      7  C   UNL A   1      33.015  25.191  24.332  1.00  0.00     0.097 C 
ATOM      8  C   UNL A   1      33.333  24.605  22.956  1.00  0.00     0.041 C 
ATOM      9  C   UNL A   1      32.524  23.418  22.546  1.00  0.00    -0.030 C 
ATOM     10  C   UNL A   1      30.796  23.715  24.329  1.00  0.00     0.043 C 
ATOM     11  C   UNL A   1      31.407  23.015  23.159  1.00  0.00    -0.030 C 
BRANCH   7  12
ATOM     12  C   UNL A   1      34.257  25.268  25.274  1.00  0.00     0.228 C 
ATOM     13  N   UNL A   1      35.108  24.293  25.678  1.00  0.00    -0.326 N 
ATOM     14  H   UNL A   1      35.752  24.610  26.351  1.00  0.00     0.169 HD
ATOM     15  O   UNL A   1      34.580  26.390  25.710  1.00  0.00    -0.274 OA
BRANCH  13  16
ATOM     16  C   UNL A   1      35.284  22.947  25.363  1.00  0.00     0.044 A 
ATOM     17  C   UNL A   1      34.445  20.693  25.220  1.00  0.00     0.062 A 
ATOM     18  C   UNL A   1      35.749  20.218  25.054  1.00  0.00     0.016 A 
ATOM     19  C   UNL A   1      34.234  22.047  25.536  1.00  0.00     0.042 A 
ATOM     20  C   UNL A   1      36.764  21.138  24.859  1.00  0.00     0.006 A 
ATOM     21  C   UNL A   1      36.380  22.467  24.672  1.00  0.00    -0.027 A 
ATOM     22  C   UNL A   1      36.340  22.868  23.190  1.00  0.00     0.046 C 
BRANCH  17  23
ATOM     23  C   UNL A   1      33.353  19.830  24.684  1.00  0.00     0.337 C 
ATOM     24  O   UNL A   1      32.172  20.071  24.838  1.00  0.00    -0.246 OA
BRANCH  23  25
ATOM     25  O   UNL A   1      33.886  18.639  24.310  1.00  0.00    -0.465 OA
ATOM     26  C   UNL A   1      33.285  17.516  24.957  1.00  0.00     0.282 C 
ENDBRANCH  23  25
ENDBRANCH  17  23
ENDBRANCH  13  16
ENDBRANCH   7  12
ENDBRANCH   4   6
ENDBRANCH   3   4
ENDBRANCH   2   3
ENDBRANCH   1   2
BRANCH   1  27
ATOM     27  O   UNL A   1      32.498  29.178  25.686  1.00  0.00    -0.374 OA
BRANCH  27  28
ATOM     28  C   UNL A   1      33.692  29.637  26.293  1.00  0.00     0.202 C 
BRANCH  28  29
ATOM     29  C   UNL A   1      33.469  30.761  27.317  1.00  0.00     0.261 C 
BRANCH  29  30
ATOM     30  O   UNL A   1      34.679  31.538  27.468  1.00  0.00    -0.460 OA
BRANCH  30  31
ATOM     31  C   UNL A   1      35.272  31.508  28.695  1.00  0.00     0.338 C 
ATOM     32  O   UNL A   1      35.242  32.409  29.517  1.00  0.00    -0.246 OA
BRANCH  31  33
ATOM     33  C   UNL A   1      36.208  30.345  28.774  1.00  0.00     0.060 A 
ATOM     34  C   UNL A   1      36.332  29.611  29.969  1.00  0.00     0.016 A 
ATOM     35  C   UNL A   1      37.188  30.233  27.794  1.00  0.00     0.016 A 
ATOM     36  C   UNL A   1      37.519  28.914  30.245  1.00  0.00     0.010 A 
ATOM     37  C   UNL A   1      38.400  29.679  28.136  1.00  0.00     0.010 A 
ATOM     38  C   UNL A   1      38.594  29.043  29.373  1.00  0.00    -0.014 A 
BRANCH  38  39
ATOM     39  C   UNL A   1      39.973  28.600  29.607  1.00  0.00     0.031 A 
ATOM     40  C   UNL A   1      40.342  27.281  29.044  1.00  0.00     0.074 A 
ATOM     41  C   UNL A   1      40.942  29.430  30.075  1.00  0.00     0.049 A 
ATOM     42  N   UNL A   1      41.447  26.675  29.284  1.00  0.00    -0.248 NA
ATOM     43  C   UNL A   1      39.464  26.507  28.171  1.00  0.00     0.031 C 
ATOM     44  C   UNL A   1      42.398  29.297  29.960  1.00  0.00     0.029 A 
ATOM     45  N   UNL A   1      40.819  30.612  30.819  1.00  0.00    -0.354 N 
ATOM     46  C   UNL A   1      41.570  25.634  28.394  1.00  0.00     0.074 A 
ATOM     47  C   UNL A   1      40.271  25.516  27.791  1.00  0.00     0.031 C 
ATOM     48  C   UNL A   1      42.994  30.099  30.865  1.00  0.00     0.029 A 
ATOM     49  C   UNL A   1      41.935  30.686  31.667  1.00  0.00     0.049 A 
ATOM     50  H   UNL A   1      40.089  31.268  30.757  1.00  0.00     0.167 HD
ATOM     51  C   UNL A   1      42.811  25.097  28.218  1.00  0.00     0.037 A 
ATOM     52  C   UNL A   1      41.781  30.636  33.017  1.00  0.00     0.037 A 
ATOM     53  C   UNL A   1      43.740  25.673  29.208  1.00  0.00     0.049 A 
ATOM     54  C   UNL A   1      42.495  29.415  33.517  1.00  0.00     0.074 A 
ATOM     55  C   UNL A   1      44.727  26.643  29.135  1.00  0.00     0.029 A 
ATOM     56  N   UNL A   1      43.456  25.514  30.568  1.00  0.00    -0.354 N 
ATOM     57  N   UNL A   1      42.666  28.347  32.783  1.00  0.00    -0.248 NA
ATOM     58  C   UNL A   1      43.203  29.354  34.788  1.00  0.00     0.031 C 
ATOM     59  C   UNL A   1      44.977  27.113  30.458  1.00  0.00     0.029 A 
ATOM     60  C   UNL A   1      44.165  26.414  31.342  1.00  0.00     0.049 A 
ATOM     61  H   UNL A   1      42.830  24.846  30.929  1.00  0.00     0.167 HD
ATOM     62  C   UNL A   1      43.570  27.528  33.392  1.00  0.00     0.074 A 
ATOM     63  C   UNL A   1      43.848  28.180  34.662  1.00  0.00     0.031 C 
ATOM     64  C   UNL A   1      44.061  26.401  32.800  1.00  0.00     0.037 A 
BRANCH  51  65
ATOM     65  C   UNL A   1      43.250  24.231  27.046  1.00  0.00     0.057 A 
ATOM     66  C   UNL A   1      42.990  22.845  27.052  1.00  0.00     0.134 A 
ATOM     67  C   UNL A   1      43.974  24.656  25.913  1.00  0.00     0.134 A 
ATOM     68  F   UNL A   1      42.276  22.267  28.027  1.00  0.00    -0.206 F 
ATOM     69  C   UNL A   1      43.451  21.966  26.055  1.00  0.00     0.040 A 
ATOM     70  C   UNL A   1      44.456  23.789  24.919  1.00  0.00     0.040 A 
ATOM     71  F   UNL A   1      44.238  25.936  25.660  1.00  0.00    -0.206 F 
ATOM     72  C   UNL A   1      44.200  22.434  24.989  1.00  0.00     0.006 A 
ENDBRANCH  51  65
BRANCH  52  73
ATOM     73  C   UNL A   1      40.473  31.217  33.451  1.00  0.00     0.057 A 
ATOM     74  C   UNL A   1      40.372  32.627  33.485  1.00  0.00     0.134 A 
ATOM     75  C   UNL A   1      39.272  30.510  33.344  1.00  0.00     0.134 A 
ATOM     76  F   UNL A   1      41.483  33.379  33.579  1.00  0.00    -0.206 F 
ATOM     77  C   UNL A   1      39.162  33.295  33.260  1.00  0.00     0.040 A 
ATOM     78  C   UNL A   1      38.051  31.174  33.132  1.00  0.00     0.040 A 
ATOM     79  F   UNL A   1      39.269  29.171  33.302  1.00  0.00    -0.206 F 
ATOM     80  C   UNL A   1      38.003  32.564  33.030  1.00  0.00     0.006 A 
ENDBRANCH  52  73
BRANCH  64  81
ATOM     81  C   UNL A   1      44.559  25.208  33.574  1.00  0.00     0.057 A 
ATOM     82  C   UNL A   1      43.737  24.397  34.373  1.00  0.00     0.134 A 
ATOM     83  C   UNL A   1      45.868  24.713  33.377  1.00  0.00     0.134 A 
ATOM     84  F   UNL A   1      42.434  24.655  34.548  1.00  0.00    -0.206 F 
ATOM     85  C   UNL A   1      44.197  23.229  34.987  1.00  0.00     0.040 A 
ATOM     86  C   UNL A   1      46.313  23.508  33.922  1.00  0.00     0.040 A 
ATOM     87  F   UNL A   1      46.765  25.351  32.612  1.00  0.00    -0.206 F 
ATOM     88  C   UNL A   1      45.484  22.771  34.749  1.00  0.00     0.006 A 
ENDBRANCH  64  81
ENDBRANCH  38  39
ENDBRANCH  31  33
ENDBRANCH  30  31
ENDBRANCH  29  30
ENDBRANCH  28  29
ENDBRANCH  27  28
ENDBRANCH   1  27
TORSDOF 18
ENDMDL
MODEL 3
REMARK VINA RESULT:     -11.2      3.509      8.455
REMARK SMILES COC(=O)c1ccc(C)c(NC(=O)[C@H]2CC=CC[C@H]2C(=O)OCCOCCOC(=O)c2ccc(-c3c4nc(c(-c5c(F)cccc5F)c5ccc([nH]5)c(-c5c(F)cccc5F)c5nc(c(-c6c(F)cccc6F)c6ccc3[nH]6)C=C5)C=C4)cc2)c1
REMARK SMILES IDX 24 1 23 2 22 3 20 4 21 5 19 6 14 7 15 8 16 9 18 10 17 11
REMARK SMILES IDX 12 12 11 13 13 15 10 16 5 17 6 18 85 19 7 20 8 21 9 22 3 23
REMARK SMILES IDX 4 24 2 25 1 26 25 27 26 28 27 29 28 30 29 31 30 32 31 33
REMARK SMILES IDX 32 34 84 35 33 36 83 37 34 38 35 39 36 40 77 41 37 42 82 43
REMARK SMILES IDX 76 44 78 45 38 46 81 47 75 48 74 49 39 51 65 52 48 53 64 54
REMARK SMILES IDX 49 55 52 56 63 57 79 58 50 59 51 60 62 62 80 63 53 64 40 65
REMARK SMILES IDX 41 66 46 67 42 68 43 69 45 70 47 71 44 72 66 73 67 74 72 75
REMARK SMILES IDX 68 76 69 77 71 78 73 79 70 80 54 81 55 82 60 83 56 84 57 85
REMARK SMILES IDX 59 86 61 87 58 88
REMARK H PARENT 11 14 78 50 52 61
REMARK Flexibility Score: inf
ROOT
ATOM      1  C   UNL A   1      35.261  21.898  24.734  1.00  0.00     0.202 C 
ENDROOT
BRANCH   1   2
ATOM      2  C   UNL A   1      35.352  22.882  23.605  1.00  0.00     0.261 C 
BRANCH   2   3
ATOM      3  O   UNL A   1      34.087  23.225  23.021  1.00  0.00    -0.463 OA
BRANCH   3   4
ATOM      4  C   UNL A   1      33.282  24.058  23.716  1.00  0.00     0.310 C 
ATOM      5  O   UNL A   1      32.146  23.787  24.081  1.00  0.00    -0.252 OA
BRANCH   4   6
ATOM      6  C   UNL A   1      33.954  25.387  23.985  1.00  0.00     0.116 C 
ATOM      7  C   UNL A   1      33.788  26.498  22.898  1.00  0.00     0.097 C 
ATOM      8  C   UNL A   1      34.166  27.905  23.361  1.00  0.00     0.041 C 
ATOM      9  C   UNL A   1      33.998  28.183  24.820  1.00  0.00    -0.030 C 
ATOM     10  C   UNL A   1      33.750  25.778  25.464  1.00  0.00     0.043 C 
ATOM     11  C   UNL A   1      33.802  27.244  25.750  1.00  0.00    -0.030 C 
BRANCH   7  12
ATOM     12  C   UNL A   1      32.720  26.487  21.759  1.00  0.00     0.228 C 
ATOM     13  N   UNL A   1      31.523  27.120  21.679  1.00  0.00    -0.326 N 
ATOM     14  H   UNL A   1      31.012  26.859  20.881  1.00  0.00     0.169 HD
ATOM     15  O   UNL A   1      32.986  25.844  20.725  1.00  0.00    -0.274 OA
BRANCH  13  16
ATOM     16  C   UNL A   1      30.850  28.056  22.463  1.00  0.00     0.044 A 
ATOM     17  C   UNL A   1      29.278  29.868  22.690  1.00  0.00     0.062 A 
ATOM     18  C   UNL A   1      29.771  30.134  23.972  1.00  0.00     0.016 A 
ATOM     19  C   UNL A   1      29.935  28.927  21.876  1.00  0.00     0.042 A 
ATOM     20  C   UNL A   1      30.658  29.233  24.534  1.00  0.00     0.006 A 
ATOM     21  C   UNL A   1      30.863  28.037  23.844  1.00  0.00    -0.027 A 
ATOM     22  C   UNL A   1      30.027  26.880  24.407  1.00  0.00     0.046 C 
BRANCH  17  23
ATOM     23  C   UNL A   1      27.885  30.315  22.411  1.00  0.00     0.337 C 
ATOM     24  O   UNL A   1      26.946  30.082  23.146  1.00  0.00    -0.246 OA
BRANCH  23  25
ATOM     25  O   UNL A   1      27.807  30.711  21.114  1.00  0.00    -0.465 OA
ATOM     26  C   UNL A   1      28.544  31.904  20.837  1.00  0.00     0.282 C 
ENDBRANCH  23  25
ENDBRANCH  17  23
ENDBRANCH  13  16
ENDBRANCH   7  12
ENDBRANCH   4   6
ENDBRANCH   3   4
ENDBRANCH   2   3
ENDBRANCH   1   2
BRANCH   1  27
ATOM     27  O   UNL A   1      36.498  21.943  25.430  1.00  0.00    -0.374 OA
BRANCH  27  28
ATOM     28  C   UNL A   1      37.586  21.347  24.746  1.00  0.00     0.202 C 
BRANCH  28  29
ATOM     29  C   UNL A   1      38.868  21.263  25.588  1.00  0.00     0.261 C 
BRANCH  29  30
ATOM     30  O   UNL A   1      38.948  22.397  26.481  1.00  0.00    -0.460 OA
BRANCH  30  31
ATOM     31  C   UNL A   1      40.113  23.105  26.465  1.00  0.00     0.338 C 
ATOM     32  O   UNL A   1      41.233  22.622  26.454  1.00  0.00    -0.246 OA
BRANCH  31  33
ATOM     33  C   UNL A   1      39.832  24.543  26.760  1.00  0.00     0.060 A 
ATOM     34  C   UNL A   1      40.568  25.558  26.118  1.00  0.00     0.016 A 
ATOM     35  C   UNL A   1      39.111  24.841  27.911  1.00  0.00     0.016 A 
ATOM     36  C   UNL A   1      40.717  26.813  26.731  1.00  0.00     0.010 A 
ATOM     37  C   UNL A   1      39.387  26.014  28.575  1.00  0.00     0.010 A 
ATOM     38  C   UNL A   1      40.215  26.999  28.014  1.00  0.00    -0.014 A 
BRANCH  38  39
ATOM     39  C   UNL A   1      40.479  28.136  28.903  1.00  0.00     0.031 A 
ATOM     40  C   UNL A   1      39.449  29.199  28.929  1.00  0.00     0.074 A 
ATOM     41  C   UNL A   1      41.458  28.121  29.845  1.00  0.00     0.049 A 
ATOM     42  N   UNL A   1      39.588  30.327  29.524  1.00  0.00    -0.248 NA
ATOM     43  C   UNL A   1      38.164  29.089  28.245  1.00  0.00     0.031 C 
ATOM     44  C   UNL A   1      41.580  28.940  31.056  1.00  0.00     0.029 A 
ATOM     45  N   UNL A   1      42.628  27.350  29.901  1.00  0.00    -0.354 N 
ATOM     46  C   UNL A   1      38.358  30.940  29.581  1.00  0.00     0.074 A 
ATOM     47  C   UNL A   1      37.530  30.174  28.689  1.00  0.00     0.031 C 
ATOM     48  C   UNL A   1      42.851  28.893  31.502  1.00  0.00     0.029 A 
ATOM     49  C   UNL A   1      43.612  28.133  30.525  1.00  0.00     0.049 A 
ATOM     50  H   UNL A   1      42.739  26.431  29.567  1.00  0.00     0.167 HD
ATOM     51  C   UNL A   1      38.197  31.951  30.481  1.00  0.00     0.037 A 
ATOM     52  C   UNL A   1      44.722  28.519  29.844  1.00  0.00     0.037 A 
ATOM     53  C   UNL A   1      39.500  32.282  31.086  1.00  0.00     0.049 A 
ATOM     54  C   UNL A   1      44.723  30.018  29.776  1.00  0.00     0.074 A 
ATOM     55  C   UNL A   1      40.082  31.994  32.310  1.00  0.00     0.029 A 
ATOM     56  N   UNL A   1      40.544  32.692  30.251  1.00  0.00    -0.354 N 
ATOM     57  N   UNL A   1      43.624  30.726  29.800  1.00  0.00    -0.248 NA
ATOM     58  C   UNL A   1      45.929  30.832  29.841  1.00  0.00     0.031 C 
ATOM     59  C   UNL A   1      41.492  32.165  32.176  1.00  0.00     0.029 A 
ATOM     60  C   UNL A   1      41.770  32.583  30.881  1.00  0.00     0.049 A 
ATOM     61  H   UNL A   1      40.422  33.016  29.329  1.00  0.00     0.167 HD
ATOM     62  C   UNL A   1      43.943  32.036  30.000  1.00  0.00     0.074 A 
ATOM     63  C   UNL A   1      45.397  32.059  29.980  1.00  0.00     0.031 C 
ATOM     64  C   UNL A   1      43.002  33.000  30.213  1.00  0.00     0.037 A 
BRANCH  51  65
ATOM     65  C   UNL A   1      36.867  32.498  30.979  1.00  0.00     0.057 A 
ATOM     66  C   UNL A   1      36.152  33.437  30.207  1.00  0.00     0.134 A 
ATOM     67  C   UNL A   1      36.249  32.207  32.213  1.00  0.00     0.134 A 
ATOM     68  F   UNL A   1      36.563  33.802  28.986  1.00  0.00    -0.206 F 
ATOM     69  C   UNL A   1      34.969  34.060  30.645  1.00  0.00     0.040 A 
ATOM     70  C   UNL A   1      35.079  32.834  32.671  1.00  0.00     0.040 A 
ATOM     71  F   UNL A   1      36.703  31.276  33.050  1.00  0.00    -0.206 F 
ATOM     72  C   UNL A   1      34.435  33.771  31.888  1.00  0.00     0.006 A 
ENDBRANCH  51  65
BRANCH  52  73
ATOM     73  C   UNL A   1      45.114  27.519  28.804  1.00  0.00     0.057 A 
ATOM     74  C   UNL A   1      44.790  27.823  27.461  1.00  0.00     0.134 A 
ATOM     75  C   UNL A   1      46.155  26.608  29.000  1.00  0.00     0.134 A 
ATOM     76  F   UNL A   1      43.805  28.696  27.188  1.00  0.00    -0.206 F 
ATOM     77  C   UNL A   1      45.565  27.373  26.385  1.00  0.00     0.040 A 
ATOM     78  C   UNL A   1      46.929  26.141  27.924  1.00  0.00     0.040 A 
ATOM     79  F   UNL A   1      46.535  26.261  30.238  1.00  0.00    -0.206 F 
ATOM     80  C   UNL A   1      46.673  26.569  26.622  1.00  0.00     0.006 A 
ENDBRANCH  52  73
BRANCH  64  81
ATOM     81  C   UNL A   1      43.209  34.452  29.866  1.00  0.00     0.057 A 
ATOM     82  C   UNL A   1      43.320  35.475  30.821  1.00  0.00     0.134 A 
ATOM     83  C   UNL A   1      43.508  34.843  28.541  1.00  0.00     0.134 A 
ATOM     84  F   UNL A   1      43.201  35.241  32.135  1.00  0.00    -0.206 F 
ATOM     85  C   UNL A   1      43.629  36.795  30.481  1.00  0.00     0.040 A 
ATOM     86  C   UNL A   1      43.893  36.141  28.202  1.00  0.00     0.040 A 
ATOM     87  F   UNL A   1      43.482  33.977  27.517  1.00  0.00    -0.206 F 
ATOM     88  C   UNL A   1      43.934  37.129  29.170  1.00  0.00     0.006 A 
ENDBRANCH  64  81
ENDBRANCH  38  39
ENDBRANCH  31  33
ENDBRANCH  30  31
ENDBRANCH  29  30
ENDBRANCH  28  29
ENDBRANCH  27  28
ENDBRANCH   1  27
TORSDOF 18
ENDMDL
