MODEL 1
REMARK VINA RESULT:     -10.4      0.000      0.000
REMARK SMILES CC(=O)NCCNC(=O)C[N@H+]1CC[C@@H](C(=O)OCCOCCOC(=O)c2ccc(-c3c4nc(c(-c5c(F)cccc5F)c5ccc([nH]5)c(-c5c(F)cccc5F)c5nc(c(-c6c(F)cccc6F)c6ccc3[nH]6)C=C5)C=C4)cc2)[C@H]1C
REMARK SMILES IDX 18 1 17 2 15 3 16 4 14 5 11 6 12 7 80 8 13 10 81 11 10 12
REMARK SMILES IDX 8 13 7 14 9 16 6 17 5 18 4 19 1 20 2 21 3 22 19 24 20 25
REMARK SMILES IDX 21 26 22 27 23 28 24 29 25 30 26 31 27 32 79 33 28 34 78 35
REMARK SMILES IDX 29 36 30 37 31 38 72 39 32 40 77 41 71 42 73 43 33 44 76 45
REMARK SMILES IDX 70 46 69 47 34 49 60 50 43 51 59 52 44 53 47 54 58 55 74 56
REMARK SMILES IDX 45 57 46 58 57 60 75 61 48 62 35 63 36 64 41 65 37 66 38 67
REMARK SMILES IDX 40 68 42 69 39 70 61 71 62 72 67 73 63 74 64 75 66 76 68 77
REMARK SMILES IDX 65 78 49 79 50 80 55 81 51 82 52 83 54 84 56 85 53 86
REMARK H PARENT 11 9 7 15 4 23 73 48 47 59
REMARK Flexibility Score: inf
ROOT
ATOM      1  C   UNL A   1      33.631  28.175  24.839  1.00  0.00     0.261 C 
ENDROOT
BRANCH   1   2
ATOM      2  O   UNL A   1      32.816  27.342  25.683  1.00  0.00    -0.463 OA
BRANCH   2   3
ATOM      3  C   UNL A   1      31.831  26.657  25.063  1.00  0.00     0.315 C 
ATOM      4  O   UNL A   1      30.922  27.174  24.424  1.00  0.00    -0.252 OA
BRANCH   3   5
ATOM      5  C   UNL A   1      31.914  25.162  25.266  1.00  0.00     0.162 C 
ATOM      6  N   UNL A   1      32.538  22.918  24.879  1.00  0.00    -0.324 N 
ATOM      7  C   UNL A   1      33.038  23.325  26.200  1.00  0.00     0.264 C 
ATOM      8  C   UNL A   1      32.124  24.140  24.127  1.00  0.00     0.195 C 
ATOM      9  H   UNL A   1      31.686  22.363  24.960  1.00  0.00     0.348 HD
ATOM     10  C   UNL A   1      33.018  24.834  26.239  1.00  0.00     0.083 C 
ATOM     11  C   UNL A   1      33.061  24.558  22.988  1.00  0.00     0.076 C 
BRANCH   6  12
ATOM     12  C   UNL A   1      33.387  21.919  24.209  1.00  0.00     0.363 C 
BRANCH  12  13
ATOM     13  C   UNL A   1      32.571  20.798  23.555  1.00  0.00     0.275 C 
ATOM     14  N   UNL A   1      32.557  19.544  24.098  1.00  0.00    -0.349 N 
ATOM     15  H   UNL A   1      32.229  18.826  23.510  1.00  0.00     0.163 HD
ATOM     16  O   UNL A   1      31.975  20.975  22.489  1.00  0.00    -0.269 OA
BRANCH  14  17
ATOM     17  C   UNL A   1      32.961  19.133  25.431  1.00  0.00     0.137 C 
BRANCH  17  18
ATOM     18  C   UNL A   1      32.541  17.682  25.701  1.00  0.00     0.137 C 
BRANCH  18  19
ATOM     19  N   UNL A   1      33.712  16.840  25.898  1.00  0.00    -0.355 N 
ATOM     20  C   UNL A   1      34.092  16.391  23.508  1.00  0.00     0.114 C 
ATOM     21  C   UNL A   1      34.415  16.147  24.956  1.00  0.00     0.216 C 
ATOM     22  O   UNL A   1      35.292  15.360  25.306  1.00  0.00    -0.275 OA
ATOM     23  H   UNL A   1      34.037  16.761  26.825  1.00  0.00     0.163 HD
ENDBRANCH  18  19
ENDBRANCH  17  18
ENDBRANCH  14  17
ENDBRANCH  12  13
ENDBRANCH   6  12
ENDBRANCH   3   5
ENDBRANCH   2   3
ENDBRANCH   1   2
BRANCH   1  24
ATOM     24  C   UNL A   1      33.115  29.615  24.862  1.00  0.00     0.202 C 
BRANCH  24  25
ATOM     25  O   UNL A   1      32.626  30.082  26.119  1.00  0.00    -0.374 OA
BRANCH  25  26
ATOM     26  C   UNL A   1      31.426  30.856  26.112  1.00  0.00     0.202 C 
BRANCH  26  27
ATOM     27  C   UNL A   1      31.478  32.203  26.844  1.00  0.00     0.261 C 
BRANCH  27  28
ATOM     28  O   UNL A   1      32.730  32.881  26.627  1.00  0.00    -0.460 OA
BRANCH  28  29
ATOM     29  C   UNL A   1      33.223  33.526  27.710  1.00  0.00     0.338 C 
ATOM     30  O   UNL A   1      32.667  34.393  28.369  1.00  0.00    -0.246 OA
BRANCH  29  31
ATOM     31  C   UNL A   1      34.486  32.893  28.143  1.00  0.00     0.060 A 
ATOM     32  C   UNL A   1      34.420  31.564  28.581  1.00  0.00     0.016 A 
ATOM     33  C   UNL A   1      35.697  33.587  28.174  1.00  0.00     0.016 A 
ATOM     34  C   UNL A   1      35.549  30.944  29.112  1.00  0.00     0.010 A 
ATOM     35  C   UNL A   1      36.830  32.964  28.713  1.00  0.00     0.010 A 
ATOM     36  C   UNL A   1      36.750  31.654  29.223  1.00  0.00    -0.014 A 
BRANCH  36  37
ATOM     37  C   UNL A   1      37.864  31.087  30.026  1.00  0.00     0.031 A 
ATOM     38  C   UNL A   1      38.800  30.104  29.375  1.00  0.00     0.074 A 
ATOM     39  C   UNL A   1      38.075  31.475  31.297  1.00  0.00     0.049 A 
ATOM     40  N   UNL A   1      39.813  29.453  29.889  1.00  0.00    -0.248 NA
ATOM     41  C   UNL A   1      38.562  29.817  27.950  1.00  0.00     0.031 C 
ATOM     42  C   UNL A   1      37.281  32.463  32.025  1.00  0.00     0.029 A 
ATOM     43  N   UNL A   1      39.030  31.078  32.200  1.00  0.00    -0.354 N 
ATOM     44  C   UNL A   1      40.331  28.683  28.854  1.00  0.00     0.074 A 
ATOM     45  C   UNL A   1      39.497  28.916  27.695  1.00  0.00     0.031 C 
ATOM     46  C   UNL A   1      37.778  32.591  33.269  1.00  0.00     0.029 A 
ATOM     47  C   UNL A   1      38.900  31.668  33.435  1.00  0.00     0.049 A 
ATOM     48  H   UNL A   1      39.741  30.431  31.985  1.00  0.00     0.167 HD
ATOM     49  C   UNL A   1      41.414  27.870  28.861  1.00  0.00     0.037 A 
ATOM     50  C   UNL A   1      39.594  31.468  34.572  1.00  0.00     0.037 A 
ATOM     51  C   UNL A   1      42.242  27.634  30.015  1.00  0.00     0.049 A 
ATOM     52  C   UNL A   1      40.728  30.472  34.584  1.00  0.00     0.074 A 
ATOM     53  C   UNL A   1      43.354  26.818  30.124  1.00  0.00     0.029 A 
ATOM     54  N   UNL A   1      42.048  28.214  31.258  1.00  0.00    -0.354 N 
ATOM     55  N   UNL A   1      41.213  29.756  33.598  1.00  0.00    -0.248 NA
ATOM     56  C   UNL A   1      41.409  30.258  35.869  1.00  0.00     0.031 C 
ATOM     57  C   UNL A   1      43.803  26.866  31.447  1.00  0.00     0.029 A 
ATOM     58  C   UNL A   1      43.006  27.758  32.147  1.00  0.00     0.049 A 
ATOM     59  H   UNL A   1      41.334  28.855  31.478  1.00  0.00     0.167 HD
ATOM     60  C   UNL A   1      42.281  29.044  34.135  1.00  0.00     0.074 A 
ATOM     61  C   UNL A   1      42.377  29.420  35.529  1.00  0.00     0.031 C 
ATOM     62  C   UNL A   1      43.109  28.159  33.527  1.00  0.00     0.037 A 
BRANCH  49  63
ATOM     63  C   UNL A   1      41.757  27.160  27.584  1.00  0.00     0.057 A 
ATOM     64  C   UNL A   1      42.554  27.758  26.599  1.00  0.00     0.134 A 
ATOM     65  C   UNL A   1      41.321  25.850  27.354  1.00  0.00     0.134 A 
ATOM     66  F   UNL A   1      42.992  29.017  26.751  1.00  0.00    -0.206 F 
ATOM     67  C   UNL A   1      42.888  27.085  25.422  1.00  0.00     0.040 A 
ATOM     68  C   UNL A   1      41.672  25.155  26.195  1.00  0.00     0.040 A 
ATOM     69  F   UNL A   1      40.559  25.215  28.259  1.00  0.00    -0.206 F 
ATOM     70  C   UNL A   1      42.454  25.776  25.222  1.00  0.00     0.006 A 
ENDBRANCH  49  63
BRANCH  50  71
ATOM     71  C   UNL A   1      39.237  32.203  35.814  1.00  0.00     0.057 A 
ATOM     72  C   UNL A   1      38.326  31.671  36.736  1.00  0.00     0.134 A 
ATOM     73  C   UNL A   1      39.750  33.479  36.081  1.00  0.00     0.134 A 
ATOM     74  F   UNL A   1      37.780  30.465  36.524  1.00  0.00    -0.206 F 
ATOM     75  C   UNL A   1      37.915  32.392  37.858  1.00  0.00     0.040 A 
ATOM     76  C   UNL A   1      39.370  34.198  37.215  1.00  0.00     0.040 A 
ATOM     77  F   UNL A   1      40.628  34.046  35.240  1.00  0.00    -0.206 F 
ATOM     78  C   UNL A   1      38.439  33.659  38.100  1.00  0.00     0.006 A 
ENDBRANCH  50  71
BRANCH  62  79
ATOM     79  C   UNL A   1      44.229  27.580  34.344  1.00  0.00     0.057 A 
ATOM     80  C   UNL A   1      45.465  28.225  34.477  1.00  0.00     0.134 A 
ATOM     81  C   UNL A   1      44.049  26.380  35.045  1.00  0.00     0.134 A 
ATOM     82  F   UNL A   1      45.708  29.371  33.823  1.00  0.00    -0.206 F 
ATOM     83  C   UNL A   1      46.489  27.685  35.258  1.00  0.00     0.040 A 
ATOM     84  C   UNL A   1      45.054  25.846  35.852  1.00  0.00     0.040 A 
ATOM     85  F   UNL A   1      42.885  25.715  34.971  1.00  0.00    -0.206 F 
ATOM     86  C   UNL A   1      46.281  26.495  35.955  1.00  0.00     0.006 A 
ENDBRANCH  62  79
ENDBRANCH  36  37
ENDBRANCH  29  31
ENDBRANCH  28  29
ENDBRANCH  27  28
ENDBRANCH  26  27
ENDBRANCH  25  26
ENDBRANCH  24  25
ENDBRANCH   1  24
TORSDOF 19
ENDMDL
MODEL 2
REMARK VINA RESULT:     -10.3      0.844      6.240
REMARK SMILES CC(=O)NCCNC(=O)C[N@H+]1CC[C@@H](C(=O)OCCOCCOC(=O)c2ccc(-c3c4nc(c(-c5c(F)cccc5F)c5ccc([nH]5)c(-c5c(F)cccc5F)c5nc(c(-c6c(F)cccc6F)c6ccc3[nH]6)C=C5)C=C4)cc2)[C@H]1C
REMARK SMILES IDX 18 1 17 2 15 3 16 4 14 5 11 6 12 7 80 8 13 10 81 11 10 12
REMARK SMILES IDX 8 13 7 14 9 16 6 17 5 18 4 19 1 20 2 21 3 22 19 24 20 25
REMARK SMILES IDX 21 26 22 27 23 28 24 29 25 30 26 31 27 32 79 33 28 34 78 35
REMARK SMILES IDX 29 36 30 37 31 38 72 39 32 40 77 41 71 42 73 43 33 44 76 45
REMARK SMILES IDX 70 46 69 47 34 49 60 50 43 51 59 52 44 53 47 54 58 55 74 56
REMARK SMILES IDX 45 57 46 58 57 60 75 61 48 62 35 63 36 64 41 65 37 66 38 67
REMARK SMILES IDX 40 68 42 69 39 70 61 71 62 72 67 73 63 74 64 75 66 76 68 77
REMARK SMILES IDX 65 78 49 79 50 80 55 81 51 82 52 83 54 84 56 85 53 86
REMARK H PARENT 11 9 7 15 4 23 73 48 47 59
REMARK Flexibility Score: inf
ROOT
ATOM      1  C   UNL A   1      33.302  28.869  26.057  1.00  0.00     0.261 C 
ENDROOT
BRANCH   1   2
ATOM      2  O   UNL A   1      32.049  28.404  25.525  1.00  0.00    -0.463 OA
BRANCH   2   3
ATOM      3  C   UNL A   1      31.523  27.312  26.121  1.00  0.00     0.315 C 
ATOM      4  O   UNL A   1      31.139  27.273  27.284  1.00  0.00    -0.252 OA
BRANCH   3   5
ATOM      5  C   UNL A   1      31.491  26.093  25.229  1.00  0.00     0.162 C 
ATOM      6  N   UNL A   1      32.187  24.058  24.254  1.00  0.00    -0.324 N 
ATOM      7  C   UNL A   1      30.902  23.841  24.932  1.00  0.00     0.264 C 
ATOM      8  C   UNL A   1      32.749  25.367  24.703  1.00  0.00     0.195 C 
ATOM      9  H   UNL A   1      32.062  24.164  23.246  1.00  0.00     0.348 HD
ATOM     10  C   UNL A   1      30.700  24.991  25.888  1.00  0.00     0.083 C 
ATOM     11  C   UNL A   1      33.943  25.274  25.660  1.00  0.00     0.076 C 
BRANCH   6  12
ATOM     12  C   UNL A   1      33.058  22.871  24.244  1.00  0.00     0.363 C 
BRANCH  12  13
ATOM     13  C   UNL A   1      32.634  21.840  23.192  1.00  0.00     0.275 C 
ATOM     14  N   UNL A   1      32.509  20.520  23.526  1.00  0.00    -0.349 N 
ATOM     15  H   UNL A   1      32.482  19.888  22.773  1.00  0.00     0.163 HD
ATOM     16  O   UNL A   1      32.473  22.156  22.010  1.00  0.00    -0.269 OA
BRANCH  14  17
ATOM     17  C   UNL A   1      32.411  19.930  24.849  1.00  0.00     0.137 C 
BRANCH  17  18
ATOM     18  C   UNL A   1      33.627  19.040  25.137  1.00  0.00     0.137 C 
BRANCH  18  19
ATOM     19  N   UNL A   1      33.202  17.719  25.575  1.00  0.00    -0.355 N 
ATOM     20  C   UNL A   1      33.947  16.540  23.547  1.00  0.00     0.114 C 
ATOM     21  C   UNL A   1      33.233  16.551  24.871  1.00  0.00     0.216 C 
ATOM     22  O   UNL A   1      32.696  15.546  25.331  1.00  0.00    -0.275 OA
ATOM     23  H   UNL A   1      32.848  17.661  26.492  1.00  0.00     0.163 HD
ENDBRANCH  18  19
ENDBRANCH  17  18
ENDBRANCH  14  17
ENDBRANCH  12  13
ENDBRANCH   6  12
ENDBRANCH   3   5
ENDBRANCH   2   3
ENDBRANCH   1   2
BRANCH   1  24
ATOM     24  C   UNL A   1      33.226  30.367  26.358  1.00  0.00     0.202 C 
BRANCH  24  25
ATOM     25  O   UNL A   1      32.087  30.794  27.105  1.00  0.00    -0.374 OA
BRANCH  25  26
ATOM     26  C   UNL A   1      31.348  31.907  26.600  1.00  0.00     0.202 C 
BRANCH  26  27
ATOM     27  C   UNL A   1      31.994  33.289  26.768  1.00  0.00     0.261 C 
BRANCH  27  28
ATOM     28  O   UNL A   1      32.250  33.595  28.152  1.00  0.00    -0.460 OA
BRANCH  28  29
ATOM     29  C   UNL A   1      33.329  34.383  28.370  1.00  0.00     0.338 C 
ATOM     30  O   UNL A   1      33.338  35.598  28.511  1.00  0.00    -0.246 OA
BRANCH  29  31
ATOM     31  C   UNL A   1      34.521  33.549  28.628  1.00  0.00     0.060 A 
ATOM     32  C   UNL A   1      34.309  32.287  29.200  1.00  0.00     0.016 A 
ATOM     33  C   UNL A   1      35.817  33.999  28.372  1.00  0.00     0.016 A 
ATOM     34  C   UNL A   1      35.393  31.497  29.576  1.00  0.00     0.010 A 
ATOM     35  C   UNL A   1      36.906  33.206  28.756  1.00  0.00     0.010 A 
ATOM     36  C   UNL A   1      36.698  31.970  29.399  1.00  0.00    -0.014 A 
BRANCH  36  37
ATOM     37  C   UNL A   1      37.830  31.252  30.039  1.00  0.00     0.031 A 
ATOM     38  C   UNL A   1      38.147  31.541  31.483  1.00  0.00     0.074 A 
ATOM     39  C   UNL A   1      38.535  30.323  29.370  1.00  0.00     0.049 A 
ATOM     40  N   UNL A   1      39.108  31.067  32.234  1.00  0.00    -0.248 NA
ATOM     41  C   UNL A   1      37.259  32.492  32.172  1.00  0.00     0.031 C 
ATOM     42  C   UNL A   1      38.293  29.906  27.990  1.00  0.00     0.029 A 
ATOM     43  N   UNL A   1      39.604  29.559  29.769  1.00  0.00    -0.354 N 
ATOM     44  C   UNL A   1      38.940  31.659  33.481  1.00  0.00     0.074 A 
ATOM     45  C   UNL A   1      37.812  32.558  33.373  1.00  0.00     0.031 C 
ATOM     46  C   UNL A   1      39.193  28.965  27.654  1.00  0.00     0.029 A 
ATOM     47  C   UNL A   1      40.096  28.740  28.781  1.00  0.00     0.049 A 
ATOM     48  H   UNL A   1      39.983  29.595  30.678  1.00  0.00     0.167 HD
ATOM     49  C   UNL A   1      39.649  31.461  34.617  1.00  0.00     0.037 A 
ATOM     50  C   UNL A   1      41.167  27.922  28.783  1.00  0.00     0.037 A 
ATOM     51  C   UNL A   1      40.775  30.570  34.725  1.00  0.00     0.049 A 
ATOM     52  C   UNL A   1      42.007  27.802  30.030  1.00  0.00     0.074 A 
ATOM     53  C   UNL A   1      41.564  30.310  35.832  1.00  0.00     0.029 A 
ATOM     54  N   UNL A   1      41.270  29.796  33.689  1.00  0.00    -0.354 N 
ATOM     55  N   UNL A   1      41.834  28.361  31.204  1.00  0.00    -0.248 NA
ATOM     56  C   UNL A   1      43.193  26.936  29.950  1.00  0.00     0.031 C 
ATOM     57  C   UNL A   1      42.568  29.415  35.451  1.00  0.00     0.029 A 
ATOM     58  C   UNL A   1      42.369  29.073  34.123  1.00  0.00     0.049 A 
ATOM     59  H   UNL A   1      40.898  29.764  32.778  1.00  0.00     0.167 HD
ATOM     60  C   UNL A   1      42.861  27.880  32.010  1.00  0.00     0.074 A 
ATOM     61  C   UNL A   1      43.646  26.979  31.194  1.00  0.00     0.031 C 
ATOM     62  C   UNL A   1      43.128  28.158  33.310  1.00  0.00     0.037 A 
BRANCH  49  63
ATOM     63  C   UNL A   1      39.236  32.234  35.836  1.00  0.00     0.057 A 
ATOM     64  C   UNL A   1      38.344  31.706  36.778  1.00  0.00     0.134 A 
ATOM     65  C   UNL A   1      39.769  33.503  36.092  1.00  0.00     0.134 A 
ATOM     66  F   UNL A   1      37.785  30.501  36.585  1.00  0.00    -0.206 F 
ATOM     67  C   UNL A   1      37.981  32.422  37.921  1.00  0.00     0.040 A 
ATOM     68  C   UNL A   1      39.436  34.217  37.245  1.00  0.00     0.040 A 
ATOM     69  F   UNL A   1      40.634  34.066  35.234  1.00  0.00    -0.206 F 
ATOM     70  C   UNL A   1      38.535  33.677  38.161  1.00  0.00     0.006 A 
ENDBRANCH  49  63
BRANCH  50  71
ATOM     71  C   UNL A   1      41.534  27.157  27.562  1.00  0.00     0.057 A 
ATOM     72  C   UNL A   1      41.139  25.823  27.396  1.00  0.00     0.134 A 
ATOM     73  C   UNL A   1      42.338  27.718  26.562  1.00  0.00     0.134 A 
ATOM     74  F   UNL A   1      40.390  25.220  28.331  1.00  0.00    -0.206 F 
ATOM     75  C   UNL A   1      41.555  25.068  26.298  1.00  0.00     0.040 A 
ATOM     76  C   UNL A   1      42.736  26.984  25.445  1.00  0.00     0.040 A 
ATOM     77  F   UNL A   1      42.751  28.991  26.659  1.00  0.00    -0.206 F 
ATOM     78  C   UNL A   1      42.355  25.650  25.317  1.00  0.00     0.006 A 
ENDBRANCH  50  71
BRANCH  62  79
ATOM     79  C   UNL A   1      44.279  27.438  33.953  1.00  0.00     0.057 A 
ATOM     80  C   UNL A   1      45.569  27.980  33.994  1.00  0.00     0.134 A 
ATOM     81  C   UNL A   1      44.079  26.202  34.581  1.00  0.00     0.134 A 
ATOM     82  F   UNL A   1      45.832  29.156  33.401  1.00  0.00    -0.206 F 
ATOM     83  C   UNL A   1      46.624  27.309  34.615  1.00  0.00     0.040 A 
ATOM     84  C   UNL A   1      45.118  25.534  35.231  1.00  0.00     0.040 A 
ATOM     85  F   UNL A   1      42.865  25.629  34.589  1.00  0.00    -0.206 F 
ATOM     86  C   UNL A   1      46.397  26.084  35.243  1.00  0.00     0.006 A 
ENDBRANCH  62  79
ENDBRANCH  36  37
ENDBRANCH  29  31
ENDBRANCH  28  29
ENDBRANCH  27  28
ENDBRANCH  26  27
ENDBRANCH  25  26
ENDBRANCH  24  25
ENDBRANCH   1  24
TORSDOF 19
ENDMDL
MODEL 3
REMARK VINA RESULT:     -10.2      4.267     10.039
REMARK SMILES CC(=O)NCCNC(=O)C[N@H+]1CC[C@@H](C(=O)OCCOCCOC(=O)c2ccc(-c3c4nc(c(-c5c(F)cccc5F)c5ccc([nH]5)c(-c5c(F)cccc5F)c5nc(c(-c6c(F)cccc6F)c6ccc3[nH]6)C=C5)C=C4)cc2)[C@H]1C
REMARK SMILES IDX 18 1 17 2 15 3 16 4 14 5 11 6 12 7 80 8 13 10 81 11 10 12
REMARK SMILES IDX 8 13 7 14 9 16 6 17 5 18 4 19 1 20 2 21 3 22 19 24 20 25
REMARK SMILES IDX 21 26 22 27 23 28 24 29 25 30 26 31 27 32 79 33 28 34 78 35
REMARK SMILES IDX 29 36 30 37 31 38 72 39 32 40 77 41 71 42 73 43 33 44 76 45
REMARK SMILES IDX 70 46 69 47 34 49 60 50 43 51 59 52 44 53 47 54 58 55 74 56
REMARK SMILES IDX 45 57 46 58 57 60 75 61 48 62 35 63 36 64 41 65 37 66 38 67
REMARK SMILES IDX 40 68 42 69 39 70 61 71 62 72 67 73 63 74 64 75 66 76 68 77
REMARK SMILES IDX 65 78 49 79 50 80 55 81 51 82 52 83 54 84 56 85 53 86
REMARK H PARENT 11 9 7 15 4 23 73 48 47 59
REMARK Flexibility Score: inf
ROOT
ATOM      1  C   UNL A   1      32.824  20.872  25.520  1.00  0.00     0.261 C 
ENDROOT
BRANCH   1   2
ATOM      2  O   UNL A   1      32.738  22.192  24.955  1.00  0.00    -0.463 OA
BRANCH   2   3
ATOM      3  C   UNL A   1      33.182  23.199  25.738  1.00  0.00     0.315 C 
ATOM      4  O   UNL A   1      33.652  23.051  26.860  1.00  0.00    -0.252 OA
BRANCH   3   5
ATOM      5  C   UNL A   1      33.001  24.567  25.123  1.00  0.00     0.162 C 
ATOM      6  N   UNL A   1      32.157  26.751  24.816  1.00  0.00    -0.324 N 
ATOM      7  C   UNL A   1      33.603  26.835  25.065  1.00  0.00     0.264 C 
ATOM      8  C   UNL A   1      31.689  25.380  25.179  1.00  0.00     0.195 C 
ATOM      9  H   UNL A   1      31.945  26.842  23.822  1.00  0.00     0.348 HD
ATOM     10  C   UNL A   1      34.029  25.522  25.676  1.00  0.00     0.083 C 
ATOM     11  C   UNL A   1      30.873  25.286  26.473  1.00  0.00     0.076 C 
BRANCH   6  12
ATOM     12  C   UNL A   1      31.405  27.917  25.308  1.00  0.00     0.363 C 
BRANCH  12  13
ATOM     13  C   UNL A   1      31.822  29.220  24.617  1.00  0.00     0.275 C 
ATOM     14  N   UNL A   1      31.171  29.648  23.494  1.00  0.00    -0.349 N 
ATOM     15  H   UNL A   1      31.635  30.337  22.966  1.00  0.00     0.163 HD
ATOM     16  O   UNL A   1      32.797  29.870  25.005  1.00  0.00    -0.269 OA
BRANCH  14  17
ATOM     17  C   UNL A   1      29.884  29.217  22.978  1.00  0.00     0.137 C 
BRANCH  17  18
ATOM     18  C   UNL A   1      29.504  30.024  21.728  1.00  0.00     0.137 C 
BRANCH  18  19
ATOM     19  N   UNL A   1      29.553  31.451  22.007  1.00  0.00    -0.355 N 
ATOM     20  C   UNL A   1      27.604  31.471  23.510  1.00  0.00     0.114 C 
ATOM     21  C   UNL A   1      28.671  32.194  22.735  1.00  0.00     0.216 C 
ATOM     22  O   UNL A   1      28.772  33.419  22.752  1.00  0.00    -0.275 OA
ATOM     23  H   UNL A   1      30.317  31.941  21.623  1.00  0.00     0.163 HD
ENDBRANCH  18  19
ENDBRANCH  17  18
ENDBRANCH  14  17
ENDBRANCH  12  13
ENDBRANCH   6  12
ENDBRANCH   3   5
ENDBRANCH   2   3
ENDBRANCH   1   2
BRANCH   1  24
ATOM     24  C   UNL A   1      33.548  19.930  24.555  1.00  0.00     0.202 C 
BRANCH  24  25
ATOM     25  O   UNL A   1      34.859  19.526  24.947  1.00  0.00    -0.374 OA
BRANCH  25  26
ATOM     26  C   UNL A   1      35.889  20.515  24.920  1.00  0.00     0.202 C 
BRANCH  26  27
ATOM     27  C   UNL A   1      37.330  20.005  25.053  1.00  0.00     0.261 C 
BRANCH  27  28
ATOM     28  O   UNL A   1      38.271  21.088  25.177  1.00  0.00    -0.460 OA
BRANCH  28  29
ATOM     29  C   UNL A   1      39.316  20.843  26.002  1.00  0.00     0.338 C 
ATOM     30  O   UNL A   1      39.914  19.785  26.139  1.00  0.00    -0.246 OA
BRANCH  29  31
ATOM     31  C   UNL A   1      39.799  22.106  26.596  1.00  0.00     0.060 A 
ATOM     32  C   UNL A   1      39.226  23.296  26.127  1.00  0.00     0.016 A 
ATOM     33  C   UNL A   1      40.819  22.142  27.548  1.00  0.00     0.016 A 
ATOM     34  C   UNL A   1      39.714  24.527  26.559  1.00  0.00     0.010 A 
ATOM     35  C   UNL A   1      41.313  23.380  27.977  1.00  0.00     0.010 A 
ATOM     36  C   UNL A   1      40.791  24.578  27.452  1.00  0.00    -0.014 A 
BRANCH  36  37
ATOM     37  C   UNL A   1      41.477  25.873  27.698  1.00  0.00     0.031 A 
ATOM     38  C   UNL A   1      40.746  26.946  28.461  1.00  0.00     0.074 A 
ATOM     39  C   UNL A   1      42.744  26.078  27.298  1.00  0.00     0.049 A 
ATOM     40  N   UNL A   1      41.129  28.162  28.759  1.00  0.00    -0.248 NA
ATOM     41  C   UNL A   1      39.404  26.600  28.957  1.00  0.00     0.031 C 
ATOM     42  C   UNL A   1      43.583  25.102  26.605  1.00  0.00     0.029 A 
ATOM     43  N   UNL A   1      43.548  27.185  27.421  1.00  0.00    -0.354 N 
ATOM     44  C   UNL A   1      40.078  28.723  29.475  1.00  0.00     0.074 A 
ATOM     45  C   UNL A   1      39.027  27.732  29.530  1.00  0.00     0.031 C 
ATOM     46  C   UNL A   1      44.784  25.656  26.357  1.00  0.00     0.029 A 
ATOM     47  C   UNL A   1      44.785  27.036  26.841  1.00  0.00     0.049 A 
ATOM     48  H   UNL A   1      43.264  28.008  27.881  1.00  0.00     0.167 HD
ATOM     49  C   UNL A   1      40.000  29.947  30.049  1.00  0.00     0.037 A 
ATOM     50  C   UNL A   1      45.791  27.920  26.698  1.00  0.00     0.037 A 
ATOM     51  C   UNL A   1      41.044  30.938  29.991  1.00  0.00     0.049 A 
ATOM     52  C   UNL A   1      45.636  29.316  27.251  1.00  0.00     0.074 A 
ATOM     53  C   UNL A   1      41.054  32.211  30.532  1.00  0.00     0.029 A 
ATOM     54  N   UNL A   1      42.261  30.764  29.352  1.00  0.00    -0.354 N 
ATOM     55  N   UNL A   1      44.642  29.832  27.932  1.00  0.00    -0.248 NA
ATOM     56  C   UNL A   1      46.747  30.250  27.013  1.00  0.00     0.031 C 
ATOM     57  C   UNL A   1      42.259  32.826  30.178  1.00  0.00     0.029 A 
ATOM     58  C   UNL A   1      43.023  31.915  29.467  1.00  0.00     0.049 A 
ATOM     59  H   UNL A   1      42.544  29.945  28.885  1.00  0.00     0.167 HD
ATOM     60  C   UNL A   1      45.026  31.133  28.240  1.00  0.00     0.074 A 
ATOM     61  C   UNL A   1      46.347  31.323  27.679  1.00  0.00     0.031 C 
ATOM     62  C   UNL A   1      44.347  32.085  28.927  1.00  0.00     0.037 A 
BRANCH  49  63
ATOM     63  C   UNL A   1      38.736  30.292  30.780  1.00  0.00     0.057 A 
ATOM     64  C   UNL A   1      37.655  30.908  30.135  1.00  0.00     0.134 A 
ATOM     65  C   UNL A   1      38.579  29.967  32.133  1.00  0.00     0.134 A 
ATOM     66  F   UNL A   1      37.745  31.260  28.843  1.00  0.00    -0.206 F 
ATOM     67  C   UNL A   1      36.473  31.208  30.815  1.00  0.00     0.040 A 
ATOM     68  C   UNL A   1      37.392  30.234  32.817  1.00  0.00     0.040 A 
ATOM     69  F   UNL A   1      39.572  29.370  32.810  1.00  0.00    -0.206 F 
ATOM     70  C   UNL A   1      36.336  30.861  32.158  1.00  0.00     0.006 A 
ENDBRANCH  49  63
BRANCH  50  71
ATOM     71  C   UNL A   1      47.037  27.537  25.984  1.00  0.00     0.057 A 
ATOM     72  C   UNL A   1      47.123  27.602  24.588  1.00  0.00     0.134 A 
ATOM     73  C   UNL A   1      48.151  27.042  26.674  1.00  0.00     0.134 A 
ATOM     74  F   UNL A   1      46.080  28.043  23.868  1.00  0.00    -0.206 F 
ATOM     75  C   UNL A   1      48.255  27.158  23.902  1.00  0.00     0.040 A 
ATOM     76  C   UNL A   1      49.301  26.623  26.002  1.00  0.00     0.040 A 
ATOM     77  F   UNL A   1      48.137  26.954  28.012  1.00  0.00    -0.206 F 
ATOM     78  C   UNL A   1      49.349  26.669  24.611  1.00  0.00     0.006 A 
ENDBRANCH  50  71
BRANCH  62  79
ATOM     79  C   UNL A   1      45.040  33.396  29.167  1.00  0.00     0.057 A 
ATOM     80  C   UNL A   1      44.913  34.478  28.289  1.00  0.00     0.134 A 
ATOM     81  C   UNL A   1      45.808  33.591  30.323  1.00  0.00     0.134 A 
ATOM     82  F   UNL A   1      44.202  34.356  27.157  1.00  0.00    -0.206 F 
ATOM     83  C   UNL A   1      45.545  35.698  28.537  1.00  0.00     0.040 A 
ATOM     84  C   UNL A   1      46.419  34.814  30.598  1.00  0.00     0.040 A 
ATOM     85  F   UNL A   1      45.962  32.599  31.215  1.00  0.00    -0.206 F 
ATOM     86  C   UNL A   1      46.295  35.871  29.700  1.00  0.00     0.006 A 
ENDBRANCH  62  79
ENDBRANCH  36  37
ENDBRANCH  29  31
ENDBRANCH  28  29
ENDBRANCH  27  28
ENDBRANCH  26  27
ENDBRANCH  25  26
ENDBRANCH  24  25
ENDBRANCH   1  24
TORSDOF 19
ENDMDL
