MODEL 1
REMARK VINA RESULT:     -12.9      0.000      0.000
REMARK SMILES O=C(OCCOCCOC(=O)c1ccc(-c2c3nc(c(-c4c(F)cccc4F)c4ccc([nH]4)c(-c4c(F)cccc4F)c4nc(c(-c5c(F)cccc5F)c5ccc2[nH]5)C=C4)C=C3)cc1)C1=Cc2cc(Cl)cc(Cl)c2O[C@@H]1C(F)(F)F
REMARK SMILES IDX 7 1 6 2 5 3 4 4 3 5 2 6 1 7 66 8 67 9 77 10 68 11 76 12
REMARK SMILES IDX 69 13 75 14 70 15 73 16 71 17 72 18 74 19 78 20 79 21 80 22
REMARK SMILES IDX 81 23 8 24 9 25 10 26 11 27 12 28 13 29 65 30 14 31 64 32
REMARK SMILES IDX 15 33 16 34 17 35 58 36 18 37 63 38 57 39 59 40 19 41 62 42
REMARK SMILES IDX 56 43 55 44 20 46 46 47 29 48 45 49 30 50 33 51 44 52 60 53
REMARK SMILES IDX 31 54 32 55 43 57 61 58 34 59 21 60 22 61 27 62 23 63 24 64
REMARK SMILES IDX 26 65 28 66 25 67 47 68 48 69 53 70 49 71 50 72 52 73 54 74
REMARK SMILES IDX 51 75 35 76 36 77 41 78 37 79 38 80 40 81 42 82 39 83
REMARK H PARENT 59 45 33 56
REMARK Flexibility Score: inf
ROOT
ATOM      1  C   UNL A   1      41.867  20.393  26.391  1.00  0.00     0.202 C 
ENDROOT
BRANCH   1   2
ATOM      2  O   UNL A   1      40.594  20.913  26.792  1.00  0.00    -0.374 OA
BRANCH   2   3
ATOM      3  C   UNL A   1      39.365  21.553  26.052  1.00  0.00     0.202 C 
BRANCH   3   4
ATOM      4  C   UNL A   1      37.667  20.719  24.968  1.00  0.00     0.261 C 
BRANCH   4   5
ATOM      5  O   UNL A   1      36.177  21.057  25.181  1.00  0.00    -0.460 OA
BRANCH   5   6
ATOM      6  C   UNL A   1      35.724  21.986  24.335  1.00  0.00     0.338 C 
ATOM      7  O   UNL A   1      36.285  22.563  23.441  1.00  0.00    -0.246 OA
BRANCH   6   8
ATOM      8  C   UNL A   1      34.509  22.252  25.066  1.00  0.00     0.087 C 
ATOM      9  C   UNL A   1      34.592  23.589  25.741  1.00  0.00     0.027 C 
ATOM     10  C   UNL A   1      33.276  21.820  23.633  1.00  0.00     0.316 C 
ATOM     11  C   UNL A   1      33.646  25.050  25.190  1.00  0.00     0.020 A 
ATOM     12  O   UNL A   1      32.321  23.369  23.009  1.00  0.00    -0.474 OA
ATOM     13  C   UNL A   1      33.932  26.277  25.728  1.00  0.00     0.032 A 
ATOM     14  C   UNL A   1      32.623  24.988  23.786  1.00  0.00     0.146 A 
ATOM     15  C   UNL A   1      33.402  27.375  25.024  1.00  0.00     0.043 A 
ATOM     16  C   UNL A   1      32.303  26.121  23.094  1.00  0.00     0.085 A 
ATOM     17  Cl  UNL A   1      33.726  28.951  25.676  1.00  0.00    -0.084 Cl
ATOM     18  C   UNL A   1      32.677  27.309  23.763  1.00  0.00     0.045 A 
ATOM     19  Cl  UNL A   1      31.836  26.120  21.458  1.00  0.00    -0.080 Cl
BRANCH  10  20
ATOM     20  C   UNL A   1      32.738  20.415  24.097  1.00  0.00     0.430 C 
ATOM     21  F   UNL A   1      31.893  20.444  25.143  1.00  0.00    -0.167 F 
ATOM     22  F   UNL A   1      32.003  19.906  23.063  1.00  0.00    -0.167 F 
ATOM     23  F   UNL A   1      33.696  19.488  24.320  1.00  0.00    -0.167 F 
ENDBRANCH  10  20
ENDBRANCH   6   8
ENDBRANCH   5   6
ENDBRANCH   4   5
ENDBRANCH   3   4
ENDBRANCH   2   3
ENDBRANCH   1   2
BRANCH   1  24
ATOM     24  C   UNL A   1      42.911  21.296  25.764  1.00  0.00     0.261 C 
BRANCH  24  25
ATOM     25  O   UNL A   1      42.359  22.502  25.276  1.00  0.00    -0.460 OA
BRANCH  25  26
ATOM     26  C   UNL A   1      43.240  23.516  25.153  1.00  0.00     0.338 C 
ATOM     27  O   UNL A   1      44.188  23.605  24.398  1.00  0.00    -0.246 OA
BRANCH  26  28
ATOM     28  C   UNL A   1      42.827  24.551  26.112  1.00  0.00     0.060 A 
ATOM     29  C   UNL A   1      43.474  25.789  26.077  1.00  0.00     0.016 A 
ATOM     30  C   UNL A   1      41.762  24.310  26.992  1.00  0.00     0.016 A 
ATOM     31  C   UNL A   1      43.019  26.818  26.895  1.00  0.00     0.010 A 
ATOM     32  C   UNL A   1      41.308  25.335  27.805  1.00  0.00     0.010 A 
ATOM     33  C   UNL A   1      41.942  26.585  27.761  1.00  0.00    -0.014 A 
BRANCH  33  34
ATOM     34  C   UNL A   1      41.619  27.543  28.829  1.00  0.00     0.031 A 
ATOM     35  C   UNL A   1      42.387  27.405  30.103  1.00  0.00     0.074 A 
ATOM     36  C   UNL A   1      40.617  28.427  28.698  1.00  0.00     0.049 A 
ATOM     37  N   UNL A   1      42.222  28.014  31.244  1.00  0.00    -0.248 NA
ATOM     38  C   UNL A   1      43.481  26.416  30.092  1.00  0.00     0.031 C 
ATOM     39  C   UNL A   1      39.816  28.630  27.494  1.00  0.00     0.029 A 
ATOM     40  N   UNL A   1      40.085  29.294  29.614  1.00  0.00    -0.354 N 
ATOM     41  C   UNL A   1      43.185  27.480  32.086  1.00  0.00     0.074 A 
ATOM     42  C   UNL A   1      43.899  26.467  31.344  1.00  0.00     0.031 C 
ATOM     43  C   UNL A   1      38.870  29.549  27.755  1.00  0.00     0.029 A 
ATOM     44  C   UNL A   1      38.982  29.967  29.150  1.00  0.00     0.049 A 
ATOM     45  H   UNL A   1      40.456  29.424  30.517  1.00  0.00     0.167 HD
ATOM     46  C   UNL A   1      43.451  27.811  33.368  1.00  0.00     0.037 A 
ATOM     47  C   UNL A   1      38.146  30.799  29.802  1.00  0.00     0.037 A 
ATOM     48  C   UNL A   1      42.694  28.785  34.102  1.00  0.00     0.049 A 
ATOM     49  C   UNL A   1      38.411  31.105  31.253  1.00  0.00     0.074 A 
ATOM     50  C   UNL A   1      42.871  29.213  35.403  1.00  0.00     0.029 A 
ATOM     51  N   UNL A   1      41.589  29.460  33.598  1.00  0.00    -0.354 N 
ATOM     52  N   UNL A   1      39.359  30.644  32.036  1.00  0.00    -0.248 NA
ATOM     53  C   UNL A   1      37.498  32.047  31.912  1.00  0.00     0.031 C 
ATOM     54  C   UNL A   1      41.829  30.093  35.710  1.00  0.00     0.029 A 
ATOM     55  C   UNL A   1      41.053  30.278  34.576  1.00  0.00     0.049 A 
ATOM     56  H   UNL A   1      41.239  29.368  32.683  1.00  0.00     0.167 HD
ATOM     57  C   UNL A   1      39.181  31.268  33.265  1.00  0.00     0.074 A 
ATOM     58  C   UNL A   1      38.030  32.137  33.123  1.00  0.00     0.031 C 
ATOM     59  C   UNL A   1      39.910  31.143  34.403  1.00  0.00     0.037 A 
BRANCH  46  60
ATOM     60  C   UNL A   1      44.559  27.057  34.042  1.00  0.00     0.057 A 
ATOM     61  C   UNL A   1      45.887  27.511  34.024  1.00  0.00     0.134 A 
ATOM     62  C   UNL A   1      44.305  25.829  34.662  1.00  0.00     0.134 A 
ATOM     63  F   UNL A   1      46.204  28.668  33.422  1.00  0.00    -0.206 F 
ATOM     64  C   UNL A   1      46.927  26.745  34.553  1.00  0.00     0.040 A 
ATOM     65  C   UNL A   1      45.331  25.072  35.228  1.00  0.00     0.040 A 
ATOM     66  F   UNL A   1      43.060  25.333  34.711  1.00  0.00    -0.206 F 
ATOM     67  C   UNL A   1      46.649  25.522  35.159  1.00  0.00     0.006 A 
ENDBRANCH  46  60
BRANCH  47  68
ATOM     68  C   UNL A   1      36.990  31.393  29.084  1.00  0.00     0.057 A 
ATOM     69  C   UNL A   1      35.820  30.658  28.861  1.00  0.00     0.134 A 
ATOM     70  C   UNL A   1      37.018  32.714  28.622  1.00  0.00     0.134 A 
ATOM     71  F   UNL A   1      35.737  29.382  29.263  1.00  0.00    -0.206 F 
ATOM     72  C   UNL A   1      34.723  31.212  28.196  1.00  0.00     0.040 A 
ATOM     73  C   UNL A   1      35.920  33.289  27.977  1.00  0.00     0.040 A 
ATOM     74  F   UNL A   1      38.108  33.474  28.808  1.00  0.00    -0.206 F 
ATOM     75  C   UNL A   1      34.770  32.535  27.759  1.00  0.00     0.006 A 
ENDBRANCH  47  68
BRANCH  59  76
ATOM     76  C   UNL A   1      39.532  32.006  35.573  1.00  0.00     0.057 A 
ATOM     77  C   UNL A   1      40.044  33.295  35.750  1.00  0.00     0.134 A 
ATOM     78  C   UNL A   1      38.561  31.563  36.482  1.00  0.00     0.134 A 
ATOM     79  F   UNL A   1      40.982  33.776  34.920  1.00  0.00    -0.206 F 
ATOM     80  C   UNL A   1      39.611  34.112  36.796  1.00  0.00     0.040 A 
ATOM     81  C   UNL A   1      38.096  32.381  37.512  1.00  0.00     0.040 A 
ATOM     82  F   UNL A   1      38.020  30.341  36.361  1.00  0.00    -0.206 F 
ATOM     83  C   UNL A   1      38.625  33.660  37.672  1.00  0.00     0.006 A 
ENDBRANCH  59  76
ENDBRANCH  33  34
ENDBRANCH  26  28
ENDBRANCH  25  26
ENDBRANCH  24  25
ENDBRANCH   1  24
TORSDOF 15
ENDMDL
MODEL 2
REMARK VINA RESULT:     -12.4      5.049      9.703
REMARK SMILES O=C(OCCOCCOC(=O)c1ccc(-c2c3nc(c(-c4c(F)cccc4F)c4ccc([nH]4)c(-c4c(F)cccc4F)c4nc(c(-c5c(F)cccc5F)c5ccc2[nH]5)C=C4)C=C3)cc1)C1=Cc2cc(Cl)cc(Cl)c2O[C@@H]1C(F)(F)F
REMARK SMILES IDX 7 1 6 2 5 3 4 4 3 5 2 6 1 7 66 8 67 9 77 10 68 11 76 12
REMARK SMILES IDX 69 13 75 14 70 15 73 16 71 17 72 18 74 19 78 20 79 21 80 22
REMARK SMILES IDX 81 23 8 24 9 25 10 26 11 27 12 28 13 29 65 30 14 31 64 32
REMARK SMILES IDX 15 33 16 34 17 35 58 36 18 37 63 38 57 39 59 40 19 41 62 42
REMARK SMILES IDX 56 43 55 44 20 46 46 47 29 48 45 49 30 50 33 51 44 52 60 53
REMARK SMILES IDX 31 54 32 55 43 57 61 58 34 59 21 60 22 61 27 62 23 63 24 64
REMARK SMILES IDX 26 65 28 66 25 67 47 68 48 69 53 70 49 71 50 72 52 73 54 74
REMARK SMILES IDX 51 75 35 76 36 77 41 78 37 79 38 80 40 81 42 82 39 83
REMARK H PARENT 59 45 33 56
REMARK Flexibility Score: inf
ROOT
ATOM      1  C   UNL A   1      34.294  34.458  29.101  1.00  0.00     0.202 C 
ENDROOT
BRANCH   1   2
ATOM      2  O   UNL A   1      34.436  33.473  28.072  1.00  0.00    -0.374 OA
BRANCH   2   3
ATOM      3  C   UNL A   1      34.011  31.971  27.896  1.00  0.00     0.202 C 
BRANCH   3   4
ATOM      4  C   UNL A   1      32.356  30.991  26.871  1.00  0.00     0.261 C 
BRANCH   4   5
ATOM      5  O   UNL A   1      32.457  29.923  25.762  1.00  0.00    -0.460 OA
BRANCH   5   6
ATOM      6  C   UNL A   1      31.956  28.740  26.125  1.00  0.00     0.338 C 
ATOM      7  O   UNL A   1      31.633  28.333  27.210  1.00  0.00    -0.246 OA
BRANCH   6   8
ATOM      8  C   UNL A   1      32.248  28.081  24.876  1.00  0.00     0.087 C 
ATOM      9  C   UNL A   1      33.516  27.288  24.991  1.00  0.00     0.027 C 
ATOM     10  C   UNL A   1      30.490  27.307  24.605  1.00  0.00     0.316 C 
ATOM     11  C   UNL A   1      33.556  25.464  25.054  1.00  0.00     0.020 A 
ATOM     12  O   UNL A   1      30.519  25.387  24.730  1.00  0.00    -0.474 OA
ATOM     13  C   UNL A   1      34.730  24.829  25.365  1.00  0.00     0.032 A 
ATOM     14  C   UNL A   1      32.092  24.527  25.046  1.00  0.00     0.146 A 
ATOM     15  C   UNL A   1      34.598  23.471  25.713  1.00  0.00     0.043 A 
ATOM     16  C   UNL A   1      32.060  23.262  25.558  1.00  0.00     0.085 A 
ATOM     17  Cl  UNL A   1      36.059  22.619  26.102  1.00  0.00    -0.084 Cl
ATOM     18  C   UNL A   1      33.344  22.745  25.850  1.00  0.00     0.045 A 
ATOM     19  Cl  UNL A   1      30.640  22.514  26.124  1.00  0.00    -0.080 Cl
BRANCH  10  20
ATOM     20  C   UNL A   1      29.908  28.241  23.480  1.00  0.00     0.430 C 
ATOM     21  F   UNL A   1      30.458  28.082  22.263  1.00  0.00    -0.167 F 
ATOM     22  F   UNL A   1      28.592  27.903  23.321  1.00  0.00    -0.167 F 
ATOM     23  F   UNL A   1      29.883  29.555  23.793  1.00  0.00    -0.167 F 
ENDBRANCH  10  20
ENDBRANCH   6   8
ENDBRANCH   5   6
ENDBRANCH   4   5
ENDBRANCH   3   4
ENDBRANCH   2   3
ENDBRANCH   1   2
BRANCH   1  24
ATOM     24  C   UNL A   1      34.358  34.065  30.564  1.00  0.00     0.261 C 
BRANCH  24  25
ATOM     25  O   UNL A   1      35.678  33.811  30.998  1.00  0.00    -0.460 OA
BRANCH  25  26
ATOM     26  C   UNL A   1      35.817  32.714  31.771  1.00  0.00     0.338 C 
ATOM     27  O   UNL A   1      35.122  32.353  32.700  1.00  0.00    -0.246 OA
BRANCH  26  28
ATOM     28  C   UNL A   1      36.988  31.987  31.263  1.00  0.00     0.060 A 
ATOM     29  C   UNL A   1      37.838  31.365  32.182  1.00  0.00     0.016 A 
ATOM     30  C   UNL A   1      37.200  31.870  29.881  1.00  0.00     0.016 A 
ATOM     31  C   UNL A   1      38.883  30.573  31.716  1.00  0.00     0.010 A 
ATOM     32  C   UNL A   1      38.239  31.081  29.417  1.00  0.00     0.010 A 
ATOM     33  C   UNL A   1      39.084  30.440  30.336  1.00  0.00    -0.014 A 
BRANCH  33  34
ATOM     34  C   UNL A   1      40.327  29.855  29.813  1.00  0.00     0.031 A 
ATOM     35  C   UNL A   1      41.470  30.795  29.603  1.00  0.00     0.074 A 
ATOM     36  C   UNL A   1      40.396  28.565  29.450  1.00  0.00     0.049 A 
ATOM     37  N   UNL A   1      42.625  30.586  29.036  1.00  0.00    -0.248 NA
ATOM     38  C   UNL A   1      41.265  32.175  30.080  1.00  0.00     0.031 C 
ATOM     39  C   UNL A   1      39.332  27.578  29.616  1.00  0.00     0.029 A 
ATOM     40  N   UNL A   1      41.404  27.879  28.827  1.00  0.00    -0.354 N 
ATOM     41  C   UNL A   1      43.280  31.807  29.083  1.00  0.00     0.074 A 
ATOM     42  C   UNL A   1      42.381  32.761  29.689  1.00  0.00     0.031 C 
ATOM     43  C   UNL A   1      39.736  26.412  29.082  1.00  0.00     0.029 A 
ATOM     44  C   UNL A   1      41.068  26.587  28.508  1.00  0.00     0.049 A 
ATOM     45  H   UNL A   1      42.285  28.273  28.629  1.00  0.00     0.167 HD
ATOM     46  C   UNL A   1      44.528  32.103  28.658  1.00  0.00     0.037 A 
ATOM     47  C   UNL A   1      41.757  25.670  27.800  1.00  0.00     0.037 A 
ATOM     48  C   UNL A   1      45.385  31.149  28.010  1.00  0.00     0.049 A 
ATOM     49  C   UNL A   1      43.118  26.035  27.268  1.00  0.00     0.074 A 
ATOM     50  C   UNL A   1      46.672  31.326  27.542  1.00  0.00     0.029 A 
ATOM     51  N   UNL A   1      45.018  29.843  27.712  1.00  0.00    -0.354 N 
ATOM     52  N   UNL A   1      43.765  27.174  27.364  1.00  0.00    -0.248 NA
ATOM     53  C   UNL A   1      43.849  24.992  26.537  1.00  0.00     0.031 C 
ATOM     54  C   UNL A   1      47.058  30.148  26.896  1.00  0.00     0.029 A 
ATOM     55  C   UNL A   1      46.045  29.211  27.035  1.00  0.00     0.049 A 
ATOM     56  H   UNL A   1      44.157  29.429  27.946  1.00  0.00     0.167 HD
ATOM     57  C   UNL A   1      44.991  26.974  26.740  1.00  0.00     0.074 A 
ATOM     58  C   UNL A   1      44.995  25.603  26.267  1.00  0.00     0.031 C 
ATOM     59  C   UNL A   1      46.025  27.839  26.585  1.00  0.00     0.037 A 
BRANCH  46  60
ATOM     60  C   UNL A   1      44.980  33.522  28.832  1.00  0.00     0.057 A 
ATOM     61  C   UNL A   1      44.756  34.501  27.853  1.00  0.00     0.134 A 
ATOM     62  C   UNL A   1      45.707  33.899  29.967  1.00  0.00     0.134 A 
ATOM     63  F   UNL A   1      44.090  34.199  26.727  1.00  0.00    -0.206 F 
ATOM     64  C   UNL A   1      45.283  35.787  27.973  1.00  0.00     0.040 A 
ATOM     65  C   UNL A   1      46.205  35.193  30.117  1.00  0.00     0.040 A 
ATOM     66  F   UNL A   1      45.962  33.012  30.941  1.00  0.00    -0.206 F 
ATOM     67  C   UNL A   1      46.008  36.137  29.110  1.00  0.00     0.006 A 
ENDBRANCH  46  60
BRANCH  47  68
ATOM     68  C   UNL A   1      41.166  24.330  27.559  1.00  0.00     0.057 A 
ATOM     69  C   UNL A   1      40.150  24.144  26.615  1.00  0.00     0.134 A 
ATOM     70  C   UNL A   1      41.615  23.198  28.251  1.00  0.00     0.134 A 
ATOM     71  F   UNL A   1      39.663  25.190  25.932  1.00  0.00    -0.206 F 
ATOM     72  C   UNL A   1      39.595  22.884  26.374  1.00  0.00     0.040 A 
ATOM     73  C   UNL A   1      41.087  21.929  28.003  1.00  0.00     0.040 A 
ATOM     74  F   UNL A   1      42.590  23.307  29.166  1.00  0.00    -0.206 F 
ATOM     75  C   UNL A   1      40.071  21.771  27.065  1.00  0.00     0.006 A 
ENDBRANCH  47  68
BRANCH  59  76
ATOM     76  C   UNL A   1      47.274  27.324  25.929  1.00  0.00     0.057 A 
ATOM     77  C   UNL A   1      48.283  26.672  26.647  1.00  0.00     0.134 A 
ATOM     78  C   UNL A   1      47.416  27.402  24.537  1.00  0.00     0.134 A 
ATOM     79  F   UNL A   1      48.212  26.570  27.982  1.00  0.00    -0.206 F 
ATOM     80  C   UNL A   1      49.394  26.124  26.004  1.00  0.00     0.040 A 
ATOM     81  C   UNL A   1      48.505  26.830  23.879  1.00  0.00     0.040 A 
ATOM     82  F   UNL A   1      46.479  28.003  23.788  1.00  0.00    -0.206 F 
ATOM     83  C   UNL A   1      49.500  26.191  24.615  1.00  0.00     0.006 A 
ENDBRANCH  59  76
ENDBRANCH  33  34
ENDBRANCH  26  28
ENDBRANCH  25  26
ENDBRANCH  24  25
ENDBRANCH   1  24
TORSDOF 15
ENDMDL
MODEL 3
REMARK VINA RESULT:     -12.3      5.572     10.499
REMARK SMILES O=C(OCCOCCOC(=O)c1ccc(-c2c3nc(c(-c4c(F)cccc4F)c4ccc([nH]4)c(-c4c(F)cccc4F)c4nc(c(-c5c(F)cccc5F)c5ccc2[nH]5)C=C4)C=C3)cc1)C1=Cc2cc(Cl)cc(Cl)c2O[C@@H]1C(F)(F)F
REMARK SMILES IDX 7 1 6 2 5 3 4 4 3 5 2 6 1 7 66 8 67 9 77 10 68 11 76 12
REMARK SMILES IDX 69 13 75 14 70 15 73 16 71 17 72 18 74 19 78 20 79 21 80 22
REMARK SMILES IDX 81 23 8 24 9 25 10 26 11 27 12 28 13 29 65 30 14 31 64 32
REMARK SMILES IDX 15 33 16 34 17 35 58 36 18 37 63 38 57 39 59 40 19 41 62 42
REMARK SMILES IDX 56 43 55 44 20 46 46 47 29 48 45 49 30 50 33 51 44 52 60 53
REMARK SMILES IDX 31 54 32 55 43 57 61 58 34 59 21 60 22 61 27 62 23 63 24 64
REMARK SMILES IDX 26 65 28 66 25 67 47 68 48 69 53 70 49 71 50 72 52 73 54 74
REMARK SMILES IDX 51 75 35 76 36 77 41 78 37 79 38 80 40 81 42 82 39 83
REMARK H PARENT 59 45 33 56
REMARK Flexibility Score: inf
ROOT
ATOM      1  C   UNL A   1      44.513  18.388  24.541  1.00  0.00     0.202 C 
ENDROOT
BRANCH   1   2
ATOM      2  O   UNL A   1      45.825  18.955  24.619  1.00  0.00    -0.374 OA
BRANCH   2   3
ATOM      3  C   UNL A   1      46.410  20.410  24.713  1.00  0.00     0.202 C 
BRANCH   3   4
ATOM      4  C   UNL A   1      45.800  22.205  25.790  1.00  0.00     0.261 C 
BRANCH   4   5
ATOM      5  O   UNL A   1      46.680  23.427  26.123  1.00  0.00    -0.460 OA
BRANCH   5   6
ATOM      6  C   UNL A   1      46.934  24.196  25.061  1.00  0.00     0.338 C 
ATOM      7  O   UNL A   1      46.968  23.918  23.891  1.00  0.00    -0.246 OA
BRANCH   6   8
ATOM      8  C   UNL A   1      47.445  25.310  25.821  1.00  0.00     0.087 C 
ATOM      9  C   UNL A   1      48.927  25.176  26.008  1.00  0.00     0.027 C 
ATOM     10  C   UNL A   1      46.592  26.709  24.783  1.00  0.00     0.316 C 
ATOM     11  C   UNL A   1      50.146  26.225  25.144  1.00  0.00     0.020 A 
ATOM     12  O   UNL A   1      47.871  27.780  23.824  1.00  0.00    -0.474 OA
ATOM     13  C   UNL A   1      51.476  25.904  25.211  1.00  0.00     0.032 A 
ATOM     14  C   UNL A   1      49.648  27.422  23.985  1.00  0.00     0.146 A 
ATOM     15  C   UNL A   1      52.295  26.552  24.266  1.00  0.00     0.043 A 
ATOM     16  C   UNL A   1      50.500  27.861  23.012  1.00  0.00     0.085 A 
ATOM     17  Cl  UNL A   1      53.991  26.188  24.322  1.00  0.00    -0.084 Cl
ATOM     18  C   UNL A   1      51.834  27.434  23.203  1.00  0.00     0.045 A 
ATOM     19  Cl  UNL A   1      49.975  28.539  21.542  1.00  0.00    -0.080 Cl
BRANCH  10  20
ATOM     20  C   UNL A   1      45.424  27.143  25.746  1.00  0.00     0.430 C 
ATOM     21  F   UNL A   1      45.814  27.767  26.872  1.00  0.00    -0.167 F 
ATOM     22  F   UNL A   1      44.672  28.066  25.072  1.00  0.00    -0.167 F 
ATOM     23  F   UNL A   1      44.552  26.159  26.056  1.00  0.00    -0.167 F 
ENDBRANCH  10  20
ENDBRANCH   6   8
ENDBRANCH   5   6
ENDBRANCH   4   5
ENDBRANCH   3   4
ENDBRANCH   2   3
ENDBRANCH   1   2
BRANCH   1  24
ATOM     24  C   UNL A   1      43.447  18.756  25.555  1.00  0.00     0.261 C 
BRANCH  24  25
ATOM     25  O   UNL A   1      42.508  19.678  25.040  1.00  0.00    -0.460 OA
BRANCH  25  26
ATOM     26  C   UNL A   1      41.452  19.917  25.846  1.00  0.00     0.338 C 
ATOM     27  O   UNL A   1      40.466  19.229  26.020  1.00  0.00    -0.246 OA
BRANCH  26  28
ATOM     28  C   UNL A   1      41.719  21.194  26.522  1.00  0.00     0.060 A 
ATOM     29  C   UNL A   1      42.131  22.284  25.751  1.00  0.00     0.016 A 
ATOM     30  C   UNL A   1      41.497  21.320  27.901  1.00  0.00     0.016 A 
ATOM     31  C   UNL A   1      42.274  23.530  26.355  1.00  0.00     0.010 A 
ATOM     32  C   UNL A   1      41.637  22.559  28.502  1.00  0.00     0.010 A 
ATOM     33  C   UNL A   1      42.033  23.661  27.729  1.00  0.00    -0.014 A 
BRANCH  33  34
ATOM     34  C   UNL A   1      42.442  24.877  28.448  1.00  0.00     0.031 A 
ATOM     35  C   UNL A   1      41.404  25.943  28.597  1.00  0.00     0.074 A 
ATOM     36  C   UNL A   1      43.707  25.058  28.856  1.00  0.00     0.049 A 
ATOM     37  N   UNL A   1      41.520  27.156  29.058  1.00  0.00    -0.248 NA
ATOM     38  C   UNL A   1      40.049  25.593  28.132  1.00  0.00     0.031 C 
ATOM     39  C   UNL A   1      44.782  24.076  28.751  1.00  0.00     0.029 A 
ATOM     40  N   UNL A   1      44.302  26.159  29.411  1.00  0.00    -0.354 N 
ATOM     41  C   UNL A   1      40.257  27.715  28.935  1.00  0.00     0.074 A 
ATOM     42  C   UNL A   1      39.403  26.730  28.314  1.00  0.00     0.031 C 
ATOM     43  C   UNL A   1      45.920  24.630  29.205  1.00  0.00     0.029 A 
ATOM     44  C   UNL A   1      45.654  26.012  29.596  1.00  0.00     0.049 A 
ATOM     45  H   UNL A   1      43.810  26.976  29.656  1.00  0.00     0.167 HD
ATOM     46  C   UNL A   1      39.847  28.946  29.311  1.00  0.00     0.037 A 
ATOM     47  C   UNL A   1      46.569  26.914  30.003  1.00  0.00     0.037 A 
ATOM     48  C   UNL A   1      40.728  29.929  29.878  1.00  0.00     0.049 A 
ATOM     49  C   UNL A   1      46.112  28.306  30.352  1.00  0.00     0.074 A 
ATOM     50  C   UNL A   1      40.430  31.207  30.308  1.00  0.00     0.029 A 
ATOM     51  N   UNL A   1      42.092  29.744  30.064  1.00  0.00    -0.354 N 
ATOM     52  N   UNL A   1      44.904  28.819  30.291  1.00  0.00    -0.248 NA
ATOM     53  C   UNL A   1      47.136  29.244  30.829  1.00  0.00     0.031 C 
ATOM     54  C   UNL A   1      41.627  31.822  30.686  1.00  0.00     0.029 A 
ATOM     55  C   UNL A   1      42.657  30.899  30.571  1.00  0.00     0.049 A 
ATOM     56  H   UNL A   1      42.583  28.915  29.864  1.00  0.00     0.167 HD
ATOM     57  C   UNL A   1      45.016  30.124  30.758  1.00  0.00     0.074 A 
ATOM     58  C   UNL A   1      46.412  30.323  31.094  1.00  0.00     0.031 C 
ATOM     59  C   UNL A   1      44.052  31.066  30.908  1.00  0.00     0.037 A 
BRANCH  46  60
ATOM     60  C   UNL A   1      38.410  29.287  29.050  1.00  0.00     0.057 A 
ATOM     61  C   UNL A   1      37.959  29.689  27.784  1.00  0.00     0.134 A 
ATOM     62  C   UNL A   1      37.479  29.274  30.094  1.00  0.00     0.134 A 
ATOM     63  F   UNL A   1      38.807  29.750  26.746  1.00  0.00    -0.206 F 
ATOM     64  C   UNL A   1      36.646  30.116  27.580  1.00  0.00     0.040 A 
ATOM     65  C   UNL A   1      36.154  29.662  29.893  1.00  0.00     0.040 A 
ATOM     66  F   UNL A   1      37.843  28.905  31.331  1.00  0.00    -0.206 F 
ATOM     67  C   UNL A   1      35.738  30.101  28.636  1.00  0.00     0.006 A 
ENDBRANCH  46  60
BRANCH  47  68
ATOM     68  C   UNL A   1      47.998  26.522  30.100  1.00  0.00     0.057 A 
ATOM     69  C   UNL A   1      48.471  25.766  31.178  1.00  0.00     0.134 A 
ATOM     70  C   UNL A   1      48.921  26.875  29.108  1.00  0.00     0.134 A 
ATOM     71  F   UNL A   1      47.641  25.410  32.169  1.00  0.00    -0.206 F 
ATOM     72  C   UNL A   1      49.811  25.383  31.271  1.00  0.00     0.040 A 
ATOM     73  C   UNL A   1      50.259  26.479  29.177  1.00  0.00     0.040 A 
ATOM     74  F   UNL A   1      48.532  27.596  28.045  1.00  0.00    -0.206 F 
ATOM     75  C   UNL A   1      50.707  25.734  30.264  1.00  0.00     0.006 A 
ENDBRANCH  47  68
BRANCH  59  76
ATOM     76  C   UNL A   1      44.448  32.382  31.514  1.00  0.00     0.057 A 
ATOM     77  C   UNL A   1      44.752  33.504  30.736  1.00  0.00     0.134 A 
ATOM     78  C   UNL A   1      44.429  32.544  32.906  1.00  0.00     0.134 A 
ATOM     79  F   UNL A   1      44.796  33.413  29.398  1.00  0.00    -0.206 F 
ATOM     80  C   UNL A   1      45.032  34.740  31.321  1.00  0.00     0.040 A 
ATOM     81  C   UNL A   1      44.675  33.782  33.502  1.00  0.00     0.040 A 
ATOM     82  F   UNL A   1      44.133  31.511  33.710  1.00  0.00    -0.206 F 
ATOM     83  C   UNL A   1      44.981  34.884  32.707  1.00  0.00     0.006 A 
ENDBRANCH  59  76
ENDBRANCH  33  34
ENDBRANCH  26  28
ENDBRANCH  25  26
ENDBRANCH  24  25
ENDBRANCH   1  24
TORSDOF 15
ENDMDL
