MODEL 1
REMARK VINA RESULT:     -11.4      0.000      0.000
REMARK SMILES O=C(OCCOCCOC(=O)c1nnn(-c2cccc(C(F)(F)F)c2)c1[C@H]1COc2ccccc2O1)c1ccc(-c2c3nc(c(-c4c(F)cccc4F)c4ccc([nH]4)c(-c4c(F)cccc4F)c4nc(c(-c5c(F)cccc5F)c5ccc2[nH]5)C=C4)C=C3)cc1
REMARK SMILES IDX 6 1 5 2 4 3 3 4 2 5 1 6 37 7 38 8 90 9 39 10 89 11 40 12
REMARK SMILES IDX 41 13 42 14 83 15 43 16 88 17 82 18 84 19 44 20 87 21 81 22
REMARK SMILES IDX 80 23 45 25 71 26 54 27 70 28 55 29 58 30 69 31 85 32 56 33
REMARK SMILES IDX 57 34 68 36 86 37 59 38 46 39 47 40 52 41 48 42 49 43 51 44
REMARK SMILES IDX 53 45 50 46 72 47 73 48 78 49 74 50 75 51 77 52 79 53 76 54
REMARK SMILES IDX 60 55 61 56 66 57 62 58 63 59 65 60 67 61 64 62 7 63 8 64
REMARK SMILES IDX 9 65 10 66 11 67 12 68 13 69 26 70 14 71 15 72 27 73 28 74
REMARK SMILES IDX 36 75 29 76 35 77 30 78 34 79 31 80 33 81 32 82 16 83 17 84
REMARK SMILES IDX 25 85 18 86 20 87 19 88 21 89 22 90 23 91 24 92
REMARK H PARENT 84 24 58 35
REMARK Flexibility Score: inf
ROOT
ATOM      1  O   UNL A   1      32.175  29.874  26.937  1.00  0.00    -0.374 OA
ENDROOT
BRANCH   1   2
ATOM      2  C   UNL A   1      33.246  30.792  27.134  1.00  0.00     0.202 C 
BRANCH   2   3
ATOM      3  C   UNL A   1      34.687  30.265  27.149  1.00  0.00     0.261 C 
BRANCH   3   4
ATOM      4  O   UNL A   1      35.397  30.658  28.331  1.00  0.00    -0.460 OA
BRANCH   4   5
ATOM      5  C   UNL A   1      36.717  30.878  28.509  1.00  0.00     0.338 C 
ATOM      6  O   UNL A   1      37.086  32.035  28.714  1.00  0.00    -0.246 OA
BRANCH   5   7
ATOM      7  C   UNL A   1      37.765  29.810  28.470  1.00  0.00     0.060 A 
ATOM      8  C   UNL A   1      37.799  28.649  29.246  1.00  0.00     0.016 A 
ATOM      9  C   UNL A   1      38.806  30.013  27.546  1.00  0.00     0.016 A 
ATOM     10  C   UNL A   1      38.932  27.854  29.284  1.00  0.00     0.010 A 
ATOM     11  C   UNL A   1      39.910  29.173  27.518  1.00  0.00     0.010 A 
ATOM     12  C   UNL A   1      40.009  28.153  28.458  1.00  0.00    -0.014 A 
BRANCH  12  13
ATOM     13  C   UNL A   1      41.201  27.328  28.596  1.00  0.00     0.031 A 
ATOM     14  C   UNL A   1      42.006  27.543  29.831  1.00  0.00     0.074 A 
ATOM     15  C   UNL A   1      41.506  26.370  27.700  1.00  0.00     0.049 A 
ATOM     16  N   UNL A   1      43.269  27.806  29.933  1.00  0.00    -0.248 NA
ATOM     17  C   UNL A   1      41.287  27.538  31.114  1.00  0.00     0.031 C 
ATOM     18  C   UNL A   1      40.674  25.890  26.594  1.00  0.00     0.029 A 
ATOM     19  N   UNL A   1      42.577  25.528  27.672  1.00  0.00    -0.354 N 
ATOM     20  C   UNL A   1      43.545  27.814  31.300  1.00  0.00     0.074 A 
ATOM     21  C   UNL A   1      42.275  27.778  31.975  1.00  0.00     0.031 C 
ATOM     22  C   UNL A   1      41.150  24.702  26.168  1.00  0.00     0.029 A 
ATOM     23  C   UNL A   1      42.375  24.402  26.889  1.00  0.00     0.049 A 
ATOM     24  H   UNL A   1      43.415  25.705  28.159  1.00  0.00     0.167 HD
ATOM     25  C   UNL A   1      44.804  27.598  31.772  1.00  0.00     0.037 A 
ATOM     26  C   UNL A   1      43.105  23.261  26.903  1.00  0.00     0.037 A 
ATOM     27  C   UNL A   1      45.804  27.942  30.794  1.00  0.00     0.049 A 
ATOM     28  C   UNL A   1      44.413  23.558  27.531  1.00  0.00     0.074 A 
ATOM     29  C   UNL A   1      46.115  29.081  30.072  1.00  0.00     0.029 A 
ATOM     30  N   UNL A   1      46.519  26.934  30.200  1.00  0.00    -0.354 N 
ATOM     31  N   UNL A   1      45.354  24.271  26.978  1.00  0.00    -0.248 NA
ATOM     32  C   UNL A   1      44.536  23.377  28.971  1.00  0.00     0.031 C 
ATOM     33  C   UNL A   1      46.594  28.608  28.815  1.00  0.00     0.029 A 
ATOM     34  C   UNL A   1      46.570  27.215  28.862  1.00  0.00     0.049 A 
ATOM     35  H   UNL A   1      46.921  26.156  30.650  1.00  0.00     0.167 HD
ATOM     36  C   UNL A   1      45.925  24.975  28.028  1.00  0.00     0.074 A 
ATOM     37  C   UNL A   1      45.468  24.295  29.236  1.00  0.00     0.031 C 
ATOM     38  C   UNL A   1      46.480  26.207  27.834  1.00  0.00     0.037 A 
BRANCH  25  39
ATOM     39  C   UNL A   1      45.096  26.676  32.941  1.00  0.00     0.057 A 
ATOM     40  C   UNL A   1      44.520  25.392  32.957  1.00  0.00     0.134 A 
ATOM     41  C   UNL A   1      45.621  27.105  34.179  1.00  0.00     0.134 A 
ATOM     42  F   UNL A   1      43.999  24.856  31.842  1.00  0.00    -0.206 F 
ATOM     43  C   UNL A   1      44.354  24.657  34.138  1.00  0.00     0.040 A 
ATOM     44  C   UNL A   1      45.506  26.355  35.353  1.00  0.00     0.040 A 
ATOM     45  F   UNL A   1      46.187  28.304  34.351  1.00  0.00    -0.206 F 
ATOM     46  C   UNL A   1      44.830  25.148  35.345  1.00  0.00     0.006 A 
ENDBRANCH  25  39
BRANCH  26  47
ATOM     47  C   UNL A   1      42.638  21.881  26.643  1.00  0.00     0.057 A 
ATOM     48  C   UNL A   1      43.318  21.043  25.753  1.00  0.00     0.134 A 
ATOM     49  C   UNL A   1      41.651  21.267  27.436  1.00  0.00     0.134 A 
ATOM     50  F   UNL A   1      44.312  21.520  24.990  1.00  0.00    -0.206 F 
ATOM     51  C   UNL A   1      43.040  19.673  25.660  1.00  0.00     0.040 A 
ATOM     52  C   UNL A   1      41.349  19.906  27.341  1.00  0.00     0.040 A 
ATOM     53  F   UNL A   1      41.001  21.946  28.393  1.00  0.00    -0.206 F 
ATOM     54  C   UNL A   1      42.054  19.100  26.459  1.00  0.00     0.006 A 
ENDBRANCH  26  47
BRANCH  38  55
ATOM     55  C   UNL A   1      46.742  26.647  26.424  1.00  0.00     0.057 A 
ATOM     56  C   UNL A   1      45.811  27.337  25.636  1.00  0.00     0.134 A 
ATOM     57  C   UNL A   1      48.026  26.481  25.893  1.00  0.00     0.134 A 
ATOM     58  F   UNL A   1      44.592  27.639  26.104  1.00  0.00    -0.206 F 
ATOM     59  C   UNL A   1      46.126  27.786  24.351  1.00  0.00     0.040 A 
ATOM     60  C   UNL A   1      48.365  26.957  24.626  1.00  0.00     0.040 A 
ATOM     61  F   UNL A   1      48.987  25.886  26.619  1.00  0.00    -0.206 F 
ATOM     62  C   UNL A   1      47.409  27.599  23.843  1.00  0.00     0.006 A 
ENDBRANCH  38  55
ENDBRANCH  12  13
ENDBRANCH   5   7
ENDBRANCH   4   5
ENDBRANCH   3   4
ENDBRANCH   2   3
ENDBRANCH   1   2
BRANCH   1  63
ATOM     63  C   UNL A   1      32.325  28.494  27.280  1.00  0.00     0.202 C 
BRANCH  63  64
ATOM     64  C   UNL A   1      31.133  27.548  27.148  1.00  0.00     0.261 C 
BRANCH  64  65
ATOM     65  O   UNL A   1      31.533  26.173  27.246  1.00  0.00    -0.458 OA
BRANCH  65  66
ATOM     66  C   UNL A   1      30.856  25.307  26.434  1.00  0.00     0.361 C 
ATOM     67  O   UNL A   1      29.863  25.572  25.792  1.00  0.00    -0.244 OA
BRANCH  66  68
ATOM     68  C   UNL A   1      31.537  24.024  26.351  1.00  0.00     0.198 A 
ATOM     69  N   UNL A   1      31.223  22.945  27.139  1.00  0.00    -0.122 NA
ATOM     70  C   UNL A   1      32.562  23.676  25.494  1.00  0.00     0.123 A 
ATOM     71  N   UNL A   1      32.033  21.946  26.811  1.00  0.00    -0.061 NA
ATOM     72  N   UNL A   1      32.957  22.444  25.965  1.00  0.00    -0.213 N 
BRANCH  70  73
ATOM     73  C   UNL A   1      33.168  24.354  24.313  1.00  0.00     0.262 C 
ATOM     74  C   UNL A   1      32.153  24.465  23.168  1.00  0.00     0.281 C 
ATOM     75  O   UNL A   1      33.614  25.628  24.784  1.00  0.00    -0.477 OA
ATOM     76  O   UNL A   1      32.718  25.184  22.068  1.00  0.00    -0.485 OA
ATOM     77  C   UNL A   1      33.611  26.601  23.825  1.00  0.00     0.162 A 
ATOM     78  C   UNL A   1      33.194  26.391  22.508  1.00  0.00     0.161 A 
ATOM     79  C   UNL A   1      34.028  27.865  24.234  1.00  0.00     0.050 A 
ATOM     80  C   UNL A   1      33.237  27.433  21.589  1.00  0.00     0.050 A 
ATOM     81  C   UNL A   1      34.031  28.920  23.324  1.00  0.00     0.004 A 
ATOM     82  C   UNL A   1      33.645  28.703  22.001  1.00  0.00     0.004 A 
ENDBRANCH  70  73
BRANCH  72  83
ATOM     83  C   UNL A   1      34.214  21.849  25.792  1.00  0.00     0.067 A 
ATOM     84  C   UNL A   1      34.329  20.542  25.329  1.00  0.00     0.028 A 
ATOM     85  C   UNL A   1      35.347  22.640  26.029  1.00  0.00     0.041 A 
ATOM     86  C   UNL A   1      35.599  20.067  24.999  1.00  0.00     0.003 A 
ATOM     87  C   UNL A   1      36.620  22.163  25.717  1.00  0.00     0.058 A 
ATOM     88  C   UNL A   1      36.733  20.875  25.177  1.00  0.00     0.013 A 
BRANCH  87  89
ATOM     89  C   UNL A   1      37.825  23.049  25.917  1.00  0.00     0.416 C 
ATOM     90  F   UNL A   1      39.002  22.382  25.778  1.00  0.00    -0.166 F 
ATOM     91  F   UNL A   1      37.859  24.076  25.026  1.00  0.00    -0.166 F 
ATOM     92  F   UNL A   1      37.866  23.628  27.151  1.00  0.00    -0.166 F 
ENDBRANCH  87  89
ENDBRANCH  72  83
ENDBRANCH  66  68
ENDBRANCH  65  66
ENDBRANCH  64  65
ENDBRANCH  63  64
ENDBRANCH   1  63
TORSDOF 17
ENDMDL
MODEL 2
REMARK VINA RESULT:     -11.4      5.228      9.662
REMARK SMILES O=C(OCCOCCOC(=O)c1nnn(-c2cccc(C(F)(F)F)c2)c1[C@H]1COc2ccccc2O1)c1ccc(-c2c3nc(c(-c4c(F)cccc4F)c4ccc([nH]4)c(-c4c(F)cccc4F)c4nc(c(-c5c(F)cccc5F)c5ccc2[nH]5)C=C4)C=C3)cc1
REMARK SMILES IDX 6 1 5 2 4 3 3 4 2 5 1 6 37 7 38 8 90 9 39 10 89 11 40 12
REMARK SMILES IDX 41 13 42 14 83 15 43 16 88 17 82 18 84 19 44 20 87 21 81 22
REMARK SMILES IDX 80 23 45 25 71 26 54 27 70 28 55 29 58 30 69 31 85 32 56 33
REMARK SMILES IDX 57 34 68 36 86 37 59 38 46 39 47 40 52 41 48 42 49 43 51 44
REMARK SMILES IDX 53 45 50 46 72 47 73 48 78 49 74 50 75 51 77 52 79 53 76 54
REMARK SMILES IDX 60 55 61 56 66 57 62 58 63 59 65 60 67 61 64 62 7 63 8 64
REMARK SMILES IDX 9 65 10 66 11 67 12 68 13 69 26 70 14 71 15 72 27 73 28 74
REMARK SMILES IDX 36 75 29 76 35 77 30 78 34 79 31 80 33 81 32 82 16 83 17 84
REMARK SMILES IDX 25 85 18 86 20 87 19 88 21 89 22 90 23 91 24 92
REMARK H PARENT 84 24 58 35
REMARK Flexibility Score: inf
ROOT
ATOM      1  O   UNL A   1      37.220  23.361  25.571  1.00  0.00    -0.374 OA
ENDROOT
BRANCH   1   2
ATOM      2  C   UNL A   1      38.161  22.295  25.648  1.00  0.00     0.202 C 
BRANCH   2   3
ATOM      3  C   UNL A   1      39.390  22.448  26.554  1.00  0.00     0.261 C 
BRANCH   3   4
ATOM      4  O   UNL A   1      39.926  23.778  26.522  1.00  0.00    -0.460 OA
BRANCH   4   5
ATOM      5  C   UNL A   1      40.729  24.404  27.408  1.00  0.00     0.338 C 
ATOM      6  O   UNL A   1      41.819  23.892  27.662  1.00  0.00    -0.246 OA
BRANCH   5   7
ATOM      7  C   UNL A   1      40.382  25.682  28.107  1.00  0.00     0.060 A 
ATOM      8  C   UNL A   1      39.272  26.492  27.856  1.00  0.00     0.016 A 
ATOM      9  C   UNL A   1      41.273  26.083  29.119  1.00  0.00     0.016 A 
ATOM     10  C   UNL A   1      39.180  27.759  28.406  1.00  0.00     0.010 A 
ATOM     11  C   UNL A   1      41.142  27.318  29.738  1.00  0.00     0.010 A 
ATOM     12  C   UNL A   1      40.149  28.190  29.304  1.00  0.00    -0.014 A 
BRANCH  12  13
ATOM     13  C   UNL A   1      40.042  29.559  29.791  1.00  0.00     0.031 A 
ATOM     14  C   UNL A   1      41.293  30.367  29.749  1.00  0.00     0.074 A 
ATOM     15  C   UNL A   1      38.863  30.083  30.174  1.00  0.00     0.049 A 
ATOM     16  N   UNL A   1      41.862  31.022  30.710  1.00  0.00    -0.248 NA
ATOM     17  C   UNL A   1      42.044  30.381  28.485  1.00  0.00     0.031 C 
ATOM     18  C   UNL A   1      37.534  29.485  30.026  1.00  0.00     0.029 A 
ATOM     19  N   UNL A   1      38.593  31.327  30.663  1.00  0.00    -0.354 N 
ATOM     20  C   UNL A   1      42.941  31.686  30.129  1.00  0.00     0.074 A 
ATOM     21  C   UNL A   1      43.083  31.153  28.800  1.00  0.00     0.031 C 
ATOM     22  C   UNL A   1      36.600  30.447  30.180  1.00  0.00     0.029 A 
ATOM     23  C   UNL A   1      37.259  31.687  30.549  1.00  0.00     0.049 A 
ATOM     24  H   UNL A   1      39.278  31.911  31.060  1.00  0.00     0.167 HD
ATOM     25  C   UNL A   1      43.479  32.800  30.698  1.00  0.00     0.037 A 
ATOM     26  C   UNL A   1      36.743  32.935  30.653  1.00  0.00     0.037 A 
ATOM     27  C   UNL A   1      43.238  32.841  32.117  1.00  0.00     0.049 A 
ATOM     28  C   UNL A   1      37.731  33.785  31.358  1.00  0.00     0.074 A 
ATOM     29  C   UNL A   1      43.504  31.996  33.180  1.00  0.00     0.029 A 
ATOM     30  N   UNL A   1      42.355  33.769  32.609  1.00  0.00    -0.354 N 
ATOM     31  N   UNL A   1      38.017  33.690  32.625  1.00  0.00    -0.248 NA
ATOM     32  C   UNL A   1      38.705  34.509  30.553  1.00  0.00     0.031 C 
ATOM     33  C   UNL A   1      42.408  32.166  34.077  1.00  0.00     0.029 A 
ATOM     34  C   UNL A   1      41.563  33.123  33.518  1.00  0.00     0.049 A 
ATOM     35  H   UNL A   1      42.302  34.719  32.356  1.00  0.00     0.167 HD
ATOM     36  C   UNL A   1      39.377  33.949  32.699  1.00  0.00     0.074 A 
ATOM     37  C   UNL A   1      39.718  34.564  31.420  1.00  0.00     0.031 C 
ATOM     38  C   UNL A   1      40.153  33.384  33.671  1.00  0.00     0.037 A 
BRANCH  25  39
ATOM     39  C   UNL A   1      43.835  34.040  29.899  1.00  0.00     0.057 A 
ATOM     40  C   UNL A   1      45.089  34.646  30.105  1.00  0.00     0.134 A 
ATOM     41  C   UNL A   1      42.896  34.839  29.212  1.00  0.00     0.134 A 
ATOM     42  F   UNL A   1      46.078  33.989  30.730  1.00  0.00    -0.206 F 
ATOM     43  C   UNL A   1      45.340  35.985  29.780  1.00  0.00     0.040 A 
ATOM     44  C   UNL A   1      43.155  36.161  28.837  1.00  0.00     0.040 A 
ATOM     45  F   UNL A   1      41.651  34.431  28.947  1.00  0.00    -0.206 F 
ATOM     46  C   UNL A   1      44.363  36.754  29.162  1.00  0.00     0.006 A 
ENDBRANCH  25  39
BRANCH  26  47
ATOM     47  C   UNL A   1      35.564  33.491  29.952  1.00  0.00     0.057 A 
ATOM     48  C   UNL A   1      34.553  34.158  30.654  1.00  0.00     0.134 A 
ATOM     49  C   UNL A   1      35.512  33.594  28.550  1.00  0.00     0.134 A 
ATOM     50  F   UNL A   1      34.544  34.166  31.994  1.00  0.00    -0.206 F 
ATOM     51  C   UNL A   1      33.551  34.888  30.001  1.00  0.00     0.040 A 
ATOM     52  C   UNL A   1      34.508  34.302  27.884  1.00  0.00     0.040 A 
ATOM     53  F   UNL A   1      36.479  33.080  27.775  1.00  0.00    -0.206 F 
ATOM     54  C   UNL A   1      33.529  34.964  28.611  1.00  0.00     0.006 A 
ENDBRANCH  26  47
BRANCH  38  55
ATOM     55  C   UNL A   1      39.462  32.738  34.835  1.00  0.00     0.057 A 
ATOM     56  C   UNL A   1      39.076  33.427  35.994  1.00  0.00     0.134 A 
ATOM     57  C   UNL A   1      39.058  31.403  34.724  1.00  0.00     0.134 A 
ATOM     58  F   UNL A   1      39.323  34.737  36.138  1.00  0.00    -0.206 F 
ATOM     59  C   UNL A   1      38.373  32.796  37.023  1.00  0.00     0.040 A 
ATOM     60  C   UNL A   1      38.324  30.771  35.729  1.00  0.00     0.040 A 
ATOM     61  F   UNL A   1      39.337  30.701  33.614  1.00  0.00    -0.206 F 
ATOM     62  C   UNL A   1      37.992  31.463  36.891  1.00  0.00     0.006 A 
ENDBRANCH  38  55
ENDBRANCH  12  13
ENDBRANCH   5   7
ENDBRANCH   4   5
ENDBRANCH   3   4
ENDBRANCH   2   3
ENDBRANCH   1   2
BRANCH   1  63
ATOM     63  C   UNL A   1      36.125  23.303  24.653  1.00  0.00     0.202 C 
BRANCH  63  64
ATOM     64  C   UNL A   1      34.924  22.412  24.963  1.00  0.00     0.261 C 
BRANCH  64  65
ATOM     65  O   UNL A   1      33.746  22.846  24.269  1.00  0.00    -0.458 OA
BRANCH  65  66
ATOM     66  C   UNL A   1      32.617  22.936  25.032  1.00  0.00     0.361 C 
ATOM     67  O   UNL A   1      32.416  22.340  26.068  1.00  0.00    -0.244 OA
BRANCH  66  68
ATOM     68  C   UNL A   1      31.698  23.928  24.495  1.00  0.00     0.198 A 
ATOM     69  N   UNL A   1      30.720  23.639  23.577  1.00  0.00    -0.122 NA
ATOM     70  C   UNL A   1      31.640  25.271  24.811  1.00  0.00     0.123 A 
ATOM     71  N   UNL A   1      30.070  24.763  23.300  1.00  0.00    -0.061 NA
ATOM     72  N   UNL A   1      30.746  25.769  23.891  1.00  0.00    -0.213 N 
BRANCH  70  73
ATOM     73  C   UNL A   1      32.304  26.093  25.862  1.00  0.00     0.262 C 
ATOM     74  C   UNL A   1      33.765  26.376  25.489  1.00  0.00     0.281 C 
ATOM     75  O   UNL A   1      31.520  27.283  25.977  1.00  0.00    -0.477 OA
ATOM     76  O   UNL A   1      34.373  27.229  26.465  1.00  0.00    -0.485 OA
ATOM     77  C   UNL A   1      32.236  28.377  26.372  1.00  0.00     0.162 A 
ATOM     78  C   UNL A   1      33.610  28.356  26.623  1.00  0.00     0.161 A 
ATOM     79  C   UNL A   1      31.521  29.566  26.490  1.00  0.00     0.050 A 
ATOM     80  C   UNL A   1      34.260  29.513  27.037  1.00  0.00     0.050 A 
ATOM     81  C   UNL A   1      32.180  30.736  26.863  1.00  0.00     0.004 A 
ATOM     82  C   UNL A   1      33.546  30.707  27.145  1.00  0.00     0.004 A 
ENDBRANCH  70  73
BRANCH  72  83
ATOM     83  C   UNL A   1      30.660  27.094  23.444  1.00  0.00     0.067 A 
ATOM     84  C   UNL A   1      31.761  27.733  22.882  1.00  0.00     0.028 A 
ATOM     85  C   UNL A   1      29.410  27.725  23.514  1.00  0.00     0.041 A 
ATOM     86  C   UNL A   1      31.569  28.981  22.288  1.00  0.00     0.003 A 
ATOM     87  C   UNL A   1      29.217  28.980  22.937  1.00  0.00     0.058 A 
ATOM     88  C   UNL A   1      30.306  29.593  22.301  1.00  0.00     0.013 A 
BRANCH  87  89
ATOM     89  C   UNL A   1      27.851  29.619  22.964  1.00  0.00     0.416 C 
ATOM     90  F   UNL A   1      27.779  30.682  23.809  1.00  0.00    -0.166 F 
ATOM     91  F   UNL A   1      27.475  30.077  21.739  1.00  0.00    -0.166 F 
ATOM     92  F   UNL A   1      26.866  28.763  23.356  1.00  0.00    -0.166 F 
ENDBRANCH  87  89
ENDBRANCH  72  83
ENDBRANCH  66  68
ENDBRANCH  65  66
ENDBRANCH  64  65
ENDBRANCH  63  64
ENDBRANCH   1  63
TORSDOF 17
ENDMDL
MODEL 3
REMARK VINA RESULT:     -11.3      1.707      5.855
REMARK SMILES O=C(OCCOCCOC(=O)c1nnn(-c2cccc(C(F)(F)F)c2)c1[C@H]1COc2ccccc2O1)c1ccc(-c2c3nc(c(-c4c(F)cccc4F)c4ccc([nH]4)c(-c4c(F)cccc4F)c4nc(c(-c5c(F)cccc5F)c5ccc2[nH]5)C=C4)C=C3)cc1
REMARK SMILES IDX 6 1 5 2 4 3 3 4 2 5 1 6 37 7 38 8 90 9 39 10 89 11 40 12
REMARK SMILES IDX 41 13 42 14 83 15 43 16 88 17 82 18 84 19 44 20 87 21 81 22
REMARK SMILES IDX 80 23 45 25 71 26 54 27 70 28 55 29 58 30 69 31 85 32 56 33
REMARK SMILES IDX 57 34 68 36 86 37 59 38 46 39 47 40 52 41 48 42 49 43 51 44
REMARK SMILES IDX 53 45 50 46 72 47 73 48 78 49 74 50 75 51 77 52 79 53 76 54
REMARK SMILES IDX 60 55 61 56 66 57 62 58 63 59 65 60 67 61 64 62 7 63 8 64
REMARK SMILES IDX 9 65 10 66 11 67 12 68 13 69 26 70 14 71 15 72 27 73 28 74
REMARK SMILES IDX 36 75 29 76 35 77 30 78 34 79 31 80 33 81 32 82 16 83 17 84
REMARK SMILES IDX 25 85 18 86 20 87 19 88 21 89 22 90 23 91 24 92
REMARK H PARENT 84 24 58 35
REMARK Flexibility Score: inf
ROOT
ATOM      1  O   UNL A   1      31.916  29.718  27.239  1.00  0.00    -0.374 OA
ENDROOT
BRANCH   1   2
ATOM      2  C   UNL A   1      33.124  30.399  26.913  1.00  0.00     0.202 C 
BRANCH   2   3
ATOM      3  C   UNL A   1      34.467  29.725  27.225  1.00  0.00     0.261 C 
BRANCH   3   4
ATOM      4  O   UNL A   1      35.357  30.591  27.941  1.00  0.00    -0.460 OA
BRANCH   4   5
ATOM      5  C   UNL A   1      36.193  30.313  28.964  1.00  0.00     0.338 C 
ATOM      6  O   UNL A   1      35.889  30.719  30.085  1.00  0.00    -0.246 OA
BRANCH   5   7
ATOM      7  C   UNL A   1      37.471  29.545  28.825  1.00  0.00     0.060 A 
ATOM      8  C   UNL A   1      37.967  28.588  29.713  1.00  0.00     0.016 A 
ATOM      9  C   UNL A   1      38.228  29.829  27.673  1.00  0.00     0.016 A 
ATOM     10  C   UNL A   1      39.263  28.116  29.595  1.00  0.00     0.010 A 
ATOM     11  C   UNL A   1      39.498  29.295  27.504  1.00  0.00     0.010 A 
ATOM     12  C   UNL A   1      40.045  28.516  28.519  1.00  0.00    -0.014 A 
BRANCH  12  13
ATOM     13  C   UNL A   1      41.424  28.048  28.488  1.00  0.00     0.031 A 
ATOM     14  C   UNL A   1      41.652  26.732  27.829  1.00  0.00     0.074 A 
ATOM     15  C   UNL A   1      42.438  28.802  28.953  1.00  0.00     0.049 A 
ATOM     16  N   UNL A   1      42.253  25.688  28.301  1.00  0.00    -0.248 NA
ATOM     17  C   UNL A   1      41.065  26.535  26.495  1.00  0.00     0.031 C 
ATOM     18  C   UNL A   1      42.380  30.201  29.386  1.00  0.00     0.029 A 
ATOM     19  N   UNL A   1      43.769  28.513  29.012  1.00  0.00    -0.354 N 
ATOM     20  C   UNL A   1      42.287  24.764  27.257  1.00  0.00     0.074 A 
ATOM     21  C   UNL A   1      41.431  25.283  26.224  1.00  0.00     0.031 C 
ATOM     22  C   UNL A   1      43.632  30.701  29.423  1.00  0.00     0.029 A 
ATOM     23  C   UNL A   1      44.573  29.635  29.131  1.00  0.00     0.049 A 
ATOM     24  H   UNL A   1      44.123  27.595  28.975  1.00  0.00     0.167 HD
ATOM     25  C   UNL A   1      43.212  23.766  27.221  1.00  0.00     0.037 A 
ATOM     26  C   UNL A   1      45.908  29.705  28.910  1.00  0.00     0.037 A 
ATOM     27  C   UNL A   1      43.690  23.437  28.539  1.00  0.00     0.049 A 
ATOM     28  C   UNL A   1      46.459  28.331  28.972  1.00  0.00     0.074 A 
ATOM     29  C   UNL A   1      43.098  23.041  29.725  1.00  0.00     0.029 A 
ATOM     30  N   UNL A   1      44.976  23.777  28.877  1.00  0.00    -0.354 N 
ATOM     31  N   UNL A   1      46.576  27.631  30.064  1.00  0.00    -0.248 NA
ATOM     32  C   UNL A   1      46.530  27.568  27.734  1.00  0.00     0.031 C 
ATOM     33  C   UNL A   1      43.891  23.627  30.755  1.00  0.00     0.029 A 
ATOM     34  C   UNL A   1      44.930  24.318  30.132  1.00  0.00     0.049 A 
ATOM     35  H   UNL A   1      45.780  23.654  28.322  1.00  0.00     0.167 HD
ATOM     36  C   UNL A   1      46.303  26.327  29.678  1.00  0.00     0.074 A 
ATOM     37  C   UNL A   1      46.404  26.332  28.222  1.00  0.00     0.031 C 
ATOM     38  C   UNL A   1      45.741  25.435  30.546  1.00  0.00     0.037 A 
BRANCH  25  39
ATOM     39  C   UNL A   1      43.982  23.404  25.965  1.00  0.00     0.057 A 
ATOM     40  C   UNL A   1      44.119  22.046  25.618  1.00  0.00     0.134 A 
ATOM     41  C   UNL A   1      44.859  24.279  25.291  1.00  0.00     0.134 A 
ATOM     42  F   UNL A   1      43.334  21.110  26.172  1.00  0.00    -0.206 F 
ATOM     43  C   UNL A   1      45.140  21.585  24.777  1.00  0.00     0.040 A 
ATOM     44  C   UNL A   1      45.848  23.833  24.409  1.00  0.00     0.040 A 
ATOM     45  F   UNL A   1      44.880  25.598  25.511  1.00  0.00    -0.206 F 
ATOM     46  C   UNL A   1      46.022  22.478  24.185  1.00  0.00     0.006 A 
ENDBRANCH  25  39
BRANCH  26  47
ATOM     47  C   UNL A   1      46.683  30.855  28.392  1.00  0.00     0.057 A 
ATOM     48  C   UNL A   1      46.513  31.310  27.080  1.00  0.00     0.134 A 
ATOM     49  C   UNL A   1      47.438  31.686  29.240  1.00  0.00     0.134 A 
ATOM     50  F   UNL A   1      45.766  30.617  26.209  1.00  0.00    -0.206 F 
ATOM     51  C   UNL A   1      47.056  32.523  26.637  1.00  0.00     0.040 A 
ATOM     52  C   UNL A   1      48.002  32.889  28.807  1.00  0.00     0.040 A 
ATOM     53  F   UNL A   1      47.587  31.404  30.543  1.00  0.00    -0.206 F 
ATOM     54  C   UNL A   1      47.801  33.318  27.503  1.00  0.00     0.006 A 
ENDBRANCH  26  47
BRANCH  38  55
ATOM     55  C   UNL A   1      45.718  25.792  32.003  1.00  0.00     0.057 A 
ATOM     56  C   UNL A   1      46.794  25.577  32.876  1.00  0.00     0.134 A 
ATOM     57  C   UNL A   1      44.619  26.495  32.509  1.00  0.00     0.134 A 
ATOM     58  F   UNL A   1      47.932  25.011  32.450  1.00  0.00    -0.206 F 
ATOM     59  C   UNL A   1      46.751  25.990  34.211  1.00  0.00     0.040 A 
ATOM     60  C   UNL A   1      44.578  26.944  33.830  1.00  0.00     0.040 A 
ATOM     61  F   UNL A   1      43.581  26.793  31.712  1.00  0.00    -0.206 F 
ATOM     62  C   UNL A   1      45.640  26.679  34.690  1.00  0.00     0.006 A 
ENDBRANCH  38  55
ENDBRANCH  12  13
ENDBRANCH   5   7
ENDBRANCH   4   5
ENDBRANCH   3   4
ENDBRANCH   2   3
ENDBRANCH   1   2
BRANCH   1  63
ATOM     63  C   UNL A   1      31.934  28.338  27.612  1.00  0.00     0.202 C 
BRANCH  63  64
ATOM     64  C   UNL A   1      31.425  27.283  26.632  1.00  0.00     0.261 C 
BRANCH  64  65
ATOM     65  O   UNL A   1      31.656  25.952  27.117  1.00  0.00    -0.458 OA
BRANCH  65  66
ATOM     66  C   UNL A   1      31.014  24.959  26.433  1.00  0.00     0.361 C 
ATOM     67  O   UNL A   1      29.945  25.067  25.871  1.00  0.00    -0.244 OA
BRANCH  66  68
ATOM     68  C   UNL A   1      31.827  23.754  26.370  1.00  0.00     0.198 A 
ATOM     69  N   UNL A   1      31.634  22.665  27.183  1.00  0.00    -0.122 NA
ATOM     70  C   UNL A   1      32.877  23.498  25.512  1.00  0.00     0.123 A 
ATOM     71  N   UNL A   1      32.543  21.750  26.869  1.00  0.00    -0.061 NA
ATOM     72  N   UNL A   1      33.404  22.325  26.005  1.00  0.00    -0.213 N 
BRANCH  70  73
ATOM     73  C   UNL A   1      33.401  24.211  24.312  1.00  0.00     0.262 C 
ATOM     74  C   UNL A   1      32.332  24.287  23.215  1.00  0.00     0.281 C 
ATOM     75  O   UNL A   1      33.812  25.499  24.776  1.00  0.00    -0.477 OA
ATOM     76  O   UNL A   1      32.816  25.038  22.097  1.00  0.00    -0.485 OA
ATOM     77  C   UNL A   1      33.725  26.478  23.827  1.00  0.00     0.162 A 
ATOM     78  C   UNL A   1      33.260  26.261  22.528  1.00  0.00     0.161 A 
ATOM     79  C   UNL A   1      34.105  27.756  24.230  1.00  0.00     0.050 A 
ATOM     80  C   UNL A   1      33.217  27.312  21.618  1.00  0.00     0.050 A 
ATOM     81  C   UNL A   1      34.023  28.818  23.332  1.00  0.00     0.004 A 
ATOM     82  C   UNL A   1      33.588  28.594  22.025  1.00  0.00     0.004 A 
ENDBRANCH  70  73
BRANCH  72  83
ATOM     83  C   UNL A   1      34.715  21.863  25.834  1.00  0.00     0.067 A 
ATOM     84  C   UNL A   1      34.966  20.609  25.284  1.00  0.00     0.028 A 
ATOM     85  C   UNL A   1      35.762  22.735  26.164  1.00  0.00     0.041 A 
ATOM     86  C   UNL A   1      36.284  20.279  24.966  1.00  0.00     0.003 A 
ATOM     87  C   UNL A   1      37.082  22.402  25.863  1.00  0.00     0.058 A 
ATOM     88  C   UNL A   1      37.331  21.173  25.238  1.00  0.00     0.013 A 
BRANCH  87  89
ATOM     89  C   UNL A   1      38.192  23.378  26.166  1.00  0.00     0.416 C 
ATOM     90  F   UNL A   1      39.429  22.858  25.946  1.00  0.00    -0.166 F 
ATOM     91  F   UNL A   1      38.107  24.502  25.405  1.00  0.00    -0.166 F 
ATOM     92  F   UNL A   1      38.191  23.807  27.460  1.00  0.00    -0.166 F 
ENDBRANCH  87  89
ENDBRANCH  72  83
ENDBRANCH  66  68
ENDBRANCH  65  66
ENDBRANCH  64  65
ENDBRANCH  63  64
ENDBRANCH   1  63
TORSDOF 17
ENDMDL
