MODEL 1
REMARK VINA RESULT:     -10.2      0.000      0.000
REMARK SMILES CCC(CC)(NC(=O)c1cc(C)ccc1OC)C(=O)OCCOCCOC(=O)c1ccc(-c2c3nc(c(-c4c(F)cccc4F)c4ccc([nH]4)c(-c4c(F)cccc4F)c4nc(c(-c5c(F)cccc5F)c5ccc2[nH]5)C=C4)C=C3)cc1
REMARK SMILES IDX 22 1 21 2 20 3 18 4 19 5 3 6 2 7 1 8 4 9 5 10 6 11 7 12 8 14
REMARK SMILES IDX 9 15 10 16 15 17 11 18 14 19 12 20 13 21 16 22 17 23 23 24
REMARK SMILES IDX 24 25 25 26 26 27 27 28 28 29 29 30 30 31 82 32 31 33 81 34
REMARK SMILES IDX 32 35 33 36 34 37 75 38 35 39 80 40 74 41 76 42 36 43 79 44
REMARK SMILES IDX 73 45 72 46 37 48 63 49 46 50 62 51 47 52 50 53 61 54 77 55
REMARK SMILES IDX 48 56 49 57 60 59 78 60 51 61 38 62 39 63 44 64 40 65 41 66
REMARK SMILES IDX 43 67 45 68 42 69 64 70 65 71 70 72 66 73 67 74 69 75 71 76
REMARK SMILES IDX 68 77 52 78 53 79 58 80 54 81 55 82 57 83 59 84 56 85
REMARK H PARENT 6 13 76 47 50 58
REMARK Flexibility Score: inf
ROOT
ATOM      1  C   UNL A   1      32.935  29.493  24.898  1.00  0.00     0.202 C 
ENDROOT
BRANCH   1   2
ATOM      2  C   UNL A   1      31.964  28.355  24.858  1.00  0.00     0.261 C 
BRANCH   2   3
ATOM      3  O   UNL A   1      32.628  27.140  25.082  1.00  0.00    -0.461 OA
BRANCH   3   4
ATOM      4  C   UNL A   1      31.878  26.329  25.854  1.00  0.00     0.331 C 
ATOM      5  O   UNL A   1      31.315  26.683  26.878  1.00  0.00    -0.249 OA
BRANCH   4   6
ATOM      6  C   UNL A   1      31.959  24.920  25.293  1.00  0.00     0.137 C 
BRANCH   6   7
ATOM      7  C   UNL A   1      30.533  24.611  24.700  1.00  0.00     0.037 C 
ATOM      8  C   UNL A   1      30.441  24.086  23.260  1.00  0.00     0.007 C 
ENDBRANCH   6   7
BRANCH   6   9
ATOM      9  C   UNL A   1      32.287  24.021  26.505  1.00  0.00     0.037 C 
ATOM     10  C   UNL A   1      31.276  22.934  26.817  1.00  0.00     0.007 C 
ENDBRANCH   6   9
BRANCH   6  11
ATOM     11  N   UNL A   1      32.950  24.798  24.092  1.00  0.00    -0.336 N 
ATOM     12  C   UNL A   1      33.920  24.009  23.477  1.00  0.00     0.255 C 
ATOM     13  H   UNL A   1      32.848  25.611  23.546  1.00  0.00     0.165 HD
ATOM     14  O   UNL A   1      34.403  24.487  22.442  1.00  0.00    -0.269 OA
BRANCH  12  15
ATOM     15  C   UNL A   1      34.579  22.749  23.962  1.00  0.00     0.082 A 
ATOM     16  C   UNL A   1      35.988  22.776  24.219  1.00  0.00     0.021 A 
ATOM     17  C   UNL A   1      33.904  21.574  24.248  1.00  0.00     0.131 A 
ATOM     18  C   UNL A   1      36.646  21.745  24.933  1.00  0.00    -0.050 A 
ATOM     19  C   UNL A   1      34.541  20.592  25.016  1.00  0.00     0.047 A 
ATOM     20  C   UNL A   1      38.108  21.800  25.288  1.00  0.00     0.044 C 
ATOM     21  C   UNL A   1      35.885  20.673  25.377  1.00  0.00     0.007 A 
BRANCH  17  22
ATOM     22  O   UNL A   1      32.609  21.287  23.929  1.00  0.00    -0.496 OA
ATOM     23  C   UNL A   1      32.460  20.026  23.281  1.00  0.00     0.278 C 
ENDBRANCH  17  22
ENDBRANCH  12  15
ENDBRANCH   6  11
ENDBRANCH   4   6
ENDBRANCH   3   4
ENDBRANCH   2   3
ENDBRANCH   1   2
BRANCH   1  24
ATOM     24  O   UNL A   1      33.599  29.506  26.147  1.00  0.00    -0.374 OA
BRANCH  24  25
ATOM     25  C   UNL A   1      32.785  30.070  27.169  1.00  0.00     0.202 C 
BRANCH  25  26
ATOM     26  C   UNL A   1      33.334  31.412  27.695  1.00  0.00     0.261 C 
BRANCH  26  27
ATOM     27  O   UNL A   1      34.686  31.600  27.202  1.00  0.00    -0.460 OA
BRANCH  27  28
ATOM     28  C   UNL A   1      35.673  31.829  28.117  1.00  0.00     0.338 C 
ATOM     29  O   UNL A   1      36.013  32.935  28.517  1.00  0.00    -0.246 OA
BRANCH  28  30
ATOM     30  C   UNL A   1      36.454  30.570  28.380  1.00  0.00     0.060 A 
ATOM     31  C   UNL A   1      36.289  29.833  29.577  1.00  0.00     0.016 A 
ATOM     32  C   UNL A   1      37.572  30.334  27.599  1.00  0.00     0.016 A 
ATOM     33  C   UNL A   1      37.310  28.969  30.060  1.00  0.00     0.010 A 
ATOM     34  C   UNL A   1      38.600  29.569  28.126  1.00  0.00     0.010 A 
ATOM     35  C   UNL A   1      38.516  28.879  29.365  1.00  0.00    -0.014 A 
BRANCH  35  36
ATOM     36  C   UNL A   1      39.834  28.356  29.850  1.00  0.00     0.031 A 
ATOM     37  C   UNL A   1      40.274  27.016  29.303  1.00  0.00     0.074 A 
ATOM     38  C   UNL A   1      40.811  29.163  30.371  1.00  0.00     0.049 A 
ATOM     39  N   UNL A   1      41.443  26.496  29.463  1.00  0.00    -0.248 NA
ATOM     40  C   UNL A   1      39.407  26.132  28.517  1.00  0.00     0.031 C 
ATOM     41  C   UNL A   1      42.243  29.052  30.035  1.00  0.00     0.029 A 
ATOM     42  N   UNL A   1      40.785  30.297  31.218  1.00  0.00    -0.354 N 
ATOM     43  C   UNL A   1      41.600  25.478  28.548  1.00  0.00     0.074 A 
ATOM     44  C   UNL A   1      40.274  25.228  28.052  1.00  0.00     0.031 C 
ATOM     45  C   UNL A   1      42.969  29.885  30.791  1.00  0.00     0.029 A 
ATOM     46  C   UNL A   1      42.081  30.444  31.783  1.00  0.00     0.049 A 
ATOM     47  H   UNL A   1      40.009  30.879  31.386  1.00  0.00     0.167 HD
ATOM     48  C   UNL A   1      42.862  25.042  28.265  1.00  0.00     0.037 A 
ATOM     49  C   UNL A   1      42.337  30.453  33.121  1.00  0.00     0.037 A 
ATOM     50  C   UNL A   1      43.821  25.602  29.226  1.00  0.00     0.049 A 
ATOM     51  C   UNL A   1      43.202  29.289  33.545  1.00  0.00     0.074 A 
ATOM     52  C   UNL A   1      44.861  26.509  29.148  1.00  0.00     0.029 A 
ATOM     53  N   UNL A   1      43.595  25.386  30.584  1.00  0.00    -0.354 N 
ATOM     54  N   UNL A   1      43.524  28.317  32.739  1.00  0.00    -0.248 NA
ATOM     55  C   UNL A   1      43.731  29.075  34.888  1.00  0.00     0.031 C 
ATOM     56  C   UNL A   1      45.222  26.870  30.478  1.00  0.00     0.029 A 
ATOM     57  C   UNL A   1      44.431  26.156  31.365  1.00  0.00     0.049 A 
ATOM     58  H   UNL A   1      42.923  24.762  30.942  1.00  0.00     0.167 HD
ATOM     59  C   UNL A   1      44.132  27.310  33.428  1.00  0.00     0.074 A 
ATOM     60  C   UNL A   1      44.289  27.856  34.761  1.00  0.00     0.031 C 
ATOM     61  C   UNL A   1      44.358  26.102  32.829  1.00  0.00     0.037 A 
BRANCH  48  62
ATOM     62  C   UNL A   1      43.292  24.181  27.083  1.00  0.00     0.057 A 
ATOM     63  C   UNL A   1      43.858  24.781  25.936  1.00  0.00     0.134 A 
ATOM     64  C   UNL A   1      43.115  22.788  26.959  1.00  0.00     0.134 A 
ATOM     65  F   UNL A   1      44.079  26.101  25.870  1.00  0.00    -0.206 F 
ATOM     66  C   UNL A   1      44.217  24.062  24.783  1.00  0.00     0.040 A 
ATOM     67  C   UNL A   1      43.513  22.051  25.829  1.00  0.00     0.040 A 
ATOM     68  F   UNL A   1      42.508  22.053  27.893  1.00  0.00    -0.206 F 
ATOM     69  C   UNL A   1      44.059  22.688  24.730  1.00  0.00     0.006 A 
ENDBRANCH  48  62
BRANCH  49  70
ATOM     70  C   UNL A   1      41.316  31.139  33.945  1.00  0.00     0.057 A 
ATOM     71  C   UNL A   1      41.356  32.538  34.063  1.00  0.00     0.134 A 
ATOM     72  C   UNL A   1      40.100  30.510  34.240  1.00  0.00     0.134 A 
ATOM     73  F   UNL A   1      42.473  33.212  33.747  1.00  0.00    -0.206 F 
ATOM     74  C   UNL A   1      40.210  33.286  34.368  1.00  0.00     0.040 A 
ATOM     75  C   UNL A   1      38.940  31.248  34.496  1.00  0.00     0.040 A 
ATOM     76  F   UNL A   1      39.988  29.177  34.151  1.00  0.00    -0.206 F 
ATOM     77  C   UNL A   1      38.985  32.640  34.535  1.00  0.00     0.006 A 
ENDBRANCH  49  70
BRANCH  61  78
ATOM     78  C   UNL A   1      44.560  24.789  33.564  1.00  0.00     0.057 A 
ATOM     79  C   UNL A   1      45.785  24.104  33.646  1.00  0.00     0.134 A 
ATOM     80  C   UNL A   1      43.527  24.227  34.350  1.00  0.00     0.134 A 
ATOM     81  F   UNL A   1      46.907  24.581  33.093  1.00  0.00    -0.206 F 
ATOM     82  C   UNL A   1      45.943  22.911  34.364  1.00  0.00     0.040 A 
ATOM     83  C   UNL A   1      43.695  23.076  35.128  1.00  0.00     0.040 A 
ATOM     84  F   UNL A   1      42.310  24.782  34.431  1.00  0.00    -0.206 F 
ATOM     85  C   UNL A   1      44.899  22.395  35.115  1.00  0.00     0.006 A 
ENDBRANCH  61  78
ENDBRANCH  35  36
ENDBRANCH  28  30
ENDBRANCH  27  28
ENDBRANCH  26  27
ENDBRANCH  25  26
ENDBRANCH  24  25
ENDBRANCH   1  24
TORSDOF 19
ENDMDL
MODEL 2
REMARK VINA RESULT:     -10.1      2.476      4.643
REMARK SMILES CCC(CC)(NC(=O)c1cc(C)ccc1OC)C(=O)OCCOCCOC(=O)c1ccc(-c2c3nc(c(-c4c(F)cccc4F)c4ccc([nH]4)c(-c4c(F)cccc4F)c4nc(c(-c5c(F)cccc5F)c5ccc2[nH]5)C=C4)C=C3)cc1
REMARK SMILES IDX 22 1 21 2 20 3 18 4 19 5 3 6 2 7 1 8 4 9 5 10 6 11 7 12 8 14
REMARK SMILES IDX 9 15 10 16 15 17 11 18 14 19 12 20 13 21 16 22 17 23 23 24
REMARK SMILES IDX 24 25 25 26 26 27 27 28 28 29 29 30 30 31 82 32 31 33 81 34
REMARK SMILES IDX 32 35 33 36 34 37 75 38 35 39 80 40 74 41 76 42 36 43 79 44
REMARK SMILES IDX 73 45 72 46 37 48 63 49 46 50 62 51 47 52 50 53 61 54 77 55
REMARK SMILES IDX 48 56 49 57 60 59 78 60 51 61 38 62 39 63 44 64 40 65 41 66
REMARK SMILES IDX 43 67 45 68 42 69 64 70 65 71 70 72 66 73 67 74 69 75 71 76
REMARK SMILES IDX 68 77 52 78 53 79 58 80 54 81 55 82 57 83 59 84 56 85
REMARK H PARENT 6 13 76 47 50 58
REMARK Flexibility Score: inf
ROOT
ATOM      1  C   UNL A   1      33.860  29.238  25.986  1.00  0.00     0.202 C 
ENDROOT
BRANCH   1   2
ATOM      2  C   UNL A   1      33.369  28.230  26.978  1.00  0.00     0.261 C 
BRANCH   2   3
ATOM      3  O   UNL A   1      33.567  26.931  26.489  1.00  0.00    -0.461 OA
BRANCH   3   4
ATOM      4  C   UNL A   1      32.414  26.235  26.523  1.00  0.00     0.331 C 
ATOM      5  O   UNL A   1      31.400  26.613  27.090  1.00  0.00    -0.249 OA
BRANCH   4   6
ATOM      6  C   UNL A   1      32.640  24.893  25.848  1.00  0.00     0.137 C 
BRANCH   6   7
ATOM      7  C   UNL A   1      32.362  23.805  26.953  1.00  0.00     0.037 C 
ATOM      8  C   UNL A   1      33.049  22.438  26.818  1.00  0.00     0.007 C 
ENDBRANCH   6   7
BRANCH   6   9
ATOM      9  C   UNL A   1      34.120  24.906  25.410  1.00  0.00     0.037 C 
ATOM     10  C   UNL A   1      34.420  24.264  24.068  1.00  0.00     0.007 C 
ENDBRANCH   6   9
BRANCH   6  11
ATOM     11  N   UNL A   1      31.614  24.605  24.706  1.00  0.00    -0.336 N 
ATOM     12  C   UNL A   1      30.847  25.159  23.683  1.00  0.00     0.255 C 
ATOM     13  H   UNL A   1      31.438  23.636  24.709  1.00  0.00     0.165 HD
ATOM     14  O   UNL A   1      30.157  24.349  23.050  1.00  0.00    -0.269 OA
BRANCH  12  15
ATOM     15  C   UNL A   1      30.608  26.601  23.338  1.00  0.00     0.082 A 
ATOM     16  C   UNL A   1      29.255  27.046  23.179  1.00  0.00     0.021 A 
ATOM     17  C   UNL A   1      31.607  27.555  23.232  1.00  0.00     0.131 A 
ATOM     18  C   UNL A   1      28.912  28.419  23.133  1.00  0.00    -0.050 A 
ATOM     19  C   UNL A   1      31.259  28.911  23.258  1.00  0.00     0.047 A 
ATOM     20  C   UNL A   1      27.488  28.904  23.054  1.00  0.00     0.044 C 
ATOM     21  C   UNL A   1      29.937  29.349  23.230  1.00  0.00     0.007 A 
BRANCH  17  22
ATOM     22  O   UNL A   1      32.949  27.319  23.188  1.00  0.00    -0.496 OA
ATOM     23  C   UNL A   1      33.639  28.178  22.284  1.00  0.00     0.278 C 
ENDBRANCH  17  22
ENDBRANCH  12  15
ENDBRANCH   6  11
ENDBRANCH   4   6
ENDBRANCH   3   4
ENDBRANCH   2   3
ENDBRANCH   1   2
BRANCH   1  24
ATOM     24  O   UNL A   1      32.977  30.344  25.957  1.00  0.00    -0.374 OA
BRANCH  24  25
ATOM     25  C   UNL A   1      32.692  30.822  27.267  1.00  0.00     0.202 C 
BRANCH  25  26
ATOM     26  C   UNL A   1      33.843  31.663  27.857  1.00  0.00     0.261 C 
BRANCH  26  27
ATOM     27  O   UNL A   1      33.538  33.073  27.691  1.00  0.00    -0.460 OA
BRANCH  27  28
ATOM     28  C   UNL A   1      33.503  33.854  28.810  1.00  0.00     0.338 C 
ATOM     29  O   UNL A   1      32.567  34.575  29.131  1.00  0.00    -0.246 OA
BRANCH  28  30
ATOM     30  C   UNL A   1      34.859  33.907  29.461  1.00  0.00     0.060 A 
ATOM     31  C   UNL A   1      36.022  34.230  28.723  1.00  0.00     0.016 A 
ATOM     32  C   UNL A   1      35.000  33.305  30.700  1.00  0.00     0.016 A 
ATOM     33  C   UNL A   1      37.313  33.822  29.160  1.00  0.00     0.010 A 
ATOM     34  C   UNL A   1      36.247  32.827  31.066  1.00  0.00     0.010 A 
ATOM     35  C   UNL A   1      37.432  33.050  30.315  1.00  0.00    -0.014 A 
BRANCH  35  36
ATOM     36  C   UNL A   1      38.591  32.210  30.759  1.00  0.00     0.031 A 
ATOM     37  C   UNL A   1      38.582  30.761  30.326  1.00  0.00     0.074 A 
ATOM     38  C   UNL A   1      39.801  32.741  31.121  1.00  0.00     0.049 A 
ATOM     39  N   UNL A   1      39.568  29.941  30.458  1.00  0.00    -0.248 NA
ATOM     40  C   UNL A   1      37.430  30.104  29.701  1.00  0.00     0.031 C 
ATOM     41  C   UNL A   1      41.105  32.195  30.700  1.00  0.00     0.029 A 
ATOM     42  N   UNL A   1      40.176  33.899  31.845  1.00  0.00    -0.354 N 
ATOM     43  C   UNL A   1      39.344  28.849  29.646  1.00  0.00     0.074 A 
ATOM     44  C   UNL A   1      37.959  28.953  29.274  1.00  0.00     0.031 C 
ATOM     45  C   UNL A   1      42.104  32.841  31.311  1.00  0.00     0.029 A 
ATOM     46  C   UNL A   1      41.510  33.711  32.299  1.00  0.00     0.049 A 
ATOM     47  H   UNL A   1      39.614  34.692  32.004  1.00  0.00     0.167 HD
ATOM     48  C   UNL A   1      40.399  28.047  29.324  1.00  0.00     0.037 A 
ATOM     49  C   UNL A   1      41.887  33.755  33.606  1.00  0.00     0.037 A 
ATOM     50  C   UNL A   1      41.565  28.382  30.151  1.00  0.00     0.049 A 
ATOM     51  C   UNL A   1      42.428  32.428  34.090  1.00  0.00     0.074 A 
ATOM     52  C   UNL A   1      42.805  28.942  29.904  1.00  0.00     0.029 A 
ATOM     53  N   UNL A   1      41.421  28.351  31.537  1.00  0.00    -0.354 N 
ATOM     54  N   UNL A   1      42.385  31.343  33.369  1.00  0.00    -0.248 NA
ATOM     55  C   UNL A   1      43.003  32.181  35.408  1.00  0.00     0.031 C 
ATOM     56  C   UNL A   1      43.381  29.289  31.160  1.00  0.00     0.029 A 
ATOM     57  C   UNL A   1      42.511  28.908  32.172  1.00  0.00     0.049 A 
ATOM     58  H   UNL A   1      40.639  27.979  32.004  1.00  0.00     0.167 HD
ATOM     59  C   UNL A   1      42.749  30.263  34.117  1.00  0.00     0.074 A 
ATOM     60  C   UNL A   1      43.182  30.847  35.370  1.00  0.00     0.031 C 
ATOM     61  C   UNL A   1      42.568  28.996  33.634  1.00  0.00     0.037 A 
BRANCH  48  62
ATOM     62  C   UNL A   1      40.453  27.006  28.212  1.00  0.00     0.057 A 
ATOM     63  C   UNL A   1      41.127  27.291  27.003  1.00  0.00     0.134 A 
ATOM     64  C   UNL A   1      39.813  25.750  28.214  1.00  0.00     0.134 A 
ATOM     65  F   UNL A   1      41.776  28.450  26.817  1.00  0.00    -0.206 F 
ATOM     66  C   UNL A   1      41.165  26.409  25.910  1.00  0.00     0.040 A 
ATOM     67  C   UNL A   1      39.881  24.840  27.144  1.00  0.00     0.040 A 
ATOM     68  F   UNL A   1      39.043  25.336  29.223  1.00  0.00    -0.206 F 
ATOM     69  C   UNL A   1      40.552  25.170  25.981  1.00  0.00     0.006 A 
ENDBRANCH  48  62
BRANCH  49  70
ATOM     70  C   UNL A   1      41.184  34.770  34.423  1.00  0.00     0.057 A 
ATOM     71  C   UNL A   1      40.079  34.382  35.198  1.00  0.00     0.134 A 
ATOM     72  C   UNL A   1      41.824  35.963  34.781  1.00  0.00     0.134 A 
ATOM     73  F   UNL A   1      39.448  33.225  34.945  1.00  0.00    -0.206 F 
ATOM     74  C   UNL A   1      39.687  35.100  36.337  1.00  0.00     0.040 A 
ATOM     75  C   UNL A   1      41.475  36.659  35.943  1.00  0.00     0.040 A 
ATOM     76  F   UNL A   1      42.886  36.396  34.086  1.00  0.00    -0.206 F 
ATOM     77  C   UNL A   1      40.421  36.215  36.739  1.00  0.00     0.006 A 
ENDBRANCH  49  70
BRANCH  61  78
ATOM     78  C   UNL A   1      42.465  27.745  34.487  1.00  0.00     0.057 A 
ATOM     79  C   UNL A   1      43.181  26.559  34.249  1.00  0.00     0.134 A 
ATOM     80  C   UNL A   1      41.722  27.742  35.691  1.00  0.00     0.134 A 
ATOM     81  F   UNL A   1      44.054  26.443  33.241  1.00  0.00    -0.206 F 
ATOM     82  C   UNL A   1      43.087  25.434  35.079  1.00  0.00     0.040 A 
ATOM     83  C   UNL A   1      41.679  26.650  36.565  1.00  0.00     0.040 A 
ATOM     84  F   UNL A   1      41.025  28.811  36.101  1.00  0.00    -0.206 F 
ATOM     85  C   UNL A   1      42.340  25.476  36.246  1.00  0.00     0.006 A 
ENDBRANCH  61  78
ENDBRANCH  35  36
ENDBRANCH  28  30
ENDBRANCH  27  28
ENDBRANCH  26  27
ENDBRANCH  25  26
ENDBRANCH  24  25
ENDBRANCH   1  24
TORSDOF 19
ENDMDL
MODEL 3
REMARK VINA RESULT:      -9.9      1.402      2.986
REMARK SMILES CCC(CC)(NC(=O)c1cc(C)ccc1OC)C(=O)OCCOCCOC(=O)c1ccc(-c2c3nc(c(-c4c(F)cccc4F)c4ccc([nH]4)c(-c4c(F)cccc4F)c4nc(c(-c5c(F)cccc5F)c5ccc2[nH]5)C=C4)C=C3)cc1
REMARK SMILES IDX 22 1 21 2 20 3 18 4 19 5 3 6 2 7 1 8 4 9 5 10 6 11 7 12 8 14
REMARK SMILES IDX 9 15 10 16 15 17 11 18 14 19 12 20 13 21 16 22 17 23 23 24
REMARK SMILES IDX 24 25 25 26 26 27 27 28 28 29 29 30 30 31 82 32 31 33 81 34
REMARK SMILES IDX 32 35 33 36 34 37 75 38 35 39 80 40 74 41 76 42 36 43 79 44
REMARK SMILES IDX 73 45 72 46 37 48 63 49 46 50 62 51 47 52 50 53 61 54 77 55
REMARK SMILES IDX 48 56 49 57 60 59 78 60 51 61 38 62 39 63 44 64 40 65 41 66
REMARK SMILES IDX 43 67 45 68 42 69 64 70 65 71 70 72 66 73 67 74 69 75 71 76
REMARK SMILES IDX 68 77 52 78 53 79 58 80 54 81 55 82 57 83 59 84 56 85
REMARK H PARENT 6 13 76 47 50 58
REMARK Flexibility Score: inf
ROOT
ATOM      1  C   UNL A   1      33.922  27.711  25.522  1.00  0.00     0.202 C 
ENDROOT
BRANCH   1   2
ATOM      2  C   UNL A   1      33.992  26.381  24.841  1.00  0.00     0.261 C 
BRANCH   2   3
ATOM      3  O   UNL A   1      33.772  25.349  25.764  1.00  0.00    -0.461 OA
BRANCH   3   4
ATOM      4  C   UNL A   1      34.601  24.315  25.520  1.00  0.00     0.331 C 
ATOM      5  O   UNL A   1      35.805  24.426  25.349  1.00  0.00    -0.249 OA
BRANCH   4   6
ATOM      6  C   UNL A   1      33.769  23.051  25.389  1.00  0.00     0.137 C 
BRANCH   6   7
ATOM      7  C   UNL A   1      32.450  23.317  26.207  1.00  0.00     0.037 C 
ATOM      8  C   UNL A   1      31.268  22.355  26.020  1.00  0.00     0.007 C 
ENDBRANCH   6   7
BRANCH   6   9
ATOM      9  C   UNL A   1      34.627  21.935  26.023  1.00  0.00     0.037 C 
ATOM     10  C   UNL A   1      34.639  20.608  25.288  1.00  0.00     0.007 C 
ENDBRANCH   6   9
BRANCH   6  11
ATOM     11  N   UNL A   1      33.306  22.776  23.922  1.00  0.00    -0.336 N 
ATOM     12  C   UNL A   1      32.653  23.295  22.807  1.00  0.00     0.255 C 
ATOM     13  H   UNL A   1      33.594  21.863  23.691  1.00  0.00     0.165 HD
ATOM     14  O   UNL A   1      32.588  22.529  21.836  1.00  0.00    -0.269 OA
BRANCH  12  15
ATOM     15  C   UNL A   1      31.879  24.574  22.658  1.00  0.00     0.082 A 
ATOM     16  C   UNL A   1      30.735  24.777  23.498  1.00  0.00     0.021 A 
ATOM     17  C   UNL A   1      32.237  25.610  21.812  1.00  0.00     0.131 A 
ATOM     18  C   UNL A   1      30.113  26.041  23.635  1.00  0.00    -0.050 A 
ATOM     19  C   UNL A   1      31.666  26.874  22.004  1.00  0.00     0.047 A 
ATOM     20  C   UNL A   1      28.966  26.291  24.579  1.00  0.00     0.044 C 
ATOM     21  C   UNL A   1      30.635  27.104  22.912  1.00  0.00     0.007 A 
BRANCH  17  22
ATOM     22  O   UNL A   1      33.180  25.562  20.829  1.00  0.00    -0.496 OA
ATOM     23  C   UNL A   1      32.622  25.427  19.524  1.00  0.00     0.278 C 
ENDBRANCH  17  22
ENDBRANCH  12  15
ENDBRANCH   6  11
ENDBRANCH   4   6
ENDBRANCH   3   4
ENDBRANCH   2   3
ENDBRANCH   1   2
BRANCH   1  24
ATOM     24  O   UNL A   1      32.980  27.655  26.577  1.00  0.00    -0.374 OA
BRANCH  24  25
ATOM     25  C   UNL A   1      32.945  28.872  27.314  1.00  0.00     0.202 C 
BRANCH  25  26
ATOM     26  C   UNL A   1      33.723  30.010  26.623  1.00  0.00     0.261 C 
BRANCH  26  27
ATOM     27  O   UNL A   1      33.902  31.104  27.561  1.00  0.00    -0.460 OA
BRANCH  27  28
ATOM     28  C   UNL A   1      35.176  31.525  27.813  1.00  0.00     0.338 C 
ATOM     29  O   UNL A   1      35.597  32.653  27.585  1.00  0.00    -0.246 OA
BRANCH  28  30
ATOM     30  C   UNL A   1      36.058  30.361  28.171  1.00  0.00     0.060 A 
ATOM     31  C   UNL A   1      36.033  29.782  29.463  1.00  0.00     0.016 A 
ATOM     32  C   UNL A   1      37.130  30.087  27.338  1.00  0.00     0.016 A 
ATOM     33  C   UNL A   1      37.143  29.052  29.968  1.00  0.00     0.010 A 
ATOM     34  C   UNL A   1      38.243  29.461  27.874  1.00  0.00     0.010 A 
ATOM     35  C   UNL A   1      38.298  28.940  29.195  1.00  0.00    -0.014 A 
BRANCH  35  36
ATOM     36  C   UNL A   1      39.681  28.564  29.634  1.00  0.00     0.031 A 
ATOM     37  C   UNL A   1      40.194  27.217  29.176  1.00  0.00     0.074 A 
ATOM     38  C   UNL A   1      40.619  29.487  30.017  1.00  0.00     0.049 A 
ATOM     39  N   UNL A   1      41.409  26.804  29.301  1.00  0.00    -0.248 NA
ATOM     40  C   UNL A   1      39.356  26.202  28.528  1.00  0.00     0.031 C 
ATOM     41  C   UNL A   1      42.032  29.454  29.597  1.00  0.00     0.029 A 
ATOM     42  N   UNL A   1      40.551  30.688  30.764  1.00  0.00    -0.354 N 
ATOM     43  C   UNL A   1      41.593  25.721  28.468  1.00  0.00     0.074 A 
ATOM     44  C   UNL A   1      40.265  25.328  28.085  1.00  0.00     0.031 C 
ATOM     45  C   UNL A   1      42.732  30.404  30.228  1.00  0.00     0.029 A 
ATOM     46  C   UNL A   1      41.862  30.983  31.226  1.00  0.00     0.049 A 
ATOM     47  H   UNL A   1      39.742  31.222  30.932  1.00  0.00     0.167 HD
ATOM     48  C   UNL A   1      42.867  25.358  28.141  1.00  0.00     0.037 A 
ATOM     49  C   UNL A   1      42.196  31.133  32.538  1.00  0.00     0.037 A 
ATOM     50  C   UNL A   1      43.834  26.073  28.984  1.00  0.00     0.049 A 
ATOM     51  C   UNL A   1      43.177  30.081  33.002  1.00  0.00     0.074 A 
ATOM     52  C   UNL A   1      44.790  27.046  28.759  1.00  0.00     0.029 A 
ATOM     53  N   UNL A   1      43.708  25.965  30.368  1.00  0.00    -0.354 N 
ATOM     54  N   UNL A   1      43.528  29.066  32.262  1.00  0.00    -0.248 NA
ATOM     55  C   UNL A   1      43.800  30.030  34.320  1.00  0.00     0.031 C 
ATOM     56  C   UNL A   1      45.200  27.552  30.026  1.00  0.00     0.029 A 
ATOM     57  C   UNL A   1      44.524  26.864  31.022  1.00  0.00     0.049 A 
ATOM     58  H   UNL A   1      43.111  25.328  30.822  1.00  0.00     0.167 HD
ATOM     59  C   UNL A   1      44.255  28.175  32.994  1.00  0.00     0.074 A 
ATOM     60  C   UNL A   1      44.447  28.850  34.261  1.00  0.00     0.031 C 
ATOM     61  C   UNL A   1      44.542  26.938  32.487  1.00  0.00     0.037 A 
BRANCH  48  62
ATOM     62  C   UNL A   1      43.294  24.428  27.011  1.00  0.00     0.057 A 
ATOM     63  C   UNL A   1      44.108  23.306  27.283  1.00  0.00     0.134 A 
ATOM     64  C   UNL A   1      43.020  24.604  25.639  1.00  0.00     0.134 A 
ATOM     65  F   UNL A   1      44.484  22.996  28.532  1.00  0.00    -0.206 F 
ATOM     66  C   UNL A   1      44.595  22.442  26.287  1.00  0.00     0.040 A 
ATOM     67  C   UNL A   1      43.464  23.722  24.638  1.00  0.00     0.040 A 
ATOM     68  F   UNL A   1      42.351  25.659  25.167  1.00  0.00    -0.206 F 
ATOM     69  C   UNL A   1      44.263  22.638  24.958  1.00  0.00     0.006 A 
ENDBRANCH  48  62
BRANCH  49  70
ATOM     70  C   UNL A   1      41.174  31.812  33.366  1.00  0.00     0.057 A 
ATOM     71  C   UNL A   1      40.280  31.037  34.124  1.00  0.00     0.134 A 
ATOM     72  C   UNL A   1      41.342  33.147  33.751  1.00  0.00     0.134 A 
ATOM     73  F   UNL A   1      40.108  29.736  33.844  1.00  0.00    -0.206 F 
ATOM     74  C   UNL A   1      39.654  31.544  35.272  1.00  0.00     0.040 A 
ATOM     75  C   UNL A   1      40.764  33.648  34.922  1.00  0.00     0.040 A 
ATOM     76  F   UNL A   1      42.178  33.947  33.073  1.00  0.00    -0.206 F 
ATOM     77  C   UNL A   1      39.938  32.840  35.701  1.00  0.00     0.006 A 
ENDBRANCH  49  70
BRANCH  61  78
ATOM     78  C   UNL A   1      44.894  25.716  33.316  1.00  0.00     0.057 A 
ATOM     79  C   UNL A   1      46.156  25.098  33.326  1.00  0.00     0.134 A 
ATOM     80  C   UNL A   1      43.984  25.192  34.264  1.00  0.00     0.134 A 
ATOM     81  F   UNL A   1      47.184  25.565  32.606  1.00  0.00    -0.206 F 
ATOM     82  C   UNL A   1      46.456  23.992  34.132  1.00  0.00     0.040 A 
ATOM     83  C   UNL A   1      44.297  24.134  35.125  1.00  0.00     0.040 A 
ATOM     84  F   UNL A   1      42.755  25.699  34.428  1.00  0.00    -0.206 F 
ATOM     85  C   UNL A   1      45.529  23.508  35.042  1.00  0.00     0.006 A 
ENDBRANCH  61  78
ENDBRANCH  35  36
ENDBRANCH  28  30
ENDBRANCH  27  28
ENDBRANCH  26  27
ENDBRANCH  25  26
ENDBRANCH  24  25
ENDBRANCH   1  24
TORSDOF 19
ENDMDL
