MODEL 1
REMARK VINA RESULT:     -12.2      0.000      0.000
REMARK SMILES O=C(OCCOCCOC(=O)c1ccc(-c2c3nc(c(-c4c(F)cccc4F)c4ccc([nH]4)c(-c4c(F)cccc4F)c4nc(c(-c5c(F)cccc5F)c5ccc2[nH]5)C=C4)C=C3)cc1)C1=Cc2cc(S(F)(F)(F)(F)F)ccc2O[C@H]1C(F)(F)F
REMARK SMILES IDX 7 1 6 2 5 3 4 4 3 5 2 6 1 7 66 8 67 9 81 10 68 11 80 12
REMARK SMILES IDX 69 13 79 14 70 15 78 16 77 17 82 18 83 19 84 20 85 21 71 22
REMARK SMILES IDX 72 23 73 24 74 25 75 26 76 27 8 28 9 29 10 30 11 31 12 32
REMARK SMILES IDX 13 33 65 34 14 35 64 36 15 37 16 38 17 39 58 40 18 41 63 42
REMARK SMILES IDX 57 43 59 44 19 45 62 46 56 47 55 48 20 50 46 51 29 52 45 53
REMARK SMILES IDX 30 54 33 55 44 56 60 57 31 58 32 59 43 61 61 62 34 63 21 64
REMARK SMILES IDX 22 65 27 66 23 67 24 68 26 69 28 70 25 71 47 72 48 73 53 74
REMARK SMILES IDX 49 75 50 76 52 77 54 78 51 79 35 80 36 81 41 82 37 83 38 84
REMARK SMILES IDX 40 85 42 86 39 87
REMARK H PARENT 59 49 33 60
REMARK Flexibility Score: inf
ROOT
ATOM      1  C   UNL A   1      31.384  31.817  26.524  1.00  0.00     0.202 C 
ENDROOT
BRANCH   1   2
ATOM      2  O   UNL A   1      31.818  30.554  26.040  1.00  0.00    -0.374 OA
BRANCH   2   3
ATOM      3  C   UNL A   1      32.315  29.778  27.120  1.00  0.00     0.202 C 
BRANCH   3   4
ATOM      4  C   UNL A   1      31.790  28.356  27.005  1.00  0.00     0.261 C 
BRANCH   4   5
ATOM      5  O   UNL A   1      32.207  27.795  25.769  1.00  0.00    -0.460 OA
BRANCH   5   6
ATOM      6  C   UNL A   1      31.325  26.957  25.036  1.00  0.00     0.338 C 
ATOM      7  O   UNL A   1      30.258  26.529  25.578  1.00  0.00    -0.246 OA
BRANCH   6   8
ATOM      8  C   UNL A   1      31.657  26.573  23.603  1.00  0.00     0.087 C 
ATOM      9  C   UNL A   1      32.572  25.597  23.355  1.00  0.00     0.027 C 
ATOM     10  C   UNL A   1      30.968  27.279  22.448  1.00  0.00     0.316 C 
ATOM     11  C   UNL A   1      33.262  24.890  24.511  1.00  0.00     0.019 A 
ATOM     12  O   UNL A   1      31.152  24.926  25.605  1.00  0.00    -0.475 OA
ATOM     13  C   UNL A   1      34.622  24.626  24.483  1.00  0.00     0.036 A 
ATOM     14  C   UNL A   1      32.505  24.502  25.530  1.00  0.00     0.128 A 
ATOM     15  C   UNL A   1      35.042  23.684  25.452  1.00  0.00     0.107 A 
ATOM     16  C   UNL A   1      33.020  23.691  26.514  1.00  0.00     0.048 A 
ATOM     17  C   UNL A   1      34.341  23.341  26.517  1.00  0.00     0.028 A 
BRANCH  10  18
ATOM     18  C   UNL A   1      30.001  28.317  22.993  1.00  0.00     0.430 C 
ATOM     19  F   UNL A   1      28.949  27.722  23.549  1.00  0.00    -0.167 F 
ATOM     20  F   UNL A   1      30.605  29.086  23.896  1.00  0.00    -0.167 F 
ATOM     21  F   UNL A   1      29.596  29.067  21.972  1.00  0.00    -0.167 F 
ENDBRANCH  10  18
BRANCH  15  22
ATOM     22  S   UNL A   1      36.653  22.893  25.213  1.00  0.00     0.310 S 
ATOM     23  F   UNL A   1      36.915  23.681  23.861  1.00  0.00    -0.094 F 
ATOM     24  F   UNL A   1      35.946  21.782  24.349  1.00  0.00    -0.094 F 
ATOM     25  F   UNL A   1      38.035  22.210  25.012  1.00  0.00    -0.094 F 
ATOM     26  F   UNL A   1      37.363  24.090  25.962  1.00  0.00    -0.094 F 
ATOM     27  F   UNL A   1      35.274  23.658  25.330  1.00  0.00    -0.094 F 
ENDBRANCH  15  22
ENDBRANCH   6   8
ENDBRANCH   5   6
ENDBRANCH   4   5
ENDBRANCH   3   4
ENDBRANCH   2   3
ENDBRANCH   1   2
BRANCH   1  28
ATOM     28  C   UNL A   1      32.535  32.507  27.239  1.00  0.00     0.261 C 
BRANCH  28  29
ATOM     29  O   UNL A   1      32.151  33.829  27.586  1.00  0.00    -0.460 OA
BRANCH  29  30
ATOM     30  C   UNL A   1      32.939  34.580  28.497  1.00  0.00     0.338 C 
ATOM     31  O   UNL A   1      32.587  35.757  28.822  1.00  0.00    -0.246 OA
BRANCH  30  32
ATOM     32  C   UNL A   1      34.205  33.977  29.085  1.00  0.00     0.060 A 
ATOM     33  C   UNL A   1      35.457  34.321  28.605  1.00  0.00     0.016 A 
ATOM     34  C   UNL A   1      34.059  33.049  30.024  1.00  0.00     0.016 A 
ATOM     35  C   UNL A   1      36.482  33.418  28.975  1.00  0.00     0.010 A 
ATOM     36  C   UNL A   1      35.131  32.295  30.435  1.00  0.00     0.010 A 
ATOM     37  C   UNL A   1      36.388  32.542  29.958  1.00  0.00    -0.014 A 
BRANCH  37  38
ATOM     38  C   UNL A   1      37.612  31.844  30.529  1.00  0.00     0.031 A 
ATOM     39  C   UNL A   1      37.936  32.220  31.833  1.00  0.00     0.074 A 
ATOM     40  C   UNL A   1      38.266  30.847  29.826  1.00  0.00     0.049 A 
ATOM     41  N   UNL A   1      38.872  31.693  32.624  1.00  0.00    -0.248 NA
ATOM     42  C   UNL A   1      37.265  33.303  32.570  1.00  0.00     0.031 C 
ATOM     43  C   UNL A   1      37.939  30.455  28.513  1.00  0.00     0.029 A 
ATOM     44  N   UNL A   1      39.324  30.071  30.246  1.00  0.00    -0.354 N 
ATOM     45  C   UNL A   1      38.873  32.305  33.809  1.00  0.00     0.074 A 
ATOM     46  C   UNL A   1      37.844  33.354  33.790  1.00  0.00     0.031 C 
ATOM     47  C   UNL A   1      38.794  29.466  28.143  1.00  0.00     0.029 A 
ATOM     48  C   UNL A   1      39.669  29.221  29.219  1.00  0.00     0.049 A 
ATOM     49  H   UNL A   1      39.757  30.115  31.130  1.00  0.00     0.167 HD
ATOM     50  C   UNL A   1      39.691  32.029  34.908  1.00  0.00     0.037 A 
ATOM     51  C   UNL A   1      40.687  28.282  29.200  1.00  0.00     0.037 A 
ATOM     52  C   UNL A   1      40.680  31.059  34.903  1.00  0.00     0.049 A 
ATOM     53  C   UNL A   1      41.544  28.045  30.279  1.00  0.00     0.074 A 
ATOM     54  C   UNL A   1      41.508  30.764  36.004  1.00  0.00     0.029 A 
ATOM     55  N   UNL A   1      41.042  30.227  33.868  1.00  0.00    -0.354 N 
ATOM     56  N   UNL A   1      41.518  28.630  31.477  1.00  0.00    -0.248 NA
ATOM     57  C   UNL A   1      42.646  27.075  30.259  1.00  0.00     0.031 C 
ATOM     58  C   UNL A   1      42.364  29.773  35.634  1.00  0.00     0.029 A 
ATOM     59  C   UNL A   1      42.084  29.435  34.296  1.00  0.00     0.049 A 
ATOM     60  H   UNL A   1      40.627  30.203  32.975  1.00  0.00     0.167 HD
ATOM     61  C   UNL A   1      42.482  28.130  32.253  1.00  0.00     0.074 A 
ATOM     62  C   UNL A   1      43.226  27.128  31.478  1.00  0.00     0.031 C 
ATOM     63  C   UNL A   1      42.769  28.467  33.577  1.00  0.00     0.037 A 
BRANCH  50  64
ATOM     64  C   UNL A   1      39.483  32.839  36.177  1.00  0.00     0.057 A 
ATOM     65  C   UNL A   1      38.532  32.461  37.111  1.00  0.00     0.134 A 
ATOM     66  C   UNL A   1      40.172  33.965  36.313  1.00  0.00     0.134 A 
ATOM     67  F   UNL A   1      38.005  31.241  37.156  1.00  0.00    -0.206 F 
ATOM     68  C   UNL A   1      38.171  33.492  38.011  1.00  0.00     0.040 A 
ATOM     69  C   UNL A   1      39.853  34.866  37.300  1.00  0.00     0.040 A 
ATOM     70  F   UNL A   1      41.180  34.226  35.485  1.00  0.00    -0.206 F 
ATOM     71  C   UNL A   1      38.883  34.584  38.221  1.00  0.00     0.006 A 
ENDBRANCH  50  64
BRANCH  51  72
ATOM     72  C   UNL A   1      40.883  27.461  27.936  1.00  0.00     0.057 A 
ATOM     73  C   UNL A   1      41.774  27.956  26.998  1.00  0.00     0.134 A 
ATOM     74  C   UNL A   1      40.293  26.283  27.770  1.00  0.00     0.134 A 
ATOM     75  F   UNL A   1      42.573  28.994  27.234  1.00  0.00    -0.206 F 
ATOM     76  C   UNL A   1      41.758  27.259  25.768  1.00  0.00     0.040 A 
ATOM     77  C   UNL A   1      40.430  25.592  26.590  1.00  0.00     0.040 A 
ATOM     78  F   UNL A   1      39.561  25.768  28.754  1.00  0.00    -0.206 F 
ATOM     79  C   UNL A   1      41.248  26.052  25.597  1.00  0.00     0.006 A 
ENDBRANCH  51  72
BRANCH  63  80
ATOM     80  C   UNL A   1      43.899  27.727  34.274  1.00  0.00     0.057 A 
ATOM     81  C   UNL A   1      43.687  26.545  34.962  1.00  0.00     0.134 A 
ATOM     82  C   UNL A   1      45.087  28.321  34.273  1.00  0.00     0.134 A 
ATOM     83  F   UNL A   1      42.606  25.788  34.791  1.00  0.00    -0.206 F 
ATOM     84  C   UNL A   1      44.724  26.214  35.867  1.00  0.00     0.040 A 
ATOM     85  C   UNL A   1      46.098  27.862  35.082  1.00  0.00     0.040 A 
ATOM     86  F   UNL A   1      45.299  29.370  33.484  1.00  0.00    -0.206 F 
ATOM     87  C   UNL A   1      45.938  26.732  35.836  1.00  0.00     0.006 A 
ENDBRANCH  63  80
ENDBRANCH  37  38
ENDBRANCH  30  32
ENDBRANCH  29  30
ENDBRANCH  28  29
ENDBRANCH   1  28
TORSDOF 16
ENDMDL
MODEL 2
REMARK VINA RESULT:     -12.2      0.474      1.383
REMARK SMILES O=C(OCCOCCOC(=O)c1ccc(-c2c3nc(c(-c4c(F)cccc4F)c4ccc([nH]4)c(-c4c(F)cccc4F)c4nc(c(-c5c(F)cccc5F)c5ccc2[nH]5)C=C4)C=C3)cc1)C1=Cc2cc(S(F)(F)(F)(F)F)ccc2O[C@H]1C(F)(F)F
REMARK SMILES IDX 7 1 6 2 5 3 4 4 3 5 2 6 1 7 66 8 67 9 81 10 68 11 80 12
REMARK SMILES IDX 69 13 79 14 70 15 78 16 77 17 82 18 83 19 84 20 85 21 71 22
REMARK SMILES IDX 72 23 73 24 74 25 75 26 76 27 8 28 9 29 10 30 11 31 12 32
REMARK SMILES IDX 13 33 65 34 14 35 64 36 15 37 16 38 17 39 58 40 18 41 63 42
REMARK SMILES IDX 57 43 59 44 19 45 62 46 56 47 55 48 20 50 46 51 29 52 45 53
REMARK SMILES IDX 30 54 33 55 44 56 60 57 31 58 32 59 43 61 61 62 34 63 21 64
REMARK SMILES IDX 22 65 27 66 23 67 24 68 26 69 28 70 25 71 47 72 48 73 53 74
REMARK SMILES IDX 49 75 50 76 52 77 54 78 51 79 35 80 36 81 41 82 37 83 38 84
REMARK SMILES IDX 40 85 42 86 39 87
REMARK H PARENT 59 49 33 60
REMARK Flexibility Score: inf
ROOT
ATOM      1  C   UNL A   1      31.356  31.676  26.492  1.00  0.00     0.202 C 
ENDROOT
BRANCH   1   2
ATOM      2  O   UNL A   1      31.831  30.565  25.746  1.00  0.00    -0.374 OA
BRANCH   2   3
ATOM      3  C   UNL A   1      32.230  29.532  26.635  1.00  0.00     0.202 C 
BRANCH   3   4
ATOM      4  C   UNL A   1      32.603  28.293  25.837  1.00  0.00     0.261 C 
BRANCH   4   5
ATOM      5  O   UNL A   1      31.815  27.195  26.272  1.00  0.00    -0.460 OA
BRANCH   5   6
ATOM      6  C   UNL A   1      31.048  26.455  25.333  1.00  0.00     0.338 C 
ATOM      7  O   UNL A   1      29.928  25.963  25.676  1.00  0.00    -0.246 OA
BRANCH   6   8
ATOM      8  C   UNL A   1      31.565  26.255  23.918  1.00  0.00     0.087 C 
ATOM      9  C   UNL A   1      32.631  25.441  23.693  1.00  0.00     0.027 C 
ATOM     10  C   UNL A   1      30.891  26.963  22.755  1.00  0.00     0.316 C 
ATOM     11  C   UNL A   1      33.307  24.732  24.856  1.00  0.00     0.019 A 
ATOM     12  O   UNL A   1      31.121  24.376  25.721  1.00  0.00    -0.475 OA
ATOM     13  C   UNL A   1      34.687  24.662  24.952  1.00  0.00     0.036 A 
ATOM     14  C   UNL A   1      32.523  24.151  25.756  1.00  0.00     0.128 A 
ATOM     15  C   UNL A   1      35.148  23.702  25.883  1.00  0.00     0.107 A 
ATOM     16  C   UNL A   1      33.056  23.332  26.723  1.00  0.00     0.048 A 
ATOM     17  C   UNL A   1      34.408  23.169  26.838  1.00  0.00     0.028 A 
BRANCH  10  18
ATOM     18  C   UNL A   1      29.736  27.803  23.274  1.00  0.00     0.430 C 
ATOM     19  F   UNL A   1      30.143  28.585  24.269  1.00  0.00    -0.167 F 
ATOM     20  F   UNL A   1      29.232  28.555  22.297  1.00  0.00    -0.167 F 
ATOM     21  F   UNL A   1      28.799  26.970  23.720  1.00  0.00    -0.167 F 
ENDBRANCH  10  18
BRANCH  15  22
ATOM     22  S   UNL A   1      36.873  23.166  25.756  1.00  0.00     0.310 S 
ATOM     23  F   UNL A   1      37.070  23.905  24.366  1.00  0.00    -0.094 F 
ATOM     24  F   UNL A   1      36.389  21.907  24.941  1.00  0.00    -0.094 F 
ATOM     25  F   UNL A   1      38.352  22.702  25.650  1.00  0.00    -0.094 F 
ATOM     26  F   UNL A   1      37.350  24.502  26.451  1.00  0.00    -0.094 F 
ATOM     27  F   UNL A   1      35.387  23.706  25.772  1.00  0.00    -0.094 F 
ENDBRANCH  15  22
ENDBRANCH   6   8
ENDBRANCH   5   6
ENDBRANCH   4   5
ENDBRANCH   3   4
ENDBRANCH   2   3
ENDBRANCH   1   2
BRANCH   1  28
ATOM     28  C   UNL A   1      32.529  32.378  27.156  1.00  0.00     0.261 C 
BRANCH  28  29
ATOM     29  O   UNL A   1      32.161  33.711  27.479  1.00  0.00    -0.460 OA
BRANCH  29  30
ATOM     30  C   UNL A   1      32.942  34.459  28.399  1.00  0.00     0.338 C 
ATOM     31  O   UNL A   1      32.590  35.637  28.721  1.00  0.00    -0.246 OA
BRANCH  30  32
ATOM     32  C   UNL A   1      34.200  33.851  28.999  1.00  0.00     0.060 A 
ATOM     33  C   UNL A   1      35.458  34.328  28.668  1.00  0.00     0.016 A 
ATOM     34  C   UNL A   1      34.050  32.797  29.791  1.00  0.00     0.016 A 
ATOM     35  C   UNL A   1      36.511  33.440  28.994  1.00  0.00     0.010 A 
ATOM     36  C   UNL A   1      35.138  32.054  30.181  1.00  0.00     0.010 A 
ATOM     37  C   UNL A   1      36.407  32.434  29.841  1.00  0.00    -0.014 A 
BRANCH  37  38
ATOM     38  C   UNL A   1      37.631  31.733  30.408  1.00  0.00     0.031 A 
ATOM     39  C   UNL A   1      37.920  32.057  31.735  1.00  0.00     0.074 A 
ATOM     40  C   UNL A   1      38.318  30.780  29.677  1.00  0.00     0.049 A 
ATOM     41  N   UNL A   1      38.848  31.512  32.523  1.00  0.00    -0.248 NA
ATOM     42  C   UNL A   1      37.213  33.094  32.503  1.00  0.00     0.031 C 
ATOM     43  C   UNL A   1      38.027  30.440  28.341  1.00  0.00     0.029 A 
ATOM     44  N   UNL A   1      39.381  30.004  30.087  1.00  0.00    -0.354 N 
ATOM     45  C   UNL A   1      38.811  32.071  33.733  1.00  0.00     0.074 A 
ATOM     46  C   UNL A   1      37.764  33.101  33.737  1.00  0.00     0.031 C 
ATOM     47  C   UNL A   1      38.908  29.484  27.947  1.00  0.00     0.029 A 
ATOM     48  C   UNL A   1      39.764  29.207  29.031  1.00  0.00     0.049 A 
ATOM     49  H   UNL A   1      39.794  30.017  30.981  1.00  0.00     0.167 HD
ATOM     50  C   UNL A   1      39.611  31.761  34.836  1.00  0.00     0.037 A 
ATOM     51  C   UNL A   1      40.799  28.287  28.994  1.00  0.00     0.037 A 
ATOM     52  C   UNL A   1      40.618  30.810  34.812  1.00  0.00     0.049 A 
ATOM     53  C   UNL A   1      41.637  28.019  30.080  1.00  0.00     0.074 A 
ATOM     54  C   UNL A   1      41.427  30.481  35.916  1.00  0.00     0.029 A 
ATOM     55  N   UNL A   1      41.017  30.031  33.749  1.00  0.00    -0.354 N 
ATOM     56  N   UNL A   1      41.574  28.550  31.302  1.00  0.00    -0.248 NA
ATOM     57  C   UNL A   1      42.757  27.070  30.042  1.00  0.00     0.031 C 
ATOM     58  C   UNL A   1      42.308  29.523  35.523  1.00  0.00     0.029 A 
ATOM     59  C   UNL A   1      42.064  29.239  34.165  1.00  0.00     0.049 A 
ATOM     60  H   UNL A   1      40.622  30.038  32.847  1.00  0.00     0.167 HD
ATOM     61  C   UNL A   1      42.530  28.033  32.077  1.00  0.00     0.074 A 
ATOM     62  C   UNL A   1      43.309  27.079  31.276  1.00  0.00     0.031 C 
ATOM     63  C   UNL A   1      42.782  28.316  33.420  1.00  0.00     0.037 A 
BRANCH  50  64
ATOM     64  C   UNL A   1      39.361  32.510  36.135  1.00  0.00     0.057 A 
ATOM     65  C   UNL A   1      38.388  32.081  37.024  1.00  0.00     0.134 A 
ATOM     66  C   UNL A   1      40.034  33.634  36.341  1.00  0.00     0.134 A 
ATOM     67  F   UNL A   1      37.872  30.856  36.999  1.00  0.00    -0.206 F 
ATOM     68  C   UNL A   1      37.993  33.067  37.959  1.00  0.00     0.040 A 
ATOM     69  C   UNL A   1      39.680  34.487  37.359  1.00  0.00     0.040 A 
ATOM     70  F   UNL A   1      41.062  33.941  35.554  1.00  0.00    -0.206 F 
ATOM     71  C   UNL A   1      38.688  34.155  38.239  1.00  0.00     0.006 A 
ENDBRANCH  50  64
BRANCH  51  72
ATOM     72  C   UNL A   1      41.038  27.527  27.700  1.00  0.00     0.057 A 
ATOM     73  C   UNL A   1      40.339  26.344  27.528  1.00  0.00     0.134 A 
ATOM     74  C   UNL A   1      41.818  28.011  26.739  1.00  0.00     0.134 A 
ATOM     75  F   UNL A   1      39.363  25.953  28.345  1.00  0.00    -0.206 F 
ATOM     76  C   UNL A   1      40.755  25.589  26.407  1.00  0.00     0.040 A 
ATOM     77  C   UNL A   1      42.074  27.274  25.608  1.00  0.00     0.040 A 
ATOM     78  F   UNL A   1      42.356  29.220  26.875  1.00  0.00    -0.206 F 
ATOM     79  C   UNL A   1      41.463  26.069  25.401  1.00  0.00     0.006 A 
ENDBRANCH  51  72
BRANCH  63  80
ATOM     80  C   UNL A   1      43.911  27.566  34.109  1.00  0.00     0.057 A 
ATOM     81  C   UNL A   1      45.213  28.035  34.103  1.00  0.00     0.134 A 
ATOM     82  C   UNL A   1      43.606  26.385  34.634  1.00  0.00     0.134 A 
ATOM     83  F   UNL A   1      45.529  29.297  33.824  1.00  0.00    -0.206 F 
ATOM     84  C   UNL A   1      46.179  27.051  34.421  1.00  0.00     0.040 A 
ATOM     85  C   UNL A   1      44.596  25.527  35.049  1.00  0.00     0.040 A 
ATOM     86  F   UNL A   1      42.331  26.029  34.760  1.00  0.00    -0.206 F 
ATOM     87  C   UNL A   1      45.911  25.903  35.017  1.00  0.00     0.006 A 
ENDBRANCH  63  80
ENDBRANCH  37  38
ENDBRANCH  30  32
ENDBRANCH  29  30
ENDBRANCH  28  29
ENDBRANCH   1  28
TORSDOF 16
ENDMDL
MODEL 3
REMARK VINA RESULT:     -12.2      4.578      8.055
REMARK SMILES O=C(OCCOCCOC(=O)c1ccc(-c2c3nc(c(-c4c(F)cccc4F)c4ccc([nH]4)c(-c4c(F)cccc4F)c4nc(c(-c5c(F)cccc5F)c5ccc2[nH]5)C=C4)C=C3)cc1)C1=Cc2cc(S(F)(F)(F)(F)F)ccc2O[C@H]1C(F)(F)F
REMARK SMILES IDX 7 1 6 2 5 3 4 4 3 5 2 6 1 7 66 8 67 9 81 10 68 11 80 12
REMARK SMILES IDX 69 13 79 14 70 15 78 16 77 17 82 18 83 19 84 20 85 21 71 22
REMARK SMILES IDX 72 23 73 24 74 25 75 26 76 27 8 28 9 29 10 30 11 31 12 32
REMARK SMILES IDX 13 33 65 34 14 35 64 36 15 37 16 38 17 39 58 40 18 41 63 42
REMARK SMILES IDX 57 43 59 44 19 45 62 46 56 47 55 48 20 50 46 51 29 52 45 53
REMARK SMILES IDX 30 54 33 55 44 56 60 57 31 58 32 59 43 61 61 62 34 63 21 64
REMARK SMILES IDX 22 65 27 66 23 67 24 68 26 69 28 70 25 71 47 72 48 73 53 74
REMARK SMILES IDX 49 75 50 76 52 77 54 78 51 79 35 80 36 81 41 82 37 83 38 84
REMARK SMILES IDX 40 85 42 86 39 87
REMARK H PARENT 59 49 33 60
REMARK Flexibility Score: inf
ROOT
ATOM      1  C   UNL A   1      33.460  31.387  27.489  1.00  0.00     0.202 C 
ENDROOT
BRANCH   1   2
ATOM      2  O   UNL A   1      33.321  29.983  27.324  1.00  0.00    -0.374 OA
BRANCH   2   3
ATOM      3  C   UNL A   1      31.965  29.672  27.039  1.00  0.00     0.202 C 
BRANCH   3   4
ATOM      4  C   UNL A   1      31.745  28.176  27.197  1.00  0.00     0.261 C 
BRANCH   4   5
ATOM      5  O   UNL A   1      32.236  27.501  26.048  1.00  0.00    -0.460 OA
BRANCH   5   6
ATOM      6  C   UNL A   1      31.377  26.650  25.304  1.00  0.00     0.338 C 
ATOM      7  O   UNL A   1      30.308  26.206  25.831  1.00  0.00    -0.246 OA
BRANCH   6   8
ATOM      8  C   UNL A   1      31.734  26.270  23.876  1.00  0.00     0.087 C 
ATOM      9  C   UNL A   1      32.707  25.350  23.640  1.00  0.00     0.027 C 
ATOM     10  C   UNL A   1      31.003  26.918  22.712  1.00  0.00     0.316 C 
ATOM     11  C   UNL A   1      33.439  24.701  24.805  1.00  0.00     0.019 A 
ATOM     12  O   UNL A   1      31.329  24.619  25.898  1.00  0.00    -0.475 OA
ATOM     13  C   UNL A   1      34.813  24.523  24.781  1.00  0.00     0.036 A 
ATOM     14  C   UNL A   1      32.707  24.279  25.828  1.00  0.00     0.128 A 
ATOM     15  C   UNL A   1      35.289  23.620  25.761  1.00  0.00     0.107 A 
ATOM     16  C   UNL A   1      33.269  23.513  26.822  1.00  0.00     0.048 A 
ATOM     17  C   UNL A   1      34.610  23.247  26.830  1.00  0.00     0.028 A 
BRANCH  10  18
ATOM     18  C   UNL A   1      29.972  27.900  23.244  1.00  0.00     0.430 C 
ATOM     19  F   UNL A   1      28.980  27.249  23.844  1.00  0.00    -0.167 F 
ATOM     20  F   UNL A   1      30.535  28.743  24.107  1.00  0.00    -0.167 F 
ATOM     21  F   UNL A   1      29.492  28.582  22.208  1.00  0.00    -0.167 F 
ENDBRANCH  10  18
BRANCH  15  22
ATOM     22  S   UNL A   1      36.947  22.929  25.533  1.00  0.00     0.310 S 
ATOM     23  F   UNL A   1      37.127  23.646  24.130  1.00  0.00    -0.094 F 
ATOM     24  F   UNL A   1      36.303  21.719  24.756  1.00  0.00    -0.094 F 
ATOM     25  F   UNL A   1      38.369  22.331  25.341  1.00  0.00    -0.094 F 
ATOM     26  F   UNL A   1      37.586  24.216  26.191  1.00  0.00    -0.094 F 
ATOM     27  F   UNL A   1      35.520  23.602  25.636  1.00  0.00    -0.094 F 
ENDBRANCH  15  22
ENDBRANCH   6   8
ENDBRANCH   5   6
ENDBRANCH   4   5
ENDBRANCH   3   4
ENDBRANCH   2   3
ENDBRANCH   1   2
BRANCH   1  28
ATOM     28  C   UNL A   1      34.702  31.678  28.315  1.00  0.00     0.261 C 
BRANCH  28  29
ATOM     29  O   UNL A   1      35.383  30.463  28.591  1.00  0.00    -0.460 OA
BRANCH  29  30
ATOM     30  C   UNL A   1      36.292  30.391  29.679  1.00  0.00     0.338 C 
ATOM     31  O   UNL A   1      35.935  30.783  30.834  1.00  0.00    -0.246 OA
BRANCH  30  32
ATOM     32  C   UNL A   1      37.694  29.843  29.463  1.00  0.00     0.060 A 
ATOM     33  C   UNL A   1      38.513  29.519  30.531  1.00  0.00     0.016 A 
ATOM     34  C   UNL A   1      38.131  29.761  28.211  1.00  0.00     0.016 A 
ATOM     35  C   UNL A   1      39.881  29.394  30.188  1.00  0.00     0.010 A 
ATOM     36  C   UNL A   1      39.453  29.501  27.947  1.00  0.00     0.010 A 
ATOM     37  C   UNL A   1      40.332  29.230  28.959  1.00  0.00    -0.014 A 
BRANCH  37  38
ATOM     38  C   UNL A   1      41.753  28.765  28.682  1.00  0.00     0.031 A 
ATOM     39  C   UNL A   1      41.865  27.414  28.352  1.00  0.00     0.074 A 
ATOM     40  C   UNL A   1      42.812  29.656  28.665  1.00  0.00     0.049 A 
ATOM     41  N   UNL A   1      42.956  26.763  27.945  1.00  0.00    -0.248 NA
ATOM     42  C   UNL A   1      40.748  26.457  28.402  1.00  0.00     0.031 C 
ATOM     43  C   UNL A   1      42.705  31.024  28.988  1.00  0.00     0.029 A 
ATOM     44  N   UNL A   1      44.127  29.401  28.345  1.00  0.00    -0.354 N 
ATOM     45  C   UNL A   1      42.667  25.483  27.706  1.00  0.00     0.074 A 
ATOM     46  C   UNL A   1      41.244  25.266  28.002  1.00  0.00     0.031 C 
ATOM     47  C   UNL A   1      43.939  31.581  28.876  1.00  0.00     0.029 A 
ATOM     48  C   UNL A   1      44.838  30.573  28.479  1.00  0.00     0.049 A 
ATOM     49  H   UNL A   1      44.494  28.530  28.067  1.00  0.00     0.167 HD
ATOM     50  C   UNL A   1      43.534  24.487  27.250  1.00  0.00     0.037 A 
ATOM     51  C   UNL A   1      46.194  30.770  28.275  1.00  0.00     0.037 A 
ATOM     52  C   UNL A   1      44.881  24.696  27.004  1.00  0.00     0.049 A 
ATOM     53  C   UNL A   1      47.074  29.760  27.875  1.00  0.00     0.074 A 
ATOM     54  C   UNL A   1      45.767  23.705  26.538  1.00  0.00     0.029 A 
ATOM     55  N   UNL A   1      45.597  25.861  27.162  1.00  0.00    -0.354 N 
ATOM     56  N   UNL A   1      46.776  28.490  27.599  1.00  0.00    -0.248 NA
ATOM     57  C   UNL A   1      48.518  29.951  27.687  1.00  0.00     0.031 C 
ATOM     58  C   UNL A   1      47.002  24.262  26.425  1.00  0.00     0.029 A 
ATOM     59  C   UNL A   1      46.908  25.611  26.820  1.00  0.00     0.049 A 
ATOM     60  H   UNL A   1      45.235  26.724  27.467  1.00  0.00     0.167 HD
ATOM     61  C   UNL A   1      47.877  27.830  27.231  1.00  0.00     0.074 A 
ATOM     62  C   UNL A   1      49.014  28.759  27.289  1.00  0.00     0.031 C 
ATOM     63  C   UNL A   1      47.978  26.492  26.845  1.00  0.00     0.037 A 
BRANCH  50  64
ATOM     64  C   UNL A   1      42.966  23.097  27.011  1.00  0.00     0.057 A 
ATOM     65  C   UNL A   1      42.529  22.717  25.753  1.00  0.00     0.134 A 
ATOM     66  C   UNL A   1      42.816  22.301  28.061  1.00  0.00     0.134 A 
ATOM     67  F   UNL A   1      42.876  23.357  24.640  1.00  0.00    -0.206 F 
ATOM     68  C   UNL A   1      41.676  21.588  25.759  1.00  0.00     0.040 A 
ATOM     69  C   UNL A   1      42.084  21.142  27.963  1.00  0.00     0.040 A 
ATOM     70  F   UNL A   1      43.380  22.626  29.222  1.00  0.00    -0.206 F 
ATOM     71  C   UNL A   1      41.571  20.735  26.763  1.00  0.00     0.006 A 
ENDBRANCH  50  64
BRANCH  51  72
ATOM     72  C   UNL A   1      46.758  32.164  28.498  1.00  0.00     0.057 A 
ATOM     73  C   UNL A   1      47.247  32.449  29.762  1.00  0.00     0.134 A 
ATOM     74  C   UNL A   1      46.854  33.045  27.509  1.00  0.00     0.134 A 
ATOM     75  F   UNL A   1      47.402  31.522  30.705  1.00  0.00    -0.206 F 
ATOM     76  C   UNL A   1      47.565  33.812  29.961  1.00  0.00     0.040 A 
ATOM     77  C   UNL A   1      47.302  34.321  27.749  1.00  0.00     0.040 A 
ATOM     78  F   UNL A   1      46.513  32.688  26.274  1.00  0.00    -0.206 F 
ATOM     79  C   UNL A   1      47.745  34.689  28.989  1.00  0.00     0.006 A 
ENDBRANCH  51  72
BRANCH  63  80
ATOM     80  C   UNL A   1      49.342  25.971  26.427  1.00  0.00     0.057 A 
ATOM     81  C   UNL A   1      50.177  25.309  27.312  1.00  0.00     0.134 A 
ATOM     82  C   UNL A   1      49.739  26.266  25.195  1.00  0.00     0.134 A 
ATOM     83  F   UNL A   1      49.749  24.773  28.452  1.00  0.00    -0.206 F 
ATOM     84  C   UNL A   1      51.528  25.256  26.895  1.00  0.00     0.040 A 
ATOM     85  C   UNL A   1      51.044  26.061  24.812  1.00  0.00     0.040 A 
ATOM     86  F   UNL A   1      48.868  26.765  24.323  1.00  0.00    -0.206 F 
ATOM     87  C   UNL A   1      51.939  25.465  25.657  1.00  0.00     0.006 A 
ENDBRANCH  63  80
ENDBRANCH  37  38
ENDBRANCH  30  32
ENDBRANCH  29  30
ENDBRANCH  28  29
ENDBRANCH   1  28
TORSDOF 16
ENDMDL
