MODEL 1
REMARK VINA RESULT:     -11.5      0.000      0.000
REMARK SMILES O=C(Cn1cc(NC(=O)N2CC[N@@H+]3CCC[C@@H]3C2)cn1)OCCOCCOC(=O)c1ccc(-c2c3nc(c(-c4c(F)cccc4F)c4ccc([nH]4)c(-c4c(F)cccc4F)c4nc(c(-c5c(F)cccc5F)c5ccc2[nH]5)C=C4)C=C3)cc1
REMARK SMILES IDX 23 1 22 2 21 3 2 4 1 5 3 6 4 7 5 8 20 9 6 10 19 11 7 12 8 13
REMARK SMILES IDX 9 15 10 16 11 17 18 18 12 19 17 20 13 21 16 22 14 23 15 25
REMARK SMILES IDX 24 26 25 27 26 28 27 29 28 30 29 31 30 32 31 33 83 34 32 35
REMARK SMILES IDX 82 36 33 37 34 38 35 39 76 40 36 41 81 42 75 43 77 44 37 45
REMARK SMILES IDX 80 46 74 47 73 48 38 50 64 51 47 52 63 53 48 54 51 55 62 56
REMARK SMILES IDX 78 57 49 58 50 59 61 61 79 62 52 63 39 64 40 65 45 66 41 67
REMARK SMILES IDX 42 68 44 69 46 70 43 71 65 72 66 73 71 74 67 75 68 76 70 77
REMARK SMILES IDX 72 78 69 79 53 80 54 81 59 82 55 83 56 84 58 85 60 86 57 87
REMARK H PARENT 7 14 13 24 77 49 51 60
REMARK Flexibility Score: inf
ROOT
ATOM      1  C   UNL A   1      40.013  20.706  26.235  1.00  0.00     0.202 C 
ENDROOT
BRANCH   1   2
ATOM      2  C   UNL A   1      39.255  22.030  26.125  1.00  0.00     0.261 C 
BRANCH   2   3
ATOM      3  O   UNL A   1      38.152  22.071  25.210  1.00  0.00    -0.462 OA
BRANCH   3   4
ATOM      4  C   UNL A   1      36.891  22.446  25.528  1.00  0.00     0.327 C 
ATOM      5  O   UNL A   1      36.597  23.642  25.477  1.00  0.00    -0.250 OA
BRANCH   4   6
ATOM      6  C   UNL A   1      35.915  21.468  26.112  1.00  0.00     0.266 C 
BRANCH   6   7
ATOM      7  N   UNL A   1      34.542  21.638  25.706  1.00  0.00    -0.259 N 
ATOM      8  C   UNL A   1      33.467  21.923  26.501  1.00  0.00     0.135 A 
ATOM      9  N   UNL A   1      34.226  21.462  24.411  1.00  0.00    -0.179 NA
ATOM     10  C   UNL A   1      32.384  21.926  25.661  1.00  0.00     0.081 A 
ATOM     11  C   UNL A   1      32.916  21.686  24.373  1.00  0.00     0.161 A 
BRANCH  10  12
ATOM     12  N   UNL A   1      31.070  22.079  26.044  1.00  0.00    -0.305 N 
ATOM     13  C   UNL A   1      30.561  23.279  26.471  1.00  0.00     0.322 C 
ATOM     14  H   UNL A   1      30.472  21.297  26.010  1.00  0.00     0.171 HD
ATOM     15  O   UNL A   1      29.763  23.320  27.404  1.00  0.00    -0.248 OA
BRANCH  13  16
ATOM     16  N   UNL A   1      30.988  24.401  25.780  1.00  0.00    -0.313 N 
ATOM     17  C   UNL A   1      30.636  24.639  24.365  1.00  0.00     0.183 C 
ATOM     18  C   UNL A   1      31.565  25.530  26.502  1.00  0.00     0.186 C 
ATOM     19  C   UNL A   1      31.320  25.876  23.777  1.00  0.00     0.284 C 
ATOM     20  C   UNL A   1      31.038  26.888  26.007  1.00  0.00     0.204 C 
ATOM     21  N   UNL A   1      30.962  27.076  24.536  1.00  0.00    -0.330 N 
ATOM     22  C   UNL A   1      31.879  28.055  26.516  1.00  0.00     0.073 C 
ATOM     23  C   UNL A   1      31.759  28.242  24.162  1.00  0.00     0.262 C 
ATOM     24  H   UNL A   1      29.988  27.244  24.284  1.00  0.00     0.348 HD
ATOM     25  C   UNL A   1      31.746  29.093  25.418  1.00  0.00     0.068 C 
ENDBRANCH  13  16
ENDBRANCH  10  12
ENDBRANCH   6   7
ENDBRANCH   4   6
ENDBRANCH   3   4
ENDBRANCH   2   3
ENDBRANCH   1   2
BRANCH   1  26
ATOM     26  O   UNL A   1      41.418  20.691  26.046  1.00  0.00    -0.374 OA
BRANCH  26  27
ATOM     27  C   UNL A   1      42.237  19.728  26.700  1.00  0.00     0.202 C 
BRANCH  27  28
ATOM     28  C   UNL A   1      43.111  18.857  25.825  1.00  0.00     0.261 C 
BRANCH  28  29
ATOM     29  O   UNL A   1      43.379  19.560  24.623  1.00  0.00    -0.460 OA
BRANCH  29  30
ATOM     30  C   UNL A   1      44.676  19.653  24.271  1.00  0.00     0.338 C 
ATOM     31  O   UNL A   1      45.455  18.748  24.045  1.00  0.00    -0.246 OA
BRANCH  30  32
ATOM     32  C   UNL A   1      45.043  21.070  24.356  1.00  0.00     0.060 A 
ATOM     33  C   UNL A   1      46.035  21.362  25.291  1.00  0.00     0.016 A 
ATOM     34  C   UNL A   1      44.161  22.041  23.856  1.00  0.00     0.016 A 
ATOM     35  C   UNL A   1      45.943  22.557  25.955  1.00  0.00     0.010 A 
ATOM     36  C   UNL A   1      44.046  23.218  24.547  1.00  0.00     0.010 A 
ATOM     37  C   UNL A   1      44.880  23.410  25.643  1.00  0.00    -0.014 A 
BRANCH  37  38
ATOM     38  C   UNL A   1      44.701  24.565  26.484  1.00  0.00     0.031 A 
ATOM     39  C   UNL A   1      45.852  25.480  26.461  1.00  0.00     0.074 A 
ATOM     40  C   UNL A   1      43.555  24.812  27.139  1.00  0.00     0.049 A 
ATOM     41  N   UNL A   1      46.662  25.756  27.423  1.00  0.00    -0.248 NA
ATOM     42  C   UNL A   1      46.233  26.040  25.155  1.00  0.00     0.031 C 
ATOM     43  C   UNL A   1      42.260  24.151  26.969  1.00  0.00     0.029 A 
ATOM     44  N   UNL A   1      43.290  25.809  28.023  1.00  0.00    -0.354 N 
ATOM     45  C   UNL A   1      47.534  26.700  26.897  1.00  0.00     0.074 A 
ATOM     46  C   UNL A   1      47.357  26.680  25.470  1.00  0.00     0.031 C 
ATOM     47  C   UNL A   1      41.307  24.905  27.563  1.00  0.00     0.029 A 
ATOM     48  C   UNL A   1      41.940  26.030  28.233  1.00  0.00     0.049 A 
ATOM     49  H   UNL A   1      43.996  26.327  28.474  1.00  0.00     0.167 HD
ATOM     50  C   UNL A   1      48.102  27.637  27.697  1.00  0.00     0.037 A 
ATOM     51  C   UNL A   1      41.399  27.119  28.832  1.00  0.00     0.037 A 
ATOM     52  C   UNL A   1      48.113  27.220  29.078  1.00  0.00     0.049 A 
ATOM     53  C   UNL A   1      42.475  27.802  29.598  1.00  0.00     0.074 A 
ATOM     54  C   UNL A   1      48.582  26.109  29.756  1.00  0.00     0.029 A 
ATOM     55  N   UNL A   1      47.266  27.852  29.953  1.00  0.00    -0.354 N 
ATOM     56  N   UNL A   1      43.009  27.345  30.695  1.00  0.00    -0.248 NA
ATOM     57  C   UNL A   1      43.244  28.837  28.921  1.00  0.00     0.031 C 
ATOM     58  C   UNL A   1      47.651  25.888  30.812  1.00  0.00     0.029 A 
ATOM     59  C   UNL A   1      46.684  26.891  30.734  1.00  0.00     0.049 A 
ATOM     60  H   UNL A   1      47.106  28.823  30.009  1.00  0.00     0.167 HD
ATOM     61  C   UNL A   1      44.346  27.712  30.619  1.00  0.00     0.074 A 
ATOM     62  C   UNL A   1      44.402  28.729  29.576  1.00  0.00     0.031 C 
ATOM     63  C   UNL A   1      45.320  26.955  31.205  1.00  0.00     0.037 A 
BRANCH  50  64
ATOM     64  C   UNL A   1      48.237  29.080  27.277  1.00  0.00     0.057 A 
ATOM     65  C   UNL A   1      49.456  29.737  27.511  1.00  0.00     0.134 A 
ATOM     66  C   UNL A   1      47.154  29.925  26.947  1.00  0.00     0.134 A 
ATOM     67  F   UNL A   1      50.556  29.045  27.842  1.00  0.00    -0.206 F 
ATOM     68  C   UNL A   1      49.564  31.132  27.515  1.00  0.00     0.040 A 
ATOM     69  C   UNL A   1      47.267  31.315  26.890  1.00  0.00     0.040 A 
ATOM     70  F   UNL A   1      45.909  29.476  26.761  1.00  0.00    -0.206 F 
ATOM     71  C   UNL A   1      48.465  31.926  27.215  1.00  0.00     0.006 A 
ENDBRANCH  50  64
BRANCH  51  72
ATOM     72  C   UNL A   1      40.084  27.751  28.585  1.00  0.00     0.057 A 
ATOM     73  C   UNL A   1      39.102  27.782  29.586  1.00  0.00     0.134 A 
ATOM     74  C   UNL A   1      39.835  28.552  27.457  1.00  0.00     0.134 A 
ATOM     75  F   UNL A   1      39.266  27.089  30.723  1.00  0.00    -0.206 F 
ATOM     76  C   UNL A   1      37.952  28.574  29.479  1.00  0.00     0.040 A 
ATOM     77  C   UNL A   1      38.683  29.333  27.329  1.00  0.00     0.040 A 
ATOM     78  F   UNL A   1      40.740  28.676  26.476  1.00  0.00    -0.206 F 
ATOM     79  C   UNL A   1      37.742  29.357  28.349  1.00  0.00     0.006 A 
ENDBRANCH  51  72
BRANCH  63  80
ATOM     80  C   UNL A   1      44.896  25.926  32.211  1.00  0.00     0.057 A 
ATOM     81  C   UNL A   1      44.522  24.615  31.885  1.00  0.00     0.134 A 
ATOM     82  C   UNL A   1      44.982  26.242  33.573  1.00  0.00     0.134 A 
ATOM     83  F   UNL A   1      44.517  24.190  30.614  1.00  0.00    -0.206 F 
ATOM     84  C   UNL A   1      44.190  23.680  32.869  1.00  0.00     0.040 A 
ATOM     85  C   UNL A   1      44.688  25.306  34.567  1.00  0.00     0.040 A 
ATOM     86  F   UNL A   1      45.393  27.460  33.961  1.00  0.00    -0.206 F 
ATOM     87  C   UNL A   1      44.275  24.024  34.216  1.00  0.00     0.006 A 
ENDBRANCH  63  80
ENDBRANCH  37  38
ENDBRANCH  30  32
ENDBRANCH  29  30
ENDBRANCH  28  29
ENDBRANCH  27  28
ENDBRANCH  26  27
ENDBRANCH   1  26
TORSDOF 17
ENDMDL
MODEL 2
REMARK VINA RESULT:     -11.3      5.621     10.800
REMARK SMILES O=C(Cn1cc(NC(=O)N2CC[N@@H+]3CCC[C@@H]3C2)cn1)OCCOCCOC(=O)c1ccc(-c2c3nc(c(-c4c(F)cccc4F)c4ccc([nH]4)c(-c4c(F)cccc4F)c4nc(c(-c5c(F)cccc5F)c5ccc2[nH]5)C=C4)C=C3)cc1
REMARK SMILES IDX 23 1 22 2 21 3 2 4 1 5 3 6 4 7 5 8 20 9 6 10 19 11 7 12 8 13
REMARK SMILES IDX 9 15 10 16 11 17 18 18 12 19 17 20 13 21 16 22 14 23 15 25
REMARK SMILES IDX 24 26 25 27 26 28 27 29 28 30 29 31 30 32 31 33 83 34 32 35
REMARK SMILES IDX 82 36 33 37 34 38 35 39 76 40 36 41 81 42 75 43 77 44 37 45
REMARK SMILES IDX 80 46 74 47 73 48 38 50 64 51 47 52 63 53 48 54 51 55 62 56
REMARK SMILES IDX 78 57 49 58 50 59 61 61 79 62 52 63 39 64 40 65 45 66 41 67
REMARK SMILES IDX 42 68 44 69 46 70 43 71 65 72 66 73 71 74 67 75 68 76 70 77
REMARK SMILES IDX 72 78 69 79 53 80 54 81 59 82 55 83 56 84 58 85 60 86 57 87
REMARK H PARENT 7 14 13 24 77 49 51 60
REMARK Flexibility Score: inf
ROOT
ATOM      1  C   UNL A   1      34.229  32.444  28.041  1.00  0.00     0.202 C 
ENDROOT
BRANCH   1   2
ATOM      2  C   UNL A   1      33.166  31.474  27.521  1.00  0.00     0.261 C 
BRANCH   2   3
ATOM      3  O   UNL A   1      33.506  30.081  27.519  1.00  0.00    -0.462 OA
BRANCH   3   4
ATOM      4  C   UNL A   1      33.412  29.259  26.447  1.00  0.00     0.327 C 
ATOM      5  O   UNL A   1      33.924  28.139  26.512  1.00  0.00    -0.250 OA
BRANCH   4   6
ATOM      6  C   UNL A   1      32.869  29.751  25.137  1.00  0.00     0.266 C 
BRANCH   6   7
ATOM      7  N   UNL A   1      32.216  28.758  24.322  1.00  0.00    -0.259 N 
ATOM      8  C   UNL A   1      32.686  28.182  23.173  1.00  0.00     0.135 A 
ATOM      9  N   UNL A   1      30.981  28.351  24.664  1.00  0.00    -0.179 NA
ATOM     10  C   UNL A   1      31.682  27.353  22.746  1.00  0.00     0.081 A 
ATOM     11  C   UNL A   1      30.673  27.456  23.731  1.00  0.00     0.161 A 
BRANCH  10  12
ATOM     12  N   UNL A   1      31.679  26.633  21.571  1.00  0.00    -0.305 N 
ATOM     13  C   UNL A   1      32.536  25.586  21.345  1.00  0.00     0.322 C 
ATOM     14  H   UNL A   1      31.038  26.880  20.865  1.00  0.00     0.171 HD
ATOM     15  O   UNL A   1      33.047  25.427  20.240  1.00  0.00    -0.248 OA
BRANCH  13  16
ATOM     16  N   UNL A   1      32.758  24.741  22.419  1.00  0.00    -0.313 N 
ATOM     17  C   UNL A   1      31.750  23.762  22.877  1.00  0.00     0.183 C 
ATOM     18  C   UNL A   1      34.104  24.586  22.962  1.00  0.00     0.186 C 
ATOM     19  C   UNL A   1      32.167  23.025  24.153  1.00  0.00     0.284 C 
ATOM     20  C   UNL A   1      34.462  23.120  23.261  1.00  0.00     0.204 C 
ATOM     21  N   UNL A   1      33.427  22.309  23.949  1.00  0.00    -0.330 N 
ATOM     22  C   UNL A   1      35.711  22.995  24.131  1.00  0.00     0.073 C 
ATOM     23  C   UNL A   1      33.984  21.778  25.192  1.00  0.00     0.262 C 
ATOM     24  H   UNL A   1      33.172  21.531  23.341  1.00  0.00     0.348 HD
ATOM     25  C   UNL A   1      35.473  21.716  24.910  1.00  0.00     0.068 C 
ENDBRANCH  13  16
ENDBRANCH  10  12
ENDBRANCH   6   7
ENDBRANCH   4   6
ENDBRANCH   3   4
ENDBRANCH   2   3
ENDBRANCH   1   2
BRANCH   1  26
ATOM     26  O   UNL A   1      33.933  33.269  29.155  1.00  0.00    -0.374 OA
BRANCH  26  27
ATOM     27  C   UNL A   1      34.256  34.655  29.150  1.00  0.00     0.202 C 
BRANCH  27  28
ATOM     28  C   UNL A   1      33.263  35.598  29.790  1.00  0.00     0.261 C 
BRANCH  28  29
ATOM     29  O   UNL A   1      32.673  34.938  30.899  1.00  0.00    -0.460 OA
BRANCH  29  30
ATOM     30  C   UNL A   1      32.838  35.536  32.095  1.00  0.00     0.338 C 
ATOM     31  O   UNL A   1      32.315  36.557  32.498  1.00  0.00    -0.246 OA
BRANCH  30  32
ATOM     32  C   UNL A   1      33.900  34.809  32.796  1.00  0.00     0.060 A 
ATOM     33  C   UNL A   1      35.046  35.557  33.059  1.00  0.00     0.016 A 
ATOM     34  C   UNL A   1      33.895  33.405  32.786  1.00  0.00     0.016 A 
ATOM     35  C   UNL A   1      36.250  34.905  33.005  1.00  0.00     0.010 A 
ATOM     36  C   UNL A   1      35.100  32.761  32.694  1.00  0.00     0.010 A 
ATOM     37  C   UNL A   1      36.253  33.538  32.711  1.00  0.00    -0.014 A 
BRANCH  37  38
ATOM     38  C   UNL A   1      37.533  32.923  32.475  1.00  0.00     0.031 A 
ATOM     39  C   UNL A   1      38.411  32.945  33.655  1.00  0.00     0.074 A 
ATOM     40  C   UNL A   1      37.840  32.312  31.319  1.00  0.00     0.049 A 
ATOM     41  N   UNL A   1      39.516  33.590  33.806  1.00  0.00    -0.248 NA
ATOM     42  C   UNL A   1      37.912  32.284  34.870  1.00  0.00     0.031 C 
ATOM     43  C   UNL A   1      36.938  31.950  30.224  1.00  0.00     0.029 A 
ATOM     44  N   UNL A   1      39.029  31.775  30.942  1.00  0.00    -0.354 N 
ATOM     45  C   UNL A   1      39.964  33.238  35.072  1.00  0.00     0.074 A 
ATOM     46  C   UNL A   1      38.859  32.612  35.747  1.00  0.00     0.031 C 
ATOM     47  C   UNL A   1      37.568  31.070  29.415  1.00  0.00     0.029 A 
ATOM     48  C   UNL A   1      38.937  30.895  29.878  1.00  0.00     0.049 A 
ATOM     49  H   UNL A   1      39.881  31.993  31.385  1.00  0.00     0.167 HD
ATOM     50  C   UNL A   1      41.292  33.206  35.351  1.00  0.00     0.037 A 
ATOM     51  C   UNL A   1      39.896  30.021  29.485  1.00  0.00     0.037 A 
ATOM     52  C   UNL A   1      42.046  34.026  34.434  1.00  0.00     0.049 A 
ATOM     53  C   UNL A   1      41.185  30.460  30.083  1.00  0.00     0.074 A 
ATOM     54  C   UNL A   1      41.986  35.350  34.036  1.00  0.00     0.029 A 
ATOM     55  N   UNL A   1      42.838  33.400  33.504  1.00  0.00    -0.354 N 
ATOM     56  N   UNL A   1      41.855  31.512  29.709  1.00  0.00    -0.248 NA
ATOM     57  C   UNL A   1      41.551  29.925  31.388  1.00  0.00     0.031 C 
ATOM     58  C   UNL A   1      42.357  35.350  32.660  1.00  0.00     0.029 A 
ATOM     59  C   UNL A   1      42.647  34.032  32.305  1.00  0.00     0.049 A 
ATOM     60  H   UNL A   1      43.435  32.634  33.670  1.00  0.00     0.167 HD
ATOM     61  C   UNL A   1      42.408  32.016  30.879  1.00  0.00     0.074 A 
ATOM     62  C   UNL A   1      42.292  30.934  31.850  1.00  0.00     0.031 C 
ATOM     63  C   UNL A   1      42.643  33.353  31.030  1.00  0.00     0.037 A 
BRANCH  50  64
ATOM     64  C   UNL A   1      41.919  32.100  36.165  1.00  0.00     0.057 A 
ATOM     65  C   UNL A   1      42.860  32.442  37.150  1.00  0.00     0.134 A 
ATOM     66  C   UNL A   1      41.876  30.730  35.825  1.00  0.00     0.134 A 
ATOM     67  F   UNL A   1      43.002  33.713  37.552  1.00  0.00    -0.206 F 
ATOM     68  C   UNL A   1      43.757  31.509  37.681  1.00  0.00     0.040 A 
ATOM     69  C   UNL A   1      42.727  29.781  36.394  1.00  0.00     0.040 A 
ATOM     70  F   UNL A   1      41.091  30.242  34.860  1.00  0.00    -0.206 F 
ATOM     71  C   UNL A   1      43.700  30.175  37.296  1.00  0.00     0.006 A 
ENDBRANCH  50  64
BRANCH  51  72
ATOM     72  C   UNL A   1      39.734  28.698  28.843  1.00  0.00     0.057 A 
ATOM     73  C   UNL A   1      40.314  28.429  27.596  1.00  0.00     0.134 A 
ATOM     74  C   UNL A   1      39.218  27.586  29.532  1.00  0.00     0.134 A 
ATOM     75  F   UNL A   1      40.877  29.413  26.879  1.00  0.00    -0.206 F 
ATOM     76  C   UNL A   1      40.392  27.132  27.073  1.00  0.00     0.040 A 
ATOM     77  C   UNL A   1      39.271  26.289  29.015  1.00  0.00     0.040 A 
ATOM     78  F   UNL A   1      38.720  27.703  30.772  1.00  0.00    -0.206 F 
ATOM     79  C   UNL A   1      39.873  26.056  27.785  1.00  0.00     0.006 A 
ENDBRANCH  51  72
BRANCH  63  80
ATOM     80  C   UNL A   1      42.620  34.210  29.799  1.00  0.00     0.057 A 
ATOM     81  C   UNL A   1      41.472  34.843  29.303  1.00  0.00     0.134 A 
ATOM     82  C   UNL A   1      43.832  34.500  29.159  1.00  0.00     0.134 A 
ATOM     83  F   UNL A   1      40.287  34.712  29.917  1.00  0.00    -0.206 F 
ATOM     84  C   UNL A   1      41.519  35.678  28.184  1.00  0.00     0.040 A 
ATOM     85  C   UNL A   1      43.898  35.361  28.062  1.00  0.00     0.040 A 
ATOM     86  F   UNL A   1      44.981  33.978  29.617  1.00  0.00    -0.206 F 
ATOM     87  C   UNL A   1      42.736  35.941  27.561  1.00  0.00     0.006 A 
ENDBRANCH  63  80
ENDBRANCH  37  38
ENDBRANCH  30  32
ENDBRANCH  29  30
ENDBRANCH  28  29
ENDBRANCH  27  28
ENDBRANCH  26  27
ENDBRANCH   1  26
TORSDOF 17
ENDMDL
MODEL 3
REMARK VINA RESULT:     -11.0      1.236      1.723
REMARK SMILES O=C(Cn1cc(NC(=O)N2CC[N@@H+]3CCC[C@@H]3C2)cn1)OCCOCCOC(=O)c1ccc(-c2c3nc(c(-c4c(F)cccc4F)c4ccc([nH]4)c(-c4c(F)cccc4F)c4nc(c(-c5c(F)cccc5F)c5ccc2[nH]5)C=C4)C=C3)cc1
REMARK SMILES IDX 23 1 22 2 21 3 2 4 1 5 3 6 4 7 5 8 20 9 6 10 19 11 7 12 8 13
REMARK SMILES IDX 9 15 10 16 11 17 18 18 12 19 17 20 13 21 16 22 14 23 15 25
REMARK SMILES IDX 24 26 25 27 26 28 27 29 28 30 29 31 30 32 31 33 83 34 32 35
REMARK SMILES IDX 82 36 33 37 34 38 35 39 76 40 36 41 81 42 75 43 77 44 37 45
REMARK SMILES IDX 80 46 74 47 73 48 38 50 64 51 47 52 63 53 48 54 51 55 62 56
REMARK SMILES IDX 78 57 49 58 50 59 61 61 79 62 52 63 39 64 40 65 45 66 41 67
REMARK SMILES IDX 42 68 44 69 46 70 43 71 65 72 66 73 71 74 67 75 68 76 70 77
REMARK SMILES IDX 72 78 69 79 53 80 54 81 59 82 55 83 56 84 58 85 60 86 57 87
REMARK H PARENT 7 14 13 24 77 49 51 60
REMARK Flexibility Score: inf
ROOT
ATOM      1  C   UNL A   1      41.110  20.634  27.532  1.00  0.00     0.202 C 
ENDROOT
BRANCH   1   2
ATOM      2  C   UNL A   1      40.310  21.006  26.283  1.00  0.00     0.261 C 
BRANCH   2   3
ATOM      3  O   UNL A   1      39.417  22.123  26.393  1.00  0.00    -0.462 OA
BRANCH   3   4
ATOM      4  C   UNL A   1      38.217  22.224  25.775  1.00  0.00     0.327 C 
ATOM      5  O   UNL A   1      37.833  21.289  25.069  1.00  0.00    -0.250 OA
BRANCH   4   6
ATOM      6  C   UNL A   1      37.444  23.510  25.785  1.00  0.00     0.266 C 
BRANCH   6   7
ATOM      7  N   UNL A   1      36.045  23.400  25.455  1.00  0.00    -0.259 N 
ATOM      8  C   UNL A   1      35.446  23.694  24.261  1.00  0.00     0.135 A 
ATOM      9  N   UNL A   1      35.185  23.007  26.410  1.00  0.00    -0.179 NA
ATOM     10  C   UNL A   1      34.107  23.482  24.466  1.00  0.00     0.081 A 
ATOM     11  C   UNL A   1      34.006  23.009  25.794  1.00  0.00     0.161 A 
BRANCH  10  12
ATOM     12  N   UNL A   1      33.104  23.741  23.557  1.00  0.00    -0.305 N 
ATOM     13  C   UNL A   1      32.161  24.716  23.757  1.00  0.00     0.322 C 
ATOM     14  H   UNL A   1      33.062  23.204  22.732  1.00  0.00     0.171 HD
ATOM     15  O   UNL A   1      30.990  24.524  23.441  1.00  0.00    -0.248 OA
BRANCH  13  16
ATOM     16  N   UNL A   1      32.620  25.901  24.308  1.00  0.00    -0.313 N 
ATOM     17  C   UNL A   1      33.241  26.964  23.491  1.00  0.00     0.183 C 
ATOM     18  C   UNL A   1      32.251  26.265  25.672  1.00  0.00     0.186 C 
ATOM     19  C   UNL A   1      33.782  28.125  24.331  1.00  0.00     0.284 C 
ATOM     20  C   UNL A   1      31.846  27.743  25.807  1.00  0.00     0.204 C 
ATOM     21  N   UNL A   1      32.712  28.735  25.122  1.00  0.00    -0.330 N 
ATOM     22  C   UNL A   1      31.793  28.198  27.264  1.00  0.00     0.073 C 
ATOM     23  C   UNL A   1      33.210  29.694  26.105  1.00  0.00     0.262 C 
ATOM     24  H   UNL A   1      32.148  29.230  24.431  1.00  0.00     0.348 HD
ATOM     25  C   UNL A   1      32.148  29.670  27.188  1.00  0.00     0.068 C 
ENDBRANCH  13  16
ENDBRANCH  10  12
ENDBRANCH   6   7
ENDBRANCH   4   6
ENDBRANCH   3   4
ENDBRANCH   2   3
ENDBRANCH   1   2
BRANCH   1  26
ATOM     26  O   UNL A   1      42.008  19.539  27.483  1.00  0.00    -0.374 OA
BRANCH  26  27
ATOM     27  C   UNL A   1      42.173  18.777  26.292  1.00  0.00     0.202 C 
BRANCH  27  28
ATOM     28  C   UNL A   1      43.533  18.813  25.632  1.00  0.00     0.261 C 
BRANCH  28  29
ATOM     29  O   UNL A   1      43.560  19.904  24.727  1.00  0.00    -0.460 OA
BRANCH  29  30
ATOM     30  C   UNL A   1      44.726  20.106  24.083  1.00  0.00     0.338 C 
ATOM     31  O   UNL A   1      45.407  19.288  23.495  1.00  0.00    -0.246 OA
BRANCH  30  32
ATOM     32  C   UNL A   1      45.127  21.492  24.345  1.00  0.00     0.060 A 
ATOM     33  C   UNL A   1      46.019  21.653  25.402  1.00  0.00     0.016 A 
ATOM     34  C   UNL A   1      44.335  22.541  23.851  1.00  0.00     0.016 A 
ATOM     35  C   UNL A   1      45.893  22.783  26.167  1.00  0.00     0.010 A 
ATOM     36  C   UNL A   1      44.183  23.652  24.638  1.00  0.00     0.010 A 
ATOM     37  C   UNL A   1      44.897  23.706  25.830  1.00  0.00    -0.014 A 
BRANCH  37  38
ATOM     38  C   UNL A   1      44.664  24.782  26.756  1.00  0.00     0.031 A 
ATOM     39  C   UNL A   1      45.805  25.702  26.872  1.00  0.00     0.074 A 
ATOM     40  C   UNL A   1      43.483  24.967  27.368  1.00  0.00     0.049 A 
ATOM     41  N   UNL A   1      46.562  25.897  27.897  1.00  0.00    -0.248 NA
ATOM     42  C   UNL A   1      46.250  26.374  25.642  1.00  0.00     0.031 C 
ATOM     43  C   UNL A   1      42.204  24.317  27.074  1.00  0.00     0.029 A 
ATOM     44  N   UNL A   1      43.163  25.883  28.320  1.00  0.00    -0.354 N 
ATOM     45  C   UNL A   1      47.452  26.887  27.501  1.00  0.00     0.074 A 
ATOM     46  C   UNL A   1      47.350  26.990  26.070  1.00  0.00     0.031 C 
ATOM     47  C   UNL A   1      41.215  25.012  27.679  1.00  0.00     0.029 A 
ATOM     48  C   UNL A   1      41.802  26.078  28.476  1.00  0.00     0.049 A 
ATOM     49  H   UNL A   1      43.839  26.363  28.850  1.00  0.00     0.167 HD
ATOM     50  C   UNL A   1      47.969  27.754  28.407  1.00  0.00     0.037 A 
ATOM     51  C   UNL A   1      41.220  27.109  29.137  1.00  0.00     0.037 A 
ATOM     52  C   UNL A   1      47.910  27.220  29.746  1.00  0.00     0.049 A 
ATOM     53  C   UNL A   1      42.248  27.728  30.014  1.00  0.00     0.074 A 
ATOM     54  C   UNL A   1      48.354  26.057  30.350  1.00  0.00     0.029 A 
ATOM     55  N   UNL A   1      47.013  27.771  30.626  1.00  0.00    -0.354 N 
ATOM     56  N   UNL A   1      42.727  27.181  31.095  1.00  0.00    -0.248 NA
ATOM     57  C   UNL A   1      43.042  28.822  29.470  1.00  0.00     0.031 C 
ATOM     58  C   UNL A   1      47.371  25.741  31.332  1.00  0.00     0.029 A 
ATOM     59  C   UNL A   1      46.399  26.742  31.290  1.00  0.00     0.049 A 
ATOM     60  H   UNL A   1      46.842  28.732  30.756  1.00  0.00     0.167 HD
ATOM     61  C   UNL A   1      44.063  27.560  31.122  1.00  0.00     0.074 A 
ATOM     62  C   UNL A   1      44.164  28.663  30.174  1.00  0.00     0.031 C 
ATOM     63  C   UNL A   1      45.012  26.759  31.691  1.00  0.00     0.037 A 
BRANCH  50  64
ATOM     64  C   UNL A   1      48.112  29.230  28.121  1.00  0.00     0.057 A 
ATOM     65  C   UNL A   1      46.996  29.931  27.637  1.00  0.00     0.134 A 
ATOM     66  C   UNL A   1      49.344  29.909  28.004  1.00  0.00     0.134 A 
ATOM     67  F   UNL A   1      45.770  29.389  27.684  1.00  0.00    -0.206 F 
ATOM     68  C   UNL A   1      47.112  31.170  26.996  1.00  0.00     0.040 A 
ATOM     69  C   UNL A   1      49.462  31.171  27.419  1.00  0.00     0.040 A 
ATOM     70  F   UNL A   1      50.515  29.362  28.348  1.00  0.00    -0.206 F 
ATOM     71  C   UNL A   1      48.350  31.789  26.876  1.00  0.00     0.006 A 
ENDBRANCH  50  64
BRANCH  51  72
ATOM     72  C   UNL A   1      39.913  27.754  28.875  1.00  0.00     0.057 A 
ATOM     73  C   UNL A   1      38.920  27.792  29.864  1.00  0.00     0.134 A 
ATOM     74  C   UNL A   1      39.686  28.560  27.746  1.00  0.00     0.134 A 
ATOM     75  F   UNL A   1      39.064  27.095  31.001  1.00  0.00    -0.206 F 
ATOM     76  C   UNL A   1      37.779  28.595  29.745  1.00  0.00     0.040 A 
ATOM     77  C   UNL A   1      38.543  29.352  27.606  1.00  0.00     0.040 A 
ATOM     78  F   UNL A   1      40.604  28.678  26.776  1.00  0.00    -0.206 F 
ATOM     79  C   UNL A   1      37.590  29.382  28.615  1.00  0.00     0.006 A 
ENDBRANCH  51  72
BRANCH  63  80
ATOM     80  C   UNL A   1      44.545  25.646  32.582  1.00  0.00     0.057 A 
ATOM     81  C   UNL A   1      44.303  24.337  32.142  1.00  0.00     0.134 A 
ATOM     82  C   UNL A   1      44.451  25.881  33.959  1.00  0.00     0.134 A 
ATOM     83  F   UNL A   1      44.476  23.993  30.858  1.00  0.00    -0.206 F 
ATOM     84  C   UNL A   1      43.923  23.324  33.026  1.00  0.00     0.040 A 
ATOM     85  C   UNL A   1      44.108  24.869  34.857  1.00  0.00     0.040 A 
ATOM     86  F   UNL A   1      44.729  27.095  34.459  1.00  0.00    -0.206 F 
ATOM     87  C   UNL A   1      43.827  23.587  34.390  1.00  0.00     0.006 A 
ENDBRANCH  63  80
ENDBRANCH  37  38
ENDBRANCH  30  32
ENDBRANCH  29  30
ENDBRANCH  28  29
ENDBRANCH  27  28
ENDBRANCH  26  27
ENDBRANCH   1  26
TORSDOF 17
ENDMDL
