MODEL 1
REMARK VINA RESULT:      -9.1      0.000      0.000
REMARK SMILES Cc1cc(F)cc(/C=C/C(=O)OCCOCCOC(=O)c2ccc(-c3c4nc(c(-c5c(F)cccc5F)c5ccc([nH]5)c(-c5c(F)cccc5F)c5nc(c(-c6c(F)cccc6F)c6ccc3[nH]6)C=C5)C=C4)cc2)c1
REMARK SMILES IDX 16 1 15 2 14 3 13 4 12 5 10 6 11 7 9 8 8 9 7 10 1 11 2 12
REMARK SMILES IDX 3 13 75 14 4 15 5 16 6 17 17 18 18 19 19 20 20 21 21 22
REMARK SMILES IDX 22 23 74 24 23 25 73 26 24 27 25 28 26 29 67 30 27 31 72 32
REMARK SMILES IDX 66 33 68 34 28 35 71 36 65 37 64 38 29 40 55 41 38 42 54 43
REMARK SMILES IDX 39 44 42 45 53 46 69 47 40 48 41 49 52 51 70 52 43 53 30 54
REMARK SMILES IDX 31 55 36 56 32 57 33 58 35 59 37 60 34 61 56 62 57 63 62 64
REMARK SMILES IDX 58 65 59 66 61 67 63 68 60 69 44 70 45 71 50 72 46 73 47 74
REMARK SMILES IDX 49 75 51 76 48 77
REMARK H PARENT 68 39 42 50
REMARK Flexibility Score: inf
ROOT
ATOM      1  C   UNL A   1      32.954  36.807  31.546  1.00  0.00     0.202 C 
ENDROOT
BRANCH   1   2
ATOM      2  O   UNL A   1      33.304  35.854  32.551  1.00  0.00    -0.374 OA
BRANCH   2   3
ATOM      3  C   UNL A   1      34.686  35.758  32.892  1.00  0.00     0.202 C 
BRANCH   3   4
ATOM      4  C   UNL A   1      35.126  34.419  33.488  1.00  0.00     0.261 C 
BRANCH   4   5
ATOM      5  O   UNL A   1      36.408  34.531  34.131  1.00  0.00    -0.460 OA
BRANCH   5   6
ATOM      6  C   UNL A   1      36.587  33.716  35.196  1.00  0.00     0.330 C 
ATOM      7  O   UNL A   1      35.965  33.744  36.248  1.00  0.00    -0.247 OA
BRANCH   6   8
ATOM      8  C   UNL A   1      37.611  32.679  34.953  1.00  0.00     0.094 C 
ATOM      9  C   UNL A   1      37.569  31.703  34.032  1.00  0.00     0.016 C 
BRANCH   9  10
ATOM     10  C   UNL A   1      38.650  30.707  33.890  1.00  0.00    -0.022 A 
ATOM     11  C   UNL A   1      42.066  29.967  35.450  1.00  0.00     0.044 C 
ATOM     12  C   UNL A   1      40.846  29.874  34.583  1.00  0.00    -0.048 A 
ATOM     13  C   UNL A   1      40.723  28.814  33.681  1.00  0.00     0.042 A 
ATOM     14  C   UNL A   1      39.806  30.818  34.679  1.00  0.00     0.011 A 
ATOM     15  C   UNL A   1      39.594  28.722  32.877  1.00  0.00     0.124 A 
ATOM     16  F   UNL A   1      39.486  27.709  32.006  1.00  0.00    -0.207 F 
ATOM     17  C   UNL A   1      38.570  29.659  32.964  1.00  0.00     0.047 A 
ENDBRANCH   9  10
ENDBRANCH   6   8
ENDBRANCH   5   6
ENDBRANCH   4   5
ENDBRANCH   3   4
ENDBRANCH   2   3
ENDBRANCH   1   2
BRANCH   1  18
ATOM     18  C   UNL A   1      33.081  36.315  30.097  1.00  0.00     0.261 C 
BRANCH  18  19
ATOM     19  O   UNL A   1      32.646  34.949  29.959  1.00  0.00    -0.460 OA
BRANCH  19  20
ATOM     20  C   UNL A   1      33.006  34.345  28.803  1.00  0.00     0.338 C 
ATOM     21  O   UNL A   1      32.464  34.449  27.710  1.00  0.00    -0.246 OA
BRANCH  20  22
ATOM     22  C   UNL A   1      34.291  33.644  28.980  1.00  0.00     0.060 A 
ATOM     23  C   UNL A   1      34.440  32.842  30.117  1.00  0.00     0.016 A 
ATOM     24  C   UNL A   1      35.353  33.814  28.088  1.00  0.00     0.016 A 
ATOM     25  C   UNL A   1      35.668  32.242  30.395  1.00  0.00     0.010 A 
ATOM     26  C   UNL A   1      36.587  33.218  28.372  1.00  0.00     0.010 A 
ATOM     27  C   UNL A   1      36.759  32.458  29.543  1.00  0.00    -0.014 A 
BRANCH  27  28
ATOM     28  C   UNL A   1      38.110  32.002  29.952  1.00  0.00     0.031 A 
ATOM     29  C   UNL A   1      38.627  30.690  29.430  1.00  0.00     0.074 A 
ATOM     30  C   UNL A   1      38.876  32.755  30.759  1.00  0.00     0.049 A 
ATOM     31  N   UNL A   1      39.759  30.085  29.681  1.00  0.00    -0.248 NA
ATOM     32  C   UNL A   1      37.747  29.962  28.501  1.00  0.00     0.031 C 
ATOM     33  C   UNL A   1      38.504  34.061  31.301  1.00  0.00     0.029 A 
ATOM     34  N   UNL A   1      40.130  32.523  31.267  1.00  0.00    -0.354 N 
ATOM     35  C   UNL A   1      39.727  28.905  28.948  1.00  0.00     0.074 A 
ATOM     36  C   UNL A   1      38.452  28.865  28.266  1.00  0.00     0.031 C 
ATOM     37  C   UNL A   1      39.507  34.512  32.075  1.00  0.00     0.029 A 
ATOM     38  C   UNL A   1      40.576  33.516  32.105  1.00  0.00     0.049 A 
ATOM     39  H   UNL A   1      40.658  31.722  31.051  1.00  0.00     0.167 HD
ATOM     40  C   UNL A   1      40.678  27.947  28.846  1.00  0.00     0.037 A 
ATOM     41  C   UNL A   1      41.710  33.600  32.827  1.00  0.00     0.037 A 
ATOM     42  C   UNL A   1      41.948  27.987  29.521  1.00  0.00     0.049 A 
ATOM     43  C   UNL A   1      42.722  32.488  32.749  1.00  0.00     0.074 A 
ATOM     44  C   UNL A   1      42.988  27.075  29.461  1.00  0.00     0.029 A 
ATOM     45  N   UNL A   1      42.350  28.994  30.386  1.00  0.00    -0.354 N 
ATOM     46  N   UNL A   1      42.694  31.391  32.033  1.00  0.00    -0.248 NA
ATOM     47  C   UNL A   1      43.927  32.629  33.581  1.00  0.00     0.031 C 
ATOM     48  C   UNL A   1      43.999  27.506  30.325  1.00  0.00     0.029 A 
ATOM     49  C   UNL A   1      43.610  28.712  30.887  1.00  0.00     0.049 A 
ATOM     50  H   UNL A   1      41.818  29.791  30.611  1.00  0.00     0.167 HD
ATOM     51  C   UNL A   1      43.884  30.727  32.304  1.00  0.00     0.074 A 
ATOM     52  C   UNL A   1      44.616  31.548  33.244  1.00  0.00     0.031 C 
ATOM     53  C   UNL A   1      44.331  29.543  31.816  1.00  0.00     0.037 A 
BRANCH  40  54
ATOM     54  C   UNL A   1      40.368  26.756  27.988  1.00  0.00     0.057 A 
ATOM     55  C   UNL A   1      40.898  26.616  26.698  1.00  0.00     0.134 A 
ATOM     56  C   UNL A   1      39.555  25.723  28.469  1.00  0.00     0.134 A 
ATOM     57  F   UNL A   1      41.672  27.577  26.173  1.00  0.00    -0.206 F 
ATOM     58  C   UNL A   1      40.611  25.500  25.910  1.00  0.00     0.040 A 
ATOM     59  C   UNL A   1      39.280  24.592  27.699  1.00  0.00     0.040 A 
ATOM     60  F   UNL A   1      39.019  25.794  29.697  1.00  0.00    -0.206 F 
ATOM     61  C   UNL A   1      39.805  24.481  26.413  1.00  0.00     0.006 A 
ENDBRANCH  40  54
BRANCH  41  62
ATOM     62  C   UNL A   1      41.950  34.777  33.698  1.00  0.00     0.057 A 
ATOM     63  C   UNL A   1      41.457  34.823  35.007  1.00  0.00     0.134 A 
ATOM     64  C   UNL A   1      42.660  35.891  33.236  1.00  0.00     0.134 A 
ATOM     65  F   UNL A   1      40.748  33.796  35.497  1.00  0.00    -0.206 F 
ATOM     66  C   UNL A   1      41.647  35.941  35.820  1.00  0.00     0.040 A 
ATOM     67  C   UNL A   1      42.878  37.006  34.046  1.00  0.00     0.040 A 
ATOM     68  F   UNL A   1      43.159  35.909  31.991  1.00  0.00    -0.206 F 
ATOM     69  C   UNL A   1      42.365  37.036  35.341  1.00  0.00     0.006 A 
ENDBRANCH  41  62
BRANCH  53  70
ATOM     70  C   UNL A   1      45.688  29.083  32.261  1.00  0.00     0.057 A 
ATOM     71  C   UNL A   1      46.854  29.445  31.574  1.00  0.00     0.134 A 
ATOM     72  C   UNL A   1      45.832  28.301  33.414  1.00  0.00     0.134 A 
ATOM     73  F   UNL A   1      46.782  30.181  30.456  1.00  0.00    -0.206 F 
ATOM     74  C   UNL A   1      48.114  29.030  32.009  1.00  0.00     0.040 A 
ATOM     75  C   UNL A   1      47.088  27.901  33.873  1.00  0.00     0.040 A 
ATOM     76  F   UNL A   1      44.757  27.927  34.123  1.00  0.00    -0.206 F 
ATOM     77  C   UNL A   1      48.234  28.261  33.165  1.00  0.00     0.006 A 
ENDBRANCH  53  70
ENDBRANCH  27  28
ENDBRANCH  20  22
ENDBRANCH  19  20
ENDBRANCH  18  19
ENDBRANCH   1  18
TORSDOF 15
ENDMDL
MODEL 2
REMARK VINA RESULT:      -8.6      0.956      6.616
REMARK SMILES Cc1cc(F)cc(/C=C/C(=O)OCCOCCOC(=O)c2ccc(-c3c4nc(c(-c5c(F)cccc5F)c5ccc([nH]5)c(-c5c(F)cccc5F)c5nc(c(-c6c(F)cccc6F)c6ccc3[nH]6)C=C5)C=C4)cc2)c1
REMARK SMILES IDX 16 1 15 2 14 3 13 4 12 5 10 6 11 7 9 8 8 9 7 10 1 11 2 12
REMARK SMILES IDX 3 13 75 14 4 15 5 16 6 17 17 18 18 19 19 20 20 21 21 22
REMARK SMILES IDX 22 23 74 24 23 25 73 26 24 27 25 28 26 29 67 30 27 31 72 32
REMARK SMILES IDX 66 33 68 34 28 35 71 36 65 37 64 38 29 40 55 41 38 42 54 43
REMARK SMILES IDX 39 44 42 45 53 46 69 47 40 48 41 49 52 51 70 52 43 53 30 54
REMARK SMILES IDX 31 55 36 56 32 57 33 58 35 59 37 60 34 61 56 62 57 63 62 64
REMARK SMILES IDX 58 65 59 66 61 67 63 68 60 69 44 70 45 71 50 72 46 73 47 74
REMARK SMILES IDX 49 75 51 76 48 77
REMARK H PARENT 68 39 42 50
REMARK Flexibility Score: inf
ROOT
ATOM      1  C   UNL A   1      32.568  36.019  30.926  1.00  0.00     0.202 C 
ENDROOT
BRANCH   1   2
ATOM      2  O   UNL A   1      32.532  36.941  32.017  1.00  0.00    -0.374 OA
BRANCH   2   3
ATOM      3  C   UNL A   1      33.780  37.259  32.631  1.00  0.00     0.202 C 
BRANCH   3   4
ATOM      4  C   UNL A   1      34.224  36.314  33.749  1.00  0.00     0.261 C 
BRANCH   4   5
ATOM      5  O   UNL A   1      35.200  35.368  33.276  1.00  0.00    -0.460 OA
BRANCH   5   6
ATOM      6  C   UNL A   1      34.820  34.071  33.344  1.00  0.00     0.330 C 
ATOM      7  O   UNL A   1      33.679  33.641  33.258  1.00  0.00    -0.247 OA
BRANCH   6   8
ATOM      8  C   UNL A   1      35.966  33.149  33.472  1.00  0.00     0.094 C 
ATOM      9  C   UNL A   1      36.032  31.877  33.048  1.00  0.00     0.016 C 
BRANCH   9  10
ATOM     10  C   UNL A   1      37.232  31.041  33.246  1.00  0.00    -0.022 A 
ATOM     11  C   UNL A   1      38.573  27.656  32.064  1.00  0.00     0.044 C 
ATOM     12  C   UNL A   1      38.459  28.977  32.766  1.00  0.00    -0.048 A 
ATOM     13  C   UNL A   1      39.516  29.426  33.563  1.00  0.00     0.042 A 
ATOM     14  C   UNL A   1      37.320  29.789  32.615  1.00  0.00     0.011 A 
ATOM     15  C   UNL A   1      39.416  30.649  34.213  1.00  0.00     0.124 A 
ATOM     16  F   UNL A   1      40.428  31.069  34.984  1.00  0.00    -0.207 F 
ATOM     17  C   UNL A   1      38.287  31.448  34.073  1.00  0.00     0.047 A 
ENDBRANCH   9  10
ENDBRANCH   6   8
ENDBRANCH   5   6
ENDBRANCH   4   5
ENDBRANCH   3   4
ENDBRANCH   2   3
ENDBRANCH   1   2
BRANCH   1  18
ATOM     18  C   UNL A   1      32.651  36.650  29.530  1.00  0.00     0.261 C 
BRANCH  18  19
ATOM     19  O   UNL A   1      33.610  35.974  28.696  1.00  0.00    -0.460 OA
BRANCH  19  20
ATOM     20  C   UNL A   1      33.352  34.665  28.466  1.00  0.00     0.338 C 
ATOM     21  O   UNL A   1      32.311  34.176  28.044  1.00  0.00    -0.246 OA
BRANCH  20  22
ATOM     22  C   UNL A   1      34.584  33.871  28.630  1.00  0.00     0.060 A 
ATOM     23  C   UNL A   1      34.544  32.790  29.519  1.00  0.00     0.016 A 
ATOM     24  C   UNL A   1      35.771  34.211  27.980  1.00  0.00     0.016 A 
ATOM     25  C   UNL A   1      35.705  32.071  29.797  1.00  0.00     0.010 A 
ATOM     26  C   UNL A   1      36.938  33.493  28.267  1.00  0.00     0.010 A 
ATOM     27  C   UNL A   1      36.918  32.442  29.201  1.00  0.00    -0.014 A 
BRANCH  27  28
ATOM     28  C   UNL A   1      38.182  31.819  29.662  1.00  0.00     0.031 A 
ATOM     29  C   UNL A   1      39.051  32.566  30.635  1.00  0.00     0.074 A 
ATOM     30  C   UNL A   1      38.542  30.595  29.239  1.00  0.00     0.049 A 
ATOM     31  N   UNL A   1      40.208  32.228  31.145  1.00  0.00    -0.248 NA
ATOM     32  C   UNL A   1      38.549  33.871  31.095  1.00  0.00     0.031 C 
ATOM     33  C   UNL A   1      37.768  29.756  28.326  1.00  0.00     0.029 A 
ATOM     34  N   UNL A   1      39.657  29.848  29.522  1.00  0.00    -0.354 N 
ATOM     35  C   UNL A   1      40.574  33.277  31.979  1.00  0.00     0.074 A 
ATOM     36  C   UNL A   1      39.533  34.276  31.884  1.00  0.00     0.031 C 
ATOM     37  C   UNL A   1      38.439  28.609  28.116  1.00  0.00     0.029 A 
ATOM     38  C   UNL A   1      39.698  28.648  28.857  1.00  0.00     0.049 A 
ATOM     39  H   UNL A   1      40.361  30.146  30.142  1.00  0.00     0.167 HD
ATOM     40  C   UNL A   1      41.675  33.392  32.758  1.00  0.00     0.037 A 
ATOM     41  C   UNL A   1      40.653  27.698  28.834  1.00  0.00     0.037 A 
ATOM     42  C   UNL A   1      42.710  32.398  32.855  1.00  0.00     0.049 A 
ATOM     43  C   UNL A   1      41.900  27.881  29.658  1.00  0.00     0.074 A 
ATOM     44  C   UNL A   1      43.853  32.414  33.637  1.00  0.00     0.029 A 
ATOM     45  N   UNL A   1      42.731  31.210  32.141  1.00  0.00    -0.354 N 
ATOM     46  N   UNL A   1      42.225  28.864  30.462  1.00  0.00    -0.248 NA
ATOM     47  C   UNL A   1      42.915  26.820  29.570  1.00  0.00     0.031 C 
ATOM     48  C   UNL A   1      44.588  31.257  33.361  1.00  0.00     0.029 A 
ATOM     49  C   UNL A   1      43.880  30.496  32.444  1.00  0.00     0.049 A 
ATOM     50  H   UNL A   1      42.033  30.916  31.512  1.00  0.00     0.167 HD
ATOM     51  C   UNL A   1      43.462  28.527  30.998  1.00  0.00     0.074 A 
ATOM     52  C   UNL A   1      43.827  27.246  30.433  1.00  0.00     0.031 C 
ATOM     53  C   UNL A   1      44.226  29.218  31.879  1.00  0.00     0.037 A 
BRANCH  40  54
ATOM     54  C   UNL A   1      41.828  34.656  33.553  1.00  0.00     0.057 A 
ATOM     55  C   UNL A   1      41.188  34.836  34.786  1.00  0.00     0.134 A 
ATOM     56  C   UNL A   1      42.650  35.692  33.093  1.00  0.00     0.134 A 
ATOM     57  F   UNL A   1      40.376  33.887  35.275  1.00  0.00    -0.206 F 
ATOM     58  C   UNL A   1      41.343  36.011  35.523  1.00  0.00     0.040 A 
ATOM     59  C   UNL A   1      42.832  36.862  33.832  1.00  0.00     0.040 A 
ATOM     60  F   UNL A   1      43.294  35.582  31.921  1.00  0.00    -0.206 F 
ATOM     61  C   UNL A   1      42.172  37.026  35.049  1.00  0.00     0.006 A 
ENDBRANCH  40  54
BRANCH  41  62
ATOM     62  C   UNL A   1      40.477  26.487  27.996  1.00  0.00     0.057 A 
ATOM     63  C   UNL A   1      39.635  25.443  28.396  1.00  0.00     0.134 A 
ATOM     64  C   UNL A   1      41.162  26.334  26.784  1.00  0.00     0.134 A 
ATOM     65  F   UNL A   1      38.971  25.521  29.559  1.00  0.00    -0.206 F 
ATOM     66  C   UNL A   1      39.492  24.285  27.632  1.00  0.00     0.040 A 
ATOM     67  C   UNL A   1      41.011  25.192  25.998  1.00  0.00     0.040 A 
ATOM     68  F   UNL A   1      41.985  27.298  26.345  1.00  0.00    -0.206 F 
ATOM     69  C   UNL A   1      40.178  24.160  26.424  1.00  0.00     0.006 A 
ENDBRANCH  41  62
BRANCH  53  70
ATOM     70  C   UNL A   1      45.516  28.585  32.316  1.00  0.00     0.057 A 
ATOM     71  C   UNL A   1      45.590  27.762  33.446  1.00  0.00     0.134 A 
ATOM     72  C   UNL A   1      46.688  28.771  31.572  1.00  0.00     0.134 A 
ATOM     73  F   UNL A   1      44.506  27.555  34.208  1.00  0.00    -0.206 F 
ATOM     74  C   UNL A   1      46.790  27.160  33.831  1.00  0.00     0.040 A 
ATOM     75  C   UNL A   1      47.887  28.156  31.933  1.00  0.00     0.040 A 
ATOM     76  F   UNL A   1      46.682  29.541  30.473  1.00  0.00    -0.206 F 
ATOM     77  C   UNL A   1      47.941  27.351  33.070  1.00  0.00     0.006 A 
ENDBRANCH  53  70
ENDBRANCH  27  28
ENDBRANCH  20  22
ENDBRANCH  19  20
ENDBRANCH  18  19
ENDBRANCH   1  18
TORSDOF 15
ENDMDL
MODEL 3
REMARK VINA RESULT:      -8.4      5.566     11.049
REMARK SMILES Cc1cc(F)cc(/C=C/C(=O)OCCOCCOC(=O)c2ccc(-c3c4nc(c(-c5c(F)cccc5F)c5ccc([nH]5)c(-c5c(F)cccc5F)c5nc(c(-c6c(F)cccc6F)c6ccc3[nH]6)C=C5)C=C4)cc2)c1
REMARK SMILES IDX 16 1 15 2 14 3 13 4 12 5 10 6 11 7 9 8 8 9 7 10 1 11 2 12
REMARK SMILES IDX 3 13 75 14 4 15 5 16 6 17 17 18 18 19 19 20 20 21 21 22
REMARK SMILES IDX 22 23 74 24 23 25 73 26 24 27 25 28 26 29 67 30 27 31 72 32
REMARK SMILES IDX 66 33 68 34 28 35 71 36 65 37 64 38 29 40 55 41 38 42 54 43
REMARK SMILES IDX 39 44 42 45 53 46 69 47 40 48 41 49 52 51 70 52 43 53 30 54
REMARK SMILES IDX 31 55 36 56 32 57 33 58 35 59 37 60 34 61 56 62 57 63 62 64
REMARK SMILES IDX 58 65 59 66 61 67 63 68 60 69 44 70 45 71 50 72 46 73 47 74
REMARK SMILES IDX 49 75 51 76 48 77
REMARK H PARENT 68 39 42 50
REMARK Flexibility Score: inf
ROOT
ATOM      1  C   UNL A   1      45.154  21.749  25.572  1.00  0.00     0.202 C 
ENDROOT
BRANCH   1   2
ATOM      2  O   UNL A   1      46.270  20.881  25.361  1.00  0.00    -0.374 OA
BRANCH   2   3
ATOM      3  C   UNL A   1      46.022  19.680  24.632  1.00  0.00     0.202 C 
BRANCH   3   4
ATOM      4  C   UNL A   1      45.250  18.597  25.388  1.00  0.00     0.261 C 
BRANCH   4   5
ATOM      5  O   UNL A   1      43.872  18.556  24.977  1.00  0.00    -0.460 OA
BRANCH   5   6
ATOM      6  C   UNL A   1      42.975  18.488  25.988  1.00  0.00     0.330 C 
ATOM      7  O   UNL A   1      43.071  17.814  27.003  1.00  0.00    -0.247 OA
BRANCH   6   8
ATOM      8  C   UNL A   1      41.830  19.400  25.793  1.00  0.00     0.094 C 
ATOM      9  C   UNL A   1      41.299  20.237  26.699  1.00  0.00     0.016 C 
BRANCH   9  10
ATOM     10  C   UNL A   1      40.137  21.095  26.394  1.00  0.00    -0.022 A 
ATOM     11  C   UNL A   1      38.971  24.671  27.106  1.00  0.00     0.044 C 
ATOM     12  C   UNL A   1      39.008  23.258  26.605  1.00  0.00    -0.048 A 
ATOM     13  C   UNL A   1      37.961  22.782  25.810  1.00  0.00     0.042 A 
ATOM     14  C   UNL A   1      40.090  22.407  26.894  1.00  0.00     0.011 A 
ATOM     15  C   UNL A   1      37.991  21.476  25.342  1.00  0.00     0.124 A 
ATOM     16  F   UNL A   1      36.979  21.021  24.589  1.00  0.00    -0.207 F 
ATOM     17  C   UNL A   1      39.055  20.630  25.635  1.00  0.00     0.047 A 
ENDBRANCH   9  10
ENDBRANCH   6   8
ENDBRANCH   5   6
ENDBRANCH   4   5
ENDBRANCH   3   4
ENDBRANCH   2   3
ENDBRANCH   1   2
BRANCH   1  18
ATOM     18  C   UNL A   1      44.577  22.401  24.308  1.00  0.00     0.261 C 
BRANCH  18  19
ATOM     19  O   UNL A   1      43.786  23.562  24.623  1.00  0.00    -0.460 OA
BRANCH  19  20
ATOM     20  C   UNL A   1      44.490  24.644  25.031  1.00  0.00     0.338 C 
ATOM     21  O   UNL A   1      45.565  25.038  24.598  1.00  0.00    -0.246 OA
BRANCH  20  22
ATOM     22  C   UNL A   1      43.694  25.429  25.993  1.00  0.00     0.060 A 
ATOM     23  C   UNL A   1      43.874  26.817  26.001  1.00  0.00     0.016 A 
ATOM     24  C   UNL A   1      42.834  24.820  26.909  1.00  0.00     0.016 A 
ATOM     25  C   UNL A   1      43.231  27.600  26.959  1.00  0.00     0.010 A 
ATOM     26  C   UNL A   1      42.197  25.606  27.876  1.00  0.00     0.010 A 
ATOM     27  C   UNL A   1      42.418  26.994  27.926  1.00  0.00    -0.014 A 
BRANCH  27  28
ATOM     28  C   UNL A   1      41.914  27.796  29.067  1.00  0.00     0.031 A 
ATOM     29  C   UNL A   1      42.650  27.744  30.377  1.00  0.00     0.074 A 
ATOM     30  C   UNL A   1      40.830  28.579  28.934  1.00  0.00     0.049 A 
ATOM     31  N   UNL A   1      42.371  28.336  31.510  1.00  0.00    -0.248 NA
ATOM     32  C   UNL A   1      43.863  26.911  30.415  1.00  0.00     0.031 C 
ATOM     33  C   UNL A   1      40.053  28.744  27.707  1.00  0.00     0.029 A 
ATOM     34  N   UNL A   1      40.193  29.381  29.848  1.00  0.00    -0.354 N 
ATOM     35  C   UNL A   1      43.368  27.944  32.396  1.00  0.00     0.074 A 
ATOM     36  C   UNL A   1      44.241  27.042  31.678  1.00  0.00     0.031 C 
ATOM     37  C   UNL A   1      39.035  29.590  27.948  1.00  0.00     0.029 A 
ATOM     38  C   UNL A   1      39.075  30.001  29.350  1.00  0.00     0.049 A 
ATOM     39  H   UNL A   1      40.509  29.499  30.772  1.00  0.00     0.167 HD
ATOM     40  C   UNL A   1      43.543  28.311  33.687  1.00  0.00     0.037 A 
ATOM     41  C   UNL A   1      38.175  30.795  29.962  1.00  0.00     0.037 A 
ATOM     42  C   UNL A   1      42.677  29.211  34.401  1.00  0.00     0.049 A 
ATOM     43  C   UNL A   1      38.355  31.134  31.418  1.00  0.00     0.074 A 
ATOM     44  C   UNL A   1      42.787  29.662  35.705  1.00  0.00     0.029 A 
ATOM     45  N   UNL A   1      41.536  29.794  33.871  1.00  0.00    -0.354 N 
ATOM     46  N   UNL A   1      39.314  30.780  32.238  1.00  0.00    -0.248 NA
ATOM     47  C   UNL A   1      37.326  31.985  32.033  1.00  0.00     0.031 C 
ATOM     48  C   UNL A   1      41.686  30.481  35.979  1.00  0.00     0.029 A 
ATOM     49  C   UNL A   1      40.917  30.579  34.830  1.00  0.00     0.049 A 
ATOM     50  H   UNL A   1      41.213  29.668  32.950  1.00  0.00     0.167 HD
ATOM     51  C   UNL A   1      39.021  31.387  33.454  1.00  0.00     0.074 A 
ATOM     52  C   UNL A   1      37.799  32.138  33.262  1.00  0.00     0.031 C 
ATOM     53  C   UNL A   1      39.705  31.328  34.623  1.00  0.00     0.037 A 
BRANCH  40  54
ATOM     54  C   UNL A   1      44.708  27.715  34.421  1.00  0.00     0.057 A 
ATOM     55  C   UNL A   1      44.627  26.465  35.048  1.00  0.00     0.134 A 
ATOM     56  C   UNL A   1      45.936  28.387  34.473  1.00  0.00     0.134 A 
ATOM     57  F   UNL A   1      43.475  25.778  35.046  1.00  0.00    -0.206 F 
ATOM     58  C   UNL A   1      45.719  25.914  35.720  1.00  0.00     0.040 A 
ATOM     59  C   UNL A   1      47.042  27.835  35.122  1.00  0.00     0.040 A 
ATOM     60  F   UNL A   1      46.082  29.586  33.890  1.00  0.00    -0.206 F 
ATOM     61  C   UNL A   1      46.933  26.597  35.753  1.00  0.00     0.006 A 
ENDBRANCH  40  54
BRANCH  41  62
ATOM     62  C   UNL A   1      37.013  31.323  29.205  1.00  0.00     0.057 A 
ATOM     63  C   UNL A   1      35.892  30.526  28.949  1.00  0.00     0.134 A 
ATOM     64  C   UNL A   1      37.005  32.629  28.701  1.00  0.00     0.134 A 
ATOM     65  F   UNL A   1      35.852  29.259  29.385  1.00  0.00    -0.206 F 
ATOM     66  C   UNL A   1      34.811  31.002  28.207  1.00  0.00     0.040 A 
ATOM     67  C   UNL A   1      35.921  33.127  27.977  1.00  0.00     0.040 A 
ATOM     68  F   UNL A   1      38.050  33.444  28.911  1.00  0.00    -0.206 F 
ATOM     69  C   UNL A   1      34.821  32.310  27.723  1.00  0.00     0.006 A 
ENDBRANCH  41  62
BRANCH  53  70
ATOM     70  C   UNL A   1      39.168  32.125  35.776  1.00  0.00     0.057 A 
ATOM     71  C   UNL A   1      39.485  33.477  35.952  1.00  0.00     0.134 A 
ATOM     72  C   UNL A   1      38.289  31.540  36.697  1.00  0.00     0.134 A 
ATOM     73  F   UNL A   1      40.330  34.092  35.111  1.00  0.00    -0.206 F 
ATOM     74  C   UNL A   1      38.962  34.216  37.016  1.00  0.00     0.040 A 
ATOM     75  C   UNL A   1      37.741  32.274  37.750  1.00  0.00     0.040 A 
ATOM     76  F   UNL A   1      37.938  30.251  36.581  1.00  0.00    -0.206 F 
ATOM     77  C   UNL A   1      38.082  33.615  37.914  1.00  0.00     0.006 A 
ENDBRANCH  53  70
ENDBRANCH  27  28
ENDBRANCH  20  22
ENDBRANCH  19  20
ENDBRANCH  18  19
ENDBRANCH   1  18
TORSDOF 15
ENDMDL
