MODEL 1
REMARK VINA RESULT:     -11.3      0.000      0.000
REMARK SMILES CC(C)C[C@H](NC(=O)CNC(=O)[C@@H](NC(=O)OCc1ccccc1)C(C)C)C(=O)N[C@@H](C)C(=O)OCCOCCOC(=O)c1ccc(-c2c3nc(c(-c4c(F)cccc4F)c4ccc([nH]4)c(-c4c(F)cccc4F)c4nc(c(-c5c(F)cccc5F)c5ccc2[nH]5)C=C4)C=C3)cc1
REMARK SMILES IDX 33 1 34 2 31 3 32 4 30 5 28 6 29 7 5 9 4 10 2 11 1 12 3 13
REMARK SMILES IDX 6 14 7 15 8 17 9 18 10 19 11 20 12 22 13 23 14 24 15 25
REMARK SMILES IDX 16 27 17 28 18 29 19 30 20 31 24 32 21 33 23 34 22 35 25 36
REMARK SMILES IDX 26 37 27 38 35 39 36 40 37 41 38 42 39 43 40 44 41 45 42 46
REMARK SMILES IDX 43 47 44 48 45 49 97 50 46 51 96 52 47 53 48 54 49 55 90 56
REMARK SMILES IDX 50 57 95 58 89 59 91 60 51 61 94 62 88 63 87 64 52 66 78 67
REMARK SMILES IDX 61 68 77 69 62 70 65 71 76 72 92 73 63 74 64 75 75 77 93 78
REMARK SMILES IDX 66 79 53 80 54 81 59 82 55 83 56 84 58 85 60 86 57 87 79 88
REMARK SMILES IDX 80 89 85 90 81 91 82 92 84 93 86 94 83 95 67 96 68 97 73 98
REMARK SMILES IDX 69 99 70 100 72 101 74 102 71 103
REMARK H PARENT 30 8 6 16 10 21 14 26 91 65 65 76
REMARK Flexibility Score: inf
ROOT
ATOM      1  C   UNL A   1      37.846  21.487  25.537  1.00  0.00     0.328 C 
ATOM      2  O   UNL A   1      37.713  20.475  24.857  1.00  0.00    -0.250 OA
ENDROOT
BRANCH   1   3
ATOM      3  C   UNL A   1      36.687  22.481  25.760  1.00  0.00     0.189 C 
ATOM      4  C   UNL A   1      37.296  23.778  26.278  1.00  0.00     0.043 C 
BRANCH   3   5
ATOM      5  N   UNL A   1      35.611  22.076  26.678  1.00  0.00    -0.341 N 
ATOM      6  C   UNL A   1      34.356  21.579  26.453  1.00  0.00     0.243 C 
ATOM      7  O   UNL A   1      33.686  21.309  27.457  1.00  0.00    -0.273 OA
ATOM      8  H   UNL A   1      35.835  22.182  27.631  1.00  0.00     0.164 HD
BRANCH   6   9
ATOM      9  C   UNL A   1      33.853  21.134  25.044  1.00  0.00     0.171 C 
BRANCH   9  10
ATOM     10  C   UNL A   1      34.062  19.633  24.906  1.00  0.00     0.038 C 
BRANCH  10  11
ATOM     11  C   UNL A   1      32.880  18.704  24.593  1.00  0.00    -0.015 C 
ATOM     12  C   UNL A   1      32.662  18.090  23.215  1.00  0.00     0.007 C 
ATOM     13  C   UNL A   1      32.707  17.639  25.690  1.00  0.00     0.007 C 
ENDBRANCH  10  11
ENDBRANCH   9  10
BRANCH   9  14
ATOM     14  N   UNL A   1      34.500  21.896  23.958  1.00  0.00    -0.343 N 
ATOM     15  C   UNL A   1      34.151  22.845  23.054  1.00  0.00     0.240 C 
ATOM     16  H   UNL A   1      35.447  21.647  23.864  1.00  0.00     0.164 HD
ATOM     17  O   UNL A   1      35.112  23.316  22.424  1.00  0.00    -0.273 OA
BRANCH  15  18
ATOM     18  C   UNL A   1      32.752  23.469  22.812  1.00  0.00     0.216 C 
BRANCH  18  19
ATOM     19  N   UNL A   1      32.443  24.233  21.614  1.00  0.00    -0.345 N 
ATOM     20  C   UNL A   1      32.237  25.558  21.373  1.00  0.00     0.243 C 
ATOM     21  H   UNL A   1      32.367  23.674  20.806  1.00  0.00     0.164 HD
ATOM     22  O   UNL A   1      32.109  25.861  20.180  1.00  0.00    -0.273 OA
BRANCH  20  23
ATOM     23  C   UNL A   1      32.102  26.664  22.480  1.00  0.00     0.177 C 
BRANCH  23  24
ATOM     24  N   UNL A   1      31.058  26.410  23.473  1.00  0.00    -0.309 N 
ATOM     25  C   UNL A   1      30.256  27.179  24.231  1.00  0.00     0.408 C 
ATOM     26  H   UNL A   1      30.905  25.449  23.620  1.00  0.00     0.167 HD
ATOM     27  O   UNL A   1      29.679  26.681  25.190  1.00  0.00    -0.225 OA
BRANCH  25  28
ATOM     28  O   UNL A   1      30.136  28.443  23.799  1.00  0.00    -0.445 OA
BRANCH  28  29
ATOM     29  C   UNL A   1      29.028  28.642  22.918  1.00  0.00     0.270 C 
BRANCH  29  30
ATOM     30  C   UNL A   1      28.709  30.093  22.604  1.00  0.00    -0.011 A 
ATOM     31  C   UNL A   1      28.777  31.139  23.542  1.00  0.00     0.007 A 
ATOM     32  C   UNL A   1      28.414  30.423  21.274  1.00  0.00     0.007 A 
ATOM     33  C   UNL A   1      28.564  32.465  23.164  1.00  0.00     0.000 A 
ATOM     34  C   UNL A   1      28.191  31.748  20.897  1.00  0.00     0.000 A 
ATOM     35  C   UNL A   1      28.270  32.769  21.841  1.00  0.00     0.000 A 
ENDBRANCH  29  30
ENDBRANCH  28  29
ENDBRANCH  25  28
ENDBRANCH  23  24
BRANCH  23  36
ATOM     36  C   UNL A   1      33.436  27.234  22.997  1.00  0.00     0.015 C 
ATOM     37  C   UNL A   1      33.359  28.752  23.219  1.00  0.00     0.010 C 
ATOM     38  C   UNL A   1      33.828  26.610  24.346  1.00  0.00     0.010 C 
ENDBRANCH  23  36
ENDBRANCH  20  23
ENDBRANCH  18  19
ENDBRANCH  15  18
ENDBRANCH   9  14
ENDBRANCH   6   9
ENDBRANCH   3   5
ENDBRANCH   1   3
BRANCH   1  39
ATOM     39  O   UNL A   1      39.018  21.890  26.103  1.00  0.00    -0.462 OA
BRANCH  39  40
ATOM     40  C   UNL A   1      40.027  20.863  26.234  1.00  0.00     0.261 C 
BRANCH  40  41
ATOM     41  C   UNL A   1      40.889  21.078  27.485  1.00  0.00     0.202 C 
BRANCH  41  42
ATOM     42  O   UNL A   1      42.298  21.023  27.268  1.00  0.00    -0.374 OA
BRANCH  42  43
ATOM     43  C   UNL A   1      42.716  21.034  25.911  1.00  0.00     0.202 C 
BRANCH  43  44
ATOM     44  C   UNL A   1      43.437  22.279  25.418  1.00  0.00     0.261 C 
BRANCH  44  45
ATOM     45  O   UNL A   1      42.944  23.431  26.029  1.00  0.00    -0.460 OA
BRANCH  45  46
ATOM     46  C   UNL A   1      43.622  24.545  25.736  1.00  0.00     0.338 C 
ATOM     47  O   UNL A   1      44.370  24.808  24.820  1.00  0.00    -0.246 OA
BRANCH  46  48
ATOM     48  C   UNL A   1      43.112  25.419  26.766  1.00  0.00     0.060 A 
ATOM     49  C   UNL A   1      43.503  26.752  26.715  1.00  0.00     0.016 A 
ATOM     50  C   UNL A   1      42.103  24.933  27.612  1.00  0.00     0.016 A 
ATOM     51  C   UNL A   1      42.920  27.622  27.607  1.00  0.00     0.010 A 
ATOM     52  C   UNL A   1      41.495  25.810  28.474  1.00  0.00     0.010 A 
ATOM     53  C   UNL A   1      41.958  27.132  28.505  1.00  0.00    -0.014 A 
BRANCH  53  54
ATOM     54  C   UNL A   1      41.602  27.958  29.651  1.00  0.00     0.031 A 
ATOM     55  C   UNL A   1      40.392  28.823  29.513  1.00  0.00     0.074 A 
ATOM     56  C   UNL A   1      42.343  27.878  30.761  1.00  0.00     0.049 A 
ATOM     57  N   UNL A   1      39.851  29.625  30.384  1.00  0.00    -0.248 NA
ATOM     58  C   UNL A   1      39.701  28.792  28.209  1.00  0.00     0.031 C 
ATOM     59  C   UNL A   1      43.524  27.029  30.932  1.00  0.00     0.029 A 
ATOM     60  N   UNL A   1      42.197  28.513  31.956  1.00  0.00    -0.354 N 
ATOM     61  C   UNL A   1      38.772  30.201  29.731  1.00  0.00     0.074 A 
ATOM     62  C   UNL A   1      38.759  29.703  28.378  1.00  0.00     0.031 C 
ATOM     63  C   UNL A   1      43.983  27.180  32.185  1.00  0.00     0.029 A 
ATOM     64  C   UNL A   1      43.148  28.157  32.874  1.00  0.00     0.049 A 
ATOM     65  H   UNL A   1      41.481  29.163  32.141  1.00  0.00     0.167 HD
ATOM     66  C   UNL A   1      37.863  31.062  30.239  1.00  0.00     0.037 A 
ATOM     67  C   UNL A   1      43.304  28.592  34.135  1.00  0.00     0.037 A 
ATOM     68  C   UNL A   1      37.917  31.528  31.596  1.00  0.00     0.049 A 
ATOM     69  C   UNL A   1      42.309  29.589  34.658  1.00  0.00     0.074 A 
ATOM     70  C   UNL A   1      37.051  32.373  32.256  1.00  0.00     0.029 A 
ATOM     71  N   UNL A   1      38.919  31.184  32.499  1.00  0.00    -0.354 N 
ATOM     72  N   UNL A   1      41.257  30.101  34.061  1.00  0.00    -0.248 NA
ATOM     73  C   UNL A   1      42.519  30.064  36.028  1.00  0.00     0.031 C 
ATOM     74  C   UNL A   1      37.562  32.593  33.540  1.00  0.00     0.029 A 
ATOM     75  C   UNL A   1      38.713  31.831  33.702  1.00  0.00     0.049 A 
ATOM     76  H   UNL A   1      39.664  30.570  32.309  1.00  0.00     0.167 HD
ATOM     77  C   UNL A   1      40.660  30.940  34.991  1.00  0.00     0.074 A 
ATOM     78  C   UNL A   1      41.467  30.853  36.195  1.00  0.00     0.031 C 
ATOM     79  C   UNL A   1      39.550  31.711  34.871  1.00  0.00     0.037 A 
BRANCH  66  80
ATOM     80  C   UNL A   1      36.800  31.566  29.310  1.00  0.00     0.057 A 
ATOM     81  C   UNL A   1      36.831  32.858  28.762  1.00  0.00     0.134 A 
ATOM     82  C   UNL A   1      35.704  30.757  28.986  1.00  0.00     0.134 A 
ATOM     83  F   UNL A   1      37.836  33.698  29.055  1.00  0.00    -0.206 F 
ATOM     84  C   UNL A   1      35.794  33.337  27.958  1.00  0.00     0.040 A 
ATOM     85  C   UNL A   1      34.679  31.213  28.155  1.00  0.00     0.040 A 
ATOM     86  F   UNL A   1      35.604  29.515  29.482  1.00  0.00    -0.206 F 
ATOM     87  C   UNL A   1      34.717  32.510  27.647  1.00  0.00     0.006 A 
ENDBRANCH  66  80
BRANCH  67  88
ATOM     88  C   UNL A   1      44.407  28.059  34.967  1.00  0.00     0.057 A 
ATOM     89  C   UNL A   1      45.655  28.687  34.992  1.00  0.00     0.134 A 
ATOM     90  C   UNL A   1      44.232  26.935  35.783  1.00  0.00     0.134 A 
ATOM     91  F   UNL A   1      45.884  29.766  34.229  1.00  0.00    -0.206 F 
ATOM     92  C   UNL A   1      46.697  28.208  35.787  1.00  0.00     0.040 A 
ATOM     93  C   UNL A   1      45.256  26.461  36.603  1.00  0.00     0.040 A 
ATOM     94  F   UNL A   1      43.050  26.300  35.819  1.00  0.00    -0.206 F 
ATOM     95  C   UNL A   1      46.497  27.095  36.600  1.00  0.00     0.006 A 
ENDBRANCH  67  88
BRANCH  79  96
ATOM     96  C   UNL A   1      39.136  32.485  36.088  1.00  0.00     0.057 A 
ATOM     97  C   UNL A   1      38.296  31.936  37.064  1.00  0.00     0.134 A 
ATOM     98  C   UNL A   1      39.625  33.780  36.300  1.00  0.00     0.134 A 
ATOM     99  F   UNL A   1      37.788  30.704  36.911  1.00  0.00    -0.206 F 
ATOM    100  C   UNL A   1      37.931  32.662  38.197  1.00  0.00     0.040 A 
ATOM    101  C   UNL A   1      39.294  34.502  37.445  1.00  0.00     0.040 A 
ATOM    102  F   UNL A   1      40.444  34.357  35.407  1.00  0.00    -0.206 F 
ATOM    103  C   UNL A   1      38.438  33.946  38.393  1.00  0.00     0.006 A 
ENDBRANCH  79  96
ENDBRANCH  53  54
ENDBRANCH  46  48
ENDBRANCH  45  46
ENDBRANCH  44  45
ENDBRANCH  43  44
ENDBRANCH  42  43
ENDBRANCH  41  42
ENDBRANCH  40  41
ENDBRANCH  39  40
ENDBRANCH   1  39
TORSDOF 27
ENDMDL
MODEL 2
REMARK VINA RESULT:     -11.2      0.995      5.956
REMARK SMILES CC(C)C[C@H](NC(=O)CNC(=O)[C@@H](NC(=O)OCc1ccccc1)C(C)C)C(=O)N[C@@H](C)C(=O)OCCOCCOC(=O)c1ccc(-c2c3nc(c(-c4c(F)cccc4F)c4ccc([nH]4)c(-c4c(F)cccc4F)c4nc(c(-c5c(F)cccc5F)c5ccc2[nH]5)C=C4)C=C3)cc1
REMARK SMILES IDX 33 1 34 2 31 3 32 4 30 5 28 6 29 7 5 9 4 10 2 11 1 12 3 13
REMARK SMILES IDX 6 14 7 15 8 17 9 18 10 19 11 20 12 22 13 23 14 24 15 25
REMARK SMILES IDX 16 27 17 28 18 29 19 30 20 31 24 32 21 33 23 34 22 35 25 36
REMARK SMILES IDX 26 37 27 38 35 39 36 40 37 41 38 42 39 43 40 44 41 45 42 46
REMARK SMILES IDX 43 47 44 48 45 49 97 50 46 51 96 52 47 53 48 54 49 55 90 56
REMARK SMILES IDX 50 57 95 58 89 59 91 60 51 61 94 62 88 63 87 64 52 66 78 67
REMARK SMILES IDX 61 68 77 69 62 70 65 71 76 72 92 73 63 74 64 75 75 77 93 78
REMARK SMILES IDX 66 79 53 80 54 81 59 82 55 83 56 84 58 85 60 86 57 87 79 88
REMARK SMILES IDX 80 89 85 90 81 91 82 92 84 93 86 94 83 95 67 96 68 97 73 98
REMARK SMILES IDX 69 99 70 100 72 101 74 102 71 103
REMARK H PARENT 30 8 6 16 10 21 14 26 91 65 65 76
REMARK Flexibility Score: inf
ROOT
ATOM      1  C   UNL A   1      38.154  21.433  25.685  1.00  0.00     0.328 C 
ATOM      2  O   UNL A   1      38.309  20.389  25.060  1.00  0.00    -0.250 OA
ENDROOT
BRANCH   1   3
ATOM      3  C   UNL A   1      36.865  22.272  25.570  1.00  0.00     0.189 C 
ATOM      4  C   UNL A   1      37.260  23.734  25.743  1.00  0.00     0.043 C 
BRANCH   3   5
ATOM      5  N   UNL A   1      35.773  21.975  26.511  1.00  0.00    -0.341 N 
ATOM      6  C   UNL A   1      34.483  21.564  26.312  1.00  0.00     0.243 C 
ATOM      7  O   UNL A   1      33.807  21.374  27.329  1.00  0.00    -0.273 OA
ATOM      8  H   UNL A   1      36.015  22.093  27.458  1.00  0.00     0.164 HD
BRANCH   6   9
ATOM      9  C   UNL A   1      33.933  21.115  24.921  1.00  0.00     0.171 C 
BRANCH   9  10
ATOM     10  C   UNL A   1      34.470  19.725  24.613  1.00  0.00     0.038 C 
BRANCH  10  11
ATOM     11  C   UNL A   1      33.510  18.548  24.383  1.00  0.00    -0.015 C 
ATOM     12  C   UNL A   1      32.821  17.816  25.528  1.00  0.00     0.007 C 
ATOM     13  C   UNL A   1      32.503  18.866  23.264  1.00  0.00     0.007 C 
ENDBRANCH  10  11
ENDBRANCH   9  10
BRANCH   9  14
ATOM     14  N   UNL A   1      34.250  22.089  23.859  1.00  0.00    -0.343 N 
ATOM     15  C   UNL A   1      33.574  22.919  23.025  1.00  0.00     0.240 C 
ATOM     16  H   UNL A   1      35.221  22.156  23.716  1.00  0.00     0.164 HD
ATOM     17  O   UNL A   1      34.304  23.696  22.390  1.00  0.00    -0.273 OA
BRANCH  15  18
ATOM     18  C   UNL A   1      32.039  23.079  22.872  1.00  0.00     0.216 C 
BRANCH  18  19
ATOM     19  N   UNL A   1      31.433  24.318  22.412  1.00  0.00    -0.345 N 
ATOM     20  C   UNL A   1      31.390  25.584  22.914  1.00  0.00     0.243 C 
ATOM     21  H   UNL A   1      30.952  24.221  21.558  1.00  0.00     0.164 HD
ATOM     22  O   UNL A   1      30.868  26.425  22.171  1.00  0.00    -0.273 OA
BRANCH  20  23
ATOM     23  C   UNL A   1      31.892  26.005  24.341  1.00  0.00     0.177 C 
BRANCH  23  24
ATOM     24  N   UNL A   1      32.844  27.115  24.350  1.00  0.00    -0.309 N 
ATOM     25  C   UNL A   1      32.940  28.294  23.708  1.00  0.00     0.408 C 
ATOM     26  H   UNL A   1      33.592  26.965  24.973  1.00  0.00     0.167 HD
ATOM     27  O   UNL A   1      34.011  28.890  23.706  1.00  0.00    -0.225 OA
BRANCH  25  28
ATOM     28  O   UNL A   1      31.790  28.722  23.168  1.00  0.00    -0.445 OA
BRANCH  28  29
ATOM     29  C   UNL A   1      31.060  29.613  24.013  1.00  0.00     0.270 C 
BRANCH  29  30
ATOM     30  C   UNL A   1      29.823  30.229  23.383  1.00  0.00    -0.011 A 
ATOM     31  C   UNL A   1      29.098  31.297  23.942  1.00  0.00     0.007 A 
ATOM     32  C   UNL A   1      29.432  29.760  22.121  1.00  0.00     0.007 A 
ATOM     33  C   UNL A   1      28.027  31.879  23.263  1.00  0.00     0.000 A 
ATOM     34  C   UNL A   1      28.354  30.336  21.446  1.00  0.00     0.000 A 
ATOM     35  C   UNL A   1      27.655  31.397  22.014  1.00  0.00     0.000 A 
ENDBRANCH  29  30
ENDBRANCH  28  29
ENDBRANCH  25  28
ENDBRANCH  23  24
BRANCH  23  36
ATOM     36  C   UNL A   1      30.813  25.998  25.439  1.00  0.00     0.015 C 
ATOM     37  C   UNL A   1      30.774  24.658  26.191  1.00  0.00     0.010 C 
ATOM     38  C   UNL A   1      31.078  27.086  26.493  1.00  0.00     0.010 C 
ENDBRANCH  23  36
ENDBRANCH  20  23
ENDBRANCH  18  19
ENDBRANCH  15  18
ENDBRANCH   9  14
ENDBRANCH   6   9
ENDBRANCH   3   5
ENDBRANCH   1   3
BRANCH   1  39
ATOM     39  O   UNL A   1      39.102  22.004  26.481  1.00  0.00    -0.462 OA
BRANCH  39  40
ATOM     40  C   UNL A   1      40.470  21.691  26.137  1.00  0.00     0.261 C 
BRANCH  40  41
ATOM     41  C   UNL A   1      41.287  21.304  27.377  1.00  0.00     0.202 C 
BRANCH  41  42
ATOM     42  O   UNL A   1      42.675  21.075  27.141  1.00  0.00    -0.374 OA
BRANCH  42  43
ATOM     43  C   UNL A   1      43.081  21.078  25.781  1.00  0.00     0.202 C 
BRANCH  43  44
ATOM     44  C   UNL A   1      43.967  22.226  25.323  1.00  0.00     0.261 C 
BRANCH  44  45
ATOM     45  O   UNL A   1      43.293  23.445  25.380  1.00  0.00    -0.460 OA
BRANCH  45  46
ATOM     46  C   UNL A   1      44.089  24.518  25.357  1.00  0.00     0.338 C 
ATOM     47  O   UNL A   1      45.025  24.804  24.641  1.00  0.00    -0.246 OA
BRANCH  46  48
ATOM     48  C   UNL A   1      43.439  25.328  26.360  1.00  0.00     0.060 A 
ATOM     49  C   UNL A   1      43.750  26.682  26.379  1.00  0.00     0.016 A 
ATOM     50  C   UNL A   1      42.392  24.756  27.099  1.00  0.00     0.016 A 
ATOM     51  C   UNL A   1      43.039  27.488  27.239  1.00  0.00     0.010 A 
ATOM     52  C   UNL A   1      41.658  25.568  27.928  1.00  0.00     0.010 A 
ATOM     53  C   UNL A   1      42.035  26.913  28.035  1.00  0.00    -0.014 A 
BRANCH  53  54
ATOM     54  C   UNL A   1      41.530  27.680  29.166  1.00  0.00     0.031 A 
ATOM     55  C   UNL A   1      42.287  27.574  30.449  1.00  0.00     0.074 A 
ATOM     56  C   UNL A   1      40.451  28.451  28.995  1.00  0.00     0.049 A 
ATOM     57  N   UNL A   1      42.065  28.167  31.586  1.00  0.00    -0.248 NA
ATOM     58  C   UNL A   1      43.449  26.664  30.459  1.00  0.00     0.031 C 
ATOM     59  C   UNL A   1      39.697  28.587  27.746  1.00  0.00     0.029 A 
ATOM     60  N   UNL A   1      39.817  29.273  29.873  1.00  0.00    -0.354 N 
ATOM     61  C   UNL A   1      43.045  27.693  32.445  1.00  0.00     0.074 A 
ATOM     62  C   UNL A   1      43.833  26.726  31.721  1.00  0.00     0.031 C 
ATOM     63  C   UNL A   1      38.707  29.474  27.938  1.00  0.00     0.029 A 
ATOM     64  C   UNL A   1      38.747  29.928  29.323  1.00  0.00     0.049 A 
ATOM     65  H   UNL A   1      40.098  29.387  30.810  1.00  0.00     0.167 HD
ATOM     66  C   UNL A   1      43.268  28.059  33.726  1.00  0.00     0.037 A 
ATOM     67  C   UNL A   1      37.904  30.797  29.903  1.00  0.00     0.037 A 
ATOM     68  C   UNL A   1      42.455  29.029  34.403  1.00  0.00     0.049 A 
ATOM     69  C   UNL A   1      38.143  31.147  31.344  1.00  0.00     0.074 A 
ATOM     70  C   UNL A   1      42.580  29.520  35.685  1.00  0.00     0.029 A 
ATOM     71  N   UNL A   1      41.346  29.649  33.835  1.00  0.00    -0.354 N 
ATOM     72  N   UNL A   1      39.099  30.739  32.149  1.00  0.00    -0.248 NA
ATOM     73  C   UNL A   1      37.194  32.079  31.957  1.00  0.00     0.031 C 
ATOM     74  C   UNL A   1      41.509  30.390  35.917  1.00  0.00     0.029 A 
ATOM     75  C   UNL A   1      40.754  30.493  34.756  1.00  0.00     0.049 A 
ATOM     76  H   UNL A   1      41.030  29.509  32.914  1.00  0.00     0.167 HD
ATOM     77  C   UNL A   1      38.884  31.384  33.358  1.00  0.00     0.074 A 
ATOM     78  C   UNL A   1      37.711  32.221  33.170  1.00  0.00     0.031 C 
ATOM     79  C   UNL A   1      39.584  31.303  34.517  1.00  0.00     0.037 A 
BRANCH  66  80
ATOM     80  C   UNL A   1      44.383  27.369  34.453  1.00  0.00     0.057 A 
ATOM     81  C   UNL A   1      44.206  26.144  35.114  1.00  0.00     0.134 A 
ATOM     82  C   UNL A   1      45.650  27.960  34.526  1.00  0.00     0.134 A 
ATOM     83  F   UNL A   1      43.009  25.535  35.111  1.00  0.00    -0.206 F 
ATOM     84  C   UNL A   1      45.236  25.553  35.849  1.00  0.00     0.040 A 
ATOM     85  C   UNL A   1      46.697  27.362  35.229  1.00  0.00     0.040 A 
ATOM     86  F   UNL A   1      45.888  29.136  33.927  1.00  0.00    -0.206 F 
ATOM     87  C   UNL A   1      46.488  26.160  35.901  1.00  0.00     0.006 A 
ENDBRANCH  66  80
BRANCH  67  88
ATOM     88  C   UNL A   1      36.810  31.402  29.110  1.00  0.00     0.057 A 
ATOM     89  C   UNL A   1      35.656  30.673  28.806  1.00  0.00     0.134 A 
ATOM     90  C   UNL A   1      36.871  32.729  28.670  1.00  0.00     0.134 A 
ATOM     91  F   UNL A   1      35.541  29.396  29.200  1.00  0.00    -0.206 F 
ATOM     92  C   UNL A   1      34.607  31.237  28.079  1.00  0.00     0.040 A 
ATOM     93  C   UNL A   1      35.819  33.314  27.963  1.00  0.00     0.040 A 
ATOM     94  F   UNL A   1      37.943  33.487  28.948  1.00  0.00    -0.206 F 
ATOM     95  C   UNL A   1      34.686  32.564  27.660  1.00  0.00     0.006 A 
ENDBRANCH  67  88
BRANCH  79  96
ATOM     96  C   UNL A   1      39.112  32.168  35.648  1.00  0.00     0.057 A 
ATOM     97  C   UNL A   1      39.499  33.508  35.766  1.00  0.00     0.134 A 
ATOM     98  C   UNL A   1      38.223  31.659  36.603  1.00  0.00     0.134 A 
ATOM     99  F   UNL A   1      40.357  34.049  34.887  1.00  0.00    -0.206 F 
ATOM    100  C   UNL A   1      39.042  34.305  36.815  1.00  0.00     0.040 A 
ATOM    101  C   UNL A   1      37.732  32.456  37.636  1.00  0.00     0.040 A 
ATOM    102  F   UNL A   1      37.805  30.386  36.537  1.00  0.00    -0.206 F 
ATOM    103  C   UNL A   1      38.149  33.780  37.748  1.00  0.00     0.006 A 
ENDBRANCH  79  96
ENDBRANCH  53  54
ENDBRANCH  46  48
ENDBRANCH  45  46
ENDBRANCH  44  45
ENDBRANCH  43  44
ENDBRANCH  42  43
ENDBRANCH  41  42
ENDBRANCH  40  41
ENDBRANCH  39  40
ENDBRANCH   1  39
TORSDOF 27
ENDMDL
MODEL 3
REMARK VINA RESULT:     -11.0      3.094      9.885
REMARK SMILES CC(C)C[C@H](NC(=O)CNC(=O)[C@@H](NC(=O)OCc1ccccc1)C(C)C)C(=O)N[C@@H](C)C(=O)OCCOCCOC(=O)c1ccc(-c2c3nc(c(-c4c(F)cccc4F)c4ccc([nH]4)c(-c4c(F)cccc4F)c4nc(c(-c5c(F)cccc5F)c5ccc2[nH]5)C=C4)C=C3)cc1
REMARK SMILES IDX 33 1 34 2 31 3 32 4 30 5 28 6 29 7 5 9 4 10 2 11 1 12 3 13
REMARK SMILES IDX 6 14 7 15 8 17 9 18 10 19 11 20 12 22 13 23 14 24 15 25
REMARK SMILES IDX 16 27 17 28 18 29 19 30 20 31 24 32 21 33 23 34 22 35 25 36
REMARK SMILES IDX 26 37 27 38 35 39 36 40 37 41 38 42 39 43 40 44 41 45 42 46
REMARK SMILES IDX 43 47 44 48 45 49 97 50 46 51 96 52 47 53 48 54 49 55 90 56
REMARK SMILES IDX 50 57 95 58 89 59 91 60 51 61 94 62 88 63 87 64 52 66 78 67
REMARK SMILES IDX 61 68 77 69 62 70 65 71 76 72 92 73 63 74 64 75 75 77 93 78
REMARK SMILES IDX 66 79 53 80 54 81 59 82 55 83 56 84 58 85 60 86 57 87 79 88
REMARK SMILES IDX 80 89 85 90 81 91 82 92 84 93 86 94 83 95 67 96 68 97 73 98
REMARK SMILES IDX 69 99 70 100 72 101 74 102 71 103
REMARK H PARENT 30 8 6 16 10 21 14 26 91 65 65 76
REMARK Flexibility Score: inf
ROOT
ATOM      1  C   UNL A   1      33.341  30.957  27.102  1.00  0.00     0.328 C 
ATOM      2  O   UNL A   1      32.226  31.466  27.085  1.00  0.00    -0.250 OA
ENDROOT
BRANCH   1   3
ATOM      3  C   UNL A   1      33.616  29.567  26.492  1.00  0.00     0.189 C 
ATOM      4  C   UNL A   1      34.841  28.998  27.197  1.00  0.00     0.043 C 
BRANCH   3   5
ATOM      5  N   UNL A   1      33.844  29.494  25.040  1.00  0.00    -0.341 N 
ATOM      6  C   UNL A   1      33.064  29.033  24.015  1.00  0.00     0.243 C 
ATOM      7  O   UNL A   1      33.539  29.132  22.878  1.00  0.00    -0.273 OA
ATOM      8  H   UNL A   1      34.719  29.842  24.753  1.00  0.00     0.164 HD
BRANCH   6   9
ATOM      9  C   UNL A   1      31.567  28.627  24.196  1.00  0.00     0.171 C 
BRANCH   9  10
ATOM     10  C   UNL A   1      30.735  29.893  24.337  1.00  0.00     0.038 C 
BRANCH  10  11
ATOM     11  C   UNL A   1      29.496  30.118  23.456  1.00  0.00    -0.015 C 
ATOM     12  C   UNL A   1      28.594  31.337  23.608  1.00  0.00     0.007 C 
ATOM     13  C   UNL A   1      29.817  29.867  21.974  1.00  0.00     0.007 C 
ENDBRANCH  10  11
ENDBRANCH   9  10
BRANCH   9  14
ATOM     14  N   UNL A   1      31.377  27.698  25.327  1.00  0.00    -0.343 N 
ATOM     15  C   UNL A   1      30.652  26.585  25.599  1.00  0.00     0.240 C 
ATOM     16  H   UNL A   1      31.930  27.960  26.098  1.00  0.00     0.164 HD
ATOM     17  O   UNL A   1      30.954  26.039  26.673  1.00  0.00    -0.273 OA
BRANCH  15  18
ATOM     18  C   UNL A   1      29.609  25.877  24.696  1.00  0.00     0.216 C 
BRANCH  18  19
ATOM     19  N   UNL A   1      29.914  24.650  23.977  1.00  0.00    -0.345 N 
ATOM     20  C   UNL A   1      31.075  23.998  23.685  1.00  0.00     0.243 C 
ATOM     21  H   UNL A   1      29.114  24.195  23.628  1.00  0.00     0.164 HD
ATOM     22  O   UNL A   1      30.934  22.894  23.143  1.00  0.00    -0.273 OA
BRANCH  20  23
ATOM     23  C   UNL A   1      32.517  24.569  23.935  1.00  0.00     0.177 C 
BRANCH  23  24
ATOM     24  N   UNL A   1      33.137  24.133  25.186  1.00  0.00    -0.309 N 
ATOM     25  C   UNL A   1      33.451  22.943  25.731  1.00  0.00     0.408 C 
ATOM     26  H   UNL A   1      33.383  24.889  25.767  1.00  0.00     0.167 HD
ATOM     27  O   UNL A   1      33.700  22.879  26.928  1.00  0.00    -0.225 OA
BRANCH  25  28
ATOM     28  O   UNL A   1      33.508  21.933  24.851  1.00  0.00    -0.445 OA
BRANCH  28  29
ATOM     29  C   UNL A   1      32.673  20.826  25.197  1.00  0.00     0.270 C 
BRANCH  29  30
ATOM     30  C   UNL A   1      32.928  19.555  24.405  1.00  0.00    -0.011 A 
ATOM     31  C   UNL A   1      32.201  19.176  23.263  1.00  0.00     0.007 A 
ATOM     32  C   UNL A   1      34.015  18.757  24.786  1.00  0.00     0.007 A 
ATOM     33  C   UNL A   1      32.549  18.043  22.526  1.00  0.00     0.000 A 
ATOM     34  C   UNL A   1      34.358  17.618  24.055  1.00  0.00     0.000 A 
ATOM     35  C   UNL A   1      33.628  17.264  22.923  1.00  0.00     0.000 A 
ENDBRANCH  29  30
ENDBRANCH  28  29
ENDBRANCH  25  28
ENDBRANCH  23  24
BRANCH  23  36
ATOM     36  C   UNL A   1      33.418  24.628  22.689  1.00  0.00     0.015 C 
ATOM     37  C   UNL A   1      33.364  23.320  21.884  1.00  0.00     0.010 C 
ATOM     38  C   UNL A   1      32.983  25.751  21.734  1.00  0.00     0.010 C 
ENDBRANCH  23  36
ENDBRANCH  20  23
ENDBRANCH  18  19
ENDBRANCH  15  18
ENDBRANCH   9  14
ENDBRANCH   6   9
ENDBRANCH   3   5
ENDBRANCH   1   3
BRANCH   1  39
ATOM     39  O   UNL A   1      34.432  31.506  27.708  1.00  0.00    -0.462 OA
BRANCH  39  40
ATOM     40  C   UNL A   1      34.152  32.588  28.623  1.00  0.00     0.261 C 
BRANCH  40  41
ATOM     41  C   UNL A   1      35.216  33.690  28.534  1.00  0.00     0.202 C 
BRANCH  41  42
ATOM     42  O   UNL A   1      34.755  35.005  28.841  1.00  0.00    -0.374 OA
BRANCH  42  43
ATOM     43  C   UNL A   1      33.349  35.193  28.802  1.00  0.00     0.202 C 
BRANCH  43  44
ATOM     44  C   UNL A   1      32.734  36.060  29.890  1.00  0.00     0.261 C 
BRANCH  44  45
ATOM     45  O   UNL A   1      33.528  36.080  31.036  1.00  0.00    -0.460 OA
BRANCH  45  46
ATOM     46  C   UNL A   1      33.066  35.331  32.042  1.00  0.00     0.338 C 
ATOM     47  O   UNL A   1      31.940  35.148  32.451  1.00  0.00    -0.246 OA
BRANCH  46  48
ATOM     48  C   UNL A   1      34.290  34.680  32.444  1.00  0.00     0.060 A 
ATOM     49  C   UNL A   1      35.475  35.376  32.236  1.00  0.00     0.016 A 
ATOM     50  C   UNL A   1      34.199  33.502  33.201  1.00  0.00     0.016 A 
ATOM     51  C   UNL A   1      36.633  34.827  32.735  1.00  0.00     0.010 A 
ATOM     52  C   UNL A   1      35.350  32.976  33.732  1.00  0.00     0.010 A 
ATOM     53  C   UNL A   1      36.563  33.612  33.436  1.00  0.00    -0.014 A 
BRANCH  53  54
ATOM     54  C   UNL A   1      37.798  32.873  33.661  1.00  0.00     0.031 A 
ATOM     55  C   UNL A   1      38.533  33.150  34.931  1.00  0.00     0.074 A 
ATOM     56  C   UNL A   1      38.190  31.976  32.750  1.00  0.00     0.049 A 
ATOM     57  N   UNL A   1      39.632  32.615  35.379  1.00  0.00    -0.248 NA
ATOM     58  C   UNL A   1      37.959  34.183  35.816  1.00  0.00     0.031 C 
ATOM     59  C   UNL A   1      37.483  31.671  31.504  1.00  0.00     0.029 A 
ATOM     60  N   UNL A   1      39.270  31.150  32.746  1.00  0.00    -0.354 N 
ATOM     61  C   UNL A   1      39.886  33.253  36.583  1.00  0.00     0.074 A 
ATOM     62  C   UNL A   1      38.863  34.251  36.777  1.00  0.00     0.031 C 
ATOM     63  C   UNL A   1      38.145  30.694  30.863  1.00  0.00     0.029 A 
ATOM     64  C   UNL A   1      39.328  30.344  31.640  1.00  0.00     0.049 A 
ATOM     65  H   UNL A   1      39.943  31.133  33.464  1.00  0.00     0.167 HD
ATOM     66  C   UNL A   1      40.888  33.004  37.455  1.00  0.00     0.037 A 
ATOM     67  C   UNL A   1      40.254  29.427  31.316  1.00  0.00     0.037 A 
ATOM     68  C   UNL A   1      41.883  31.996  37.217  1.00  0.00     0.049 A 
ATOM     69  C   UNL A   1      41.386  29.206  32.278  1.00  0.00     0.074 A 
ATOM     70  C   UNL A   1      42.934  31.612  38.022  1.00  0.00     0.029 A 
ATOM     71  N   UNL A   1      41.945  31.219  36.065  1.00  0.00    -0.354 N 
ATOM     72  N   UNL A   1      41.606  29.772  33.443  1.00  0.00    -0.248 NA
ATOM     73  C   UNL A   1      42.394  28.217  31.886  1.00  0.00     0.031 C 
ATOM     74  C   UNL A   1      43.672  30.646  37.329  1.00  0.00     0.029 A 
ATOM     75  C   UNL A   1      43.041  30.380  36.120  1.00  0.00     0.049 A 
ATOM     76  H   UNL A   1      41.303  31.260  35.320  1.00  0.00     0.167 HD
ATOM     77  C   UNL A   1      42.764  29.191  33.939  1.00  0.00     0.074 A 
ATOM     78  C   UNL A   1      43.188  28.217  32.948  1.00  0.00     0.031 C 
ATOM     79  C   UNL A   1      43.420  29.429  35.103  1.00  0.00     0.037 A 
BRANCH  66  80
ATOM     80  C   UNL A   1      40.961  33.862  38.682  1.00  0.00     0.057 A 
ATOM     81  C   UNL A   1      41.766  35.009  38.751  1.00  0.00     0.134 A 
ATOM     82  C   UNL A   1      40.240  33.513  39.831  1.00  0.00     0.134 A 
ATOM     83  F   UNL A   1      42.507  35.385  37.697  1.00  0.00    -0.206 F 
ATOM     84  C   UNL A   1      41.878  35.754  39.927  1.00  0.00     0.040 A 
ATOM     85  C   UNL A   1      40.318  34.270  41.001  1.00  0.00     0.040 A 
ATOM     86  F   UNL A   1      39.458  32.424  39.839  1.00  0.00    -0.206 F 
ATOM     87  C   UNL A   1      41.147  35.388  41.054  1.00  0.00     0.006 A 
ENDBRANCH  66  80
BRANCH  67  88
ATOM     88  C   UNL A   1      40.114  28.650  30.063  1.00  0.00     0.057 A 
ATOM     89  C   UNL A   1      39.324  27.498  30.017  1.00  0.00     0.134 A 
ATOM     90  C   UNL A   1      40.732  29.058  28.875  1.00  0.00     0.134 A 
ATOM     91  F   UNL A   1      38.709  27.057  31.125  1.00  0.00    -0.206 F 
ATOM     92  C   UNL A   1      39.165  26.768  28.838  1.00  0.00     0.040 A 
ATOM     93  C   UNL A   1      40.561  28.353  27.683  1.00  0.00     0.040 A 
ATOM     94  F   UNL A   1      41.486  30.168  28.849  1.00  0.00    -0.206 F 
ATOM     95  C   UNL A   1      39.781  27.199  27.665  1.00  0.00     0.006 A 
ENDBRANCH  67  88
BRANCH  79  96
ATOM     96  C   UNL A   1      44.639  28.596  35.368  1.00  0.00     0.057 A 
ATOM     97  C   UNL A   1      45.922  29.027  35.009  1.00  0.00     0.134 A 
ATOM     98  C   UNL A   1      44.525  27.369  36.032  1.00  0.00     0.134 A 
ATOM     99  F   UNL A   1      46.093  30.189  34.361  1.00  0.00    -0.206 F 
ATOM    100  C   UNL A   1      47.048  28.249  35.274  1.00  0.00     0.040 A 
ATOM    101  C   UNL A   1      45.647  26.599  36.333  1.00  0.00     0.040 A 
ATOM    102  F   UNL A   1      43.324  26.907  36.414  1.00  0.00    -0.206 F 
ATOM    103  C   UNL A   1      46.912  27.035  35.946  1.00  0.00     0.006 A 
ENDBRANCH  79  96
ENDBRANCH  53  54
ENDBRANCH  46  48
ENDBRANCH  45  46
ENDBRANCH  44  45
ENDBRANCH  43  44
ENDBRANCH  42  43
ENDBRANCH  41  42
ENDBRANCH  40  41
ENDBRANCH  39  40
ENDBRANCH   1  39
TORSDOF 27
ENDMDL
