MODEL 1
REMARK VINA RESULT:     -11.8      0.000      0.000
REMARK SMILES O=C(OCCOCCOC(=O)[C@@H]1[C@H](C(=O)Nc2ccc(Cn3cncn3)cc2)[C@@H]2C=C[C@H]1CC2)c1ccc(-c2c3nc(c(-c4c(F)cccc4F)c4ccc([nH]4)c(-c4c(F)cccc4F)c4nc(c(-c5c(F)cccc5F)c5ccc2[nH]5)C=C4)C=C3)cc1
REMARK SMILES IDX 7 1 6 2 5 3 4 4 3 5 2 6 1 7 35 8 36 9 88 10 37 11 87 12
REMARK SMILES IDX 38 13 39 14 40 15 81 16 41 17 86 18 80 19 82 20 42 21 85 22
REMARK SMILES IDX 79 23 78 24 43 26 69 27 52 28 68 29 53 30 56 31 67 32 83 33
REMARK SMILES IDX 54 34 55 35 66 37 84 38 57 39 44 40 45 41 50 42 46 43 47 44
REMARK SMILES IDX 49 45 51 46 48 47 70 48 71 49 76 50 72 51 73 52 75 53 77 54
REMARK SMILES IDX 74 55 58 56 59 57 64 58 60 59 61 60 63 61 65 62 62 63 8 64
REMARK SMILES IDX 9 65 10 66 11 67 12 68 13 69 32 70 29 71 31 72 33 73 30 74
REMARK SMILES IDX 34 75 14 76 15 77 16 78 17 80 18 81 28 82 19 83 27 84 20 85
REMARK SMILES IDX 21 86 22 87 23 88 26 89 24 90 25 91
REMARK H PARENT 82 25 56 36 16 79
REMARK Flexibility Score: inf
ROOT
ATOM      1  C   UNL A   1      33.803  28.125  25.986  1.00  0.00     0.202 C 
ENDROOT
BRANCH   1   2
ATOM      2  O   UNL A   1      32.901  28.437  27.062  1.00  0.00    -0.374 OA
BRANCH   2   3
ATOM      3  C   UNL A   1      32.158  29.644  26.892  1.00  0.00     0.202 C 
BRANCH   3   4
ATOM      4  C   UNL A   1      33.007  30.912  26.917  1.00  0.00     0.261 C 
BRANCH   4   5
ATOM      5  O   UNL A   1      33.852  31.039  28.078  1.00  0.00    -0.460 OA
BRANCH   5   6
ATOM      6  C   UNL A   1      35.002  31.741  27.956  1.00  0.00     0.338 C 
ATOM      7  O   UNL A   1      35.043  32.914  27.620  1.00  0.00    -0.246 OA
BRANCH   6   8
ATOM      8  C   UNL A   1      36.137  31.061  28.587  1.00  0.00     0.060 A 
ATOM      9  C   UNL A   1      37.276  31.769  28.971  1.00  0.00     0.016 A 
ATOM     10  C   UNL A   1      36.077  29.669  28.715  1.00  0.00     0.016 A 
ATOM     11  C   UNL A   1      38.421  31.086  29.295  1.00  0.00     0.010 A 
ATOM     12  C   UNL A   1      37.219  28.978  29.084  1.00  0.00     0.010 A 
ATOM     13  C   UNL A   1      38.400  29.693  29.291  1.00  0.00    -0.014 A 
BRANCH  13  14
ATOM     14  C   UNL A   1      39.691  29.061  29.479  1.00  0.00     0.031 A 
ATOM     15  C   UNL A   1      40.130  28.864  30.885  1.00  0.00     0.074 A 
ATOM     16  C   UNL A   1      40.449  28.693  28.433  1.00  0.00     0.049 A 
ATOM     17  N   UNL A   1      41.199  29.307  31.466  1.00  0.00    -0.248 NA
ATOM     18  C   UNL A   1      39.211  28.139  31.774  1.00  0.00     0.031 C 
ATOM     19  C   UNL A   1      40.065  28.597  27.023  1.00  0.00     0.029 A 
ATOM     20  N   UNL A   1      41.721  28.214  28.450  1.00  0.00    -0.354 N 
ATOM     21  C   UNL A   1      41.173  28.783  32.756  1.00  0.00     0.074 A 
ATOM     22  C   UNL A   1      39.887  28.152  32.922  1.00  0.00     0.031 C 
ATOM     23  C   UNL A   1      40.992  27.865  26.371  1.00  0.00     0.029 A 
ATOM     24  C   UNL A   1      42.079  27.562  27.287  1.00  0.00     0.049 A 
ATOM     25  H   UNL A   1      42.327  28.321  29.218  1.00  0.00     0.167 HD
ATOM     26  C   UNL A   1      42.273  28.747  33.554  1.00  0.00     0.037 A 
ATOM     27  C   UNL A   1      43.141  26.739  27.131  1.00  0.00     0.037 A 
ATOM     28  C   UNL A   1      43.281  29.685  33.149  1.00  0.00     0.049 A 
ATOM     29  C   UNL A   1      44.111  27.024  28.217  1.00  0.00     0.074 A 
ATOM     30  C   UNL A   1      43.344  31.061  33.043  1.00  0.00     0.029 A 
ATOM     31  N   UNL A   1      44.392  29.214  32.496  1.00  0.00    -0.354 N 
ATOM     32  N   UNL A   1      44.821  28.114  28.305  1.00  0.00    -0.248 NA
ATOM     33  C   UNL A   1      44.007  26.250  29.447  1.00  0.00     0.031 C 
ATOM     34  C   UNL A   1      44.212  31.311  31.940  1.00  0.00     0.029 A 
ATOM     35  C   UNL A   1      44.624  30.071  31.452  1.00  0.00     0.049 A 
ATOM     36  H   UNL A   1      44.918  28.417  32.731  1.00  0.00     0.167 HD
ATOM     37  C   UNL A   1      44.912  28.374  29.665  1.00  0.00     0.074 A 
ATOM     38  C   UNL A   1      44.492  27.138  30.318  1.00  0.00     0.031 C 
ATOM     39  C   UNL A   1      45.051  29.647  30.140  1.00  0.00     0.037 A 
BRANCH  26  40
ATOM     40  C   UNL A   1      42.546  27.641  34.532  1.00  0.00     0.057 A 
ATOM     41  C   UNL A   1      42.418  27.869  35.912  1.00  0.00     0.134 A 
ATOM     42  C   UNL A   1      43.197  26.443  34.173  1.00  0.00     0.134 A 
ATOM     43  F   UNL A   1      41.849  28.994  36.373  1.00  0.00    -0.206 F 
ATOM     44  C   UNL A   1      42.938  26.986  36.866  1.00  0.00     0.040 A 
ATOM     45  C   UNL A   1      43.675  25.531  35.116  1.00  0.00     0.040 A 
ATOM     46  F   UNL A   1      43.487  26.148  32.898  1.00  0.00    -0.206 F 
ATOM     47  C   UNL A   1      43.570  25.813  36.469  1.00  0.00     0.006 A 
ENDBRANCH  26  40
BRANCH  27  48
ATOM     48  C   UNL A   1      43.201  25.533  26.282  1.00  0.00     0.057 A 
ATOM     49  C   UNL A   1      44.205  25.372  25.323  1.00  0.00     0.134 A 
ATOM     50  C   UNL A   1      42.406  24.401  26.545  1.00  0.00     0.134 A 
ATOM     51  F   UNL A   1      45.048  26.378  25.045  1.00  0.00    -0.206 F 
ATOM     52  C   UNL A   1      44.406  24.156  24.659  1.00  0.00     0.040 A 
ATOM     53  C   UNL A   1      42.585  23.188  25.880  1.00  0.00     0.040 A 
ATOM     54  F   UNL A   1      41.482  24.409  27.518  1.00  0.00    -0.206 F 
ATOM     55  C   UNL A   1      43.596  23.059  24.939  1.00  0.00     0.006 A 
ENDBRANCH  27  48
BRANCH  39  56
ATOM     56  C   UNL A   1      45.373  30.730  29.153  1.00  0.00     0.057 A 
ATOM     57  C   UNL A   1      44.397  31.398  28.398  1.00  0.00     0.134 A 
ATOM     58  C   UNL A   1      46.681  31.223  29.079  1.00  0.00     0.134 A 
ATOM     59  F   UNL A   1      43.103  31.066  28.493  1.00  0.00    -0.206 F 
ATOM     60  C   UNL A   1      44.719  32.473  27.565  1.00  0.00     0.040 A 
ATOM     61  C   UNL A   1      47.009  32.317  28.275  1.00  0.00     0.040 A 
ATOM     62  F   UNL A   1      47.653  30.678  29.827  1.00  0.00    -0.206 F 
ATOM     63  C   UNL A   1      46.028  32.939  27.505  1.00  0.00     0.006 A 
ENDBRANCH  39  56
ENDBRANCH  13  14
ENDBRANCH   6   8
ENDBRANCH   5   6
ENDBRANCH   4   5
ENDBRANCH   3   4
ENDBRANCH   2   3
ENDBRANCH   1   2
BRANCH   1  64
ATOM     64  C   UNL A   1      33.806  26.664  25.517  1.00  0.00     0.261 C 
BRANCH  64  65
ATOM     65  O   UNL A   1      32.953  25.860  26.364  1.00  0.00    -0.463 OA
BRANCH  65  66
ATOM     66  C   UNL A   1      32.974  24.524  26.197  1.00  0.00     0.310 C 
ATOM     67  O   UNL A   1      32.030  23.786  26.458  1.00  0.00    -0.252 OA
BRANCH  66  68
ATOM     68  C   UNL A   1      34.257  23.988  25.588  1.00  0.00     0.119 C 
ATOM     69  C   UNL A   1      34.217  23.584  24.111  1.00  0.00     0.100 C 
ATOM     70  C   UNL A   1      35.229  23.043  26.382  1.00  0.00     0.026 C 
ATOM     71  C   UNL A   1      35.473  22.724  23.799  1.00  0.00     0.025 C 
ATOM     72  C   UNL A   1      35.243  21.602  25.891  1.00  0.00    -0.027 C 
ATOM     73  C   UNL A   1      36.657  23.485  25.965  1.00  0.00     0.009 C 
ATOM     74  C   UNL A   1      35.373  21.437  24.564  1.00  0.00    -0.027 C 
ATOM     75  C   UNL A   1      36.739  23.440  24.403  1.00  0.00     0.009 C 
BRANCH  69  76
ATOM     76  C   UNL A   1      32.875  23.204  23.458  1.00  0.00     0.228 C 
ATOM     77  O   UNL A   1      32.744  22.011  23.123  1.00  0.00    -0.274 OA
ATOM     78  N   UNL A   1      31.759  23.950  23.264  1.00  0.00    -0.326 N 
ATOM     79  H   UNL A   1      30.977  23.375  23.097  1.00  0.00     0.169 HD
BRANCH  78  80
ATOM     80  C   UNL A   1      31.396  25.306  23.233  1.00  0.00     0.041 A 
ATOM     81  C   UNL A   1      30.293  25.702  24.001  1.00  0.00     0.026 A 
ATOM     82  C   UNL A   1      31.999  26.274  22.454  1.00  0.00     0.026 A 
ATOM     83  C   UNL A   1      29.921  27.054  24.106  1.00  0.00     0.008 A 
ATOM     84  C   UNL A   1      31.650  27.623  22.569  1.00  0.00     0.008 A 
ATOM     85  C   UNL A   1      30.634  28.039  23.420  1.00  0.00    -0.026 A 
BRANCH  85  86
ATOM     86  C   UNL A   1      30.362  29.514  23.563  1.00  0.00     0.181 C 
BRANCH  86  87
ATOM     87  N   UNL A   1      29.220  29.949  22.782  1.00  0.00    -0.249 N 
ATOM     88  C   UNL A   1      28.064  30.492  23.250  1.00  0.00     0.220 A 
ATOM     89  N   UNL A   1      29.261  29.997  21.433  1.00  0.00    -0.160 NA
ATOM     90  N   UNL A   1      27.314  30.873  22.241  1.00  0.00    -0.224 NA
ATOM     91  C   UNL A   1      28.076  30.548  21.156  1.00  0.00     0.246 A 
ENDBRANCH  86  87
ENDBRANCH  85  86
ENDBRANCH  78  80
ENDBRANCH  69  76
ENDBRANCH  66  68
ENDBRANCH  65  66
ENDBRANCH  64  65
ENDBRANCH   1  64
TORSDOF 18
ENDMDL
MODEL 2
REMARK VINA RESULT:     -11.7      2.975      8.184
REMARK SMILES O=C(OCCOCCOC(=O)[C@@H]1[C@H](C(=O)Nc2ccc(Cn3cncn3)cc2)[C@@H]2C=C[C@H]1CC2)c1ccc(-c2c3nc(c(-c4c(F)cccc4F)c4ccc([nH]4)c(-c4c(F)cccc4F)c4nc(c(-c5c(F)cccc5F)c5ccc2[nH]5)C=C4)C=C3)cc1
REMARK SMILES IDX 7 1 6 2 5 3 4 4 3 5 2 6 1 7 35 8 36 9 88 10 37 11 87 12
REMARK SMILES IDX 38 13 39 14 40 15 81 16 41 17 86 18 80 19 82 20 42 21 85 22
REMARK SMILES IDX 79 23 78 24 43 26 69 27 52 28 68 29 53 30 56 31 67 32 83 33
REMARK SMILES IDX 54 34 55 35 66 37 84 38 57 39 44 40 45 41 50 42 46 43 47 44
REMARK SMILES IDX 49 45 51 46 48 47 70 48 71 49 76 50 72 51 73 52 75 53 77 54
REMARK SMILES IDX 74 55 58 56 59 57 64 58 60 59 61 60 63 61 65 62 62 63 8 64
REMARK SMILES IDX 9 65 10 66 11 67 12 68 13 69 32 70 29 71 31 72 33 73 30 74
REMARK SMILES IDX 34 75 14 76 15 77 16 78 17 80 18 81 28 82 19 83 27 84 20 85
REMARK SMILES IDX 21 86 22 87 23 88 26 89 24 90 25 91
REMARK H PARENT 82 25 56 36 16 79
REMARK Flexibility Score: inf
ROOT
ATOM      1  C   UNL A   1      35.618  23.172  23.832  1.00  0.00     0.202 C 
ENDROOT
BRANCH   1   2
ATOM      2  O   UNL A   1      36.813  23.232  24.631  1.00  0.00    -0.374 OA
BRANCH   2   3
ATOM      3  C   UNL A   1      37.101  22.046  25.370  1.00  0.00     0.202 C 
BRANCH   3   4
ATOM      4  C   UNL A   1      38.586  21.815  25.631  1.00  0.00     0.261 C 
BRANCH   4   5
ATOM      5  O   UNL A   1      39.114  22.550  26.753  1.00  0.00    -0.460 OA
BRANCH   5   6
ATOM      6  C   UNL A   1      40.449  22.767  26.803  1.00  0.00     0.338 C 
ATOM      7  O   UNL A   1      41.276  21.978  26.377  1.00  0.00    -0.246 OA
BRANCH   6   8
ATOM      8  C   UNL A   1      40.773  24.166  27.101  1.00  0.00     0.060 A 
ATOM      9  C   UNL A   1      41.661  24.496  28.124  1.00  0.00     0.016 A 
ATOM     10  C   UNL A   1      40.100  25.161  26.383  1.00  0.00     0.016 A 
ATOM     11  C   UNL A   1      41.735  25.792  28.566  1.00  0.00     0.010 A 
ATOM     12  C   UNL A   1      40.205  26.477  26.799  1.00  0.00     0.010 A 
ATOM     13  C   UNL A   1      40.959  26.764  27.938  1.00  0.00    -0.014 A 
BRANCH  13  14
ATOM     14  C   UNL A   1      40.973  28.065  28.577  1.00  0.00     0.031 A 
ATOM     15  C   UNL A   1      42.126  28.945  28.256  1.00  0.00     0.074 A 
ATOM     16  C   UNL A   1      40.001  28.438  29.425  1.00  0.00     0.049 A 
ATOM     17  N   UNL A   1      42.992  29.469  29.064  1.00  0.00    -0.248 NA
ATOM     18  C   UNL A   1      42.385  29.211  26.834  1.00  0.00     0.031 C 
ATOM     19  C   UNL A   1      38.703  27.801  29.655  1.00  0.00     0.029 A 
ATOM     20  N   UNL A   1      39.945  29.560  30.192  1.00  0.00    -0.354 N 
ATOM     21  C   UNL A   1      43.816  30.264  28.273  1.00  0.00     0.074 A 
ATOM     22  C   UNL A   1      43.459  29.997  26.902  1.00  0.00     0.031 C 
ATOM     23  C   UNL A   1      37.902  28.671  30.304  1.00  0.00     0.029 A 
ATOM     24  C   UNL A   1      38.674  29.856  30.641  1.00  0.00     0.049 A 
ATOM     25  H   UNL A   1      40.735  30.108  30.404  1.00  0.00     0.167 HD
ATOM     26  C   UNL A   1      44.625  31.224  28.793  1.00  0.00     0.037 A 
ATOM     27  C   UNL A   1      38.267  31.040  31.152  1.00  0.00     0.037 A 
ATOM     28  C   UNL A   1      44.898  31.022  30.187  1.00  0.00     0.049 A 
ATOM     29  C   UNL A   1      39.466  31.787  31.603  1.00  0.00     0.074 A 
ATOM     30  C   UNL A   1      45.519  30.032  30.924  1.00  0.00     0.029 A 
ATOM     31  N   UNL A   1      44.256  31.815  31.104  1.00  0.00    -0.354 N 
ATOM     32  N   UNL A   1      40.194  31.461  32.634  1.00  0.00    -0.248 NA
ATOM     33  C   UNL A   1      40.102  32.696  30.658  1.00  0.00     0.031 C 
ATOM     34  C   UNL A   1      44.829  30.007  32.171  1.00  0.00     0.029 A 
ATOM     35  C   UNL A   1      43.838  30.987  32.113  1.00  0.00     0.049 A 
ATOM     36  H   UNL A   1      44.120  32.788  31.048  1.00  0.00     0.167 HD
ATOM     37  C   UNL A   1      41.494  31.785  32.272  1.00  0.00     0.074 A 
ATOM     38  C   UNL A   1      41.361  32.642  31.099  1.00  0.00     0.031 C 
ATOM     39  C   UNL A   1      42.566  31.111  32.784  1.00  0.00     0.037 A 
BRANCH  26  40
ATOM     40  C   UNL A   1      44.928  32.517  28.090  1.00  0.00     0.057 A 
ATOM     41  C   UNL A   1      43.953  33.525  28.014  1.00  0.00     0.134 A 
ATOM     42  C   UNL A   1      46.046  32.689  27.250  1.00  0.00     0.134 A 
ATOM     43  F   UNL A   1      42.827  33.449  28.739  1.00  0.00    -0.206 F 
ATOM     44  C   UNL A   1      44.067  34.607  27.133  1.00  0.00     0.040 A 
ATOM     45  C   UNL A   1      46.194  33.790  26.404  1.00  0.00     0.040 A 
ATOM     46  F   UNL A   1      46.999  31.753  27.137  1.00  0.00    -0.206 F 
ATOM     47  C   UNL A   1      45.189  34.742  26.323  1.00  0.00     0.006 A 
ENDBRANCH  26  40
BRANCH  27  48
ATOM     48  C   UNL A   1      36.938  31.661  30.980  1.00  0.00     0.057 A 
ATOM     49  C   UNL A   1      36.094  31.878  32.073  1.00  0.00     0.134 A 
ATOM     50  C   UNL A   1      36.554  32.267  29.769  1.00  0.00     0.134 A 
ATOM     51  F   UNL A   1      36.406  31.388  33.282  1.00  0.00    -0.206 F 
ATOM     52  C   UNL A   1      34.930  32.650  31.967  1.00  0.00     0.040 A 
ATOM     53  C   UNL A   1      35.389  33.025  29.645  1.00  0.00     0.040 A 
ATOM     54  F   UNL A   1      37.340  32.212  28.682  1.00  0.00    -0.206 F 
ATOM     55  C   UNL A   1      34.577  33.228  30.751  1.00  0.00     0.006 A 
ENDBRANCH  27  48
BRANCH  39  56
ATOM     56  C   UNL A   1      42.325  30.193  33.946  1.00  0.00     0.057 A 
ATOM     57  C   UNL A   1      41.912  28.860  33.801  1.00  0.00     0.134 A 
ATOM     58  C   UNL A   1      42.673  30.613  35.235  1.00  0.00     0.134 A 
ATOM     59  F   UNL A   1      41.667  28.340  32.591  1.00  0.00    -0.206 F 
ATOM     60  C   UNL A   1      41.797  28.001  34.897  1.00  0.00     0.040 A 
ATOM     61  C   UNL A   1      42.593  29.755  36.335  1.00  0.00     0.040 A 
ATOM     62  F   UNL A   1      43.142  31.854  35.439  1.00  0.00    -0.206 F 
ATOM     63  C   UNL A   1      42.143  28.447  36.169  1.00  0.00     0.006 A 
ENDBRANCH  39  56
ENDBRANCH  13  14
ENDBRANCH   6   8
ENDBRANCH   5   6
ENDBRANCH   4   5
ENDBRANCH   3   4
ENDBRANCH   2   3
ENDBRANCH   1   2
BRANCH   1  64
ATOM     64  C   UNL A   1      34.723  24.418  23.870  1.00  0.00     0.261 C 
BRANCH  64  65
ATOM     65  O   UNL A   1      34.263  24.751  22.539  1.00  0.00    -0.463 OA
BRANCH  65  66
ATOM     66  C   UNL A   1      33.146  25.494  22.424  1.00  0.00     0.310 C 
ATOM     67  O   UNL A   1      32.304  25.334  21.546  1.00  0.00    -0.252 OA
BRANCH  66  68
ATOM     68  C   UNL A   1      32.966  26.529  23.519  1.00  0.00     0.119 C 
ATOM     69  C   UNL A   1      31.859  26.277  24.547  1.00  0.00     0.100 C 
ATOM     70  C   UNL A   1      33.110  28.070  23.247  1.00  0.00     0.026 C 
ATOM     71  C   UNL A   1      31.589  27.597  25.320  1.00  0.00     0.025 C 
ATOM     72  C   UNL A   1      31.799  28.841  23.295  1.00  0.00    -0.027 C 
ATOM     73  C   UNL A   1      33.808  28.643  24.508  1.00  0.00     0.009 C 
ATOM     74  C   UNL A   1      31.019  28.603  24.363  1.00  0.00    -0.027 C 
ATOM     75  C   UNL A   1      32.969  28.216  25.759  1.00  0.00     0.009 C 
BRANCH  69  76
ATOM     76  C   UNL A   1      30.666  25.373  24.181  1.00  0.00     0.228 C 
ATOM     77  O   UNL A   1      29.582  25.951  23.973  1.00  0.00    -0.274 OA
ATOM     78  N   UNL A   1      30.623  24.036  23.959  1.00  0.00    -0.326 N 
ATOM     79  H   UNL A   1      29.807  23.788  23.465  1.00  0.00     0.169 HD
BRANCH  78  80
ATOM     80  C   UNL A   1      31.406  22.902  24.228  1.00  0.00     0.041 A 
ATOM     81  C   UNL A   1      31.738  22.069  23.151  1.00  0.00     0.026 A 
ATOM     82  C   UNL A   1      31.823  22.502  25.482  1.00  0.00     0.026 A 
ATOM     83  C   UNL A   1      32.599  20.969  23.314  1.00  0.00     0.008 A 
ATOM     84  C   UNL A   1      32.696  21.424  25.650  1.00  0.00     0.008 A 
ATOM     85  C   UNL A   1      33.126  20.663  24.571  1.00  0.00    -0.026 A 
BRANCH  85  86
ATOM     86  C   UNL A   1      34.133  19.567  24.805  1.00  0.00     0.181 C 
BRANCH  86  87
ATOM     87  N   UNL A   1      33.534  18.247  24.784  1.00  0.00    -0.249 N 
ATOM     88  C   UNL A   1      33.956  17.164  24.075  1.00  0.00     0.220 A 
ATOM     89  N   UNL A   1      32.536  17.908  25.629  1.00  0.00    -0.160 NA
ATOM     90  N   UNL A   1      33.238  16.115  24.403  1.00  0.00    -0.224 NA
ATOM     91  C   UNL A   1      32.383  16.611  25.345  1.00  0.00     0.246 A 
ENDBRANCH  86  87
ENDBRANCH  85  86
ENDBRANCH  78  80
ENDBRANCH  69  76
ENDBRANCH  66  68
ENDBRANCH  65  66
ENDBRANCH  64  65
ENDBRANCH   1  64
TORSDOF 18
ENDMDL
MODEL 3
REMARK VINA RESULT:     -11.4      1.921      5.757
REMARK SMILES O=C(OCCOCCOC(=O)[C@@H]1[C@H](C(=O)Nc2ccc(Cn3cncn3)cc2)[C@@H]2C=C[C@H]1CC2)c1ccc(-c2c3nc(c(-c4c(F)cccc4F)c4ccc([nH]4)c(-c4c(F)cccc4F)c4nc(c(-c5c(F)cccc5F)c5ccc2[nH]5)C=C4)C=C3)cc1
REMARK SMILES IDX 7 1 6 2 5 3 4 4 3 5 2 6 1 7 35 8 36 9 88 10 37 11 87 12
REMARK SMILES IDX 38 13 39 14 40 15 81 16 41 17 86 18 80 19 82 20 42 21 85 22
REMARK SMILES IDX 79 23 78 24 43 26 69 27 52 28 68 29 53 30 56 31 67 32 83 33
REMARK SMILES IDX 54 34 55 35 66 37 84 38 57 39 44 40 45 41 50 42 46 43 47 44
REMARK SMILES IDX 49 45 51 46 48 47 70 48 71 49 76 50 72 51 73 52 75 53 77 54
REMARK SMILES IDX 74 55 58 56 59 57 64 58 60 59 61 60 63 61 65 62 62 63 8 64
REMARK SMILES IDX 9 65 10 66 11 67 12 68 13 69 32 70 29 71 31 72 33 73 30 74
REMARK SMILES IDX 34 75 14 76 15 77 16 78 17 80 18 81 28 82 19 83 27 84 20 85
REMARK SMILES IDX 21 86 22 87 23 88 26 89 24 90 25 91
REMARK H PARENT 82 25 56 36 16 79
REMARK Flexibility Score: inf
ROOT
ATOM      1  C   UNL A   1      33.397  28.519  25.000  1.00  0.00     0.202 C 
ENDROOT
BRANCH   1   2
ATOM      2  O   UNL A   1      33.451  29.811  25.631  1.00  0.00    -0.374 OA
BRANCH   2   3
ATOM      3  C   UNL A   1      33.351  29.788  27.054  1.00  0.00     0.202 C 
BRANCH   3   4
ATOM      4  C   UNL A   1      34.615  29.313  27.765  1.00  0.00     0.261 C 
BRANCH   4   5
ATOM      5  O   UNL A   1      35.555  30.362  28.070  1.00  0.00    -0.460 OA
BRANCH   5   6
ATOM      6  C   UNL A   1      36.363  30.202  29.143  1.00  0.00     0.338 C 
ATOM      7  O   UNL A   1      35.999  30.382  30.294  1.00  0.00    -0.246 OA
BRANCH   6   8
ATOM      8  C   UNL A   1      37.593  29.475  28.809  1.00  0.00     0.060 A 
ATOM      9  C   UNL A   1      38.176  28.594  29.719  1.00  0.00     0.016 A 
ATOM     10  C   UNL A   1      38.206  29.756  27.583  1.00  0.00     0.016 A 
ATOM     11  C   UNL A   1      39.454  28.145  29.503  1.00  0.00     0.010 A 
ATOM     12  C   UNL A   1      39.480  29.269  27.343  1.00  0.00     0.010 A 
ATOM     13  C   UNL A   1      40.120  28.536  28.343  1.00  0.00    -0.014 A 
BRANCH  13  14
ATOM     14  C   UNL A   1      41.517  28.155  28.282  1.00  0.00     0.031 A 
ATOM     15  C   UNL A   1      41.815  26.838  27.662  1.00  0.00     0.074 A 
ATOM     16  C   UNL A   1      42.481  28.949  28.775  1.00  0.00     0.049 A 
ATOM     17  N   UNL A   1      42.426  25.822  28.181  1.00  0.00    -0.248 NA
ATOM     18  C   UNL A   1      41.291  26.604  26.308  1.00  0.00     0.031 C 
ATOM     19  C   UNL A   1      42.380  30.350  29.188  1.00  0.00     0.029 A 
ATOM     20  N   UNL A   1      43.806  28.673  28.906  1.00  0.00    -0.354 N 
ATOM     21  C   UNL A   1      42.509  24.871  27.167  1.00  0.00     0.074 A 
ATOM     22  C   UNL A   1      41.715  25.364  26.070  1.00  0.00     0.031 C 
ATOM     23  C   UNL A   1      43.624  30.865  29.282  1.00  0.00     0.029 A 
ATOM     24  C   UNL A   1      44.589  29.799  29.066  1.00  0.00     0.049 A 
ATOM     25  H   UNL A   1      44.171  27.759  28.886  1.00  0.00     0.167 HD
ATOM     26  C   UNL A   1      43.364  23.815  27.221  1.00  0.00     0.037 A 
ATOM     27  C   UNL A   1      45.931  29.862  28.918  1.00  0.00     0.037 A 
ATOM     28  C   UNL A   1      43.795  23.520  28.558  1.00  0.00     0.049 A 
ATOM     29  C   UNL A   1      46.476  28.487  29.041  1.00  0.00     0.074 A 
ATOM     30  C   UNL A   1      43.161  23.128  29.721  1.00  0.00     0.029 A 
ATOM     31  N   UNL A   1      45.062  23.886  28.935  1.00  0.00    -0.354 N 
ATOM     32  N   UNL A   1      46.515  27.806  30.152  1.00  0.00    -0.248 NA
ATOM     33  C   UNL A   1      46.628  27.700  27.825  1.00  0.00     0.031 C 
ATOM     34  C   UNL A   1      43.911  23.727  30.775  1.00  0.00     0.029 A 
ATOM     35  C   UNL A   1      44.955  24.438  30.184  1.00  0.00     0.049 A 
ATOM     36  H   UNL A   1      45.887  23.773  28.410  1.00  0.00     0.167 HD
ATOM     37  C   UNL A   1      46.289  26.490  29.773  1.00  0.00     0.074 A 
ATOM     38  C   UNL A   1      46.479  26.472  28.327  1.00  0.00     0.031 C 
ATOM     39  C   UNL A   1      45.699  25.595  30.621  1.00  0.00     0.037 A 
BRANCH  26  40
ATOM     40  C   UNL A   1      44.037  23.237  26.010  1.00  0.00     0.057 A 
ATOM     41  C   UNL A   1      43.931  21.864  25.729  1.00  0.00     0.134 A 
ATOM     42  C   UNL A   1      45.012  23.934  25.269  1.00  0.00     0.134 A 
ATOM     43  F   UNL A   1      43.064  21.090  26.399  1.00  0.00    -0.206 F 
ATOM     44  C   UNL A   1      44.765  21.225  24.804  1.00  0.00     0.040 A 
ATOM     45  C   UNL A   1      45.815  23.316  24.307  1.00  0.00     0.040 A 
ATOM     46  F   UNL A   1      45.300  25.221  25.508  1.00  0.00    -0.206 F 
ATOM     47  C   UNL A   1      45.711  21.951  24.090  1.00  0.00     0.006 A 
ENDBRANCH  26  40
BRANCH  27  48
ATOM     48  C   UNL A   1      46.704  30.997  28.375  1.00  0.00     0.057 A 
ATOM     49  C   UNL A   1      46.544  31.413  27.050  1.00  0.00     0.134 A 
ATOM     50  C   UNL A   1      47.454  31.848  29.208  1.00  0.00     0.134 A 
ATOM     51  F   UNL A   1      45.800  30.696  26.196  1.00  0.00    -0.206 F 
ATOM     52  C   UNL A   1      47.103  32.607  26.577  1.00  0.00     0.040 A 
ATOM     53  C   UNL A   1      48.031  33.032  28.746  1.00  0.00     0.040 A 
ATOM     54  F   UNL A   1      47.586  31.602  30.520  1.00  0.00    -0.206 F 
ATOM     55  C   UNL A   1      47.847  33.421  27.427  1.00  0.00     0.006 A 
ENDBRANCH  27  48
BRANCH  39  56
ATOM     56  C   UNL A   1      45.545  25.992  32.060  1.00  0.00     0.057 A 
ATOM     57  C   UNL A   1      44.394  26.613  32.568  1.00  0.00     0.134 A 
ATOM     58  C   UNL A   1      46.514  25.594  32.988  1.00  0.00     0.134 A 
ATOM     59  F   UNL A   1      43.367  26.927  31.767  1.00  0.00    -0.206 F 
ATOM     60  C   UNL A   1      44.240  26.875  33.932  1.00  0.00     0.040 A 
ATOM     61  C   UNL A   1      46.358  25.821  34.357  1.00  0.00     0.040 A 
ATOM     62  F   UNL A   1      47.609  24.932  32.581  1.00  0.00    -0.206 F 
ATOM     63  C   UNL A   1      45.222  26.474  34.832  1.00  0.00     0.006 A 
ENDBRANCH  39  56
ENDBRANCH  13  14
ENDBRANCH   6   8
ENDBRANCH   5   6
ENDBRANCH   4   5
ENDBRANCH   3   4
ENDBRANCH   2   3
ENDBRANCH   1   2
BRANCH   1  64
ATOM     64  C   UNL A   1      32.764  27.394  25.830  1.00  0.00     0.261 C 
BRANCH  64  65
ATOM     65  O   UNL A   1      33.446  26.141  25.585  1.00  0.00    -0.463 OA
BRANCH  65  66
ATOM     66  C   UNL A   1      32.989  25.040  26.212  1.00  0.00     0.310 C 
ATOM     67  O   UNL A   1      32.063  25.045  27.017  1.00  0.00    -0.252 OA
BRANCH  66  68
ATOM     68  C   UNL A   1      33.675  23.752  25.797  1.00  0.00     0.119 C 
ATOM     69  C   UNL A   1      32.872  22.778  24.929  1.00  0.00     0.100 C 
ATOM     70  C   UNL A   1      34.621  22.957  26.768  1.00  0.00     0.026 C 
ATOM     71  C   UNL A   1      33.585  21.398  24.943  1.00  0.00     0.025 C 
ATOM     72  C   UNL A   1      34.043  21.643  27.271  1.00  0.00    -0.027 C 
ATOM     73  C   UNL A   1      35.768  22.422  25.870  1.00  0.00     0.009 C 
ATOM     74  C   UNL A   1      33.515  20.838  26.333  1.00  0.00    -0.027 C 
ATOM     75  C   UNL A   1      35.123  21.621  24.689  1.00  0.00     0.009 C 
BRANCH  69  76
ATOM     76  C   UNL A   1      31.332  22.820  24.955  1.00  0.00     0.228 C 
ATOM     77  O   UNL A   1      30.762  21.800  25.388  1.00  0.00    -0.274 OA
ATOM     78  N   UNL A   1      30.484  23.837  24.661  1.00  0.00    -0.326 N 
ATOM     79  H   UNL A   1      29.591  23.670  25.044  1.00  0.00     0.169 HD
BRANCH  78  80
ATOM     80  C   UNL A   1      30.510  25.058  23.970  1.00  0.00     0.041 A 
ATOM     81  C   UNL A   1      29.609  26.053  24.373  1.00  0.00     0.026 A 
ATOM     82  C   UNL A   1      31.308  25.338  22.879  1.00  0.00     0.026 A 
ATOM     83  C   UNL A   1      29.634  27.338  23.802  1.00  0.00     0.008 A 
ATOM     84  C   UNL A   1      31.355  26.619  22.321  1.00  0.00     0.008 A 
ATOM     85  C   UNL A   1      30.549  27.646  22.793  1.00  0.00    -0.026 A 
BRANCH  85  86
ATOM     86  C   UNL A   1      30.706  29.025  22.206  1.00  0.00     0.181 C 
BRANCH  86  87
ATOM     87  N   UNL A   1      29.495  29.816  22.311  1.00  0.00    -0.249 N 
ATOM     88  C   UNL A   1      29.127  30.623  23.343  1.00  0.00     0.220 A 
ATOM     89  N   UNL A   1      28.645  29.950  21.270  1.00  0.00    -0.160 NA
ATOM     90  N   UNL A   1      28.028  31.270  23.027  1.00  0.00    -0.224 NA
ATOM     91  C   UNL A   1      27.766  30.828  21.762  1.00  0.00     0.246 A 
ENDBRANCH  86  87
ENDBRANCH  85  86
ENDBRANCH  78  80
ENDBRANCH  69  76
ENDBRANCH  66  68
ENDBRANCH  65  66
ENDBRANCH  64  65
ENDBRANCH   1  64
TORSDOF 18
ENDMDL
