MODEL 1
REMARK VINA RESULT:      -8.9      0.000      0.000
REMARK SMILES CC[C@@H]1CCC[C@@](Cc2cccc(O)c2)(C(=O)OCCOCCOC(=O)c2ccc(-c3c4nc(c(-c5c(F)cccc5F)c5ccc([nH]5)c(-c5c(F)cccc5F)c5nc(c(-c6c(F)cccc6F)c6ccc3[nH]6)C=C5)C=C4)cc2)C1
REMARK SMILES IDX 20 1 19 2 18 3 16 4 17 5 7 6 3 7 4 8 81 9 5 10 6 11 2 12
REMARK SMILES IDX 1 13 8 14 9 15 10 16 15 17 11 18 13 19 12 20 14 21 21 23
REMARK SMILES IDX 22 24 23 25 24 26 25 27 26 28 27 29 28 30 80 31 29 32 79 33
REMARK SMILES IDX 30 34 31 35 32 36 73 37 33 38 78 39 72 40 74 41 34 42 77 43
REMARK SMILES IDX 71 44 70 45 35 47 61 48 44 49 60 50 45 51 48 52 59 53 75 54
REMARK SMILES IDX 46 55 47 56 58 58 76 59 49 60 36 61 37 62 42 63 38 64 39 65
REMARK SMILES IDX 41 66 43 67 40 68 62 69 63 70 68 71 64 72 65 73 67 74 69 75
REMARK SMILES IDX 66 76 50 77 51 78 56 79 52 80 53 81 55 82 57 83 54 84
REMARK H PARENT 14 22 74 46 48 57
REMARK Flexibility Score: inf
ROOT
ATOM      1  C   UNL A   1      46.105  21.322  25.009  1.00  0.00     0.202 C 
ENDROOT
BRANCH   1   2
ATOM      2  C   UNL A   1      45.799  22.577  25.829  1.00  0.00     0.261 C 
BRANCH   2   3
ATOM      3  O   UNL A   1      46.888  23.516  25.947  1.00  0.00    -0.463 OA
BRANCH   3   4
ATOM      4  C   UNL A   1      46.907  24.493  24.997  1.00  0.00     0.312 C 
ATOM      5  O   UNL A   1      46.927  24.265  23.790  1.00  0.00    -0.252 OA
BRANCH   4   6
ATOM      6  C   UNL A   1      47.005  25.924  25.553  1.00  0.00     0.072 C 
ATOM      7  C   UNL A   1      49.501  26.173  24.996  1.00  0.00    -0.010 C 
ATOM      8  C   UNL A   1      49.228  27.417  24.150  1.00  0.00     0.003 C 
ATOM      9  C   UNL A   1      48.452  26.088  26.122  1.00  0.00     0.022 C 
ATOM     10  C   UNL A   1      47.832  27.361  23.538  1.00  0.00     0.001 C 
ATOM     11  C   UNL A   1      46.727  27.077  24.557  1.00  0.00     0.019 C 
BRANCH   7  12
ATOM     12  C   UNL A   1      50.952  26.072  25.494  1.00  0.00     0.000 C 
ATOM     13  C   UNL A   1      51.191  25.153  26.678  1.00  0.00     0.004 C 
ENDBRANCH   7  12
BRANCH   6  14
ATOM     14  C   UNL A   1      45.987  25.977  26.740  1.00  0.00     0.054 C 
BRANCH  14  15
ATOM     15  C   UNL A   1      44.746  26.820  26.501  1.00  0.00    -0.043 A 
ATOM     16  C   UNL A   1      43.770  26.432  25.572  1.00  0.00     0.004 A 
ATOM     17  C   UNL A   1      44.568  28.028  27.190  1.00  0.00     0.049 A 
ATOM     18  C   UNL A   1      42.683  27.262  25.285  1.00  0.00     0.004 A 
ATOM     19  C   UNL A   1      43.468  28.837  26.916  1.00  0.00     0.115 A 
ATOM     20  C   UNL A   1      42.531  28.473  25.956  1.00  0.00     0.046 A 
BRANCH  19  21
ATOM     21  O   UNL A   1      43.347  29.999  27.619  1.00  0.00    -0.508 OA
ATOM     22  H   UNL A   1      43.979  30.683  27.509  1.00  0.00     0.293 HD
ENDBRANCH  19  21
ENDBRANCH  14  15
ENDBRANCH   6  14
ENDBRANCH   4   6
ENDBRANCH   3   4
ENDBRANCH   2   3
ENDBRANCH   1   2
BRANCH   1  23
ATOM     23  O   UNL A   1      44.997  20.591  24.495  1.00  0.00    -0.374 OA
BRANCH  23  24
ATOM     24  C   UNL A   1      44.948  19.197  24.799  1.00  0.00     0.202 C 
BRANCH  24  25
ATOM     25  C   UNL A   1      43.551  18.591  24.969  1.00  0.00     0.261 C 
BRANCH  25  26
ATOM     26  O   UNL A   1      42.937  19.030  26.196  1.00  0.00    -0.460 OA
BRANCH  26  27
ATOM     27  C   UNL A   1      41.713  19.588  26.041  1.00  0.00     0.338 C 
ATOM     28  O   UNL A   1      40.713  19.068  25.579  1.00  0.00    -0.246 OA
BRANCH  27  29
ATOM     29  C   UNL A   1      41.690  20.921  26.665  1.00  0.00     0.060 A 
ATOM     30  C   UNL A   1      42.192  22.005  25.932  1.00  0.00     0.016 A 
ATOM     31  C   UNL A   1      41.312  21.078  27.998  1.00  0.00     0.016 A 
ATOM     32  C   UNL A   1      42.345  23.248  26.544  1.00  0.00     0.010 A 
ATOM     33  C   UNL A   1      41.479  22.323  28.614  1.00  0.00     0.010 A 
ATOM     34  C   UNL A   1      42.024  23.406  27.899  1.00  0.00    -0.014 A 
BRANCH  34  35
ATOM     35  C   UNL A   1      42.361  24.670  28.597  1.00  0.00     0.031 A 
ATOM     36  C   UNL A   1      41.345  25.776  28.657  1.00  0.00     0.074 A 
ATOM     37  C   UNL A   1      43.560  24.826  29.186  1.00  0.00     0.049 A 
ATOM     38  N   UNL A   1      41.453  26.974  29.175  1.00  0.00    -0.248 NA
ATOM     39  C   UNL A   1      40.030  25.494  28.059  1.00  0.00     0.031 C 
ATOM     40  C   UNL A   1      44.613  23.813  29.240  1.00  0.00     0.029 A 
ATOM     41  N   UNL A   1      44.094  25.905  29.846  1.00  0.00    -0.354 N 
ATOM     42  C   UNL A   1      40.225  27.588  28.966  1.00  0.00     0.074 A 
ATOM     43  C   UNL A   1      39.392  26.639  28.257  1.00  0.00     0.031 C 
ATOM     44  C   UNL A   1      45.674  24.324  29.886  1.00  0.00     0.029 A 
ATOM     45  C   UNL A   1      45.388  25.710  30.258  1.00  0.00     0.049 A 
ATOM     46  H   UNL A   1      43.595  26.738  30.008  1.00  0.00     0.167 HD
ATOM     47  C   UNL A   1      39.825  28.828  29.336  1.00  0.00     0.037 A 
ATOM     48  C   UNL A   1      46.254  26.562  30.840  1.00  0.00     0.037 A 
ATOM     49  C   UNL A   1      40.651  29.775  30.037  1.00  0.00     0.049 A 
ATOM     50  C   UNL A   1      45.819  27.971  31.148  1.00  0.00     0.074 A 
ATOM     51  C   UNL A   1      40.320  31.042  30.486  1.00  0.00     0.029 A 
ATOM     52  N   UNL A   1      41.978  29.564  30.376  1.00  0.00    -0.354 N 
ATOM     53  N   UNL A   1      44.647  28.531  30.973  1.00  0.00    -0.248 NA
ATOM     54  C   UNL A   1      46.832  28.868  31.725  1.00  0.00     0.031 C 
ATOM     55  C   UNL A   1      41.463  31.616  31.056  1.00  0.00     0.029 A 
ATOM     56  C   UNL A   1      42.492  30.691  30.995  1.00  0.00     0.049 A 
ATOM     57  H   UNL A   1      42.480  28.734  30.205  1.00  0.00     0.167 HD
ATOM     58  C   UNL A   1      44.777  29.837  31.428  1.00  0.00     0.074 A 
ATOM     59  C   UNL A   1      46.137  29.984  31.901  1.00  0.00     0.031 C 
ATOM     60  C   UNL A   1      43.851  30.828  31.451  1.00  0.00     0.037 A 
BRANCH  47  61
ATOM     61  C   UNL A   1      38.433  29.244  28.970  1.00  0.00     0.057 A 
ATOM     62  C   UNL A   1      38.102  29.651  27.672  1.00  0.00     0.134 A 
ATOM     63  C   UNL A   1      37.402  29.193  29.916  1.00  0.00     0.134 A 
ATOM     64  F   UNL A   1      39.047  29.731  26.723  1.00  0.00    -0.206 F 
ATOM     65  C   UNL A   1      36.795  30.007  27.331  1.00  0.00     0.040 A 
ATOM     66  C   UNL A   1      36.089  29.529  29.583  1.00  0.00     0.040 A 
ATOM     67  F   UNL A   1      37.654  28.807  31.176  1.00  0.00    -0.206 F 
ATOM     68  C   UNL A   1      35.784  29.940  28.288  1.00  0.00     0.006 A 
ENDBRANCH  47  61
BRANCH  48  69
ATOM     69  C   UNL A   1      47.638  26.120  31.139  1.00  0.00     0.057 A 
ATOM     70  C   UNL A   1      47.966  25.549  32.373  1.00  0.00     0.134 A 
ATOM     71  C   UNL A   1      48.668  26.272  30.202  1.00  0.00     0.134 A 
ATOM     72  F   UNL A   1      47.027  25.399  33.318  1.00  0.00    -0.206 F 
ATOM     73  C   UNL A   1      49.272  25.156  32.671  1.00  0.00     0.040 A 
ATOM     74  C   UNL A   1      49.973  25.865  30.479  1.00  0.00     0.040 A 
ATOM     75  F   UNL A   1      48.416  26.809  28.999  1.00  0.00    -0.206 F 
ATOM     76  C   UNL A   1      50.279  25.309  31.719  1.00  0.00     0.006 A 
ENDBRANCH  48  69
BRANCH  60  77
ATOM     77  C   UNL A   1      44.275  32.155  32.005  1.00  0.00     0.057 A 
ATOM     78  C   UNL A   1      44.188  32.438  33.373  1.00  0.00     0.134 A 
ATOM     79  C   UNL A   1      44.820  33.140  31.173  1.00  0.00     0.134 A 
ATOM     80  F   UNL A   1      43.662  31.540  34.220  1.00  0.00    -0.206 F 
ATOM     81  C   UNL A   1      44.619  33.659  33.894  1.00  0.00     0.040 A 
ATOM     82  C   UNL A   1      45.274  34.357  31.683  1.00  0.00     0.040 A 
ATOM     83  F   UNL A   1      44.938  32.929  29.853  1.00  0.00    -0.206 F 
ATOM     84  C   UNL A   1      45.171  34.620  33.048  1.00  0.00     0.006 A 
ENDBRANCH  60  77
ENDBRANCH  34  35
ENDBRANCH  27  29
ENDBRANCH  26  27
ENDBRANCH  25  26
ENDBRANCH  24  25
ENDBRANCH  23  24
ENDBRANCH   1  23
TORSDOF 18
ENDMDL
MODEL 2
REMARK VINA RESULT:      -8.7      0.739      6.259
REMARK SMILES CC[C@@H]1CCC[C@@](Cc2cccc(O)c2)(C(=O)OCCOCCOC(=O)c2ccc(-c3c4nc(c(-c5c(F)cccc5F)c5ccc([nH]5)c(-c5c(F)cccc5F)c5nc(c(-c6c(F)cccc6F)c6ccc3[nH]6)C=C5)C=C4)cc2)C1
REMARK SMILES IDX 20 1 19 2 18 3 16 4 17 5 7 6 3 7 4 8 81 9 5 10 6 11 2 12
REMARK SMILES IDX 1 13 8 14 9 15 10 16 15 17 11 18 13 19 12 20 14 21 21 23
REMARK SMILES IDX 22 24 23 25 24 26 25 27 26 28 27 29 28 30 80 31 29 32 79 33
REMARK SMILES IDX 30 34 31 35 32 36 73 37 33 38 78 39 72 40 74 41 34 42 77 43
REMARK SMILES IDX 71 44 70 45 35 47 61 48 44 49 60 50 45 51 48 52 59 53 75 54
REMARK SMILES IDX 46 55 47 56 58 58 76 59 49 60 36 61 37 62 42 63 38 64 39 65
REMARK SMILES IDX 41 66 43 67 40 68 62 69 63 70 68 71 64 72 65 73 67 74 69 75
REMARK SMILES IDX 66 76 50 77 51 78 56 79 52 80 53 81 55 82 57 83 54 84
REMARK H PARENT 14 22 74 46 48 57
REMARK Flexibility Score: inf
ROOT
ATOM      1  C   UNL A   1      46.028  20.967  24.952  1.00  0.00     0.202 C 
ENDROOT
BRANCH   1   2
ATOM      2  C   UNL A   1      45.695  22.211  25.779  1.00  0.00     0.261 C 
BRANCH   2   3
ATOM      3  O   UNL A   1      46.748  23.195  25.861  1.00  0.00    -0.463 OA
BRANCH   3   4
ATOM      4  C   UNL A   1      46.752  24.113  24.855  1.00  0.00     0.312 C 
ATOM      5  O   UNL A   1      46.781  23.814  23.664  1.00  0.00    -0.252 OA
BRANCH   4   6
ATOM      6  C   UNL A   1      46.823  25.576  25.325  1.00  0.00     0.072 C 
ATOM      7  C   UNL A   1      49.299  25.442  25.996  1.00  0.00    -0.010 C 
ATOM      8  C   UNL A   1      49.655  26.601  25.065  1.00  0.00     0.003 C 
ATOM      9  C   UNL A   1      47.854  25.624  26.499  1.00  0.00     0.022 C 
ATOM     10  C   UNL A   1      48.706  26.648  23.871  1.00  0.00     0.001 C 
ATOM     11  C   UNL A   1      47.228  26.629  24.263  1.00  0.00     0.019 C 
BRANCH   7  12
ATOM     12  C   UNL A   1      50.322  25.220  27.122  1.00  0.00     0.000 C 
ATOM     13  C   UNL A   1      51.422  26.258  27.240  1.00  0.00     0.004 C 
ENDBRANCH   7  12
BRANCH   6  14
ATOM     14  C   UNL A   1      45.399  25.898  25.889  1.00  0.00     0.054 C 
BRANCH  14  15
ATOM     15  C   UNL A   1      45.246  27.260  26.544  1.00  0.00    -0.043 A 
ATOM     16  C   UNL A   1      46.339  27.908  27.139  1.00  0.00     0.004 A 
ATOM     17  C   UNL A   1      43.993  27.885  26.594  1.00  0.00     0.049 A 
ATOM     18  C   UNL A   1      46.170  29.113  27.827  1.00  0.00     0.004 A 
ATOM     19  C   UNL A   1      43.838  29.098  27.260  1.00  0.00     0.115 A 
ATOM     20  C   UNL A   1      44.913  29.711  27.893  1.00  0.00     0.046 A 
BRANCH  19  21
ATOM     21  O   UNL A   1      42.595  29.659  27.273  1.00  0.00    -0.508 OA
ATOM     22  H   UNL A   1      41.842  29.127  27.444  1.00  0.00     0.293 HD
ENDBRANCH  19  21
ENDBRANCH  14  15
ENDBRANCH   6  14
ENDBRANCH   4   6
ENDBRANCH   3   4
ENDBRANCH   2   3
ENDBRANCH   1   2
BRANCH   1  23
ATOM     23  O   UNL A   1      44.940  20.260  24.368  1.00  0.00    -0.374 OA
BRANCH  23  24
ATOM     24  C   UNL A   1      44.667  18.958  24.881  1.00  0.00     0.202 C 
BRANCH  24  25
ATOM     25  C   UNL A   1      43.389  18.813  25.715  1.00  0.00     0.261 C 
BRANCH  25  26
ATOM     26  O   UNL A   1      42.259  19.404  25.044  1.00  0.00    -0.460 OA
BRANCH  26  27
ATOM     27  C   UNL A   1      41.323  19.922  25.877  1.00  0.00     0.338 C 
ATOM     28  O   UNL A   1      40.250  19.433  26.183  1.00  0.00    -0.246 OA
BRANCH  27  29
ATOM     29  C   UNL A   1      41.846  21.139  26.518  1.00  0.00     0.060 A 
ATOM     30  C   UNL A   1      41.815  21.217  27.916  1.00  0.00     0.016 A 
ATOM     31  C   UNL A   1      42.229  22.240  25.752  1.00  0.00     0.016 A 
ATOM     32  C   UNL A   1      42.142  22.413  28.555  1.00  0.00     0.010 A 
ATOM     33  C   UNL A   1      42.543  23.443  26.394  1.00  0.00     0.010 A 
ATOM     34  C   UNL A   1      42.472  23.544  27.796  1.00  0.00    -0.014 A 
BRANCH  34  35
ATOM     35  C   UNL A   1      42.634  24.859  28.460  1.00  0.00     0.031 A 
ATOM     36  C   UNL A   1      43.939  25.194  29.130  1.00  0.00     0.074 A 
ATOM     37  C   UNL A   1      41.632  25.756  28.455  1.00  0.00     0.049 A 
ATOM     38  N   UNL A   1      44.272  26.265  29.806  1.00  0.00    -0.248 NA
ATOM     39  C   UNL A   1      45.010  24.192  29.019  1.00  0.00     0.031 C 
ATOM     40  C   UNL A   1      40.337  25.572  27.801  1.00  0.00     0.029 A 
ATOM     41  N   UNL A   1      41.548  27.000  29.029  1.00  0.00    -0.354 N 
ATOM     42  C   UNL A   1      45.589  26.067  30.200  1.00  0.00     0.074 A 
ATOM     43  C   UNL A   1      45.988  24.766  29.705  1.00  0.00     0.031 C 
ATOM     44  C   UNL A   1      39.581  26.660  28.022  1.00  0.00     0.029 A 
ATOM     45  C   UNL A   1      40.324  27.598  28.863  1.00  0.00     0.049 A 
ATOM     46  H   UNL A   1      42.294  27.422  29.513  1.00  0.00     0.167 HD
ATOM     47  C   UNL A   1      46.395  26.896  30.905  1.00  0.00     0.037 A 
ATOM     48  C   UNL A   1      39.847  28.757  29.359  1.00  0.00     0.037 A 
ATOM     49  C   UNL A   1      46.000  28.188  31.402  1.00  0.00     0.049 A 
ATOM     50  C   UNL A   1      40.728  29.614  30.228  1.00  0.00     0.074 A 
ATOM     51  C   UNL A   1      46.760  29.115  32.095  1.00  0.00     0.029 A 
ATOM     52  N   UNL A   1      44.731  28.729  31.270  1.00  0.00    -0.354 N 
ATOM     53  N   UNL A   1      41.981  29.431  30.571  1.00  0.00    -0.248 NA
ATOM     54  C   UNL A   1      40.126  30.833  30.790  1.00  0.00     0.031 C 
ATOM     55  C   UNL A   1      45.935  30.197  32.424  1.00  0.00     0.029 A 
ATOM     56  C   UNL A   1      44.675  29.960  31.903  1.00  0.00     0.049 A 
ATOM     57  H   UNL A   1      43.982  28.302  30.795  1.00  0.00     0.167 HD
ATOM     58  C   UNL A   1      42.319  30.514  31.373  1.00  0.00     0.074 A 
ATOM     59  C   UNL A   1      41.146  31.357  31.456  1.00  0.00     0.031 C 
ATOM     60  C   UNL A   1      43.497  30.784  31.987  1.00  0.00     0.037 A 
BRANCH  47  61
ATOM     61  C   UNL A   1      47.785  26.422  31.204  1.00  0.00     0.057 A 
ATOM     62  C   UNL A   1      48.074  25.651  32.336  1.00  0.00     0.134 A 
ATOM     63  C   UNL A   1      48.837  26.702  30.324  1.00  0.00     0.134 A 
ATOM     64  F   UNL A   1      47.110  25.357  33.222  1.00  0.00    -0.206 F 
ATOM     65  C   UNL A   1      49.365  25.186  32.590  1.00  0.00     0.040 A 
ATOM     66  C   UNL A   1      50.129  26.229  30.558  1.00  0.00     0.040 A 
ATOM     67  F   UNL A   1      48.625  27.433  29.219  1.00  0.00    -0.206 F 
ATOM     68  C   UNL A   1      50.396  25.470  31.696  1.00  0.00     0.006 A 
ENDBRANCH  47  61
BRANCH  48  69
ATOM     69  C   UNL A   1      38.448  29.160  29.076  1.00  0.00     0.057 A 
ATOM     70  C   UNL A   1      37.458  29.081  30.061  1.00  0.00     0.134 A 
ATOM     71  C   UNL A   1      38.066  29.621  27.809  1.00  0.00     0.134 A 
ATOM     72  F   UNL A   1      37.759  28.625  31.286  1.00  0.00    -0.206 F 
ATOM     73  C   UNL A   1      36.133  29.433  29.793  1.00  0.00     0.040 A 
ATOM     74  C   UNL A   1      36.751  29.995  27.534  1.00  0.00     0.040 A 
ATOM     75  F   UNL A   1      38.971  29.724  26.824  1.00  0.00    -0.206 F 
ATOM     76  C   UNL A   1      35.778  29.896  28.527  1.00  0.00     0.006 A 
ENDBRANCH  48  69
BRANCH  60  77
ATOM     77  C   UNL A   1      43.578  32.041  32.801  1.00  0.00     0.057 A 
ATOM     78  C   UNL A   1      43.309  32.042  34.174  1.00  0.00     0.134 A 
ATOM     79  C   UNL A   1      43.976  33.249  32.217  1.00  0.00     0.134 A 
ATOM     80  F   UNL A   1      42.910  30.918  34.790  1.00  0.00    -0.206 F 
ATOM     81  C   UNL A   1      43.422  33.205  34.939  1.00  0.00     0.040 A 
ATOM     82  C   UNL A   1      44.113  34.415  32.973  1.00  0.00     0.040 A 
ATOM     83  F   UNL A   1      44.255  33.314  30.906  1.00  0.00    -0.206 F 
ATOM     84  C   UNL A   1      43.833  34.394  34.339  1.00  0.00     0.006 A 
ENDBRANCH  60  77
ENDBRANCH  34  35
ENDBRANCH  27  29
ENDBRANCH  26  27
ENDBRANCH  25  26
ENDBRANCH  24  25
ENDBRANCH  23  24
ENDBRANCH   1  23
TORSDOF 18
ENDMDL
MODEL 3
REMARK VINA RESULT:      -8.5      4.470      8.066
REMARK SMILES CC[C@@H]1CCC[C@@](Cc2cccc(O)c2)(C(=O)OCCOCCOC(=O)c2ccc(-c3c4nc(c(-c5c(F)cccc5F)c5ccc([nH]5)c(-c5c(F)cccc5F)c5nc(c(-c6c(F)cccc6F)c6ccc3[nH]6)C=C5)C=C4)cc2)C1
REMARK SMILES IDX 20 1 19 2 18 3 16 4 17 5 7 6 3 7 4 8 81 9 5 10 6 11 2 12
REMARK SMILES IDX 1 13 8 14 9 15 10 16 15 17 11 18 13 19 12 20 14 21 21 23
REMARK SMILES IDX 22 24 23 25 24 26 25 27 26 28 27 29 28 30 80 31 29 32 79 33
REMARK SMILES IDX 30 34 31 35 32 36 73 37 33 38 78 39 72 40 74 41 34 42 77 43
REMARK SMILES IDX 71 44 70 45 35 47 61 48 44 49 60 50 45 51 48 52 59 53 75 54
REMARK SMILES IDX 46 55 47 56 58 58 76 59 49 60 36 61 37 62 42 63 38 64 39 65
REMARK SMILES IDX 41 66 43 67 40 68 62 69 63 70 68 71 64 72 65 73 67 74 69 75
REMARK SMILES IDX 66 76 50 77 51 78 56 79 52 80 53 81 55 82 57 83 54 84
REMARK H PARENT 14 22 74 46 48 57
REMARK Flexibility Score: inf
ROOT
ATOM      1  C   UNL A   1      37.076  23.380  25.634  1.00  0.00     0.202 C 
ENDROOT
BRANCH   1   2
ATOM      2  C   UNL A   1      35.640  23.756  26.006  1.00  0.00     0.261 C 
BRANCH   2   3
ATOM      3  O   UNL A   1      34.786  22.647  26.358  1.00  0.00    -0.463 OA
BRANCH   3   4
ATOM      4  C   UNL A   1      33.463  22.836  26.093  1.00  0.00     0.312 C 
ATOM      5  O   UNL A   1      32.730  23.546  26.776  1.00  0.00    -0.252 OA
BRANCH   4   6
ATOM      6  C   UNL A   1      32.920  22.004  24.919  1.00  0.00     0.072 C 
ATOM      7  C   UNL A   1      31.864  24.021  23.728  1.00  0.00    -0.010 C 
ATOM      8  C   UNL A   1      32.670  23.743  22.459  1.00  0.00     0.003 C 
ATOM      9  C   UNL A   1      31.593  22.689  24.455  1.00  0.00     0.022 C 
ATOM     10  C   UNL A   1      33.998  23.072  22.796  1.00  0.00     0.001 C 
ATOM     11  C   UNL A   1      33.852  21.841  23.692  1.00  0.00     0.019 C 
BRANCH   7  12
ATOM     12  C   UNL A   1      30.599  24.860  23.484  1.00  0.00     0.000 C 
ATOM     13  C   UNL A   1      30.183  25.787  24.611  1.00  0.00     0.004 C 
ENDBRANCH   7  12
BRANCH   6  14
ATOM     14  C   UNL A   1      32.579  20.604  25.528  1.00  0.00     0.054 C 
BRANCH  14  15
ATOM     15  C   UNL A   1      32.967  19.407  24.678  1.00  0.00    -0.043 A 
ATOM     16  C   UNL A   1      34.135  18.676  24.940  1.00  0.00     0.004 A 
ATOM     17  C   UNL A   1      32.174  19.026  23.587  1.00  0.00     0.049 A 
ATOM     18  C   UNL A   1      34.538  17.639  24.093  1.00  0.00     0.004 A 
ATOM     19  C   UNL A   1      32.569  17.976  22.762  1.00  0.00     0.115 A 
ATOM     20  C   UNL A   1      33.755  17.288  22.996  1.00  0.00     0.046 A 
BRANCH  19  21
ATOM     21  O   UNL A   1      31.755  17.650  21.718  1.00  0.00    -0.508 OA
ATOM     22  H   UNL A   1      31.156  16.933  21.796  1.00  0.00     0.293 HD
ENDBRANCH  19  21
ENDBRANCH  14  15
ENDBRANCH   6  14
ENDBRANCH   4   6
ENDBRANCH   3   4
ENDBRANCH   2   3
ENDBRANCH   1   2
BRANCH   1  23
ATOM     23  O   UNL A   1      37.493  22.047  25.904  1.00  0.00    -0.374 OA
BRANCH  23  24
ATOM     24  C   UNL A   1      37.632  21.175  24.783  1.00  0.00     0.202 C 
BRANCH  24  25
ATOM     25  C   UNL A   1      38.597  19.997  24.957  1.00  0.00     0.261 C 
BRANCH  25  26
ATOM     26  O   UNL A   1      39.298  20.078  26.213  1.00  0.00    -0.460 OA
BRANCH  26  27
ATOM     27  C   UNL A   1      40.629  19.838  26.127  1.00  0.00     0.338 C 
ATOM     28  O   UNL A   1      41.178  18.875  25.622  1.00  0.00    -0.246 OA
BRANCH  27  29
ATOM     29  C   UNL A   1      41.379  21.009  26.609  1.00  0.00     0.060 A 
ATOM     30  C   UNL A   1      41.417  21.250  27.989  1.00  0.00     0.016 A 
ATOM     31  C   UNL A   1      41.915  21.931  25.710  1.00  0.00     0.016 A 
ATOM     32  C   UNL A   1      41.971  22.435  28.474  1.00  0.00     0.010 A 
ATOM     33  C   UNL A   1      42.458  23.125  26.199  1.00  0.00     0.010 A 
ATOM     34  C   UNL A   1      42.461  23.396  27.579  1.00  0.00    -0.014 A 
BRANCH  34  35
ATOM     35  C   UNL A   1      42.874  24.729  28.079  1.00  0.00     0.031 A 
ATOM     36  C   UNL A   1      41.829  25.780  28.336  1.00  0.00     0.074 A 
ATOM     37  C   UNL A   1      44.170  24.998  28.317  1.00  0.00     0.049 A 
ATOM     38  N   UNL A   1      41.980  27.020  28.728  1.00  0.00    -0.248 NA
ATOM     39  C   UNL A   1      40.429  25.378  28.128  1.00  0.00     0.031 C 
ATOM     40  C   UNL A   1      45.273  24.052  28.155  1.00  0.00     0.029 A 
ATOM     41  N   UNL A   1      44.776  26.155  28.741  1.00  0.00    -0.354 N 
ATOM     42  C   UNL A   1      40.698  27.547  28.813  1.00  0.00     0.074 A 
ATOM     43  C   UNL A   1      39.782  26.499  28.414  1.00  0.00     0.031 C 
ATOM     44  C   UNL A   1      46.425  24.671  28.462  1.00  0.00     0.029 A 
ATOM     45  C   UNL A   1      46.144  26.065  28.806  1.00  0.00     0.049 A 
ATOM     46  H   UNL A   1      44.277  26.970  28.975  1.00  0.00     0.167 HD
ATOM     47  C   UNL A   1      40.318  28.790  29.196  1.00  0.00     0.037 A 
ATOM     48  C   UNL A   1      47.066  27.008  29.081  1.00  0.00     0.037 A 
ATOM     49  C   UNL A   1      41.226  29.835  29.590  1.00  0.00     0.049 A 
ATOM     50  C   UNL A   1      46.624  28.411  29.402  1.00  0.00     0.074 A 
ATOM     51  C   UNL A   1      40.930  31.114  30.028  1.00  0.00     0.029 A 
ATOM     52  N   UNL A   1      42.607  29.724  29.577  1.00  0.00    -0.354 N 
ATOM     53  N   UNL A   1      45.408  28.891  29.508  1.00  0.00    -0.248 NA
ATOM     54  C   UNL A   1      47.683  29.406  29.629  1.00  0.00     0.031 C 
ATOM     55  C   UNL A   1      42.136  31.794  30.235  1.00  0.00     0.029 A 
ATOM     56  C   UNL A   1      43.180  30.925  29.963  1.00  0.00     0.049 A 
ATOM     57  H   UNL A   1      43.106  28.912  29.332  1.00  0.00     0.167 HD
ATOM     58  C   UNL A   1      45.555  30.235  29.827  1.00  0.00     0.074 A 
ATOM     59  C   UNL A   1      46.977  30.493  29.911  1.00  0.00     0.031 C 
ATOM     60  C   UNL A   1      44.596  31.172  30.031  1.00  0.00     0.037 A 
BRANCH  47  61
ATOM     61  C   UNL A   1      38.851  29.098  29.187  1.00  0.00     0.057 A 
ATOM     62  C   UNL A   1      38.065  28.983  30.339  1.00  0.00     0.134 A 
ATOM     63  C   UNL A   1      38.229  29.561  28.020  1.00  0.00     0.134 A 
ATOM     64  F   UNL A   1      38.601  28.535  31.485  1.00  0.00    -0.206 F 
ATOM     65  C   UNL A   1      36.706  29.302  30.329  1.00  0.00     0.040 A 
ATOM     66  C   UNL A   1      36.875  29.901  28.002  1.00  0.00     0.040 A 
ATOM     67  F   UNL A   1      38.928  29.698  26.884  1.00  0.00    -0.206 F 
ATOM     68  C   UNL A   1      36.110  29.769  29.159  1.00  0.00     0.006 A 
ENDBRANCH  47  61
BRANCH  48  69
ATOM     69  C   UNL A   1      48.508  26.667  29.029  1.00  0.00     0.057 A 
ATOM     70  C   UNL A   1      49.176  26.165  30.151  1.00  0.00     0.134 A 
ATOM     71  C   UNL A   1      49.257  26.851  27.860  1.00  0.00     0.134 A 
ATOM     72  F   UNL A   1      48.516  25.990  31.306  1.00  0.00    -0.206 F 
ATOM     73  C   UNL A   1      50.540  25.869  30.117  1.00  0.00     0.040 A 
ATOM     74  C   UNL A   1      50.616  26.540  27.806  1.00  0.00     0.040 A 
ATOM     75  F   UNL A   1      48.674  27.325  26.749  1.00  0.00    -0.206 F 
ATOM     76  C   UNL A   1      51.262  26.052  28.939  1.00  0.00     0.006 A 
ENDBRANCH  48  69
BRANCH  60  77
ATOM     77  C   UNL A   1      45.051  32.562  30.366  1.00  0.00     0.057 A 
ATOM     78  C   UNL A   1      45.318  32.945  31.685  1.00  0.00     0.134 A 
ATOM     79  C   UNL A   1      45.270  33.508  29.358  1.00  0.00     0.134 A 
ATOM     80  F   UNL A   1      45.115  32.088  32.697  1.00  0.00    -0.206 F 
ATOM     81  C   UNL A   1      45.779  34.227  31.993  1.00  0.00     0.040 A 
ATOM     82  C   UNL A   1      45.749  34.786  29.649  1.00  0.00     0.040 A 
ATOM     83  F   UNL A   1      45.039  33.201  28.073  1.00  0.00    -0.206 F 
ATOM     84  C   UNL A   1      46.002  35.148  30.972  1.00  0.00     0.006 A 
ENDBRANCH  60  77
ENDBRANCH  34  35
ENDBRANCH  27  29
ENDBRANCH  26  27
ENDBRANCH  25  26
ENDBRANCH  24  25
ENDBRANCH  23  24
ENDBRANCH   1  23
TORSDOF 18
ENDMDL
