MODEL 1
REMARK VINA RESULT:      -8.7      0.000      0.000
REMARK SMILES O=C(C[N@@H+](Cc1c(F)cccc1Cl)C1CC1)OCCOCCOC(=O)c1ccc(-c2c3nc(c(-c4c(F)cccc4F)c4ccc([nH]4)c(-c4c(F)cccc4F)c4nc(c(-c5c(F)cccc5F)c5ccc2[nH]5)C=C4)C=C3)cc1
REMARK SMILES IDX 19 1 18 2 17 3 2 4 1 5 3 6 4 7 5 9 6 10 7 11 12 12 8 13 9 14
REMARK SMILES IDX 11 15 13 16 10 17 14 18 15 19 16 20 20 21 21 22 22 23 23 24
REMARK SMILES IDX 24 25 25 26 26 27 27 28 79 29 28 30 78 31 29 32 30 33 31 34
REMARK SMILES IDX 72 35 32 36 77 37 71 38 73 39 33 40 76 41 70 42 69 43 34 45
REMARK SMILES IDX 60 46 43 47 59 48 44 49 47 50 58 51 74 52 45 53 46 54 57 56
REMARK SMILES IDX 75 57 48 58 35 59 36 60 41 61 37 62 38 63 40 64 42 65 39 66
REMARK SMILES IDX 61 67 62 68 67 69 63 70 64 71 66 72 68 73 65 74 49 75 50 76
REMARK SMILES IDX 55 77 51 78 52 79 54 80 56 81 53 82
REMARK H PARENT 4 8 73 44 47 55
REMARK Flexibility Score: inf
ROOT
ATOM      1  C   UNL A   1      33.074  35.664  30.225  1.00  0.00     0.202 C 
ENDROOT
BRANCH   1   2
ATOM      2  C   UNL A   1      33.984  35.173  31.347  1.00  0.00     0.261 C 
BRANCH   2   3
ATOM      3  O   UNL A   1      34.093  33.747  31.442  1.00  0.00    -0.459 OA
BRANCH   3   4
ATOM      4  C   UNL A   1      34.407  33.077  32.579  1.00  0.00     0.361 C 
ATOM      5  O   UNL A   1      33.825  33.367  33.626  1.00  0.00    -0.245 OA
BRANCH   4   6
ATOM      6  C   UNL A   1      35.545  32.072  32.581  1.00  0.00     0.387 C 
BRANCH   6   7
ATOM      7  N   UNL A   1      36.846  32.627  32.978  1.00  0.00    -0.319 N 
ATOM      8  H   UNL A   1      36.647  33.581  33.280  1.00  0.00     0.349 HD
BRANCH   7   9
ATOM      9  C   UNL A   1      37.411  31.945  34.174  1.00  0.00     0.304 C 
BRANCH   9  10
ATOM     10  C   UNL A   1      38.634  31.082  33.932  1.00  0.00     0.061 A 
ATOM     11  C   UNL A   1      38.465  29.815  33.346  1.00  0.00     0.133 A 
ATOM     12  C   UNL A   1      39.949  31.492  34.186  1.00  0.00     0.052 A 
ATOM     13  F   UNL A   1      37.231  29.321  33.164  1.00  0.00    -0.206 F 
ATOM     14  C   UNL A   1      39.542  29.043  32.916  1.00  0.00     0.040 A 
ATOM     15  C   UNL A   1      41.036  30.743  33.717  1.00  0.00     0.021 A 
ATOM     16  Cl  UNL A   1      40.324  32.870  35.157  1.00  0.00    -0.084 Cl
ATOM     17  C   UNL A   1      40.833  29.529  33.064  1.00  0.00     0.005 A 
ENDBRANCH   9  10
ENDBRANCH   7   9
BRANCH   7  18
ATOM     18  C   UNL A   1      37.796  32.877  31.884  1.00  0.00     0.185 C 
ATOM     19  C   UNL A   1      37.458  33.577  30.595  1.00  0.00     0.071 C 
ATOM     20  C   UNL A   1      38.232  34.303  31.649  1.00  0.00     0.071 C 
ENDBRANCH   7  18
ENDBRANCH   6   7
ENDBRANCH   4   6
ENDBRANCH   3   4
ENDBRANCH   2   3
ENDBRANCH   1   2
BRANCH   1  21
ATOM     21  O   UNL A   1      33.478  35.482  28.875  1.00  0.00    -0.374 OA
BRANCH  21  22
ATOM     22  C   UNL A   1      33.287  34.203  28.266  1.00  0.00     0.202 C 
BRANCH  22  23
ATOM     23  C   UNL A   1      34.499  33.301  28.014  1.00  0.00     0.261 C 
BRANCH  23  24
ATOM     24  O   UNL A   1      34.507  32.127  28.837  1.00  0.00    -0.460 OA
BRANCH  24  25
ATOM     25  C   UNL A   1      34.535  30.956  28.158  1.00  0.00     0.338 C 
ATOM     26  O   UNL A   1      33.704  30.530  27.372  1.00  0.00    -0.246 OA
BRANCH  25  27
ATOM     27  C   UNL A   1      35.859  30.340  28.339  1.00  0.00     0.060 A 
ATOM     28  C   UNL A   1      36.233  29.936  29.629  1.00  0.00     0.016 A 
ATOM     29  C   UNL A   1      36.725  30.182  27.257  1.00  0.00     0.016 A 
ATOM     30  C   UNL A   1      37.495  29.394  29.849  1.00  0.00     0.010 A 
ATOM     31  C   UNL A   1      37.996  29.660  27.483  1.00  0.00     0.010 A 
ATOM     32  C   UNL A   1      38.393  29.289  28.780  1.00  0.00    -0.014 A 
BRANCH  32  33
ATOM     33  C   UNL A   1      39.803  28.922  29.023  1.00  0.00     0.031 A 
ATOM     34  C   UNL A   1      40.740  29.983  29.521  1.00  0.00     0.074 A 
ATOM     35  C   UNL A   1      40.238  27.681  28.752  1.00  0.00     0.049 A 
ATOM     36  N   UNL A   1      42.040  29.947  29.645  1.00  0.00    -0.248 NA
ATOM     37  C   UNL A   1      40.129  31.262  29.924  1.00  0.00     0.031 C 
ATOM     38  C   UNL A   1      39.400  26.573  28.296  1.00  0.00     0.029 A 
ATOM     39  N   UNL A   1      41.504  27.156  28.784  1.00  0.00    -0.354 N 
ATOM     40  C   UNL A   1      42.405  31.204  30.109  1.00  0.00     0.074 A 
ATOM     41  C   UNL A   1      41.195  31.983  30.241  1.00  0.00     0.031 C 
ATOM     42  C   UNL A   1      40.183  25.508  28.052  1.00  0.00     0.029 A 
ATOM     43  C   UNL A   1      41.576  25.877  28.289  1.00  0.00     0.049 A 
ATOM     44  H   UNL A   1      42.286  27.648  29.128  1.00  0.00     0.167 HD
ATOM     45  C   UNL A   1      43.647  31.660  30.390  1.00  0.00     0.037 A 
ATOM     46  C   UNL A   1      42.653  25.117  28.010  1.00  0.00     0.037 A 
ATOM     47  C   UNL A   1      44.838  30.865  30.265  1.00  0.00     0.049 A 
ATOM     48  C   UNL A   1      44.026  25.676  28.274  1.00  0.00     0.074 A 
ATOM     49  C   UNL A   1      46.140  31.208  30.585  1.00  0.00     0.029 A 
ATOM     50  N   UNL A   1      44.873  29.573  29.765  1.00  0.00    -0.354 N 
ATOM     51  N   UNL A   1      44.365  26.843  28.769  1.00  0.00    -0.248 NA
ATOM     52  C   UNL A   1      45.170  24.816  27.937  1.00  0.00     0.031 C 
ATOM     53  C   UNL A   1      46.970  30.149  30.214  1.00  0.00     0.029 A 
ATOM     54  C   UNL A   1      46.180  29.121  29.723  1.00  0.00     0.049 A 
ATOM     55  H   UNL A   1      44.086  29.053  29.482  1.00  0.00     0.167 HD
ATOM     56  C   UNL A   1      45.754  26.848  28.823  1.00  0.00     0.074 A 
ATOM     57  C   UNL A   1      46.195  25.560  28.330  1.00  0.00     0.031 C 
ATOM     58  C   UNL A   1      46.592  27.829  29.236  1.00  0.00     0.037 A 
BRANCH  45  59
ATOM     59  C   UNL A   1      43.795  33.087  30.827  1.00  0.00     0.057 A 
ATOM     60  C   UNL A   1      43.884  33.450  32.175  1.00  0.00     0.134 A 
ATOM     61  C   UNL A   1      43.927  34.105  29.872  1.00  0.00     0.134 A 
ATOM     62  F   UNL A   1      43.751  32.526  33.139  1.00  0.00    -0.206 F 
ATOM     63  C   UNL A   1      44.094  34.776  32.560  1.00  0.00     0.040 A 
ATOM     64  C   UNL A   1      44.162  35.429  30.244  1.00  0.00     0.040 A 
ATOM     65  F   UNL A   1      43.852  33.825  28.563  1.00  0.00    -0.206 F 
ATOM     66  C   UNL A   1      44.246  35.767  31.592  1.00  0.00     0.006 A 
ENDBRANCH  45  59
BRANCH  46  67
ATOM     67  C   UNL A   1      42.487  23.774  27.395  1.00  0.00     0.057 A 
ATOM     68  C   UNL A   1      42.313  22.630  28.182  1.00  0.00     0.134 A 
ATOM     69  C   UNL A   1      42.545  23.596  26.006  1.00  0.00     0.134 A 
ATOM     70  F   UNL A   1      42.271  22.730  29.519  1.00  0.00    -0.206 F 
ATOM     71  C   UNL A   1      42.234  21.357  27.614  1.00  0.00     0.040 A 
ATOM     72  C   UNL A   1      42.437  22.332  25.425  1.00  0.00     0.040 A 
ATOM     73  F   UNL A   1      42.709  24.650  25.193  1.00  0.00    -0.206 F 
ATOM     74  C   UNL A   1      42.293  21.206  26.230  1.00  0.00     0.006 A 
ENDBRANCH  46  67
BRANCH  58  75
ATOM     75  C   UNL A   1      48.064  27.540  29.201  1.00  0.00     0.057 A 
ATOM     76  C   UNL A   1      48.707  26.859  30.241  1.00  0.00     0.134 A 
ATOM     77  C   UNL A   1      48.832  27.891  28.082  1.00  0.00     0.134 A 
ATOM     78  F   UNL A   1      48.030  26.507  31.345  1.00  0.00    -0.206 F 
ATOM     79  C   UNL A   1      50.067  26.553  30.178  1.00  0.00     0.040 A 
ATOM     80  C   UNL A   1      50.184  27.562  27.995  1.00  0.00     0.040 A 
ATOM     81  F   UNL A   1      48.273  28.534  27.047  1.00  0.00    -0.206 F 
ATOM     82  C   UNL A   1      50.806  26.895  29.048  1.00  0.00     0.006 A 
ENDBRANCH  58  75
ENDBRANCH  32  33
ENDBRANCH  25  27
ENDBRANCH  24  25
ENDBRANCH  23  24
ENDBRANCH  22  23
ENDBRANCH  21  22
ENDBRANCH   1  21
TORSDOF 18
ENDMDL
MODEL 2
REMARK VINA RESULT:      -8.5      4.902     10.304
REMARK SMILES O=C(C[N@@H+](Cc1c(F)cccc1Cl)C1CC1)OCCOCCOC(=O)c1ccc(-c2c3nc(c(-c4c(F)cccc4F)c4ccc([nH]4)c(-c4c(F)cccc4F)c4nc(c(-c5c(F)cccc5F)c5ccc2[nH]5)C=C4)C=C3)cc1
REMARK SMILES IDX 19 1 18 2 17 3 2 4 1 5 3 6 4 7 5 9 6 10 7 11 12 12 8 13 9 14
REMARK SMILES IDX 11 15 13 16 10 17 14 18 15 19 16 20 20 21 21 22 22 23 23 24
REMARK SMILES IDX 24 25 25 26 26 27 27 28 79 29 28 30 78 31 29 32 30 33 31 34
REMARK SMILES IDX 72 35 32 36 77 37 71 38 73 39 33 40 76 41 70 42 69 43 34 45
REMARK SMILES IDX 60 46 43 47 59 48 44 49 47 50 58 51 74 52 45 53 46 54 57 56
REMARK SMILES IDX 75 57 48 58 35 59 36 60 41 61 37 62 38 63 40 64 42 65 39 66
REMARK SMILES IDX 61 67 62 68 67 69 63 70 64 71 66 72 68 73 65 74 49 75 50 76
REMARK SMILES IDX 55 77 51 78 52 79 54 80 56 81 53 82
REMARK H PARENT 4 8 73 44 47 55
REMARK Flexibility Score: inf
ROOT
ATOM      1  C   UNL A   1      45.024  22.066  24.364  1.00  0.00     0.202 C 
ENDROOT
BRANCH   1   2
ATOM      2  C   UNL A   1      46.379  22.761  24.263  1.00  0.00     0.261 C 
BRANCH   2   3
ATOM      3  O   UNL A   1      46.320  24.191  24.348  1.00  0.00    -0.459 OA
BRANCH   3   4
ATOM      4  C   UNL A   1      47.083  24.941  25.182  1.00  0.00     0.361 C 
ATOM      5  O   UNL A   1      47.530  24.427  26.210  1.00  0.00    -0.245 OA
BRANCH   4   6
ATOM      6  C   UNL A   1      47.275  26.423  24.913  1.00  0.00     0.387 C 
BRANCH   6   7
ATOM      7  N   UNL A   1      46.887  27.299  26.026  1.00  0.00    -0.319 N 
ATOM      8  H   UNL A   1      46.655  28.192  25.592  1.00  0.00     0.349 HD
BRANCH   7   9
ATOM      9  C   UNL A   1      45.635  26.848  26.692  1.00  0.00     0.304 C 
BRANCH   9  10
ATOM     10  C   UNL A   1      44.376  27.613  26.330  1.00  0.00     0.061 A 
ATOM     11  C   UNL A   1      43.473  27.041  25.417  1.00  0.00     0.133 A 
ATOM     12  C   UNL A   1      44.008  28.836  26.905  1.00  0.00     0.052 A 
ATOM     13  F   UNL A   1      43.806  25.921  24.760  1.00  0.00    -0.206 F 
ATOM     14  C   UNL A   1      42.212  27.584  25.178  1.00  0.00     0.040 A 
ATOM     15  C   UNL A   1      42.726  29.365  26.704  1.00  0.00     0.021 A 
ATOM     16  Cl  UNL A   1      45.111  29.813  27.806  1.00  0.00    -0.084 Cl
ATOM     17  C   UNL A   1      41.820  28.729  25.857  1.00  0.00     0.005 A 
ENDBRANCH   9  10
ENDBRANCH   7   9
BRANCH   7  18
ATOM     18  C   UNL A   1      47.973  27.707  26.929  1.00  0.00     0.185 C 
ATOM     19  C   UNL A   1      49.381  28.017  26.496  1.00  0.00     0.071 C 
ATOM     20  C   UNL A   1      48.452  29.136  26.846  1.00  0.00     0.071 C 
ENDBRANCH   7  18
ENDBRANCH   6   7
ENDBRANCH   4   6
ENDBRANCH   3   4
ENDBRANCH   2   3
ENDBRANCH   1   2
BRANCH   1  21
ATOM     21  O   UNL A   1      44.856  20.786  23.772  1.00  0.00    -0.374 OA
BRANCH  21  22
ATOM     22  C   UNL A   1      45.052  19.623  24.579  1.00  0.00     0.202 C 
BRANCH  22  23
ATOM     23  C   UNL A   1      43.845  18.760  24.962  1.00  0.00     0.261 C 
BRANCH  23  24
ATOM     24  O   UNL A   1      43.239  19.158  26.198  1.00  0.00    -0.460 OA
BRANCH  24  25
ATOM     25  C   UNL A   1      41.981  19.645  26.085  1.00  0.00     0.338 C 
ATOM     26  O   UNL A   1      40.978  19.046  25.733  1.00  0.00    -0.246 OA
BRANCH  25  27
ATOM     27  C   UNL A   1      41.946  20.994  26.672  1.00  0.00     0.060 A 
ATOM     28  C   UNL A   1      42.294  22.082  25.859  1.00  0.00     0.016 A 
ATOM     29  C   UNL A   1      41.595  21.180  28.009  1.00  0.00     0.016 A 
ATOM     30  C   UNL A   1      42.320  23.368  26.390  1.00  0.00     0.010 A 
ATOM     31  C   UNL A   1      41.644  22.464  28.546  1.00  0.00     0.010 A 
ATOM     32  C   UNL A   1      42.029  23.555  27.747  1.00  0.00    -0.014 A 
BRANCH  32  33
ATOM     33  C   UNL A   1      42.257  24.868  28.385  1.00  0.00     0.031 A 
ATOM     34  C   UNL A   1      43.541  25.084  29.131  1.00  0.00     0.074 A 
ATOM     35  C   UNL A   1      41.311  25.819  28.337  1.00  0.00     0.049 A 
ATOM     36  N   UNL A   1      43.891  26.075  29.905  1.00  0.00    -0.248 NA
ATOM     37  C   UNL A   1      44.565  24.032  28.995  1.00  0.00     0.031 C 
ATOM     38  C   UNL A   1      40.046  25.718  27.611  1.00  0.00     0.029 A 
ATOM     39  N   UNL A   1      41.253  27.046  28.947  1.00  0.00    -0.354 N 
ATOM     40  C   UNL A   1      45.159  25.756  30.372  1.00  0.00     0.074 A 
ATOM     41  C   UNL A   1      45.517  24.477  29.802  1.00  0.00     0.031 C 
ATOM     42  C   UNL A   1      39.318  26.822  27.851  1.00  0.00     0.029 A 
ATOM     43  C   UNL A   1      40.046  27.680  28.781  1.00  0.00     0.049 A 
ATOM     44  H   UNL A   1      42.004  27.435  29.453  1.00  0.00     0.167 HD
ATOM     45  C   UNL A   1      45.944  26.470  31.211  1.00  0.00     0.037 A 
ATOM     46  C   UNL A   1      39.570  28.798  29.363  1.00  0.00     0.037 A 
ATOM     47  C   UNL A   1      45.575  27.747  31.757  1.00  0.00     0.049 A 
ATOM     48  C   UNL A   1      40.443  29.539  30.341  1.00  0.00     0.074 A 
ATOM     49  C   UNL A   1      46.322  28.586  32.565  1.00  0.00     0.029 A 
ATOM     50  N   UNL A   1      44.346  28.360  31.566  1.00  0.00    -0.354 N 
ATOM     51  N   UNL A   1      41.664  29.264  30.734  1.00  0.00    -0.248 NA
ATOM     52  C   UNL A   1      39.872  30.743  30.962  1.00  0.00     0.031 C 
ATOM     53  C   UNL A   1      45.521  29.674  32.918  1.00  0.00     0.029 A 
ATOM     54  C   UNL A   1      44.297  29.545  32.278  1.00  0.00     0.049 A 
ATOM     55  H   UNL A   1      43.618  28.006  31.005  1.00  0.00     0.167 HD
ATOM     56  C   UNL A   1      42.014  30.269  31.628  1.00  0.00     0.074 A 
ATOM     57  C   UNL A   1      40.884  31.172  31.703  1.00  0.00     0.031 C 
ATOM     58  C   UNL A   1      43.163  30.431  32.329  1.00  0.00     0.037 A 
BRANCH  45  59
ATOM     59  C   UNL A   1      47.262  25.882  31.619  1.00  0.00     0.057 A 
ATOM     60  C   UNL A   1      48.408  25.997  30.826  1.00  0.00     0.134 A 
ATOM     61  C   UNL A   1      47.398  25.257  32.866  1.00  0.00     0.134 A 
ATOM     62  F   UNL A   1      48.344  26.571  29.614  1.00  0.00    -0.206 F 
ATOM     63  C   UNL A   1      49.644  25.508  31.255  1.00  0.00     0.040 A 
ATOM     64  C   UNL A   1      48.631  24.787  33.317  1.00  0.00     0.040 A 
ATOM     65  F   UNL A   1      46.337  25.115  33.676  1.00  0.00    -0.206 F 
ATOM     66  C   UNL A   1      49.759  24.912  32.510  1.00  0.00     0.006 A 
ENDBRANCH  45  59
BRANCH  46  67
ATOM     67  C   UNL A   1      38.183  29.257  29.087  1.00  0.00     0.057 A 
ATOM     68  C   UNL A   1      37.832  29.816  27.853  1.00  0.00     0.134 A 
ATOM     69  C   UNL A   1      37.185  29.189  30.069  1.00  0.00     0.134 A 
ATOM     70  F   UNL A   1      38.748  29.929  26.879  1.00  0.00    -0.206 F 
ATOM     71  C   UNL A   1      36.552  30.319  27.615  1.00  0.00     0.040 A 
ATOM     72  C   UNL A   1      35.893  29.661  29.834  1.00  0.00     0.040 A 
ATOM     73  F   UNL A   1      37.452  28.663  31.274  1.00  0.00    -0.206 F 
ATOM     74  C   UNL A   1      35.576  30.239  28.607  1.00  0.00     0.006 A 
ENDBRANCH  46  67
BRANCH  58  75
ATOM     75  C   UNL A   1      43.267  31.639  33.214  1.00  0.00     0.057 A 
ATOM     76  C   UNL A   1      42.908  31.596  34.566  1.00  0.00     0.134 A 
ATOM     77  C   UNL A   1      43.794  32.840  32.719  1.00  0.00     0.134 A 
ATOM     78  F   UNL A   1      42.387  30.479  35.096  1.00  0.00    -0.206 F 
ATOM     79  C   UNL A   1      43.054  32.710  35.392  1.00  0.00     0.040 A 
ATOM     80  C   UNL A   1      43.973  33.951  33.544  1.00  0.00     0.040 A 
ATOM     81  F   UNL A   1      44.168  32.944  31.436  1.00  0.00    -0.206 F 
ATOM     82  C   UNL A   1      43.597  33.888  34.884  1.00  0.00     0.006 A 
ENDBRANCH  58  75
ENDBRANCH  32  33
ENDBRANCH  25  27
ENDBRANCH  24  25
ENDBRANCH  23  24
ENDBRANCH  22  23
ENDBRANCH  21  22
ENDBRANCH   1  21
TORSDOF 18
ENDMDL
MODEL 3
REMARK VINA RESULT:      -8.3      1.255      2.299
REMARK SMILES O=C(C[N@@H+](Cc1c(F)cccc1Cl)C1CC1)OCCOCCOC(=O)c1ccc(-c2c3nc(c(-c4c(F)cccc4F)c4ccc([nH]4)c(-c4c(F)cccc4F)c4nc(c(-c5c(F)cccc5F)c5ccc2[nH]5)C=C4)C=C3)cc1
REMARK SMILES IDX 19 1 18 2 17 3 2 4 1 5 3 6 4 7 5 9 6 10 7 11 12 12 8 13 9 14
REMARK SMILES IDX 11 15 13 16 10 17 14 18 15 19 16 20 20 21 21 22 22 23 23 24
REMARK SMILES IDX 24 25 25 26 26 27 27 28 79 29 28 30 78 31 29 32 30 33 31 34
REMARK SMILES IDX 72 35 32 36 77 37 71 38 73 39 33 40 76 41 70 42 69 43 34 45
REMARK SMILES IDX 60 46 43 47 59 48 44 49 47 50 58 51 74 52 45 53 46 54 57 56
REMARK SMILES IDX 75 57 48 58 35 59 36 60 41 61 37 62 38 63 40 64 42 65 39 66
REMARK SMILES IDX 61 67 62 68 67 69 63 70 64 71 66 72 68 73 65 74 49 75 50 76
REMARK SMILES IDX 55 77 51 78 52 79 54 80 56 81 53 82
REMARK H PARENT 4 8 73 44 47 55
REMARK Flexibility Score: inf
ROOT
ATOM      1  C   UNL A   1      33.191  35.922  29.916  1.00  0.00     0.202 C 
ENDROOT
BRANCH   1   2
ATOM      2  C   UNL A   1      33.386  35.582  31.392  1.00  0.00     0.261 C 
BRANCH   2   3
ATOM      3  O   UNL A   1      34.054  34.336  31.629  1.00  0.00    -0.459 OA
BRANCH   3   4
ATOM      4  C   UNL A   1      34.138  33.732  32.841  1.00  0.00     0.361 C 
ATOM      5  O   UNL A   1      33.169  33.098  33.264  1.00  0.00    -0.245 OA
BRANCH   4   6
ATOM      6  C   UNL A   1      35.364  33.940  33.712  1.00  0.00     0.387 C 
BRANCH   6   7
ATOM      7  N   UNL A   1      36.613  33.419  33.141  1.00  0.00    -0.319 N 
ATOM      8  H   UNL A   1      36.400  33.235  32.161  1.00  0.00     0.349 HD
BRANCH   7   9
ATOM      9  C   UNL A   1      37.697  34.440  33.123  1.00  0.00     0.304 C 
BRANCH   9  10
ATOM     10  C   UNL A   1      38.648  34.378  31.943  1.00  0.00     0.061 A 
ATOM     11  C   UNL A   1      38.115  34.351  30.642  1.00  0.00     0.133 A 
ATOM     12  C   UNL A   1      40.043  34.420  32.056  1.00  0.00     0.052 A 
ATOM     13  F   UNL A   1      36.793  34.215  30.463  1.00  0.00    -0.206 F 
ATOM     14  C   UNL A   1      38.913  34.487  29.508  1.00  0.00     0.040 A 
ATOM     15  C   UNL A   1      40.848  34.601  30.924  1.00  0.00     0.021 A 
ATOM     16  Cl  UNL A   1      40.866  34.161  33.553  1.00  0.00    -0.084 Cl
ATOM     17  C   UNL A   1      40.282  34.655  29.651  1.00  0.00     0.005 A 
ENDBRANCH   9  10
ENDBRANCH   7   9
BRANCH   7  18
ATOM     18  C   UNL A   1      37.014  32.079  33.592  1.00  0.00     0.185 C 
ATOM     19  C   UNL A   1      36.695  30.797  32.870  1.00  0.00     0.071 C 
ATOM     20  C   UNL A   1      38.077  31.362  32.797  1.00  0.00     0.071 C 
ENDBRANCH   7  18
ENDBRANCH   6   7
ENDBRANCH   4   6
ENDBRANCH   3   4
ENDBRANCH   2   3
ENDBRANCH   1   2
BRANCH   1  21
ATOM     21  O   UNL A   1      34.073  35.362  28.954  1.00  0.00    -0.374 OA
BRANCH  21  22
ATOM     22  C   UNL A   1      33.801  34.052  28.451  1.00  0.00     0.202 C 
BRANCH  22  23
ATOM     23  C   UNL A   1      34.965  33.146  28.039  1.00  0.00     0.261 C 
BRANCH  23  24
ATOM     24  O   UNL A   1      35.063  31.959  28.835  1.00  0.00    -0.460 OA
BRANCH  24  25
ATOM     25  C   UNL A   1      35.056  30.801  28.134  1.00  0.00     0.338 C 
ATOM     26  O   UNL A   1      34.229  30.430  27.316  1.00  0.00    -0.246 OA
BRANCH  25  27
ATOM     27  C   UNL A   1      36.343  30.118  28.340  1.00  0.00     0.060 A 
ATOM     28  C   UNL A   1      36.574  29.496  29.576  1.00  0.00     0.016 A 
ATOM     29  C   UNL A   1      37.314  30.110  27.339  1.00  0.00     0.016 A 
ATOM     30  C   UNL A   1      37.797  28.882  29.827  1.00  0.00     0.010 A 
ATOM     31  C   UNL A   1      38.546  29.515  27.600  1.00  0.00     0.010 A 
ATOM     32  C   UNL A   1      38.799  28.923  28.851  1.00  0.00    -0.014 A 
BRANCH  32  33
ATOM     33  C   UNL A   1      40.169  28.473  29.168  1.00  0.00     0.031 A 
ATOM     34  C   UNL A   1      41.114  29.455  29.797  1.00  0.00     0.074 A 
ATOM     35  C   UNL A   1      40.567  27.231  28.849  1.00  0.00     0.049 A 
ATOM     36  N   UNL A   1      42.399  29.348  30.009  1.00  0.00    -0.248 NA
ATOM     37  C   UNL A   1      40.534  30.736  30.236  1.00  0.00     0.031 C 
ATOM     38  C   UNL A   1      39.716  26.194  28.267  1.00  0.00     0.029 A 
ATOM     39  N   UNL A   1      41.803  26.643  28.937  1.00  0.00    -0.354 N 
ATOM     40  C   UNL A   1      42.786  30.555  30.576  1.00  0.00     0.074 A 
ATOM     41  C   UNL A   1      41.605  31.383  30.671  1.00  0.00     0.031 C 
ATOM     42  C   UNL A   1      40.467  25.109  28.011  1.00  0.00     0.029 A 
ATOM     43  C   UNL A   1      41.853  25.394  28.368  1.00  0.00     0.049 A 
ATOM     44  H   UNL A   1      42.578  27.075  29.365  1.00  0.00     0.167 HD
ATOM     45  C   UNL A   1      44.023  30.932  30.972  1.00  0.00     0.037 A 
ATOM     46  C   UNL A   1      42.913  24.601  28.118  1.00  0.00     0.037 A 
ATOM     47  C   UNL A   1      45.183  30.088  30.880  1.00  0.00     0.049 A 
ATOM     48  C   UNL A   1      44.287  25.074  28.513  1.00  0.00     0.074 A 
ATOM     49  C   UNL A   1      46.471  30.347  31.312  1.00  0.00     0.029 A 
ATOM     50  N   UNL A   1      45.196  28.828  30.303  1.00  0.00    -0.354 N 
ATOM     51  N   UNL A   1      44.640  26.192  29.103  1.00  0.00    -0.248 NA
ATOM     52  C   UNL A   1      45.413  24.180  28.203  1.00  0.00     0.031 C 
ATOM     53  C   UNL A   1      47.279  29.273  30.934  1.00  0.00     0.029 A 
ATOM     54  C   UNL A   1      46.481  28.316  30.324  1.00  0.00     0.049 A 
ATOM     55  H   UNL A   1      44.409  28.366  29.933  1.00  0.00     0.167 HD
ATOM     56  C   UNL A   1      46.020  26.125  29.254  1.00  0.00     0.074 A 
ATOM     57  C   UNL A   1      46.438  24.848  28.713  1.00  0.00     0.031 C 
ATOM     58  C   UNL A   1      46.869  27.037  29.787  1.00  0.00     0.037 A 
BRANCH  45  59
ATOM     59  C   UNL A   1      44.201  32.321  31.507  1.00  0.00     0.057 A 
ATOM     60  C   UNL A   1      44.163  32.604  32.877  1.00  0.00     0.134 A 
ATOM     61  C   UNL A   1      44.494  33.379  30.635  1.00  0.00     0.134 A 
ATOM     62  F   UNL A   1      43.875  31.639  33.764  1.00  0.00    -0.206 F 
ATOM     63  C   UNL A   1      44.405  33.891  33.362  1.00  0.00     0.040 A 
ATOM     64  C   UNL A   1      44.761  34.664  31.109  1.00  0.00     0.040 A 
ATOM     65  F   UNL A   1      44.546  33.175  29.310  1.00  0.00    -0.206 F 
ATOM     66  C   UNL A   1      44.717  34.922  32.477  1.00  0.00     0.006 A 
ENDBRANCH  45  59
BRANCH  46  67
ATOM     67  C   UNL A   1      42.732  23.307  27.409  1.00  0.00     0.057 A 
ATOM     68  C   UNL A   1      42.928  23.199  26.027  1.00  0.00     0.134 A 
ATOM     69  C   UNL A   1      42.314  22.155  28.090  1.00  0.00     0.134 A 
ATOM     70  F   UNL A   1      43.307  24.270  25.315  1.00  0.00    -0.206 F 
ATOM     71  C   UNL A   1      42.686  22.006  25.345  1.00  0.00     0.040 A 
ATOM     72  C   UNL A   1      42.098  20.948  27.424  1.00  0.00     0.040 A 
ATOM     73  F   UNL A   1      42.110  22.187  29.415  1.00  0.00    -0.206 F 
ATOM     74  C   UNL A   1      42.272  20.874  26.044  1.00  0.00     0.006 A 
ENDBRANCH  46  67
BRANCH  58  75
ATOM     75  C   UNL A   1      48.326  26.678  29.836  1.00  0.00     0.057 A 
ATOM     76  C   UNL A   1      49.217  27.071  28.831  1.00  0.00     0.134 A 
ATOM     77  C   UNL A   1      48.851  25.988  30.937  1.00  0.00     0.134 A 
ATOM     78  F   UNL A   1      48.773  27.724  27.746  1.00  0.00    -0.206 F 
ATOM     79  C   UNL A   1      50.578  26.774  28.910  1.00  0.00     0.040 A 
ATOM     80  C   UNL A   1      50.215  25.713  31.041  1.00  0.00     0.040 A 
ATOM     81  F   UNL A   1      48.053  25.594  31.939  1.00  0.00    -0.206 F 
ATOM     82  C   UNL A   1      51.082  26.103  30.022  1.00  0.00     0.006 A 
ENDBRANCH  58  75
ENDBRANCH  32  33
ENDBRANCH  25  27
ENDBRANCH  24  25
ENDBRANCH  23  24
ENDBRANCH  22  23
ENDBRANCH  21  22
ENDBRANCH   1  21
TORSDOF 18
ENDMDL
