MODEL 1
REMARK VINA RESULT:     -10.9      0.000      0.000
REMARK SMILES O=C(OCCOCCOC(=O)[C@@H]1C[C@H]1c1cccc(F)c1F)c1ccc(-c2c3nc(c(-c4c(F)cccc4F)c4ccc([nH]4)c(-c4c(F)cccc4F)c4nc(c(-c5c(F)cccc5F)c5ccc2[nH]5)C=C4)C=C3)cc1
REMARK SMILES IDX 5 1 4 2 3 3 2 4 1 5 23 6 24 7 76 8 25 9 75 10 26 11 27 12
REMARK SMILES IDX 28 13 69 14 29 15 74 16 68 17 70 18 30 19 73 20 67 21 66 22
REMARK SMILES IDX 31 24 57 25 40 26 56 27 41 28 44 29 55 30 71 31 42 32 43 33
REMARK SMILES IDX 54 35 72 36 45 37 32 38 33 39 38 40 34 41 35 42 37 43 39 44
REMARK SMILES IDX 36 45 58 46 59 47 64 48 60 49 61 50 63 51 65 52 62 53 46 54
REMARK SMILES IDX 47 55 52 56 48 57 49 58 51 59 53 60 50 61 6 62 7 63 8 64
REMARK SMILES IDX 9 65 10 66 11 67 12 68 13 69 14 70 15 71 16 72 21 73 17 74
REMARK SMILES IDX 19 75 22 76 18 77 20 78
REMARK H PARENT 70 23 44 34
REMARK Flexibility Score: inf
ROOT
ATOM      1  C   UNL A   1      35.148  34.925  33.986  1.00  0.00     0.202 C 
ENDROOT
BRANCH   1   2
ATOM      2  C   UNL A   1      36.279  33.896  33.874  1.00  0.00     0.261 C 
BRANCH   2   3
ATOM      3  O   UNL A   1      35.766  32.623  33.453  1.00  0.00    -0.460 OA
BRANCH   3   4
ATOM      4  C   UNL A   1      35.796  32.081  32.214  1.00  0.00     0.338 C 
ATOM      5  O   UNL A   1      34.771  32.113  31.535  1.00  0.00    -0.246 OA
BRANCH   4   6
ATOM      6  C   UNL A   1      37.004  31.432  31.621  1.00  0.00     0.060 A 
ATOM      7  C   UNL A   1      37.863  30.555  32.290  1.00  0.00     0.016 A 
ATOM      8  C   UNL A   1      37.222  31.650  30.252  1.00  0.00     0.016 A 
ATOM      9  C   UNL A   1      38.913  29.926  31.652  1.00  0.00     0.010 A 
ATOM     10  C   UNL A   1      38.275  31.019  29.592  1.00  0.00     0.010 A 
ATOM     11  C   UNL A   1      39.123  30.166  30.303  1.00  0.00    -0.014 A 
BRANCH  11  12
ATOM     12  C   UNL A   1      40.355  29.643  29.712  1.00  0.00     0.031 A 
ATOM     13  C   UNL A   1      41.503  30.584  29.589  1.00  0.00     0.074 A 
ATOM     14  C   UNL A   1      40.444  28.341  29.403  1.00  0.00     0.049 A 
ATOM     15  N   UNL A   1      42.642  30.425  28.981  1.00  0.00    -0.248 NA
ATOM     16  C   UNL A   1      41.341  31.892  30.250  1.00  0.00     0.031 C 
ATOM     17  C   UNL A   1      39.403  27.341  29.653  1.00  0.00     0.029 A 
ATOM     18  N   UNL A   1      41.456  27.640  28.813  1.00  0.00    -0.354 N 
ATOM     19  C   UNL A   1      43.314  31.627  29.141  1.00  0.00     0.074 A 
ATOM     20  C   UNL A   1      42.461  32.505  29.907  1.00  0.00     0.031 C 
ATOM     21  C   UNL A   1      39.823  26.154  29.190  1.00  0.00     0.029 A 
ATOM     22  C   UNL A   1      41.123  26.335  28.551  1.00  0.00     0.049 A 
ATOM     23  H   UNL A   1      42.333  28.031  28.598  1.00  0.00     0.167 HD
ATOM     24  C   UNL A   1      44.533  31.958  28.660  1.00  0.00     0.037 A 
ATOM     25  C   UNL A   1      41.779  25.422  27.814  1.00  0.00     0.037 A 
ATOM     26  C   UNL A   1      45.327  31.044  27.887  1.00  0.00     0.049 A 
ATOM     27  C   UNL A   1      43.085  25.838  27.196  1.00  0.00     0.074 A 
ATOM     28  C   UNL A   1      46.554  31.249  27.290  1.00  0.00     0.029 A 
ATOM     29  N   UNL A   1      44.948  29.735  27.599  1.00  0.00    -0.354 N 
ATOM     30  N   UNL A   1      43.703  26.996  27.278  1.00  0.00    -0.248 NA
ATOM     31  C   UNL A   1      43.781  24.842  26.377  1.00  0.00     0.031 C 
ATOM     32  C   UNL A   1      46.886  30.084  26.589  1.00  0.00     0.029 A 
ATOM     33  C   UNL A   1      45.904  29.128  26.810  1.00  0.00     0.049 A 
ATOM     34  H   UNL A   1      44.119  29.306  27.912  1.00  0.00     0.167 HD
ATOM     35  C   UNL A   1      44.874  26.860  26.548  1.00  0.00     0.074 A 
ATOM     36  C   UNL A   1      44.876  25.505  26.027  1.00  0.00     0.031 C 
ATOM     37  C   UNL A   1      45.862  27.765  26.333  1.00  0.00     0.037 A 
BRANCH  24  38
ATOM     38  C   UNL A   1      44.979  33.374  28.868  1.00  0.00     0.057 A 
ATOM     39  C   UNL A   1      44.663  34.407  27.973  1.00  0.00     0.134 A 
ATOM     40  C   UNL A   1      45.825  33.691  29.939  1.00  0.00     0.134 A 
ATOM     41  F   UNL A   1      43.885  34.168  26.906  1.00  0.00    -0.206 F 
ATOM     42  C   UNL A   1      45.212  35.684  28.107  1.00  0.00     0.040 A 
ATOM     43  C   UNL A   1      46.353  34.972  30.102  1.00  0.00     0.040 A 
ATOM     44  F   UNL A   1      46.178  32.752  30.829  1.00  0.00    -0.206 F 
ATOM     45  C   UNL A   1      46.060  35.969  29.175  1.00  0.00     0.006 A 
ENDBRANCH  24  38
BRANCH  25  46
ATOM     46  C   UNL A   1      41.174  24.086  27.590  1.00  0.00     0.057 A 
ATOM     47  C   UNL A   1      40.139  23.895  26.670  1.00  0.00     0.134 A 
ATOM     48  C   UNL A   1      41.658  22.951  28.257  1.00  0.00     0.134 A 
ATOM     49  F   UNL A   1      39.625  24.941  26.007  1.00  0.00    -0.206 F 
ATOM     50  C   UNL A   1      39.606  22.628  26.421  1.00  0.00     0.040 A 
ATOM     51  C   UNL A   1      41.153  21.676  28.000  1.00  0.00     0.040 A 
ATOM     52  F   UNL A   1      42.656  23.061  29.147  1.00  0.00    -0.206 F 
ATOM     53  C   UNL A   1      40.120  21.512  27.081  1.00  0.00     0.006 A 
ENDBRANCH  25  46
BRANCH  37  54
ATOM     54  C   UNL A   1      47.053  27.301  25.552  1.00  0.00     0.057 A 
ATOM     55  C   UNL A   1      47.209  27.593  24.193  1.00  0.00     0.134 A 
ATOM     56  C   UNL A   1      48.107  26.652  26.208  1.00  0.00     0.134 A 
ATOM     57  F   UNL A   1      46.231  28.203  23.510  1.00  0.00    -0.206 F 
ATOM     58  C   UNL A   1      48.378  27.254  23.512  1.00  0.00     0.040 A 
ATOM     59  C   UNL A   1      49.290  26.334  25.546  1.00  0.00     0.040 A 
ATOM     60  F   UNL A   1      48.017  26.356  27.514  1.00  0.00    -0.206 F 
ATOM     61  C   UNL A   1      49.428  26.636  24.193  1.00  0.00     0.006 A 
ENDBRANCH  37  54
ENDBRANCH  11  12
ENDBRANCH   4   6
ENDBRANCH   3   4
ENDBRANCH   2   3
ENDBRANCH   1   2
BRANCH   1  62
ATOM     62  O   UNL A   1      34.970  35.789  32.858  1.00  0.00    -0.374 OA
BRANCH  62  63
ATOM     63  C   UNL A   1      33.895  36.736  32.932  1.00  0.00     0.202 C 
BRANCH  63  64
ATOM     64  C   UNL A   1      33.184  36.828  31.581  1.00  0.00     0.261 C 
BRANCH  64  65
ATOM     65  O   UNL A   1      32.949  35.493  31.126  1.00  0.00    -0.463 OA
BRANCH  65  66
ATOM     66  C   UNL A   1      32.985  35.361  29.776  1.00  0.00     0.309 C 
ATOM     67  O   UNL A   1      32.439  36.079  28.950  1.00  0.00    -0.252 OA
BRANCH  66  68
ATOM     68  C   UNL A   1      33.894  34.261  29.421  1.00  0.00     0.107 C 
ATOM     69  C   UNL A   1      35.179  34.443  28.671  1.00  0.00     0.025 C 
ATOM     70  C   UNL A   1      33.979  33.839  27.977  1.00  0.00     0.037 C 
BRANCH  70  71
ATOM     71  C   UNL A   1      33.876  32.365  27.684  1.00  0.00    -0.005 A 
ATOM     72  C   UNL A   1      34.974  31.499  27.877  1.00  0.00     0.007 A 
ATOM     73  C   UNL A   1      32.676  31.790  27.251  1.00  0.00     0.162 A 
ATOM     74  C   UNL A   1      34.873  30.125  27.652  1.00  0.00     0.004 A 
ATOM     75  C   UNL A   1      32.569  30.419  27.038  1.00  0.00     0.159 A 
ATOM     76  F   UNL A   1      31.607  32.575  27.047  1.00  0.00    -0.203 F 
ATOM     77  C   UNL A   1      33.661  29.581  27.239  1.00  0.00     0.042 A 
ATOM     78  F   UNL A   1      31.403  29.892  26.643  1.00  0.00    -0.204 F 
ENDBRANCH  70  71
ENDBRANCH  66  68
ENDBRANCH  65  66
ENDBRANCH  64  65
ENDBRANCH  63  64
ENDBRANCH  62  63
ENDBRANCH   1  62
TORSDOF 15
ENDMDL
MODEL 2
REMARK VINA RESULT:     -10.8      5.644     11.816
REMARK SMILES O=C(OCCOCCOC(=O)[C@@H]1C[C@H]1c1cccc(F)c1F)c1ccc(-c2c3nc(c(-c4c(F)cccc4F)c4ccc([nH]4)c(-c4c(F)cccc4F)c4nc(c(-c5c(F)cccc5F)c5ccc2[nH]5)C=C4)C=C3)cc1
REMARK SMILES IDX 5 1 4 2 3 3 2 4 1 5 23 6 24 7 76 8 25 9 75 10 26 11 27 12
REMARK SMILES IDX 28 13 69 14 29 15 74 16 68 17 70 18 30 19 73 20 67 21 66 22
REMARK SMILES IDX 31 24 57 25 40 26 56 27 41 28 44 29 55 30 71 31 42 32 43 33
REMARK SMILES IDX 54 35 72 36 45 37 32 38 33 39 38 40 34 41 35 42 37 43 39 44
REMARK SMILES IDX 36 45 58 46 59 47 64 48 60 49 61 50 63 51 65 52 62 53 46 54
REMARK SMILES IDX 47 55 52 56 48 57 49 58 51 59 53 60 50 61 6 62 7 63 8 64
REMARK SMILES IDX 9 65 10 66 11 67 12 68 13 69 14 70 15 71 16 72 21 73 17 74
REMARK SMILES IDX 19 75 22 76 18 77 20 78
REMARK H PARENT 70 23 44 34
REMARK Flexibility Score: inf
ROOT
ATOM      1  C   UNL A   1      46.547  23.840  26.228  1.00  0.00     0.202 C 
ENDROOT
BRANCH   1   2
ATOM      2  C   UNL A   1      46.687  24.667  24.944  1.00  0.00     0.261 C 
BRANCH   2   3
ATOM      3  O   UNL A   1      45.523  25.480  24.737  1.00  0.00    -0.460 OA
BRANCH   3   4
ATOM      4  C   UNL A   1      44.268  25.272  25.198  1.00  0.00     0.338 C 
ATOM      5  O   UNL A   1      43.561  24.445  24.625  1.00  0.00    -0.246 OA
BRANCH   4   6
ATOM      6  C   UNL A   1      43.681  26.000  26.364  1.00  0.00     0.060 A 
ATOM      7  C   UNL A   1      43.878  27.353  26.657  1.00  0.00     0.016 A 
ATOM      8  C   UNL A   1      42.781  25.278  27.162  1.00  0.00     0.016 A 
ATOM      9  C   UNL A   1      43.233  27.978  27.705  1.00  0.00     0.010 A 
ATOM     10  C   UNL A   1      42.118  25.896  28.221  1.00  0.00     0.010 A 
ATOM     11  C   UNL A   1      42.359  27.246  28.493  1.00  0.00    -0.014 A 
BRANCH  11  12
ATOM     12  C   UNL A   1      41.852  27.885  29.706  1.00  0.00     0.031 A 
ATOM     13  C   UNL A   1      40.600  28.681  29.585  1.00  0.00     0.074 A 
ATOM     14  C   UNL A   1      42.458  27.656  30.881  1.00  0.00     0.049 A 
ATOM     15  N   UNL A   1      40.024  29.457  30.456  1.00  0.00    -0.248 NA
ATOM     16  C   UNL A   1      39.896  28.585  28.293  1.00  0.00     0.031 C 
ATOM     17  C   UNL A   1      43.595  26.755  31.083  1.00  0.00     0.029 A 
ATOM     18  N   UNL A   1      42.202  28.165  32.122  1.00  0.00    -0.354 N 
ATOM     19  C   UNL A   1      38.918  29.981  29.804  1.00  0.00     0.074 A 
ATOM     20  C   UNL A   1      38.898  29.434  28.468  1.00  0.00     0.031 C 
ATOM     21  C   UNL A   1      43.956  26.796  32.375  1.00  0.00     0.029 A 
ATOM     22  C   UNL A   1      43.124  27.779  33.061  1.00  0.00     0.049 A 
ATOM     23  H   UNL A   1      41.433  28.746  32.321  1.00  0.00     0.167 HD
ATOM     24  C   UNL A   1      38.018  30.865  30.292  1.00  0.00     0.037 A 
ATOM     25  C   UNL A   1      43.303  28.235  34.313  1.00  0.00     0.037 A 
ATOM     26  C   UNL A   1      38.103  31.388  31.627  1.00  0.00     0.049 A 
ATOM     27  C   UNL A   1      42.358  29.295  34.808  1.00  0.00     0.074 A 
ATOM     28  C   UNL A   1      37.300  32.324  32.246  1.00  0.00     0.029 A 
ATOM     29  N   UNL A   1      39.076  31.012  32.550  1.00  0.00    -0.354 N 
ATOM     30  N   UNL A   1      41.348  29.855  34.180  1.00  0.00    -0.248 NA
ATOM     31  C   UNL A   1      42.575  29.799  36.167  1.00  0.00     0.031 C 
ATOM     32  C   UNL A   1      37.826  32.559  33.521  1.00  0.00     0.029 A 
ATOM     33  C   UNL A   1      38.910  31.716  33.725  1.00  0.00     0.049 A 
ATOM     34  H   UNL A   1      39.779  30.341  32.387  1.00  0.00     0.167 HD
ATOM     35  C   UNL A   1      40.790  30.756  35.074  1.00  0.00     0.074 A 
ATOM     36  C   UNL A   1      41.579  30.668  36.289  1.00  0.00     0.031 C 
ATOM     37  C   UNL A   1      39.720  31.574  34.914  1.00  0.00     0.037 A 
BRANCH  24  38
ATOM     38  C   UNL A   1      36.983  31.372  29.334  1.00  0.00     0.057 A 
ATOM     39  C   UNL A   1      37.036  32.655  28.770  1.00  0.00     0.134 A 
ATOM     40  C   UNL A   1      35.855  30.592  29.044  1.00  0.00     0.134 A 
ATOM     41  F   UNL A   1      38.070  33.470  29.032  1.00  0.00    -0.206 F 
ATOM     42  C   UNL A   1      35.987  33.160  28.000  1.00  0.00     0.040 A 
ATOM     43  C   UNL A   1      34.815  31.074  28.249  1.00  0.00     0.040 A 
ATOM     44  F   UNL A   1      35.731  29.358  29.556  1.00  0.00    -0.206 F 
ATOM     45  C   UNL A   1      34.871  32.368  27.737  1.00  0.00     0.006 A 
ENDBRANCH  24  38
BRANCH  25  46
ATOM     46  C   UNL A   1      44.438  27.730  35.124  1.00  0.00     0.057 A 
ATOM     47  C   UNL A   1      45.683  28.367  35.117  1.00  0.00     0.134 A 
ATOM     48  C   UNL A   1      44.288  26.623  35.972  1.00  0.00     0.134 A 
ATOM     49  F   UNL A   1      45.895  29.424  34.321  1.00  0.00    -0.206 F 
ATOM     50  C   UNL A   1      46.736  27.923  35.920  1.00  0.00     0.040 A 
ATOM     51  C   UNL A   1      45.323  26.184  36.799  1.00  0.00     0.040 A 
ATOM     52  F   UNL A   1      43.118  25.971  36.034  1.00  0.00    -0.206 F 
ATOM     53  C   UNL A   1      46.554  26.834  36.772  1.00  0.00     0.006 A 
ENDBRANCH  25  46
BRANCH  37  54
ATOM     54  C   UNL A   1      39.304  32.393  36.097  1.00  0.00     0.057 A 
ATOM     55  C   UNL A   1      39.803  33.680  36.322  1.00  0.00     0.134 A 
ATOM     56  C   UNL A   1      38.303  31.920  36.955  1.00  0.00     0.134 A 
ATOM     57  F   UNL A   1      40.770  34.183  35.541  1.00  0.00    -0.206 F 
ATOM     58  C   UNL A   1      39.318  34.471  37.364  1.00  0.00     0.040 A 
ATOM     59  C   UNL A   1      37.789  32.711  37.980  1.00  0.00     0.040 A 
ATOM     60  F   UNL A   1      37.779  30.696  36.781  1.00  0.00    -0.206 F 
ATOM     61  C   UNL A   1      38.297  33.992  38.186  1.00  0.00     0.006 A 
ENDBRANCH  37  54
ENDBRANCH  11  12
ENDBRANCH   4   6
ENDBRANCH   3   4
ENDBRANCH   2   3
ENDBRANCH   1   2
BRANCH   1  62
ATOM     62  O   UNL A   1      46.099  22.490  26.061  1.00  0.00    -0.374 OA
BRANCH  62  63
ATOM     63  C   UNL A   1      46.077  21.978  24.722  1.00  0.00     0.202 C 
BRANCH  63  64
ATOM     64  C   UNL A   1      44.906  21.009  24.550  1.00  0.00     0.261 C 
BRANCH  64  65
ATOM     65  O   UNL A   1      44.128  21.056  25.749  1.00  0.00    -0.463 OA
BRANCH  65  66
ATOM     66  C   UNL A   1      43.024  20.270  25.714  1.00  0.00     0.309 C 
ATOM     67  O   UNL A   1      42.879  19.226  25.094  1.00  0.00    -0.252 OA
BRANCH  66  68
ATOM     68  C   UNL A   1      42.019  20.806  26.646  1.00  0.00     0.107 C 
ATOM     69  C   UNL A   1      41.184  19.958  27.556  1.00  0.00     0.025 C 
ATOM     70  C   UNL A   1      40.562  20.588  26.332  1.00  0.00     0.037 C 
BRANCH  70  71
ATOM     71  C   UNL A   1      39.654  21.788  26.416  1.00  0.00    -0.005 A 
ATOM     72  C   UNL A   1      40.029  22.942  27.136  1.00  0.00     0.007 A 
ATOM     73  C   UNL A   1      38.424  21.821  25.749  1.00  0.00     0.162 A 
ATOM     74  C   UNL A   1      39.214  24.076  27.181  1.00  0.00     0.004 A 
ATOM     75  C   UNL A   1      37.617  22.953  25.782  1.00  0.00     0.159 A 
ATOM     76  F   UNL A   1      38.023  20.743  25.057  1.00  0.00    -0.203 F 
ATOM     77  C   UNL A   1      38.006  24.083  26.492  1.00  0.00     0.042 A 
ATOM     78  F   UNL A   1      36.453  22.965  25.118  1.00  0.00    -0.204 F 
ENDBRANCH  70  71
ENDBRANCH  66  68
ENDBRANCH  65  66
ENDBRANCH  64  65
ENDBRANCH  63  64
ENDBRANCH  62  63
ENDBRANCH   1  62
TORSDOF 15
ENDMDL
MODEL 3
REMARK VINA RESULT:     -10.8      3.835      5.508
REMARK SMILES O=C(OCCOCCOC(=O)[C@@H]1C[C@H]1c1cccc(F)c1F)c1ccc(-c2c3nc(c(-c4c(F)cccc4F)c4ccc([nH]4)c(-c4c(F)cccc4F)c4nc(c(-c5c(F)cccc5F)c5ccc2[nH]5)C=C4)C=C3)cc1
REMARK SMILES IDX 5 1 4 2 3 3 2 4 1 5 23 6 24 7 76 8 25 9 75 10 26 11 27 12
REMARK SMILES IDX 28 13 69 14 29 15 74 16 68 17 70 18 30 19 73 20 67 21 66 22
REMARK SMILES IDX 31 24 57 25 40 26 56 27 41 28 44 29 55 30 71 31 42 32 43 33
REMARK SMILES IDX 54 35 72 36 45 37 32 38 33 39 38 40 34 41 35 42 37 43 39 44
REMARK SMILES IDX 36 45 58 46 59 47 64 48 60 49 61 50 63 51 65 52 62 53 46 54
REMARK SMILES IDX 47 55 52 56 48 57 49 58 51 59 53 60 50 61 6 62 7 63 8 64
REMARK SMILES IDX 9 65 10 66 11 67 12 68 13 69 14 70 15 71 16 72 21 73 17 74
REMARK SMILES IDX 19 75 22 76 18 77 20 78
REMARK H PARENT 70 23 44 34
REMARK Flexibility Score: inf
ROOT
ATOM      1  C   UNL A   1      33.341  34.898  28.771  1.00  0.00     0.202 C 
ENDROOT
BRANCH   1   2
ATOM      2  C   UNL A   1      34.271  33.891  28.082  1.00  0.00     0.261 C 
BRANCH   2   3
ATOM      3  O   UNL A   1      34.206  32.614  28.734  1.00  0.00    -0.460 OA
BRANCH   3   4
ATOM      4  C   UNL A   1      34.617  31.415  28.261  1.00  0.00     0.338 C 
ATOM      5  O   UNL A   1      33.938  30.861  27.398  1.00  0.00    -0.246 OA
BRANCH   4   6
ATOM      6  C   UNL A   1      35.848  30.714  28.735  1.00  0.00     0.060 A 
ATOM      7  C   UNL A   1      35.904  29.800  29.792  1.00  0.00     0.016 A 
ATOM      8  C   UNL A   1      37.014  30.922  27.983  1.00  0.00     0.016 A 
ATOM      9  C   UNL A   1      37.063  29.126  30.119  1.00  0.00     0.010 A 
ATOM     10  C   UNL A   1      38.192  30.245  28.297  1.00  0.00     0.010 A 
ATOM     11  C   UNL A   1      38.210  29.356  29.375  1.00  0.00    -0.014 A 
BRANCH  11  12
ATOM     12  C   UNL A   1      39.459  28.780  29.872  1.00  0.00     0.031 A 
ATOM     13  C   UNL A   1      40.065  29.406  31.079  1.00  0.00     0.074 A 
ATOM     14  C   UNL A   1      39.952  27.670  29.302  1.00  0.00     0.049 A 
ATOM     15  N   UNL A   1      41.223  29.191  31.631  1.00  0.00    -0.248 NA
ATOM     16  C   UNL A   1      39.244  30.423  31.761  1.00  0.00     0.031 C 
ATOM     17  C   UNL A   1      39.312  26.921  28.218  1.00  0.00     0.029 A 
ATOM     18  N   UNL A   1      41.104  26.983  29.557  1.00  0.00    -0.354 N 
ATOM     19  C   UNL A   1      41.292  30.077  32.695  1.00  0.00     0.074 A 
ATOM     20  C   UNL A   1      40.061  30.830  32.716  1.00  0.00     0.031 C 
ATOM     21  C   UNL A   1      40.100  25.888  27.881  1.00  0.00     0.029 A 
ATOM     22  C   UNL A   1      41.323  25.955  28.675  1.00  0.00     0.049 A 
ATOM     23  H   UNL A   1      41.714  27.202  30.298  1.00  0.00     0.167 HD
ATOM     24  C   UNL A   1      42.320  30.248  33.556  1.00  0.00     0.037 A 
ATOM     25  C   UNL A   1      42.426  25.207  28.497  1.00  0.00     0.037 A 
ATOM     26  C   UNL A   1      43.529  29.478  33.472  1.00  0.00     0.049 A 
ATOM     27  C   UNL A   1      43.601  25.480  29.395  1.00  0.00     0.074 A 
ATOM     28  C   UNL A   1      44.674  29.570  34.237  1.00  0.00     0.029 A 
ATOM     29  N   UNL A   1      43.744  28.467  32.538  1.00  0.00    -0.354 N 
ATOM     30  N   UNL A   1      43.710  26.364  30.362  1.00  0.00    -0.248 NA
ATOM     31  C   UNL A   1      44.805  24.673  29.179  1.00  0.00     0.031 C 
ATOM     32  C   UNL A   1      45.603  28.657  33.725  1.00  0.00     0.029 A 
ATOM     33  C   UNL A   1      45.012  27.944  32.690  1.00  0.00     0.049 A 
ATOM     34  H   UNL A   1      43.087  28.169  31.868  1.00  0.00     0.167 HD
ATOM     35  C   UNL A   1      44.981  26.202  30.890  1.00  0.00     0.074 A 
ATOM     36  C   UNL A   1      45.606  25.135  30.131  1.00  0.00     0.031 C 
ATOM     37  C   UNL A   1      45.578  26.865  31.913  1.00  0.00     0.037 A 
BRANCH  24  38
ATOM     38  C   UNL A   1      42.192  31.368  34.545  1.00  0.00     0.057 A 
ATOM     39  C   UNL A   1      41.657  31.188  35.829  1.00  0.00     0.134 A 
ATOM     40  C   UNL A   1      42.526  32.676  34.168  1.00  0.00     0.134 A 
ATOM     41  F   UNL A   1      41.283  29.968  36.244  1.00  0.00    -0.206 F 
ATOM     42  C   UNL A   1      41.410  32.269  36.677  1.00  0.00     0.040 A 
ATOM     43  C   UNL A   1      42.314  33.761  35.020  1.00  0.00     0.040 A 
ATOM     44  F   UNL A   1      43.034  32.925  32.952  1.00  0.00    -0.206 F 
ATOM     45  C   UNL A   1      41.739  33.562  36.272  1.00  0.00     0.006 A 
ENDBRANCH  24  38
BRANCH  25  46
ATOM     46  C   UNL A   1      42.465  24.203  27.406  1.00  0.00     0.057 A 
ATOM     47  C   UNL A   1      42.958  24.520  26.137  1.00  0.00     0.134 A 
ATOM     48  C   UNL A   1      42.058  22.878  27.625  1.00  0.00     0.134 A 
ATOM     49  F   UNL A   1      43.353  25.771  25.860  1.00  0.00    -0.206 F 
ATOM     50  C   UNL A   1      43.044  23.561  25.125  1.00  0.00     0.040 A 
ATOM     51  C   UNL A   1      42.162  21.904  26.631  1.00  0.00     0.040 A 
ATOM     52  F   UNL A   1      41.583  22.505  28.822  1.00  0.00    -0.206 F 
ATOM     53  C   UNL A   1      42.655  22.245  25.375  1.00  0.00     0.006 A 
ENDBRANCH  25  46
BRANCH  37  54
ATOM     54  C   UNL A   1      46.951  26.415  32.309  1.00  0.00     0.057 A 
ATOM     55  C   UNL A   1      47.158  25.402  33.250  1.00  0.00     0.134 A 
ATOM     56  C   UNL A   1      48.071  26.934  31.647  1.00  0.00     0.134 A 
ATOM     57  F   UNL A   1      46.125  24.875  33.922  1.00  0.00    -0.206 F 
ATOM     58  C   UNL A   1      48.438  24.917  33.520  1.00  0.00     0.040 A 
ATOM     59  C   UNL A   1      49.351  26.438  31.886  1.00  0.00     0.040 A 
ATOM     60  F   UNL A   1      47.932  27.901  30.727  1.00  0.00    -0.206 F 
ATOM     61  C   UNL A   1      49.536  25.426  32.826  1.00  0.00     0.006 A 
ENDBRANCH  37  54
ENDBRANCH  11  12
ENDBRANCH   4   6
ENDBRANCH   3   4
ENDBRANCH   2   3
ENDBRANCH   1   2
BRANCH   1  62
ATOM     62  O   UNL A   1      33.844  35.500  29.968  1.00  0.00    -0.374 OA
BRANCH  62  63
ATOM     63  C   UNL A   1      32.903  36.227  30.770  1.00  0.00     0.202 C 
BRANCH  63  64
ATOM     64  C   UNL A   1      32.812  35.607  32.165  1.00  0.00     0.261 C 
BRANCH  64  65
ATOM     65  O   UNL A   1      34.084  35.024  32.460  1.00  0.00    -0.463 OA
BRANCH  65  66
ATOM     66  C   UNL A   1      34.029  33.693  32.717  1.00  0.00     0.309 C 
ATOM     67  O   UNL A   1      33.115  33.082  33.251  1.00  0.00    -0.252 OA
BRANCH  66  68
ATOM     68  C   UNL A   1      35.218  33.040  32.147  1.00  0.00     0.107 C 
ATOM     69  C   UNL A   1      36.053  32.034  32.879  1.00  0.00     0.025 C 
ATOM     70  C   UNL A   1      36.574  33.438  32.669  1.00  0.00     0.037 C 
BRANCH  70  71
ATOM     71  C   UNL A   1      37.636  33.760  31.649  1.00  0.00    -0.005 A 
ATOM     72  C   UNL A   1      37.334  33.825  30.272  1.00  0.00     0.007 A 
ATOM     73  C   UNL A   1      38.950  34.048  32.031  1.00  0.00     0.162 A 
ATOM     74  C   UNL A   1      38.301  34.167  29.324  1.00  0.00     0.004 A 
ATOM     75  C   UNL A   1      39.913  34.402  31.090  1.00  0.00     0.159 A 
ATOM     76  F   UNL A   1      39.286  33.992  33.329  1.00  0.00    -0.203 F 
ATOM     77  C   UNL A   1      39.595  34.466  29.738  1.00  0.00     0.042 A 
ATOM     78  F   UNL A   1      41.159  34.693  31.485  1.00  0.00    -0.204 F 
ENDBRANCH  70  71
ENDBRANCH  66  68
ENDBRANCH  65  66
ENDBRANCH  64  65
ENDBRANCH  63  64
ENDBRANCH  62  63
ENDBRANCH   1  62
TORSDOF 15
ENDMDL
