MODEL 1
REMARK VINA RESULT:     -11.6      0.000      0.000
REMARK SMILES CC(=O)Nc1sc(-c2ccccc2)cc1C(=O)OCCOCCOC(=O)c1ccc(-c2c3nc(c(-c4c(F)cccc4F)c4ccc([nH]4)c(-c4c(F)cccc4F)c4nc(c(-c5c(F)cccc5F)c5ccc2[nH]5)C=C4)C=C3)cc1
REMARK SMILES IDX 22 1 21 2 20 3 19 4 18 5 16 6 17 7 15 8 5 9 6 10 7 11 14 12
REMARK SMILES IDX 4 13 1 14 2 15 3 16 8 18 9 19 13 20 10 21 12 22 11 23 23 24
REMARK SMILES IDX 24 25 25 26 26 27 27 28 28 29 80 30 29 31 79 32 30 33 31 34
REMARK SMILES IDX 32 35 73 36 33 37 78 38 72 39 74 40 34 41 77 42 71 43 70 44
REMARK SMILES IDX 35 46 61 47 44 48 60 49 45 50 48 51 59 52 75 53 46 54 47 55
REMARK SMILES IDX 58 57 76 58 49 59 36 60 37 61 42 62 38 63 39 64 41 65 43 66
REMARK SMILES IDX 40 67 62 68 63 69 68 70 64 71 65 72 67 73 69 74 66 75 50 76
REMARK SMILES IDX 51 77 56 78 52 79 53 80 55 81 57 82 54 83
REMARK H PARENT 4 17 74 45 48 56
REMARK Flexibility Score: inf
ROOT
ATOM      1  C   UNL A   1      36.021  20.830  25.009  1.00  0.00     0.202 C 
ENDROOT
BRANCH   1   2
ATOM      2  O   UNL A   1      35.862  22.104  24.378  1.00  0.00    -0.374 OA
BRANCH   2   3
ATOM      3  C   UNL A   1      34.537  22.487  24.008  1.00  0.00     0.202 C 
BRANCH   3   4
ATOM      4  C   UNL A   1      34.439  23.795  23.220  1.00  0.00     0.261 C 
BRANCH   4   5
ATOM      5  O   UNL A   1      33.108  23.979  22.711  1.00  0.00    -0.460 OA
BRANCH   5   6
ATOM      6  C   UNL A   1      32.805  25.236  22.279  1.00  0.00     0.341 C 
ATOM      7  O   UNL A   1      33.387  25.823  21.377  1.00  0.00    -0.246 OA
BRANCH   6   8
ATOM      8  C   UNL A   1      31.608  25.776  22.911  1.00  0.00     0.095 A 
ATOM      9  C   UNL A   1      30.671  25.120  23.684  1.00  0.00     0.110 A 
ATOM     10  S   UNL A   1      29.269  26.064  23.957  1.00  0.00    -0.117 S 
ATOM     11  C   UNL A   1      29.977  27.440  23.243  1.00  0.00     0.037 A 
ATOM     12  C   UNL A   1      31.208  27.143  22.705  1.00  0.00     0.038 A 
BRANCH   9  13
ATOM     13  N   UNL A   1      30.567  23.881  24.271  1.00  0.00    -0.317 N 
ATOM     14  C   UNL A   1      31.692  24.391  26.439  1.00  0.00     0.114 C 
ATOM     15  C   UNL A   1      31.130  23.426  25.428  1.00  0.00     0.221 C 
ATOM     16  O   UNL A   1      31.092  22.218  25.677  1.00  0.00    -0.275 OA
ATOM     17  H   UNL A   1      30.007  23.230  23.789  1.00  0.00     0.170 HD
ENDBRANCH   9  13
BRANCH  11  18
ATOM     18  C   UNL A   1      29.291  28.727  23.229  1.00  0.00    -0.008 A 
ATOM     19  C   UNL A   1      27.925  28.786  22.928  1.00  0.00     0.009 A 
ATOM     20  C   UNL A   1      29.959  29.892  23.624  1.00  0.00     0.009 A 
ATOM     21  C   UNL A   1      27.232  29.994  23.032  1.00  0.00     0.001 A 
ATOM     22  C   UNL A   1      29.266  31.100  23.724  1.00  0.00     0.001 A 
ATOM     23  C   UNL A   1      27.903  31.149  23.434  1.00  0.00     0.000 A 
ENDBRANCH  11  18
ENDBRANCH   6   8
ENDBRANCH   5   6
ENDBRANCH   4   5
ENDBRANCH   3   4
ENDBRANCH   2   3
ENDBRANCH   1   2
BRANCH   1  24
ATOM     24  C   UNL A   1      37.442  20.258  25.008  1.00  0.00     0.261 C 
BRANCH  24  25
ATOM     25  O   UNL A   1      38.435  21.295  25.121  1.00  0.00    -0.460 OA
BRANCH  25  26
ATOM     26  C   UNL A   1      39.430  21.031  26.002  1.00  0.00     0.338 C 
ATOM     27  O   UNL A   1      40.072  19.998  26.101  1.00  0.00    -0.246 OA
BRANCH  26  28
ATOM     28  C   UNL A   1      39.771  22.236  26.780  1.00  0.00     0.060 A 
ATOM     29  C   UNL A   1      39.090  23.417  26.458  1.00  0.00     0.016 A 
ATOM     30  C   UNL A   1      40.817  22.249  27.705  1.00  0.00     0.016 A 
ATOM     31  C   UNL A   1      39.509  24.631  26.995  1.00  0.00     0.010 A 
ATOM     32  C   UNL A   1      41.243  23.471  28.239  1.00  0.00     0.010 A 
ATOM     33  C   UNL A   1      40.625  24.672  27.842  1.00  0.00    -0.014 A 
BRANCH  33  34
ATOM     34  C   UNL A   1      41.255  25.983  28.131  1.00  0.00     0.031 A 
ATOM     35  C   UNL A   1      42.647  26.243  27.618  1.00  0.00     0.074 A 
ATOM     36  C   UNL A   1      40.582  26.953  28.774  1.00  0.00     0.049 A 
ATOM     37  N   UNL A   1      43.383  27.320  27.717  1.00  0.00    -0.248 NA
ATOM     38  C   UNL A   1      43.294  25.137  26.892  1.00  0.00     0.031 C 
ATOM     39  C   UNL A   1      39.219  26.839  29.287  1.00  0.00     0.029 A 
ATOM     40  N   UNL A   1      40.963  28.230  29.097  1.00  0.00    -0.354 N 
ATOM     41  C   UNL A   1      44.575  27.023  27.068  1.00  0.00     0.074 A 
ATOM     42  C   UNL A   1      44.478  25.657  26.604  1.00  0.00     0.031 C 
ATOM     43  C   UNL A   1      38.875  28.004  29.864  1.00  0.00     0.029 A 
ATOM     44  C   UNL A   1      39.998  28.935  29.774  1.00  0.00     0.049 A 
ATOM     45  H   UNL A   1      41.842  28.606  28.866  1.00  0.00     0.167 HD
ATOM     46  C   UNL A   1      45.651  27.820  26.864  1.00  0.00     0.037 A 
ATOM     47  C   UNL A   1      40.026  30.187  30.268  1.00  0.00     0.037 A 
ATOM     48  C   UNL A   1      45.755  29.178  27.324  1.00  0.00     0.049 A 
ATOM     49  C   UNL A   1      41.252  31.039  30.069  1.00  0.00     0.074 A 
ATOM     50  C   UNL A   1      46.811  30.062  27.180  1.00  0.00     0.029 A 
ATOM     51  N   UNL A   1      44.762  29.850  28.021  1.00  0.00    -0.354 N 
ATOM     52  N   UNL A   1      42.367  30.752  29.444  1.00  0.00    -0.248 NA
ATOM     53  C   UNL A   1      41.214  32.395  30.637  1.00  0.00     0.031 C 
ATOM     54  C   UNL A   1      46.466  31.261  27.813  1.00  0.00     0.029 A 
ATOM     55  C   UNL A   1      45.183  31.135  28.318  1.00  0.00     0.049 A 
ATOM     56  H   UNL A   1      43.888  29.470  28.267  1.00  0.00     0.167 HD
ATOM     57  C   UNL A   1      43.149  31.898  29.513  1.00  0.00     0.074 A 
ATOM     58  C   UNL A   1      42.379  32.888  30.237  1.00  0.00     0.031 C 
ATOM     59  C   UNL A   1      44.393  32.113  29.020  1.00  0.00     0.037 A 
BRANCH  46  60
ATOM     60  C   UNL A   1      46.811  27.226  26.122  1.00  0.00     0.057 A 
ATOM     61  C   UNL A   1      47.813  26.503  26.780  1.00  0.00     0.134 A 
ATOM     62  C   UNL A   1      46.918  27.366  24.733  1.00  0.00     0.134 A 
ATOM     63  F   UNL A   1      47.776  26.349  28.113  1.00  0.00    -0.206 F 
ATOM     64  C   UNL A   1      48.893  25.956  26.085  1.00  0.00     0.040 A 
ATOM     65  C   UNL A   1      47.981  26.805  24.024  1.00  0.00     0.040 A 
ATOM     66  F   UNL A   1      45.990  28.047  24.043  1.00  0.00    -0.206 F 
ATOM     67  C   UNL A   1      48.976  26.102  24.702  1.00  0.00     0.006 A 
ENDBRANCH  46  60
BRANCH  47  68
ATOM     68  C   UNL A   1      38.850  30.724  30.997  1.00  0.00     0.057 A 
ATOM     69  C   UNL A   1      38.722  30.565  32.382  1.00  0.00     0.134 A 
ATOM     70  C   UNL A   1      37.818  31.385  30.323  1.00  0.00     0.134 A 
ATOM     71  F   UNL A   1      39.668  29.918  33.077  1.00  0.00    -0.206 F 
ATOM     72  C   UNL A   1      37.598  31.028  33.068  1.00  0.00     0.040 A 
ATOM     73  C   UNL A   1      36.699  31.873  30.999  1.00  0.00     0.040 A 
ATOM     74  F   UNL A   1      37.883  31.564  28.995  1.00  0.00    -0.206 F 
ATOM     75  C   UNL A   1      36.584  31.688  32.375  1.00  0.00     0.006 A 
ENDBRANCH  47  68
BRANCH  59  76
ATOM     76  C   UNL A   1      44.974  33.484  29.199  1.00  0.00     0.057 A 
ATOM     77  C   UNL A   1      45.767  33.814  30.304  1.00  0.00     0.134 A 
ATOM     78  C   UNL A   1      44.761  34.476  28.234  1.00  0.00     0.134 A 
ATOM     79  F   UNL A   1      46.000  32.911  31.269  1.00  0.00    -0.206 F 
ATOM     80  C   UNL A   1      46.309  35.092  30.456  1.00  0.00     0.040 A 
ATOM     81  C   UNL A   1      45.314  35.750  28.363  1.00  0.00     0.040 A 
ATOM     82  F   UNL A   1      44.016  34.221  27.147  1.00  0.00    -0.206 F 
ATOM     83  C   UNL A   1      46.087  36.063  29.480  1.00  0.00     0.006 A 
ENDBRANCH  59  76
ENDBRANCH  33  34
ENDBRANCH  26  28
ENDBRANCH  25  26
ENDBRANCH  24  25
ENDBRANCH   1  24
TORSDOF 16
ENDMDL
MODEL 2
REMARK VINA RESULT:     -11.5      1.729      2.788
REMARK SMILES CC(=O)Nc1sc(-c2ccccc2)cc1C(=O)OCCOCCOC(=O)c1ccc(-c2c3nc(c(-c4c(F)cccc4F)c4ccc([nH]4)c(-c4c(F)cccc4F)c4nc(c(-c5c(F)cccc5F)c5ccc2[nH]5)C=C4)C=C3)cc1
REMARK SMILES IDX 22 1 21 2 20 3 19 4 18 5 16 6 17 7 15 8 5 9 6 10 7 11 14 12
REMARK SMILES IDX 4 13 1 14 2 15 3 16 8 18 9 19 13 20 10 21 12 22 11 23 23 24
REMARK SMILES IDX 24 25 25 26 26 27 27 28 28 29 80 30 29 31 79 32 30 33 31 34
REMARK SMILES IDX 32 35 73 36 33 37 78 38 72 39 74 40 34 41 77 42 71 43 70 44
REMARK SMILES IDX 35 46 61 47 44 48 60 49 45 50 48 51 59 52 75 53 46 54 47 55
REMARK SMILES IDX 58 57 76 58 49 59 36 60 37 61 42 62 38 63 39 64 41 65 43 66
REMARK SMILES IDX 40 67 62 68 63 69 68 70 64 71 65 72 67 73 69 74 66 75 50 76
REMARK SMILES IDX 51 77 56 78 52 79 53 80 55 81 57 82 54 83
REMARK H PARENT 4 17 74 45 48 56
REMARK Flexibility Score: inf
ROOT
ATOM      1  C   UNL A   1      36.228  20.521  24.869  1.00  0.00     0.202 C 
ENDROOT
BRANCH   1   2
ATOM      2  O   UNL A   1      35.533  21.083  25.986  1.00  0.00    -0.374 OA
BRANCH   2   3
ATOM      3  C   UNL A   1      34.106  21.060  25.945  1.00  0.00     0.202 C 
BRANCH   3   4
ATOM      4  C   UNL A   1      33.419  22.218  26.672  1.00  0.00     0.261 C 
BRANCH   4   5
ATOM      5  O   UNL A   1      32.484  22.877  25.803  1.00  0.00    -0.460 OA
BRANCH   5   6
ATOM      6  C   UNL A   1      31.860  23.972  26.322  1.00  0.00     0.341 C 
ATOM      7  O   UNL A   1      31.063  23.946  27.251  1.00  0.00    -0.246 OA
BRANCH   6   8
ATOM      8  C   UNL A   1      32.342  25.221  25.748  1.00  0.00     0.095 A 
ATOM      9  C   UNL A   1      32.739  25.477  24.450  1.00  0.00     0.110 A 
ATOM     10  S   UNL A   1      33.526  26.989  24.292  1.00  0.00    -0.117 S 
ATOM     11  C   UNL A   1      33.154  27.426  25.896  1.00  0.00     0.037 A 
ATOM     12  C   UNL A   1      32.548  26.387  26.566  1.00  0.00     0.038 A 
BRANCH   9  13
ATOM     13  N   UNL A   1      32.686  24.807  23.251  1.00  0.00    -0.317 N 
ATOM     14  C   UNL A   1      34.865  23.600  23.393  1.00  0.00     0.114 C 
ATOM     15  C   UNL A   1      33.656  24.075  22.630  1.00  0.00     0.221 C 
ATOM     16  O   UNL A   1      33.486  23.729  21.458  1.00  0.00    -0.275 OA
ATOM     17  H   UNL A   1      31.828  24.864  22.773  1.00  0.00     0.170 HD
ENDBRANCH   9  13
BRANCH  11  18
ATOM     18  C   UNL A   1      33.485  28.745  26.421  1.00  0.00    -0.008 A 
ATOM     19  C   UNL A   1      32.517  29.756  26.428  1.00  0.00     0.009 A 
ATOM     20  C   UNL A   1      34.727  28.979  27.023  1.00  0.00     0.009 A 
ATOM     21  C   UNL A   1      32.783  30.983  27.040  1.00  0.00     0.001 A 
ATOM     22  C   UNL A   1      34.994  30.208  27.630  1.00  0.00     0.001 A 
ATOM     23  C   UNL A   1      34.020  31.206  27.644  1.00  0.00     0.000 A 
ENDBRANCH  11  18
ENDBRANCH   6   8
ENDBRANCH   5   6
ENDBRANCH   4   5
ENDBRANCH   3   4
ENDBRANCH   2   3
ENDBRANCH   1   2
BRANCH   1  24
ATOM     24  C   UNL A   1      37.667  20.069  25.137  1.00  0.00     0.261 C 
BRANCH  24  25
ATOM     25  O   UNL A   1      38.561  21.190  25.275  1.00  0.00    -0.460 OA
BRANCH  25  26
ATOM     26  C   UNL A   1      39.608  20.978  26.108  1.00  0.00     0.338 C 
ATOM     27  O   UNL A   1      40.296  19.973  26.187  1.00  0.00    -0.246 OA
BRANCH  26  28
ATOM     28  C   UNL A   1      39.937  22.206  26.856  1.00  0.00     0.060 A 
ATOM     29  C   UNL A   1      39.201  23.357  26.548  1.00  0.00     0.016 A 
ATOM     30  C   UNL A   1      41.020  22.270  27.735  1.00  0.00     0.016 A 
ATOM     31  C   UNL A   1      39.597  24.593  27.051  1.00  0.00     0.010 A 
ATOM     32  C   UNL A   1      41.422  23.514  28.235  1.00  0.00     0.010 A 
ATOM     33  C   UNL A   1      40.744  24.686  27.849  1.00  0.00    -0.014 A 
BRANCH  33  34
ATOM     34  C   UNL A   1      41.338  26.023  28.094  1.00  0.00     0.031 A 
ATOM     35  C   UNL A   1      42.721  26.305  27.569  1.00  0.00     0.074 A 
ATOM     36  C   UNL A   1      40.638  26.993  28.707  1.00  0.00     0.049 A 
ATOM     37  N   UNL A   1      43.426  27.406  27.632  1.00  0.00    -0.248 NA
ATOM     38  C   UNL A   1      43.398  25.196  26.878  1.00  0.00     0.031 C 
ATOM     39  C   UNL A   1      39.279  26.858  29.227  1.00  0.00     0.029 A 
ATOM     40  N   UNL A   1      40.983  28.291  28.987  1.00  0.00    -0.354 N 
ATOM     41  C   UNL A   1      44.625  27.122  26.990  1.00  0.00     0.074 A 
ATOM     42  C   UNL A   1      44.566  25.739  26.571  1.00  0.00     0.031 C 
ATOM     43  C   UNL A   1      38.903  28.031  29.766  1.00  0.00     0.029 A 
ATOM     44  C   UNL A   1      40.000  28.990  29.643  1.00  0.00     0.049 A 
ATOM     45  H   UNL A   1      41.851  28.684  28.742  1.00  0.00     0.167 HD
ATOM     46  C   UNL A   1      45.678  27.942  26.758  1.00  0.00     0.037 A 
ATOM     47  C   UNL A   1      39.993  30.258  30.097  1.00  0.00     0.037 A 
ATOM     48  C   UNL A   1      45.744  29.317  27.174  1.00  0.00     0.049 A 
ATOM     49  C   UNL A   1      41.193  31.137  29.868  1.00  0.00     0.074 A 
ATOM     50  C   UNL A   1      46.773  30.225  26.999  1.00  0.00     0.029 A 
ATOM     51  N   UNL A   1      44.733  29.982  27.851  1.00  0.00    -0.354 N 
ATOM     52  N   UNL A   1      42.315  30.861  29.250  1.00  0.00    -0.248 NA
ATOM     53  C   UNL A   1      41.118  32.509  30.391  1.00  0.00     0.031 C 
ATOM     54  C   UNL A   1      46.395  31.434  27.593  1.00  0.00     0.029 A 
ATOM     55  C   UNL A   1      45.117  31.288  28.105  1.00  0.00     0.049 A 
ATOM     56  H   UNL A   1      43.870  29.585  28.111  1.00  0.00     0.167 HD
ATOM     57  C   UNL A   1      43.064  32.031  29.280  1.00  0.00     0.074 A 
ATOM     58  C   UNL A   1      42.267  33.021  29.973  1.00  0.00     0.031 C 
ATOM     59  C   UNL A   1      44.301  32.265  28.777  1.00  0.00     0.037 A 
BRANCH  46  60
ATOM     60  C   UNL A   1      46.853  27.358  26.033  1.00  0.00     0.057 A 
ATOM     61  C   UNL A   1      46.966  27.429  24.639  1.00  0.00     0.134 A 
ATOM     62  C   UNL A   1      47.888  26.731  26.737  1.00  0.00     0.134 A 
ATOM     63  F   UNL A   1      45.999  28.001  23.907  1.00  0.00    -0.206 F 
ATOM     64  C   UNL A   1      48.060  26.879  23.969  1.00  0.00     0.040 A 
ATOM     65  C   UNL A   1      48.997  26.196  26.080  1.00  0.00     0.040 A 
ATOM     66  F   UNL A   1      47.840  26.631  28.074  1.00  0.00    -0.206 F 
ATOM     67  C   UNL A   1      49.082  26.264  24.690  1.00  0.00     0.006 A 
ENDBRANCH  46  60
BRANCH  47  68
ATOM     68  C   UNL A   1      38.803  30.784  30.811  1.00  0.00     0.057 A 
ATOM     69  C   UNL A   1      37.753  31.394  30.116  1.00  0.00     0.134 A 
ATOM     70  C   UNL A   1      38.702  30.712  32.204  1.00  0.00     0.134 A 
ATOM     71  F   UNL A   1      37.806  31.515  28.782  1.00  0.00    -0.206 F 
ATOM     72  C   UNL A   1      36.650  31.931  30.784  1.00  0.00     0.040 A 
ATOM     73  C   UNL A   1      37.596  31.224  32.884  1.00  0.00     0.040 A 
ATOM     74  F   UNL A   1      39.679  30.142  32.926  1.00  0.00    -0.206 F 
ATOM     75  C   UNL A   1      36.569  31.843  32.173  1.00  0.00     0.006 A 
ENDBRANCH  47  68
BRANCH  59  76
ATOM     76  C   UNL A   1      44.843  33.657  28.910  1.00  0.00     0.057 A 
ATOM     77  C   UNL A   1      45.641  34.041  29.995  1.00  0.00     0.134 A 
ATOM     78  C   UNL A   1      44.587  34.616  27.922  1.00  0.00     0.134 A 
ATOM     79  F   UNL A   1      45.914  33.172  30.980  1.00  0.00    -0.206 F 
ATOM     80  C   UNL A   1      46.147  35.338  30.103  1.00  0.00     0.040 A 
ATOM     81  C   UNL A   1      45.104  35.909  28.009  1.00  0.00     0.040 A 
ATOM     82  F   UNL A   1      43.835  34.308  26.853  1.00  0.00    -0.206 F 
ATOM     83  C   UNL A   1      45.882  36.275  29.105  1.00  0.00     0.006 A 
ENDBRANCH  59  76
ENDBRANCH  33  34
ENDBRANCH  26  28
ENDBRANCH  25  26
ENDBRANCH  24  25
ENDBRANCH   1  24
TORSDOF 16
ENDMDL
MODEL 3
REMARK VINA RESULT:     -11.5      4.021      9.167
REMARK SMILES CC(=O)Nc1sc(-c2ccccc2)cc1C(=O)OCCOCCOC(=O)c1ccc(-c2c3nc(c(-c4c(F)cccc4F)c4ccc([nH]4)c(-c4c(F)cccc4F)c4nc(c(-c5c(F)cccc5F)c5ccc2[nH]5)C=C4)C=C3)cc1
REMARK SMILES IDX 22 1 21 2 20 3 19 4 18 5 16 6 17 7 15 8 5 9 6 10 7 11 14 12
REMARK SMILES IDX 4 13 1 14 2 15 3 16 8 18 9 19 13 20 10 21 12 22 11 23 23 24
REMARK SMILES IDX 24 25 25 26 26 27 27 28 28 29 80 30 29 31 79 32 30 33 31 34
REMARK SMILES IDX 32 35 73 36 33 37 78 38 72 39 74 40 34 41 77 42 71 43 70 44
REMARK SMILES IDX 35 46 61 47 44 48 60 49 45 50 48 51 59 52 75 53 46 54 47 55
REMARK SMILES IDX 58 57 76 58 49 59 36 60 37 61 42 62 38 63 39 64 41 65 43 66
REMARK SMILES IDX 40 67 62 68 63 69 68 70 64 71 65 72 67 73 69 74 66 75 50 76
REMARK SMILES IDX 51 77 56 78 52 79 53 80 55 81 57 82 54 83
REMARK H PARENT 4 17 74 45 48 56
REMARK Flexibility Score: inf
ROOT
ATOM      1  C   UNL A   1      31.427  29.477  25.405  1.00  0.00     0.202 C 
ENDROOT
BRANCH   1   2
ATOM      2  O   UNL A   1      32.040  29.282  24.128  1.00  0.00    -0.374 OA
BRANCH   2   3
ATOM      3  C   UNL A   1      31.404  28.371  23.232  1.00  0.00     0.202 C 
BRANCH   3   4
ATOM      4  C   UNL A   1      32.341  27.362  22.563  1.00  0.00     0.261 C 
BRANCH   4   5
ATOM      5  O   UNL A   1      31.761  26.048  22.579  1.00  0.00    -0.460 OA
BRANCH   5   6
ATOM      6  C   UNL A   1      32.631  25.012  22.409  1.00  0.00     0.341 C 
ATOM      7  O   UNL A   1      33.644  25.057  21.722  1.00  0.00    -0.246 OA
BRANCH   6   8
ATOM      8  C   UNL A   1      32.313  23.864  23.247  1.00  0.00     0.095 A 
ATOM      9  C   UNL A   1      31.665  23.842  24.467  1.00  0.00     0.110 A 
ATOM     10  S   UNL A   1      31.784  22.320  25.243  1.00  0.00    -0.117 S 
ATOM     11  C   UNL A   1      32.502  21.603  23.875  1.00  0.00     0.037 A 
ATOM     12  C   UNL A   1      32.752  22.539  22.897  1.00  0.00     0.038 A 
BRANCH   9  13
ATOM     13  N   UNL A   1      30.969  24.746  25.233  1.00  0.00    -0.317 N 
ATOM     14  C   UNL A   1      32.895  26.075  26.098  1.00  0.00     0.114 C 
ATOM     15  C   UNL A   1      31.443  25.674  26.114  1.00  0.00     0.221 C 
ATOM     16  O   UNL A   1      30.650  26.247  26.864  1.00  0.00    -0.275 OA
ATOM     17  H   UNL A   1      29.990  24.721  25.132  1.00  0.00     0.170 HD
ENDBRANCH   9  13
BRANCH  11  18
ATOM     18  C   UNL A   1      32.800  20.177  23.831  1.00  0.00    -0.008 A 
ATOM     19  C   UNL A   1      32.160  19.359  22.892  1.00  0.00     0.009 A 
ATOM     20  C   UNL A   1      33.802  19.635  24.644  1.00  0.00     0.009 A 
ATOM     21  C   UNL A   1      32.527  18.018  22.759  1.00  0.00     0.001 A 
ATOM     22  C   UNL A   1      34.165  18.293  24.512  1.00  0.00     0.001 A 
ATOM     23  C   UNL A   1      33.532  17.488  23.566  1.00  0.00     0.000 A 
ENDBRANCH  11  18
ENDBRANCH   6   8
ENDBRANCH   5   6
ENDBRANCH   4   5
ENDBRANCH   3   4
ENDBRANCH   2   3
ENDBRANCH   1   2
BRANCH   1  24
ATOM     24  C   UNL A   1      31.760  30.795  26.112  1.00  0.00     0.261 C 
BRANCH  24  25
ATOM     25  O   UNL A   1      32.664  30.595  27.215  1.00  0.00    -0.460 OA
BRANCH  25  26
ATOM     26  C   UNL A   1      33.422  31.674  27.527  1.00  0.00     0.338 C 
ATOM     27  O   UNL A   1      33.040  32.821  27.692  1.00  0.00    -0.246 OA
BRANCH  26  28
ATOM     28  C   UNL A   1      34.815  31.272  27.797  1.00  0.00     0.060 A 
ATOM     29  C   UNL A   1      35.060  29.906  27.985  1.00  0.00     0.016 A 
ATOM     30  C   UNL A   1      35.832  32.209  27.996  1.00  0.00     0.016 A 
ATOM     31  C   UNL A   1      36.298  29.478  28.456  1.00  0.00     0.010 A 
ATOM     32  C   UNL A   1      37.074  31.779  28.476  1.00  0.00     0.010 A 
ATOM     33  C   UNL A   1      37.292  30.418  28.760  1.00  0.00    -0.014 A 
BRANCH  33  34
ATOM     34  C   UNL A   1      38.461  29.987  29.563  1.00  0.00     0.031 A 
ATOM     35  C   UNL A   1      38.600  30.504  30.970  1.00  0.00     0.074 A 
ATOM     36  C   UNL A   1      39.347  29.097  29.082  1.00  0.00     0.049 A 
ATOM     37  N   UNL A   1      39.515  30.240  31.868  1.00  0.00    -0.248 NA
ATOM     38  C   UNL A   1      37.564  31.445  31.428  1.00  0.00     0.031 C 
ATOM     39  C   UNL A   1      39.303  28.495  27.751  1.00  0.00     0.029 A 
ATOM     40  N   UNL A   1      40.455  28.544  29.671  1.00  0.00    -0.354 N 
ATOM     41  C   UNL A   1      39.165  30.979  32.992  1.00  0.00     0.074 A 
ATOM     42  C   UNL A   1      37.972  31.725  32.656  1.00  0.00     0.031 C 
ATOM     43  C   UNL A   1      40.343  27.651  27.624  1.00  0.00     0.029 A 
ATOM     44  C   UNL A   1      41.131  27.670  28.855  1.00  0.00     0.049 A 
ATOM     45  H   UNL A   1      40.740  28.753  30.589  1.00  0.00     0.167 HD
ATOM     46  C   UNL A   1      39.774  31.024  34.201  1.00  0.00     0.037 A 
ATOM     47  C   UNL A   1      42.260  26.971  29.080  1.00  0.00     0.037 A 
ATOM     48  C   UNL A   1      40.960  30.287  34.540  1.00  0.00     0.049 A 
ATOM     49  C   UNL A   1      42.945  27.073  30.416  1.00  0.00     0.074 A 
ATOM     50  C   UNL A   1      41.661  30.278  35.734  1.00  0.00     0.029 A 
ATOM     51  N   UNL A   1      41.623  29.425  33.680  1.00  0.00    -0.354 N 
ATOM     52  N   UNL A   1      42.599  27.765  31.474  1.00  0.00    -0.248 NA
ATOM     53  C   UNL A   1      44.174  26.284  30.592  1.00  0.00     0.031 C 
ATOM     54  C   UNL A   1      42.763  29.429  35.587  1.00  0.00     0.029 A 
ATOM     55  C   UNL A   1      42.727  28.883  34.316  1.00  0.00     0.049 A 
ATOM     56  H   UNL A   1      41.349  29.227  32.756  1.00  0.00     0.167 HD
ATOM     57  C   UNL A   1      43.544  27.471  32.448  1.00  0.00     0.074 A 
ATOM     58  C   UNL A   1      44.476  26.533  31.858  1.00  0.00     0.031 C 
ATOM     59  C   UNL A   1      43.632  27.934  33.719  1.00  0.00     0.037 A 
BRANCH  46  60
ATOM     60  C   UNL A   1      39.168  31.921  35.238  1.00  0.00     0.057 A 
ATOM     61  C   UNL A   1      38.344  31.419  36.253  1.00  0.00     0.134 A 
ATOM     62  C   UNL A   1      39.423  33.297  35.231  1.00  0.00     0.134 A 
ATOM     63  F   UNL A   1      38.048  30.112  36.304  1.00  0.00    -0.206 F 
ATOM     64  C   UNL A   1      37.778  32.259  37.214  1.00  0.00     0.040 A 
ATOM     65  C   UNL A   1      38.880  34.144  36.199  1.00  0.00     0.040 A 
ATOM     66  F   UNL A   1      40.205  33.841  34.286  1.00  0.00    -0.206 F 
ATOM     67  C   UNL A   1      38.050  33.626  37.191  1.00  0.00     0.006 A 
ENDBRANCH  46  60
BRANCH  47  68
ATOM     68  C   UNL A   1      42.818  26.100  28.015  1.00  0.00     0.057 A 
ATOM     69  C   UNL A   1      43.740  26.593  27.086  1.00  0.00     0.134 A 
ATOM     70  C   UNL A   1      42.421  24.765  27.889  1.00  0.00     0.134 A 
ATOM     71  F   UNL A   1      44.138  27.872  27.142  1.00  0.00    -0.206 F 
ATOM     72  C   UNL A   1      44.236  25.792  26.056  1.00  0.00     0.040 A 
ATOM     73  C   UNL A   1      42.925  23.946  26.877  1.00  0.00     0.040 A 
ATOM     74  F   UNL A   1      41.537  24.236  28.748  1.00  0.00    -0.206 F 
ATOM     75  C   UNL A   1      43.830  24.463  25.952  1.00  0.00     0.006 A 
ENDBRANCH  47  68
BRANCH  59  76
ATOM     76  C   UNL A   1      44.740  27.392  34.571  1.00  0.00     0.057 A 
ATOM     77  C   UNL A   1      45.987  28.025  34.655  1.00  0.00     0.134 A 
ATOM     78  C   UNL A   1      44.545  26.240  35.342  1.00  0.00     0.134 A 
ATOM     79  F   UNL A   1      46.241  29.127  33.933  1.00  0.00    -0.206 F 
ATOM     80  C   UNL A   1      47.009  27.516  35.458  1.00  0.00     0.040 A 
ATOM     81  C   UNL A   1      45.551  25.734  36.165  1.00  0.00     0.040 A 
ATOM     82  F   UNL A   1      43.370  25.592  35.313  1.00  0.00    -0.206 F 
ATOM     83  C   UNL A   1      46.790  26.369  36.221  1.00  0.00     0.006 A 
ENDBRANCH  59  76
ENDBRANCH  33  34
ENDBRANCH  26  28
ENDBRANCH  25  26
ENDBRANCH  24  25
ENDBRANCH   1  24
TORSDOF 16
ENDMDL
