MODEL 1
REMARK VINA RESULT:     -11.9      0.000      0.000
REMARK SMILES O=C(C[C@H](Cc1ccc(Cl)cc1)C(=O)Nc1cc(Cl)ccc1Cl)OCCOCCOC(=O)c1ccc(-c2c3nc(c(-c4c(F)cccc4F)c4ccc([nH]4)c(-c4c(F)cccc4F)c4nc(c(-c5c(F)cccc5F)c5ccc2[nH]5)C=C4)C=C3)cc1
REMARK SMILES IDX 26 1 25 2 24 3 2 4 1 5 3 6 4 7 13 8 14 9 15 10 16 12 17 13
REMARK SMILES IDX 22 14 18 15 21 16 23 17 19 18 20 19 5 20 6 21 7 22 12 23
REMARK SMILES IDX 8 24 11 25 9 26 10 27 27 28 28 29 29 30 30 31 31 32 32 33
REMARK SMILES IDX 33 34 34 35 86 36 35 37 85 38 36 39 37 40 38 41 79 42 39 43
REMARK SMILES IDX 84 44 78 45 80 46 40 47 83 48 77 49 76 50 41 52 67 53 50 54
REMARK SMILES IDX 66 55 51 56 54 57 65 58 81 59 52 60 53 61 64 63 82 64 55 65
REMARK SMILES IDX 42 66 43 67 48 68 44 69 45 70 47 71 49 72 46 73 68 74 69 75
REMARK SMILES IDX 74 76 70 77 71 78 73 79 75 80 72 81 56 82 57 83 62 84 58 85
REMARK SMILES IDX 59 86 61 87 63 88 60 89
REMARK H PARENT 15 11 80 51 54 62
REMARK Flexibility Score: inf
ROOT
ATOM      1  C   UNL A   1      40.196  21.396  26.776  1.00  0.00     0.202 C 
ENDROOT
BRANCH   1   2
ATOM      2  C   UNL A   1      39.025  22.028  26.053  1.00  0.00     0.261 C 
BRANCH   2   3
ATOM      3  O   UNL A   1      38.129  21.103  25.447  1.00  0.00    -0.463 OA
BRANCH   3   4
ATOM      4  C   UNL A   1      37.060  21.495  24.723  1.00  0.00     0.306 C 
ATOM      5  O   UNL A   1      37.217  22.266  23.780  1.00  0.00    -0.252 OA
BRANCH   4   6
ATOM      6  C   UNL A   1      35.685  21.029  25.118  1.00  0.00     0.136 C 
BRANCH   6   7
ATOM      7  C   UNL A   1      34.584  21.990  25.605  1.00  0.00     0.094 C 
BRANCH   7   8
ATOM      8  C   UNL A   1      33.521  21.362  26.533  1.00  0.00     0.228 C 
ATOM      9  O   UNL A   1      33.379  21.842  27.665  1.00  0.00    -0.274 OA
ATOM     10  N   UNL A   1      32.628  20.397  26.168  1.00  0.00    -0.324 N 
ATOM     11  H   UNL A   1      31.776  20.458  26.656  1.00  0.00     0.169 HD
BRANCH  10  12
ATOM     12  C   UNL A   1      32.660  19.337  25.246  1.00  0.00     0.061 A 
ATOM     13  C   UNL A   1      32.796  18.019  25.664  1.00  0.00     0.048 A 
ATOM     14  C   UNL A   1      32.472  19.593  23.872  1.00  0.00     0.064 A 
ATOM     15  C   UNL A   1      32.874  16.991  24.720  1.00  0.00     0.043 A 
ATOM     16  C   UNL A   1      32.626  18.570  22.929  1.00  0.00     0.024 A 
ATOM     17  Cl  UNL A   1      32.106  21.181  23.296  1.00  0.00    -0.082 Cl
ATOM     18  Cl  UNL A   1      33.020  15.377  25.275  1.00  0.00    -0.084 Cl
ATOM     19  C   UNL A   1      32.849  17.263  23.354  1.00  0.00     0.022 A 
ENDBRANCH  10  12
ENDBRANCH   7   8
BRANCH   7  20
ATOM     20  C   UNL A   1      34.890  23.482  25.917  1.00  0.00     0.049 C 
BRANCH  20  21
ATOM     21  C   UNL A   1      34.346  24.593  25.025  1.00  0.00    -0.047 A 
ATOM     22  C   UNL A   1      34.092  25.856  25.599  1.00  0.00     0.005 A 
ATOM     23  C   UNL A   1      34.086  24.435  23.656  1.00  0.00     0.005 A 
ATOM     24  C   UNL A   1      33.699  26.946  24.813  1.00  0.00     0.021 A 
ATOM     25  C   UNL A   1      33.724  25.533  22.860  1.00  0.00     0.021 A 
ATOM     26  C   UNL A   1      33.546  26.787  23.440  1.00  0.00     0.041 A 
ATOM     27  Cl  UNL A   1      33.176  28.148  22.457  1.00  0.00    -0.084 Cl
ENDBRANCH  20  21
ENDBRANCH   7  20
ENDBRANCH   6   7
ENDBRANCH   4   6
ENDBRANCH   3   4
ENDBRANCH   2   3
ENDBRANCH   1   2
BRANCH   1  28
ATOM     28  O   UNL A   1      41.032  20.511  26.054  1.00  0.00    -0.374 OA
BRANCH  28  29
ATOM     29  C   UNL A   1      42.293  20.225  26.667  1.00  0.00     0.202 C 
BRANCH  29  30
ATOM     30  C   UNL A   1      43.531  20.880  26.025  1.00  0.00     0.261 C 
BRANCH  30  31
ATOM     31  O   UNL A   1      43.770  22.230  26.486  1.00  0.00    -0.460 OA
BRANCH  31  32
ATOM     32  C   UNL A   1      43.301  23.224  25.681  1.00  0.00     0.338 C 
ATOM     33  O   UNL A   1      43.084  23.156  24.482  1.00  0.00    -0.246 OA
BRANCH  32  34
ATOM     34  C   UNL A   1      42.817  24.352  26.521  1.00  0.00     0.060 A 
ATOM     35  C   UNL A   1      43.331  25.640  26.282  1.00  0.00     0.016 A 
ATOM     36  C   UNL A   1      41.865  24.157  27.519  1.00  0.00     0.016 A 
ATOM     37  C   UNL A   1      42.922  26.726  27.063  1.00  0.00     0.010 A 
ATOM     38  C   UNL A   1      41.477  25.239  28.316  1.00  0.00     0.010 A 
ATOM     39  C   UNL A   1      42.022  26.522  28.115  1.00  0.00    -0.014 A 
BRANCH  39  40
ATOM     40  C   UNL A   1      41.754  27.577  29.128  1.00  0.00     0.031 A 
ATOM     41  C   UNL A   1      42.537  27.550  30.407  1.00  0.00     0.074 A 
ATOM     42  C   UNL A   1      40.785  28.495  28.960  1.00  0.00     0.049 A 
ATOM     43  N   UNL A   1      42.331  28.206  31.517  1.00  0.00    -0.248 NA
ATOM     44  C   UNL A   1      43.706  26.655  30.438  1.00  0.00     0.031 C 
ATOM     45  C   UNL A   1      40.006  28.670  27.743  1.00  0.00     0.029 A 
ATOM     46  N   UNL A   1      40.263  29.425  29.828  1.00  0.00    -0.354 N 
ATOM     47  C   UNL A   1      43.327  27.785  32.389  1.00  0.00     0.074 A 
ATOM     48  C   UNL A   1      44.132  26.814  31.682  1.00  0.00     0.031 C 
ATOM     49  C   UNL A   1      39.063  29.605  27.951  1.00  0.00     0.029 A 
ATOM     50  C   UNL A   1      39.145  30.062  29.336  1.00  0.00     0.049 A 
ATOM     51  H   UNL A   1      40.648  29.616  30.712  1.00  0.00     0.167 HD
ATOM     52  C   UNL A   1      43.540  28.176  33.666  1.00  0.00     0.037 A 
ATOM     53  C   UNL A   1      38.261  30.875  29.948  1.00  0.00     0.037 A 
ATOM     54  C   UNL A   1      42.741  29.151  34.358  1.00  0.00     0.049 A 
ATOM     55  C   UNL A   1      38.466  31.218  31.402  1.00  0.00     0.074 A 
ATOM     56  C   UNL A   1      42.913  29.648  35.638  1.00  0.00     0.029 A 
ATOM     57  N   UNL A   1      41.614  29.764  33.835  1.00  0.00    -0.354 N 
ATOM     58  N   UNL A   1      39.431  30.846  32.210  1.00  0.00    -0.248 NA
ATOM     59  C   UNL A   1      37.462  32.087  32.033  1.00  0.00     0.031 C 
ATOM     60  C   UNL A   1      41.852  30.514  35.914  1.00  0.00     0.029 A 
ATOM     61  C   UNL A   1      41.053  30.601  34.785  1.00  0.00     0.049 A 
ATOM     62  H   UNL A   1      41.264  29.625  32.927  1.00  0.00     0.167 HD
ATOM     63  C   UNL A   1      39.165  31.458  33.429  1.00  0.00     0.074 A 
ATOM     64  C   UNL A   1      37.960  32.238  33.253  1.00  0.00     0.031 C 
ATOM     65  C   UNL A   1      39.855  31.377  34.592  1.00  0.00     0.037 A 
BRANCH  52  66
ATOM     66  C   UNL A   1      44.661  27.525  34.416  1.00  0.00     0.057 A 
ATOM     67  C   UNL A   1      45.946  28.080  34.463  1.00  0.00     0.134 A 
ATOM     68  C   UNL A   1      44.429  26.362  35.161  1.00  0.00     0.134 A 
ATOM     69  F   UNL A   1      46.236  29.183  33.759  1.00  0.00    -0.206 F 
ATOM     70  C   UNL A   1      46.961  27.497  35.223  1.00  0.00     0.040 A 
ATOM     71  C   UNL A   1      45.428  25.783  35.942  1.00  0.00     0.040 A 
ATOM     72  F   UNL A   1      43.219  25.781  35.156  1.00  0.00    -0.206 F 
ATOM     73  C   UNL A   1      46.700  26.352  35.974  1.00  0.00     0.006 A 
ENDBRANCH  52  66
BRANCH  53  74
ATOM     74  C   UNL A   1      37.059  31.375  29.226  1.00  0.00     0.057 A 
ATOM     75  C   UNL A   1      35.951  30.550  28.996  1.00  0.00     0.134 A 
ATOM     76  C   UNL A   1      37.017  32.667  28.686  1.00  0.00     0.134 A 
ATOM     77  F   UNL A   1      35.939  29.292  29.460  1.00  0.00    -0.206 F 
ATOM     78  C   UNL A   1      34.863  30.978  28.230  1.00  0.00     0.040 A 
ATOM     79  C   UNL A   1      35.923  33.120  27.946  1.00  0.00     0.040 A 
ATOM     80  F   UNL A   1      38.044  33.511  28.865  1.00  0.00    -0.206 F 
ATOM     81  C   UNL A   1      34.846  32.269  27.704  1.00  0.00     0.006 A 
ENDBRANCH  53  74
BRANCH  65  82
ATOM     82  C   UNL A   1      39.344  32.174  35.757  1.00  0.00     0.057 A 
ATOM     83  C   UNL A   1      39.739  33.499  35.975  1.00  0.00     0.134 A 
ATOM     84  C   UNL A   1      38.403  31.625  36.639  1.00  0.00     0.134 A 
ATOM     85  F   UNL A   1      40.647  34.078  35.176  1.00  0.00    -0.206 F 
ATOM     86  C   UNL A   1      39.229  34.246  37.038  1.00  0.00     0.040 A 
ATOM     87  C   UNL A   1      37.864  32.371  37.688  1.00  0.00     0.040 A 
ATOM     88  F   UNL A   1      37.975  30.364  36.480  1.00  0.00    -0.206 F 
ATOM     89  C   UNL A   1      38.281  33.684  37.892  1.00  0.00     0.006 A 
ENDBRANCH  65  82
ENDBRANCH  39  40
ENDBRANCH  32  34
ENDBRANCH  31  32
ENDBRANCH  30  31
ENDBRANCH  29  30
ENDBRANCH  28  29
ENDBRANCH   1  28
TORSDOF 19
ENDMDL
MODEL 2
REMARK VINA RESULT:     -11.6      1.236      3.792
REMARK SMILES O=C(C[C@H](Cc1ccc(Cl)cc1)C(=O)Nc1cc(Cl)ccc1Cl)OCCOCCOC(=O)c1ccc(-c2c3nc(c(-c4c(F)cccc4F)c4ccc([nH]4)c(-c4c(F)cccc4F)c4nc(c(-c5c(F)cccc5F)c5ccc2[nH]5)C=C4)C=C3)cc1
REMARK SMILES IDX 26 1 25 2 24 3 2 4 1 5 3 6 4 7 13 8 14 9 15 10 16 12 17 13
REMARK SMILES IDX 22 14 18 15 21 16 23 17 19 18 20 19 5 20 6 21 7 22 12 23
REMARK SMILES IDX 8 24 11 25 9 26 10 27 27 28 28 29 29 30 30 31 31 32 32 33
REMARK SMILES IDX 33 34 34 35 86 36 35 37 85 38 36 39 37 40 38 41 79 42 39 43
REMARK SMILES IDX 84 44 78 45 80 46 40 47 83 48 77 49 76 50 41 52 67 53 50 54
REMARK SMILES IDX 66 55 51 56 54 57 65 58 81 59 52 60 53 61 64 63 82 64 55 65
REMARK SMILES IDX 42 66 43 67 48 68 44 69 45 70 47 71 49 72 46 73 68 74 69 75
REMARK SMILES IDX 74 76 70 77 71 78 73 79 75 80 72 81 56 82 57 83 62 84 58 85
REMARK SMILES IDX 59 86 61 87 63 88 60 89
REMARK H PARENT 15 11 80 51 54 62
REMARK Flexibility Score: inf
ROOT
ATOM      1  C   UNL A   1      38.440  20.995  25.345  1.00  0.00     0.202 C 
ENDROOT
BRANCH   1   2
ATOM      2  C   UNL A   1      37.233  21.840  24.999  1.00  0.00     0.261 C 
BRANCH   2   3
ATOM      3  O   UNL A   1      36.512  22.339  26.120  1.00  0.00    -0.463 OA
BRANCH   3   4
ATOM      4  C   UNL A   1      35.620  23.347  26.023  1.00  0.00     0.306 C 
ATOM      5  O   UNL A   1      35.888  24.327  25.332  1.00  0.00    -0.252 OA
BRANCH   4   6
ATOM      6  C   UNL A   1      34.339  23.283  26.808  1.00  0.00     0.136 C 
BRANCH   6   7
ATOM      7  C   UNL A   1      32.974  22.987  26.156  1.00  0.00     0.094 C 
BRANCH   7   8
ATOM      8  C   UNL A   1      31.846  23.986  26.502  1.00  0.00     0.228 C 
ATOM      9  O   UNL A   1      30.903  23.581  27.195  1.00  0.00    -0.274 OA
ATOM     10  N   UNL A   1      31.860  25.319  26.216  1.00  0.00    -0.324 N 
ATOM     11  H   UNL A   1      31.368  25.858  26.876  1.00  0.00     0.169 HD
BRANCH  10  12
ATOM     12  C   UNL A   1      32.423  26.090  25.185  1.00  0.00     0.061 A 
ATOM     13  C   UNL A   1      32.306  25.714  23.852  1.00  0.00     0.048 A 
ATOM     14  C   UNL A   1      33.055  27.314  25.486  1.00  0.00     0.064 A 
ATOM     15  C   UNL A   1      32.919  26.475  22.855  1.00  0.00     0.043 A 
ATOM     16  C   UNL A   1      33.730  28.032  24.492  1.00  0.00     0.024 A 
ATOM     17  Cl  UNL A   1      33.072  27.944  27.096  1.00  0.00    -0.082 Cl
ATOM     18  Cl  UNL A   1      32.734  25.990  21.222  1.00  0.00    -0.084 Cl
ATOM     19  C   UNL A   1      33.680  27.598  23.169  1.00  0.00     0.022 A 
ENDBRANCH  10  12
ENDBRANCH   7   8
BRANCH   7  20
ATOM     20  C   UNL A   1      32.870  22.390  24.725  1.00  0.00     0.049 C 
BRANCH  20  21
ATOM     21  C   UNL A   1      33.087  20.900  24.483  1.00  0.00    -0.047 A 
ATOM     22  C   UNL A   1      32.253  20.239  23.558  1.00  0.00     0.005 A 
ATOM     23  C   UNL A   1      34.075  20.143  25.127  1.00  0.00     0.005 A 
ATOM     24  C   UNL A   1      32.473  18.900  23.209  1.00  0.00     0.021 A 
ATOM     25  C   UNL A   1      34.318  18.811  24.757  1.00  0.00     0.021 A 
ATOM     26  C   UNL A   1      33.525  18.200  23.789  1.00  0.00     0.041 A 
ATOM     27  Cl  UNL A   1      33.868  16.594  23.279  1.00  0.00    -0.084 Cl
ENDBRANCH  20  21
ENDBRANCH   7  20
ENDBRANCH   6   7
ENDBRANCH   4   6
ENDBRANCH   3   4
ENDBRANCH   2   3
ENDBRANCH   1   2
BRANCH   1  28
ATOM     28  O   UNL A   1      39.460  21.574  26.137  1.00  0.00    -0.374 OA
BRANCH  28  29
ATOM     29  C   UNL A   1      40.498  20.677  26.548  1.00  0.00     0.202 C 
BRANCH  29  30
ATOM     30  C   UNL A   1      41.917  20.995  26.040  1.00  0.00     0.261 C 
BRANCH  30  31
ATOM     31  O   UNL A   1      42.024  22.292  25.409  1.00  0.00    -0.460 OA
BRANCH  31  32
ATOM     32  C   UNL A   1      43.102  23.042  25.773  1.00  0.00     0.338 C 
ATOM     33  O   UNL A   1      44.239  22.950  25.338  1.00  0.00    -0.246 OA
BRANCH  32  34
ATOM     34  C   UNL A   1      42.647  24.196  26.592  1.00  0.00     0.060 A 
ATOM     35  C   UNL A   1      43.253  25.449  26.387  1.00  0.00     0.016 A 
ATOM     36  C   UNL A   1      41.634  24.059  27.538  1.00  0.00     0.016 A 
ATOM     37  C   UNL A   1      42.873  26.557  27.151  1.00  0.00     0.010 A 
ATOM     38  C   UNL A   1      41.274  25.162  28.320  1.00  0.00     0.010 A 
ATOM     39  C   UNL A   1      41.908  26.409  28.154  1.00  0.00    -0.014 A 
BRANCH  39  40
ATOM     40  C   UNL A   1      41.654  27.477  29.156  1.00  0.00     0.031 A 
ATOM     41  C   UNL A   1      42.435  27.450  30.437  1.00  0.00     0.074 A 
ATOM     42  C   UNL A   1      40.699  28.408  28.979  1.00  0.00     0.049 A 
ATOM     43  N   UNL A   1      42.237  28.118  31.541  1.00  0.00    -0.248 NA
ATOM     44  C   UNL A   1      43.590  26.538  30.477  1.00  0.00     0.031 C 
ATOM     45  C   UNL A   1      39.925  28.583  27.759  1.00  0.00     0.029 A 
ATOM     46  N   UNL A   1      40.189  29.353  29.837  1.00  0.00    -0.354 N 
ATOM     47  C   UNL A   1      43.225  27.691  32.418  1.00  0.00     0.074 A 
ATOM     48  C   UNL A   1      44.017  26.701  31.721  1.00  0.00     0.031 C 
ATOM     49  C   UNL A   1      38.995  29.533  27.957  1.00  0.00     0.029 A 
ATOM     50  C   UNL A   1      39.082  30.002  29.338  1.00  0.00     0.049 A 
ATOM     51  H   UNL A   1      40.576  29.546  30.721  1.00  0.00     0.167 HD
ATOM     52  C   UNL A   1      43.443  28.090  33.692  1.00  0.00     0.037 A 
ATOM     53  C   UNL A   1      38.209  30.833  29.942  1.00  0.00     0.037 A 
ATOM     54  C   UNL A   1      42.658  29.083  34.373  1.00  0.00     0.049 A 
ATOM     55  C   UNL A   1      38.418  31.187  31.393  1.00  0.00     0.074 A 
ATOM     56  C   UNL A   1      42.835  29.590  35.649  1.00  0.00     0.029 A 
ATOM     57  N   UNL A   1      41.540  29.708  33.844  1.00  0.00    -0.354 N 
ATOM     58  N   UNL A   1      39.376  30.808  32.205  1.00  0.00    -0.248 NA
ATOM     59  C   UNL A   1      37.426  32.076  32.014  1.00  0.00     0.031 C 
ATOM     60  C   UNL A   1      41.786  30.474  35.916  1.00  0.00     0.029 A 
ATOM     61  C   UNL A   1      40.990  30.562  34.785  1.00  0.00     0.049 A 
ATOM     62  H   UNL A   1      41.190  29.566  32.936  1.00  0.00     0.167 HD
ATOM     63  C   UNL A   1      39.117  31.434  33.418  1.00  0.00     0.074 A 
ATOM     64  C   UNL A   1      37.924  32.230  33.233  1.00  0.00     0.031 C 
ATOM     65  C   UNL A   1      39.804  31.354  34.583  1.00  0.00     0.037 A 
BRANCH  52  66
ATOM     66  C   UNL A   1      44.553  27.429  34.449  1.00  0.00     0.057 A 
ATOM     67  C   UNL A   1      44.388  26.191  35.082  1.00  0.00     0.134 A 
ATOM     68  C   UNL A   1      45.826  28.012  34.484  1.00  0.00     0.134 A 
ATOM     69  F   UNL A   1      43.189  25.590  35.099  1.00  0.00    -0.206 F 
ATOM     70  C   UNL A   1      45.451  25.558  35.726  1.00  0.00     0.040 A 
ATOM     71  C   UNL A   1      46.902  27.378  35.104  1.00  0.00     0.040 A 
ATOM     72  F   UNL A   1      46.048  29.198  33.898  1.00  0.00    -0.206 F 
ATOM     73  C   UNL A   1      46.715  26.145  35.728  1.00  0.00     0.006 A 
ENDBRANCH  52  66
BRANCH  53  74
ATOM     74  C   UNL A   1      37.016  31.344  29.213  1.00  0.00     0.057 A 
ATOM     75  C   UNL A   1      35.915  30.520  28.947  1.00  0.00     0.134 A 
ATOM     76  C   UNL A   1      36.975  32.649  28.703  1.00  0.00     0.134 A 
ATOM     77  F   UNL A   1      35.902  29.252  29.382  1.00  0.00    -0.206 F 
ATOM     78  C   UNL A   1      34.837  30.961  28.176  1.00  0.00     0.040 A 
ATOM     79  C   UNL A   1      35.890  33.113  27.956  1.00  0.00     0.040 A 
ATOM     80  F   UNL A   1      37.996  33.492  28.916  1.00  0.00    -0.206 F 
ATOM     81  C   UNL A   1      34.822  32.263  27.679  1.00  0.00     0.006 A 
ENDBRANCH  53  74
BRANCH  65  82
ATOM     82  C   UNL A   1      39.304  32.168  35.740  1.00  0.00     0.057 A 
ATOM     83  C   UNL A   1      39.716  33.491  35.945  1.00  0.00     0.134 A 
ATOM     84  C   UNL A   1      38.355  31.641  36.627  1.00  0.00     0.134 A 
ATOM     85  F   UNL A   1      40.632  34.050  35.141  1.00  0.00    -0.206 F 
ATOM     86  C   UNL A   1      39.215  34.254  37.001  1.00  0.00     0.040 A 
ATOM     87  C   UNL A   1      37.825  32.404  37.668  1.00  0.00     0.040 A 
ATOM     88  F   UNL A   1      37.911  30.384  36.481  1.00  0.00    -0.206 F 
ATOM     89  C   UNL A   1      38.260  33.714  37.860  1.00  0.00     0.006 A 
ENDBRANCH  65  82
ENDBRANCH  39  40
ENDBRANCH  32  34
ENDBRANCH  31  32
ENDBRANCH  30  31
ENDBRANCH  29  30
ENDBRANCH  28  29
ENDBRANCH   1  28
TORSDOF 19
ENDMDL
MODEL 3
REMARK VINA RESULT:     -11.5      1.275      2.355
REMARK SMILES O=C(C[C@H](Cc1ccc(Cl)cc1)C(=O)Nc1cc(Cl)ccc1Cl)OCCOCCOC(=O)c1ccc(-c2c3nc(c(-c4c(F)cccc4F)c4ccc([nH]4)c(-c4c(F)cccc4F)c4nc(c(-c5c(F)cccc5F)c5ccc2[nH]5)C=C4)C=C3)cc1
REMARK SMILES IDX 26 1 25 2 24 3 2 4 1 5 3 6 4 7 13 8 14 9 15 10 16 12 17 13
REMARK SMILES IDX 22 14 18 15 21 16 23 17 19 18 20 19 5 20 6 21 7 22 12 23
REMARK SMILES IDX 8 24 11 25 9 26 10 27 27 28 28 29 29 30 30 31 31 32 32 33
REMARK SMILES IDX 33 34 34 35 86 36 35 37 85 38 36 39 37 40 38 41 79 42 39 43
REMARK SMILES IDX 84 44 78 45 80 46 40 47 83 48 77 49 76 50 41 52 67 53 50 54
REMARK SMILES IDX 66 55 51 56 54 57 65 58 81 59 52 60 53 61 64 63 82 64 55 65
REMARK SMILES IDX 42 66 43 67 48 68 44 69 45 70 47 71 49 72 46 73 68 74 69 75
REMARK SMILES IDX 74 76 70 77 71 78 73 79 75 80 72 81 56 82 57 83 62 84 58 85
REMARK SMILES IDX 59 86 61 87 63 88 60 89
REMARK H PARENT 15 11 80 51 54 62
REMARK Flexibility Score: inf
ROOT
ATOM      1  C   UNL A   1      40.214  20.973  26.836  1.00  0.00     0.202 C 
ENDROOT
BRANCH   1   2
ATOM      2  C   UNL A   1      39.086  21.669  26.105  1.00  0.00     0.261 C 
BRANCH   2   3
ATOM      3  O   UNL A   1      38.262  20.810  25.324  1.00  0.00    -0.463 OA
BRANCH   3   4
ATOM      4  C   UNL A   1      37.161  21.248  24.677  1.00  0.00     0.306 C 
ATOM      5  O   UNL A   1      37.278  22.070  23.772  1.00  0.00    -0.252 OA
BRANCH   4   6
ATOM      6  C   UNL A   1      35.804  20.770  25.115  1.00  0.00     0.136 C 
BRANCH   6   7
ATOM      7  C   UNL A   1      34.605  21.718  25.307  1.00  0.00     0.094 C 
BRANCH   7   8
ATOM      8  C   UNL A   1      33.261  21.028  25.632  1.00  0.00     0.228 C 
ATOM      9  O   UNL A   1      33.283  19.829  25.939  1.00  0.00    -0.274 OA
ATOM     10  N   UNL A   1      32.056  21.658  25.734  1.00  0.00    -0.324 N 
ATOM     11  H   UNL A   1      31.450  21.227  26.377  1.00  0.00     0.169 HD
BRANCH  10  12
ATOM     12  C   UNL A   1      31.492  22.790  25.120  1.00  0.00     0.061 A 
ATOM     13  C   UNL A   1      31.120  23.905  25.861  1.00  0.00     0.048 A 
ATOM     14  C   UNL A   1      31.368  22.842  23.716  1.00  0.00     0.064 A 
ATOM     15  C   UNL A   1      30.516  24.995  25.229  1.00  0.00     0.043 A 
ATOM     16  C   UNL A   1      30.696  23.903  23.098  1.00  0.00     0.024 A 
ATOM     17  Cl  UNL A   1      31.985  21.577  22.713  1.00  0.00    -0.082 Cl
ATOM     18  Cl  UNL A   1      30.090  26.359  26.174  1.00  0.00    -0.084 Cl
ATOM     19  C   UNL A   1      30.247  24.978  23.863  1.00  0.00     0.022 A 
ENDBRANCH  10  12
ENDBRANCH   7   8
BRANCH   7  20
ATOM     20  C   UNL A   1      34.773  23.114  25.971  1.00  0.00     0.049 C 
BRANCH  20  21
ATOM     21  C   UNL A   1      34.458  24.389  25.196  1.00  0.00    -0.047 A 
ATOM     22  C   UNL A   1      34.458  24.340  23.787  1.00  0.00     0.005 A 
ATOM     23  C   UNL A   1      34.162  25.617  25.805  1.00  0.00     0.005 A 
ATOM     24  C   UNL A   1      34.069  25.446  23.020  1.00  0.00     0.021 A 
ATOM     25  C   UNL A   1      33.742  26.717  25.042  1.00  0.00     0.021 A 
ATOM     26  C   UNL A   1      33.683  26.622  23.653  1.00  0.00     0.041 A 
ATOM     27  Cl  UNL A   1      33.096  27.942  22.721  1.00  0.00    -0.084 Cl
ENDBRANCH  20  21
ENDBRANCH   7  20
ENDBRANCH   6   7
ENDBRANCH   4   6
ENDBRANCH   3   4
ENDBRANCH   2   3
ENDBRANCH   1   2
BRANCH   1  28
ATOM     28  O   UNL A   1      40.973  20.007  26.134  1.00  0.00    -0.374 OA
BRANCH  28  29
ATOM     29  C   UNL A   1      42.370  19.982  26.447  1.00  0.00     0.202 C 
BRANCH  29  30
ATOM     30  C   UNL A   1      43.228  21.106  25.835  1.00  0.00     0.261 C 
BRANCH  30  31
ATOM     31  O   UNL A   1      42.455  22.254  25.415  1.00  0.00    -0.460 OA
BRANCH  31  32
ATOM     32  C   UNL A   1      43.166  23.389  25.163  1.00  0.00     0.338 C 
ATOM     33  O   UNL A   1      43.922  23.587  24.225  1.00  0.00    -0.246 OA
BRANCH  32  34
ATOM     34  C   UNL A   1      42.685  24.480  26.051  1.00  0.00     0.060 A 
ATOM     35  C   UNL A   1      43.127  25.793  25.805  1.00  0.00     0.016 A 
ATOM     36  C   UNL A   1      41.805  24.227  27.100  1.00  0.00     0.016 A 
ATOM     37  C   UNL A   1      42.719  26.848  26.629  1.00  0.00     0.010 A 
ATOM     38  C   UNL A   1      41.420  25.278  27.940  1.00  0.00     0.010 A 
ATOM     39  C   UNL A   1      41.895  26.587  27.730  1.00  0.00    -0.014 A 
BRANCH  39  40
ATOM     40  C   UNL A   1      41.643  27.613  28.776  1.00  0.00     0.031 A 
ATOM     41  C   UNL A   1      42.459  27.561  30.033  1.00  0.00     0.074 A 
ATOM     42  C   UNL A   1      40.661  28.526  28.656  1.00  0.00     0.049 A 
ATOM     43  N   UNL A   1      42.275  28.186  31.165  1.00  0.00    -0.248 NA
ATOM     44  C   UNL A   1      43.636  26.677  30.011  1.00  0.00     0.031 C 
ATOM     45  C   UNL A   1      39.850  28.724  27.464  1.00  0.00     0.029 A 
ATOM     46  N   UNL A   1      40.153  29.428  29.560  1.00  0.00    -0.354 N 
ATOM     47  C   UNL A   1      43.296  27.753  32.000  1.00  0.00     0.074 A 
ATOM     48  C   UNL A   1      44.092  26.808  31.248  1.00  0.00     0.031 C 
ATOM     49  C   UNL A   1      38.904  29.643  27.720  1.00  0.00     0.029 A 
ATOM     50  C   UNL A   1      39.017  30.066  29.114  1.00  0.00     0.049 A 
ATOM     51  H   UNL A   1      40.559  29.600  30.440  1.00  0.00     0.167 HD
ATOM     52  C   UNL A   1      43.539  28.112  33.281  1.00  0.00     0.037 A 
ATOM     53  C   UNL A   1      38.141  30.854  29.769  1.00  0.00     0.037 A 
ATOM     54  C   UNL A   1      42.749  29.062  34.018  1.00  0.00     0.049 A 
ATOM     55  C   UNL A   1      38.381  31.162  31.226  1.00  0.00     0.074 A 
ATOM     56  C   UNL A   1      42.949  29.528  35.306  1.00  0.00     0.029 A 
ATOM     57  N   UNL A   1      41.602  29.677  33.540  1.00  0.00    -0.354 N 
ATOM     58  N   UNL A   1      39.370  30.779  31.999  1.00  0.00    -0.248 NA
ATOM     59  C   UNL A   1      37.385  32.005  31.904  1.00  0.00     0.031 C 
ATOM     60  C   UNL A   1      41.887  30.376  35.631  1.00  0.00     0.029 A 
ATOM     61  C   UNL A   1      41.058  30.484  34.525  1.00  0.00     0.049 A 
ATOM     62  H   UNL A   1      41.232  29.558  32.637  1.00  0.00     0.167 HD
ATOM     63  C   UNL A   1      39.129  31.356  33.240  1.00  0.00     0.074 A 
ATOM     64  C   UNL A   1      37.912  32.128  33.115  1.00  0.00     0.031 C 
ATOM     65  C   UNL A   1      39.849  31.253  34.383  1.00  0.00     0.037 A 
BRANCH  52  66
ATOM     66  C   UNL A   1      44.684  27.454  33.986  1.00  0.00     0.057 A 
ATOM     67  C   UNL A   1      44.541  26.235  34.660  1.00  0.00     0.134 A 
ATOM     68  C   UNL A   1      45.965  28.016  33.926  1.00  0.00     0.134 A 
ATOM     69  F   UNL A   1      43.337  25.654  34.767  1.00  0.00    -0.206 F 
ATOM     70  C   UNL A   1      45.634  25.601  35.253  1.00  0.00     0.040 A 
ATOM     71  C   UNL A   1      47.069  27.381  34.494  1.00  0.00     0.040 A 
ATOM     72  F   UNL A   1      46.168  29.183  33.295  1.00  0.00    -0.206 F 
ATOM     73  C   UNL A   1      46.904  26.168  35.161  1.00  0.00     0.006 A 
ENDBRANCH  52  66
BRANCH  53  74
ATOM     74  C   UNL A   1      36.917  31.360  29.091  1.00  0.00     0.057 A 
ATOM     75  C   UNL A   1      35.836  30.515  28.812  1.00  0.00     0.134 A 
ATOM     76  C   UNL A   1      36.826  32.685  28.642  1.00  0.00     0.134 A 
ATOM     77  F   UNL A   1      35.870  29.229  29.189  1.00  0.00    -0.206 F 
ATOM     78  C   UNL A   1      34.727  30.957  28.085  1.00  0.00     0.040 A 
ATOM     79  C   UNL A   1      35.711  33.148  27.941  1.00  0.00     0.040 A 
ATOM     80  F   UNL A   1      37.826  33.549  28.871  1.00  0.00    -0.206 F 
ATOM     81  C   UNL A   1      34.662  32.279  27.648  1.00  0.00     0.006 A 
ENDBRANCH  53  74
BRANCH  65  82
ATOM     82  C   UNL A   1      39.361  32.014  35.581  1.00  0.00     0.057 A 
ATOM     83  C   UNL A   1      39.754  33.335  35.826  1.00  0.00     0.134 A 
ATOM     84  C   UNL A   1      38.442  31.436  36.467  1.00  0.00     0.134 A 
ATOM     85  F   UNL A   1      40.641  33.941  35.023  1.00  0.00    -0.206 F 
ATOM     86  C   UNL A   1      39.264  34.049  36.921  1.00  0.00     0.040 A 
ATOM     87  C   UNL A   1      37.923  32.150  37.549  1.00  0.00     0.040 A 
ATOM     88  F   UNL A   1      38.017  30.177  36.284  1.00  0.00    -0.206 F 
ATOM     89  C   UNL A   1      38.339  33.459  37.780  1.00  0.00     0.006 A 
ENDBRANCH  65  82
ENDBRANCH  39  40
ENDBRANCH  32  34
ENDBRANCH  31  32
ENDBRANCH  30  31
ENDBRANCH  29  30
ENDBRANCH  28  29
ENDBRANCH   1  28
TORSDOF 19
ENDMDL
