MODEL 1
REMARK VINA RESULT:     -10.0      0.000      0.000
REMARK SMILES CC(C)[NH2+][C@@]1(C(=O)OCCOCCOC(=O)c2ccc(-c3c4nc(c(-c5c(F)cccc5F)c5ccc([nH]5)c(-c5c(F)cccc5F)c5nc(c(-c6c(F)cccc6F)c6ccc3[nH]6)C=C5)C=C4)cc2)CC[C@@H](Sc2cccs2)C1
REMARK SMILES IDX 11 1 10 2 9 3 8 4 6 5 7 6 5 7 71 8 80 9 72 10 73 11 4 12
REMARK SMILES IDX 2 15 1 16 3 17 74 18 75 19 76 20 79 21 77 22 78 23 12 24
REMARK SMILES IDX 13 25 14 26 15 27 16 28 17 29 18 30 70 31 19 32 69 33 20 34
REMARK SMILES IDX 21 35 22 36 63 37 23 38 68 39 62 40 64 41 24 42 67 43 61 44
REMARK SMILES IDX 60 45 25 47 51 48 34 49 50 50 35 51 38 52 49 53 65 54 36 55
REMARK SMILES IDX 37 56 48 58 66 59 39 60 26 61 27 62 32 63 28 64 29 65 31 66
REMARK SMILES IDX 33 67 30 68 52 69 53 70 58 71 54 72 55 73 57 74 59 75 56 76
REMARK SMILES IDX 40 77 41 78 46 79 42 80 43 81 45 82 47 83 44 84
REMARK H PARENT 4 13 4 14 64 46 38 57
REMARK Flexibility Score: inf
ROOT
ATOM      1  O   UNL A   1      31.989  30.143  25.654  1.00  0.00    -0.374 OA
ENDROOT
BRANCH   1   2
ATOM      2  C   UNL A   1      33.259  29.499  25.570  1.00  0.00     0.202 C 
BRANCH   2   3
ATOM      3  C   UNL A   1      33.582  28.472  26.658  1.00  0.00     0.261 C 
BRANCH   3   4
ATOM      4  O   UNL A   1      33.370  27.129  26.200  1.00  0.00    -0.459 OA
BRANCH   4   5
ATOM      5  C   UNL A   1      32.084  26.686  26.275  1.00  0.00     0.368 C 
ATOM      6  O   UNL A   1      31.299  27.024  27.156  1.00  0.00    -0.245 OA
BRANCH   5   7
ATOM      7  C   UNL A   1      31.716  25.688  25.134  1.00  0.00     0.195 C 
ATOM      8  C   UNL A   1      30.812  24.600  25.733  1.00  0.00     0.082 C 
ATOM      9  C   UNL A   1      32.912  24.850  24.603  1.00  0.00     0.096 C 
ATOM     10  C   UNL A   1      31.791  23.651  26.418  1.00  0.00     0.022 C 
ATOM     11  C   UNL A   1      33.015  23.616  25.506  1.00  0.00     0.059 C 
BRANCH   7  12
ATOM     12  N   UNL A   1      31.162  26.397  23.949  1.00  0.00    -0.330 N 
ATOM     13  H   UNL A   1      31.923  26.947  23.551  1.00  0.00     0.347 HD
ATOM     14  H   UNL A   1      30.785  25.643  23.375  1.00  0.00     0.347 HD
BRANCH  12  15
ATOM     15  C   UNL A   1      30.021  27.305  24.114  1.00  0.00     0.176 C 
ATOM     16  C   UNL A   1      30.217  28.446  23.106  1.00  0.00     0.075 C 
ATOM     17  C   UNL A   1      28.667  26.646  23.852  1.00  0.00     0.075 C 
ENDBRANCH  12  15
ENDBRANCH   7  12
BRANCH  11  18
ATOM     18  S   UNL A   1      33.240  22.060  24.567  1.00  0.00    -0.112 SA
BRANCH  18  19
ATOM     19  C   UNL A   1      34.968  21.753  24.674  1.00  0.00     0.060 A 
ATOM     20  C   UNL A   1      35.574  20.558  25.002  1.00  0.00     0.027 A 
ATOM     21  S   UNL A   1      36.123  22.954  24.283  1.00  0.00    -0.137 S 
ATOM     22  C   UNL A   1      36.999  20.654  25.003  1.00  0.00     0.013 A 
ATOM     23  C   UNL A   1      37.429  21.909  24.636  1.00  0.00     0.066 A 
ENDBRANCH  18  19
ENDBRANCH  11  18
ENDBRANCH   5   7
ENDBRANCH   4   5
ENDBRANCH   3   4
ENDBRANCH   2   3
ENDBRANCH   1   2
BRANCH   1  24
ATOM     24  C   UNL A   1      31.646  30.783  26.885  1.00  0.00     0.202 C 
BRANCH  24  25
ATOM     25  C   UNL A   1      31.454  32.307  26.841  1.00  0.00     0.261 C 
BRANCH  25  26
ATOM     26  O   UNL A   1      32.696  33.032  26.734  1.00  0.00    -0.460 OA
BRANCH  26  27
ATOM     27  C   UNL A   1      33.207  33.449  27.916  1.00  0.00     0.338 C 
ATOM     28  O   UNL A   1      32.647  34.134  28.767  1.00  0.00    -0.246 OA
BRANCH  27  29
ATOM     29  C   UNL A   1      34.518  32.830  28.174  1.00  0.00     0.060 A 
ATOM     30  C   UNL A   1      34.526  31.506  28.629  1.00  0.00     0.016 A 
ATOM     31  C   UNL A   1      35.705  33.564  28.108  1.00  0.00     0.016 A 
ATOM     32  C   UNL A   1      35.715  30.927  29.067  1.00  0.00     0.010 A 
ATOM     33  C   UNL A   1      36.899  32.980  28.556  1.00  0.00     0.010 A 
ATOM     34  C   UNL A   1      36.903  31.672  29.073  1.00  0.00    -0.014 A 
BRANCH  34  35
ATOM     35  C   UNL A   1      38.095  31.098  29.750  1.00  0.00     0.031 A 
ATOM     36  C   UNL A   1      38.359  31.427  31.195  1.00  0.00     0.074 A 
ATOM     37  C   UNL A   1      38.886  30.217  29.111  1.00  0.00     0.049 A 
ATOM     38  N   UNL A   1      39.263  30.937  32.006  1.00  0.00    -0.248 NA
ATOM     39  C   UNL A   1      37.483  32.436  31.810  1.00  0.00     0.031 C 
ATOM     40  C   UNL A   1      38.731  29.799  27.719  1.00  0.00     0.029 A 
ATOM     41  N   UNL A   1      39.966  29.500  29.562  1.00  0.00    -0.354 N 
ATOM     42  C   UNL A   1      39.058  31.567  33.227  1.00  0.00     0.074 A 
ATOM     43  C   UNL A   1      37.970  32.505  33.041  1.00  0.00     0.031 C 
ATOM     44  C   UNL A   1      39.678  28.889  27.431  1.00  0.00     0.029 A 
ATOM     45  C   UNL A   1      40.507  28.667  28.614  1.00  0.00     0.049 A 
ATOM     46  H   UNL A   1      40.321  29.577  30.477  1.00  0.00     0.167 HD
ATOM     47  C   UNL A   1      39.704  31.374  34.402  1.00  0.00     0.037 A 
ATOM     48  C   UNL A   1      41.548  27.816  28.693  1.00  0.00     0.037 A 
ATOM     49  C   UNL A   1      40.790  30.448  34.595  1.00  0.00     0.049 A 
ATOM     50  C   UNL A   1      42.274  27.645  30.000  1.00  0.00     0.074 A 
ATOM     51  C   UNL A   1      41.498  30.174  35.753  1.00  0.00     0.029 A 
ATOM     52  N   UNL A   1      41.331  29.647  33.601  1.00  0.00    -0.354 N 
ATOM     53  N   UNL A   1      42.041  28.214  31.158  1.00  0.00    -0.248 NA
ATOM     54  C   UNL A   1      43.398  26.698  30.013  1.00  0.00     0.031 C 
ATOM     55  C   UNL A   1      42.491  29.237  35.451  1.00  0.00     0.029 A 
ATOM     56  C   UNL A   1      42.374  28.894  34.114  1.00  0.00     0.049 A 
ATOM     57  H   UNL A   1      41.018  29.619  32.667  1.00  0.00     0.167 HD
ATOM     58  C   UNL A   1      42.970  27.678  32.040  1.00  0.00     0.074 A 
ATOM     59  C   UNL A   1      43.759  26.725  31.288  1.00  0.00     0.031 C 
ATOM     60  C   UNL A   1      43.153  27.948  33.356  1.00  0.00     0.037 A 
BRANCH  47  61
ATOM     61  C   UNL A   1      39.257  32.194  35.576  1.00  0.00     0.057 A 
ATOM     62  C   UNL A   1      38.342  31.699  36.515  1.00  0.00     0.134 A 
ATOM     63  C   UNL A   1      39.769  33.480  35.788  1.00  0.00     0.134 A 
ATOM     64  F   UNL A   1      37.804  30.479  36.362  1.00  0.00    -0.206 F 
ATOM     65  C   UNL A   1      37.937  32.461  37.612  1.00  0.00     0.040 A 
ATOM     66  C   UNL A   1      39.389  34.243  36.893  1.00  0.00     0.040 A 
ATOM     67  F   UNL A   1      40.652  34.012  34.929  1.00  0.00    -0.206 F 
ATOM     68  C   UNL A   1      38.467  33.736  37.806  1.00  0.00     0.006 A 
ENDBRANCH  47  61
BRANCH  48  69
ATOM     69  C   UNL A   1      41.960  27.037  27.498  1.00  0.00     0.057 A 
ATOM     70  C   UNL A   1      41.503  25.730  27.289  1.00  0.00     0.134 A 
ATOM     71  C   UNL A   1      42.839  27.575  26.552  1.00  0.00     0.134 A 
ATOM     72  F   UNL A   1      40.678  25.153  28.175  1.00  0.00    -0.206 F 
ATOM     73  C   UNL A   1      41.919  24.980  26.189  1.00  0.00     0.040 A 
ATOM     74  C   UNL A   1      43.244  26.844  25.434  1.00  0.00     0.040 A 
ATOM     75  F   UNL A   1      43.311  28.821  26.697  1.00  0.00    -0.206 F 
ATOM     76  C   UNL A   1      42.789  25.539  25.255  1.00  0.00     0.006 A 
ENDBRANCH  48  69
BRANCH  60  77
ATOM     77  C   UNL A   1      44.229  27.183  34.069  1.00  0.00     0.057 A 
ATOM     78  C   UNL A   1      45.541  27.664  34.163  1.00  0.00     0.134 A 
ATOM     79  C   UNL A   1      43.947  25.953  34.678  1.00  0.00     0.134 A 
ATOM     80  F   UNL A   1      45.880  28.830  33.591  1.00  0.00    -0.206 F 
ATOM     81  C   UNL A   1      46.541  26.936  34.809  1.00  0.00     0.040 A 
ATOM     82  C   UNL A   1      44.933  25.227  35.349  1.00  0.00     0.040 A 
ATOM     83  F   UNL A   1      42.709  25.438  34.634  1.00  0.00    -0.206 F 
ATOM     84  C   UNL A   1      46.236  25.715  35.408  1.00  0.00     0.006 A 
ENDBRANCH  60  77
ENDBRANCH  34  35
ENDBRANCH  27  29
ENDBRANCH  26  27
ENDBRANCH  25  26
ENDBRANCH  24  25
ENDBRANCH   1  24
TORSDOF 18
ENDMDL
MODEL 2
REMARK VINA RESULT:     -10.0      0.979      2.051
REMARK SMILES CC(C)[NH2+][C@@]1(C(=O)OCCOCCOC(=O)c2ccc(-c3c4nc(c(-c5c(F)cccc5F)c5ccc([nH]5)c(-c5c(F)cccc5F)c5nc(c(-c6c(F)cccc6F)c6ccc3[nH]6)C=C5)C=C4)cc2)CC[C@@H](Sc2cccs2)C1
REMARK SMILES IDX 11 1 10 2 9 3 8 4 6 5 7 6 5 7 71 8 80 9 72 10 73 11 4 12
REMARK SMILES IDX 2 15 1 16 3 17 74 18 75 19 76 20 79 21 77 22 78 23 12 24
REMARK SMILES IDX 13 25 14 26 15 27 16 28 17 29 18 30 70 31 19 32 69 33 20 34
REMARK SMILES IDX 21 35 22 36 63 37 23 38 68 39 62 40 64 41 24 42 67 43 61 44
REMARK SMILES IDX 60 45 25 47 51 48 34 49 50 50 35 51 38 52 49 53 65 54 36 55
REMARK SMILES IDX 37 56 48 58 66 59 39 60 26 61 27 62 32 63 28 64 29 65 31 66
REMARK SMILES IDX 33 67 30 68 52 69 53 70 58 71 54 72 55 73 57 74 59 75 56 76
REMARK SMILES IDX 40 77 41 78 46 79 42 80 43 81 45 82 47 83 44 84
REMARK H PARENT 4 13 4 14 64 46 38 57
REMARK Flexibility Score: inf
ROOT
ATOM      1  O   UNL A   1      31.450  30.966  25.955  1.00  0.00    -0.374 OA
ENDROOT
BRANCH   1   2
ATOM      2  C   UNL A   1      32.615  30.185  26.220  1.00  0.00     0.202 C 
BRANCH   2   3
ATOM      3  C   UNL A   1      32.438  28.981  27.149  1.00  0.00     0.261 C 
BRANCH   3   4
ATOM      4  O   UNL A   1      32.914  27.770  26.544  1.00  0.00    -0.459 OA
BRANCH   4   5
ATOM      5  C   UNL A   1      31.981  26.789  26.396  1.00  0.00     0.368 C 
ATOM      6  O   UNL A   1      31.035  26.629  27.162  1.00  0.00    -0.245 OA
BRANCH   5   7
ATOM      7  C   UNL A   1      32.247  25.878  25.158  1.00  0.00     0.195 C 
ATOM      8  C   UNL A   1      31.766  24.461  25.505  1.00  0.00     0.082 C 
ATOM      9  C   UNL A   1      33.750  25.637  24.850  1.00  0.00     0.096 C 
ATOM     10  C   UNL A   1      32.909  23.882  26.335  1.00  0.00     0.022 C 
ATOM     11  C   UNL A   1      34.182  24.434  25.697  1.00  0.00     0.059 C 
BRANCH   7  12
ATOM     12  N   UNL A   1      31.669  26.463  23.918  1.00  0.00    -0.330 N 
ATOM     13  H   UNL A   1      32.398  27.033  23.492  1.00  0.00     0.347 HD
ATOM     14  H   UNL A   1      31.354  25.646  23.394  1.00  0.00     0.347 HD
BRANCH  12  15
ATOM     15  C   UNL A   1      30.467  27.300  24.003  1.00  0.00     0.176 C 
ATOM     16  C   UNL A   1      30.553  28.311  22.849  1.00  0.00     0.075 C 
ATOM     17  C   UNL A   1      29.161  26.518  23.872  1.00  0.00     0.075 C 
ENDBRANCH  12  15
ENDBRANCH   7  12
BRANCH  11  18
ATOM     18  S   UNL A   1      35.171  23.214  24.754  1.00  0.00    -0.112 SA
BRANCH  18  19
ATOM     19  C   UNL A   1      33.980  22.038  24.215  1.00  0.00     0.060 A 
ATOM     20  C   UNL A   1      33.090  22.186  23.172  1.00  0.00     0.027 A 
ATOM     21  S   UNL A   1      33.862  20.484  24.924  1.00  0.00    -0.137 S 
ATOM     22  C   UNL A   1      32.255  21.040  23.004  1.00  0.00     0.013 A 
ATOM     23  C   UNL A   1      32.566  20.043  23.900  1.00  0.00     0.066 A 
ENDBRANCH  18  19
ENDBRANCH  11  18
ENDBRANCH   5   7
ENDBRANCH   4   5
ENDBRANCH   3   4
ENDBRANCH   2   3
ENDBRANCH   1   2
BRANCH   1  24
ATOM     24  C   UNL A   1      31.387  32.279  26.515  1.00  0.00     0.202 C 
BRANCH  24  25
ATOM     25  C   UNL A   1      32.637  32.776  27.257  1.00  0.00     0.261 C 
BRANCH  25  26
ATOM     26  O   UNL A   1      32.540  34.152  27.675  1.00  0.00    -0.460 OA
BRANCH  26  27
ATOM     27  C   UNL A   1      33.128  34.421  28.864  1.00  0.00     0.338 C 
ATOM     28  O   UNL A   1      32.664  35.083  29.789  1.00  0.00    -0.246 OA
BRANCH  27  29
ATOM     29  C   UNL A   1      34.382  33.666  29.019  1.00  0.00     0.060 A 
ATOM     30  C   UNL A   1      34.303  32.406  29.624  1.00  0.00     0.016 A 
ATOM     31  C   UNL A   1      35.623  34.227  28.711  1.00  0.00     0.016 A 
ATOM     32  C   UNL A   1      35.468  31.723  29.967  1.00  0.00     0.010 A 
ATOM     33  C   UNL A   1      36.794  33.541  29.064  1.00  0.00     0.010 A 
ATOM     34  C   UNL A   1      36.722  32.303  29.728  1.00  0.00    -0.014 A 
BRANCH  34  35
ATOM     35  C   UNL A   1      37.927  31.650  30.305  1.00  0.00     0.031 A 
ATOM     36  C   UNL A   1      38.304  31.922  31.736  1.00  0.00     0.074 A 
ATOM     37  C   UNL A   1      38.625  30.750  29.590  1.00  0.00     0.049 A 
ATOM     38  N   UNL A   1      39.235  31.363  32.469  1.00  0.00    -0.248 NA
ATOM     39  C   UNL A   1      37.527  32.955  32.437  1.00  0.00     0.031 C 
ATOM     40  C   UNL A   1      38.354  30.382  28.201  1.00  0.00     0.029 A 
ATOM     41  N   UNL A   1      39.694  29.967  29.945  1.00  0.00    -0.354 N 
ATOM     42  C   UNL A   1      39.147  31.966  33.718  1.00  0.00     0.074 A 
ATOM     43  C   UNL A   1      38.099  32.963  33.632  1.00  0.00     0.031 C 
ATOM     44  C   UNL A   1      39.230  29.434  27.824  1.00  0.00     0.029 A 
ATOM     45  C   UNL A   1      40.125  29.136  28.940  1.00  0.00     0.049 A 
ATOM     46  H   UNL A   1      40.114  29.998  30.835  1.00  0.00     0.167 HD
ATOM     47  C   UNL A   1      39.860  31.706  34.840  1.00  0.00     0.037 A 
ATOM     48  C   UNL A   1      41.122  28.231  28.924  1.00  0.00     0.037 A 
ATOM     49  C   UNL A   1      40.907  30.721  34.932  1.00  0.00     0.049 A 
ATOM     50  C   UNL A   1      41.926  27.985  30.173  1.00  0.00     0.074 A 
ATOM     51  C   UNL A   1      41.676  30.378  36.031  1.00  0.00     0.029 A 
ATOM     52  N   UNL A   1      41.336  29.924  33.882  1.00  0.00    -0.354 N 
ATOM     53  N   UNL A   1      41.802  28.531  31.359  1.00  0.00    -0.248 NA
ATOM     54  C   UNL A   1      42.998  26.983  30.083  1.00  0.00     0.031 C 
ATOM     55  C   UNL A   1      42.597  29.400  35.636  1.00  0.00     0.029 A 
ATOM     56  C   UNL A   1      42.371  29.104  34.302  1.00  0.00     0.049 A 
ATOM     57  H   UNL A   1      40.960  29.939  32.972  1.00  0.00     0.167 HD
ATOM     58  C   UNL A   1      42.760  27.922  32.160  1.00  0.00     0.074 A 
ATOM     59  C   UNL A   1      43.445  26.953  31.331  1.00  0.00     0.031 C 
ATOM     60  C   UNL A   1      43.046  28.143  33.467  1.00  0.00     0.037 A 
BRANCH  47  61
ATOM     61  C   UNL A   1      39.537  32.512  36.063  1.00  0.00     0.057 A 
ATOM     62  C   UNL A   1      40.174  33.731  36.331  1.00  0.00     0.134 A 
ATOM     63  C   UNL A   1      38.558  32.081  36.966  1.00  0.00     0.134 A 
ATOM     64  F   UNL A   1      41.131  34.192  35.511  1.00  0.00    -0.206 F 
ATOM     65  C   UNL A   1      39.862  34.483  37.464  1.00  0.00     0.040 A 
ATOM     66  C   UNL A   1      38.221  32.836  38.092  1.00  0.00     0.040 A 
ATOM     67  F   UNL A   1      37.907  30.925  36.766  1.00  0.00    -0.206 F 
ATOM     68  C   UNL A   1      38.878  34.038  38.346  1.00  0.00     0.006 A 
ENDBRANCH  47  61
BRANCH  48  69
ATOM     69  C   UNL A   1      41.411  27.468  27.684  1.00  0.00     0.057 A 
ATOM     70  C   UNL A   1      42.255  27.984  26.694  1.00  0.00     0.134 A 
ATOM     71  C   UNL A   1      40.831  26.216  27.453  1.00  0.00     0.134 A 
ATOM     72  F   UNL A   1      42.821  29.190  26.848  1.00  0.00    -0.206 F 
ATOM     73  C   UNL A   1      42.498  27.288  25.508  1.00  0.00     0.040 A 
ATOM     74  C   UNL A   1      41.085  25.499  26.283  1.00  0.00     0.040 A 
ATOM     75  F   UNL A   1      40.014  25.669  28.365  1.00  0.00    -0.206 F 
ATOM     76  C   UNL A   1      41.916  26.039  25.304  1.00  0.00     0.006 A 
ENDBRANCH  48  69
BRANCH  60  77
ATOM     77  C   UNL A   1      44.127  27.304  34.082  1.00  0.00     0.057 A 
ATOM     78  C   UNL A   1      43.857  26.057  34.660  1.00  0.00     0.134 A 
ATOM     79  C   UNL A   1      45.457  27.743  34.087  1.00  0.00     0.134 A 
ATOM     80  F   UNL A   1      42.602  25.584  34.700  1.00  0.00    -0.206 F 
ATOM     81  C   UNL A   1      44.865  25.292  35.250  1.00  0.00     0.040 A 
ATOM     82  C   UNL A   1      46.478  26.976  34.649  1.00  0.00     0.040 A 
ATOM     83  F   UNL A   1      45.787  28.924  33.541  1.00  0.00    -0.206 F 
ATOM     84  C   UNL A   1      46.181  25.750  35.241  1.00  0.00     0.006 A 
ENDBRANCH  60  77
ENDBRANCH  34  35
ENDBRANCH  27  29
ENDBRANCH  26  27
ENDBRANCH  25  26
ENDBRANCH  24  25
ENDBRANCH   1  24
TORSDOF 18
ENDMDL
MODEL 3
REMARK VINA RESULT:      -9.8      1.903      4.116
REMARK SMILES CC(C)[NH2+][C@@]1(C(=O)OCCOCCOC(=O)c2ccc(-c3c4nc(c(-c5c(F)cccc5F)c5ccc([nH]5)c(-c5c(F)cccc5F)c5nc(c(-c6c(F)cccc6F)c6ccc3[nH]6)C=C5)C=C4)cc2)CC[C@@H](Sc2cccs2)C1
REMARK SMILES IDX 11 1 10 2 9 3 8 4 6 5 7 6 5 7 71 8 80 9 72 10 73 11 4 12
REMARK SMILES IDX 2 15 1 16 3 17 74 18 75 19 76 20 79 21 77 22 78 23 12 24
REMARK SMILES IDX 13 25 14 26 15 27 16 28 17 29 18 30 70 31 19 32 69 33 20 34
REMARK SMILES IDX 21 35 22 36 63 37 23 38 68 39 62 40 64 41 24 42 67 43 61 44
REMARK SMILES IDX 60 45 25 47 51 48 34 49 50 50 35 51 38 52 49 53 65 54 36 55
REMARK SMILES IDX 37 56 48 58 66 59 39 60 26 61 27 62 32 63 28 64 29 65 31 66
REMARK SMILES IDX 33 67 30 68 52 69 53 70 58 71 54 72 55 73 57 74 59 75 56 76
REMARK SMILES IDX 40 77 41 78 46 79 42 80 43 81 45 82 47 83 44 84
REMARK H PARENT 4 13 4 14 64 46 38 57
REMARK Flexibility Score: inf
ROOT
ATOM      1  O   UNL A   1      31.529  30.875  25.910  1.00  0.00    -0.374 OA
ENDROOT
BRANCH   1   2
ATOM      2  C   UNL A   1      32.674  30.050  26.116  1.00  0.00     0.202 C 
BRANCH   2   3
ATOM      3  C   UNL A   1      32.559  28.972  27.196  1.00  0.00     0.261 C 
BRANCH   3   4
ATOM      4  O   UNL A   1      32.126  27.718  26.650  1.00  0.00    -0.459 OA
BRANCH   4   5
ATOM      5  C   UNL A   1      32.755  27.334  25.505  1.00  0.00     0.368 C 
ATOM      6  O   UNL A   1      33.961  27.467  25.315  1.00  0.00    -0.245 OA
BRANCH   5   7
ATOM      7  C   UNL A   1      31.782  26.720  24.451  1.00  0.00     0.195 C 
ATOM      8  C   UNL A   1      32.169  27.278  23.073  1.00  0.00     0.082 C 
ATOM      9  C   UNL A   1      30.310  27.196  24.585  1.00  0.00     0.096 C 
ATOM     10  C   UNL A   1      31.525  28.662  23.048  1.00  0.00     0.022 C 
ATOM     11  C   UNL A   1      30.196  28.495  23.779  1.00  0.00     0.059 C 
BRANCH   7  12
ATOM     12  N   UNL A   1      31.739  25.236  24.550  1.00  0.00    -0.330 N 
ATOM     13  H   UNL A   1      30.759  24.964  24.488  1.00  0.00     0.347 HD
ATOM     14  H   UNL A   1      32.355  24.930  23.797  1.00  0.00     0.347 HD
BRANCH  12  15
ATOM     15  C   UNL A   1      32.291  24.572  25.737  1.00  0.00     0.176 C 
ATOM     16  C   UNL A   1      31.113  23.886  26.445  1.00  0.00     0.075 C 
ATOM     17  C   UNL A   1      33.350  23.518  25.415  1.00  0.00     0.075 C 
ENDBRANCH  12  15
ENDBRANCH   7  12
BRANCH  11  18
ATOM     18  S   UNL A   1      28.709  28.545  22.710  1.00  0.00    -0.112 SA
BRANCH  18  19
ATOM     19  C   UNL A   1      28.545  30.247  22.302  1.00  0.00     0.060 A 
ATOM     20  C   UNL A   1      28.127  30.768  21.095  1.00  0.00     0.027 A 
ATOM     21  S   UNL A   1      28.829  31.482  23.452  1.00  0.00    -0.137 S 
ATOM     22  C   UNL A   1      28.112  32.196  21.096  1.00  0.00     0.013 A 
ATOM     23  C   UNL A   1      28.481  32.712  22.317  1.00  0.00     0.066 A 
ENDBRANCH  18  19
ENDBRANCH  11  18
ENDBRANCH   5   7
ENDBRANCH   4   5
ENDBRANCH   3   4
ENDBRANCH   2   3
ENDBRANCH   1   2
BRANCH   1  24
ATOM     24  C   UNL A   1      31.397  32.047  26.718  1.00  0.00     0.202 C 
BRANCH  24  25
ATOM     25  C   UNL A   1      32.696  32.665  27.256  1.00  0.00     0.261 C 
BRANCH  25  26
ATOM     26  O   UNL A   1      32.546  34.042  27.656  1.00  0.00    -0.460 OA
BRANCH  26  27
ATOM     27  C   UNL A   1      33.156  34.359  28.822  1.00  0.00     0.338 C 
ATOM     28  O   UNL A   1      32.710  35.059  29.727  1.00  0.00    -0.246 OA
BRANCH  27  29
ATOM     29  C   UNL A   1      34.411  33.608  28.985  1.00  0.00     0.060 A 
ATOM     30  C   UNL A   1      34.334  32.352  29.599  1.00  0.00     0.016 A 
ATOM     31  C   UNL A   1      35.652  34.169  28.675  1.00  0.00     0.016 A 
ATOM     32  C   UNL A   1      35.500  31.674  29.950  1.00  0.00     0.010 A 
ATOM     33  C   UNL A   1      36.824  33.488  29.036  1.00  0.00     0.010 A 
ATOM     34  C   UNL A   1      36.753  32.255  29.709  1.00  0.00    -0.014 A 
BRANCH  34  35
ATOM     35  C   UNL A   1      37.958  31.609  30.293  1.00  0.00     0.031 A 
ATOM     36  C   UNL A   1      38.328  31.886  31.726  1.00  0.00     0.074 A 
ATOM     37  C   UNL A   1      38.663  30.710  29.584  1.00  0.00     0.049 A 
ATOM     38  N   UNL A   1      39.257  31.333  32.465  1.00  0.00    -0.248 NA
ATOM     39  C   UNL A   1      37.542  32.918  32.420  1.00  0.00     0.031 C 
ATOM     40  C   UNL A   1      38.401  30.337  28.195  1.00  0.00     0.029 A 
ATOM     41  N   UNL A   1      39.734  29.932  29.946  1.00  0.00    -0.354 N 
ATOM     42  C   UNL A   1      39.161  31.939  33.711  1.00  0.00     0.074 A 
ATOM     43  C   UNL A   1      38.109  32.931  33.618  1.00  0.00     0.031 C 
ATOM     44  C   UNL A   1      39.282  29.392  27.824  1.00  0.00     0.029 A 
ATOM     45  C   UNL A   1      40.174  29.101  28.946  1.00  0.00     0.049 A 
ATOM     46  H   UNL A   1      40.150  29.968  30.838  1.00  0.00     0.167 HD
ATOM     47  C   UNL A   1      39.869  31.685  34.837  1.00  0.00     0.037 A 
ATOM     48  C   UNL A   1      41.175  28.200  28.937  1.00  0.00     0.037 A 
ATOM     49  C   UNL A   1      40.920  30.705  34.937  1.00  0.00     0.049 A 
ATOM     50  C   UNL A   1      41.974  27.961  30.190  1.00  0.00     0.074 A 
ATOM     51  C   UNL A   1      41.686  30.369  36.040  1.00  0.00     0.029 A 
ATOM     52  N   UNL A   1      41.358  29.907  33.891  1.00  0.00    -0.354 N 
ATOM     53  N   UNL A   1      41.842  28.509  31.374  1.00  0.00    -0.248 NA
ATOM     54  C   UNL A   1      43.050  26.963  30.108  1.00  0.00     0.031 C 
ATOM     55  C   UNL A   1      42.612  29.394  35.652  1.00  0.00     0.029 A 
ATOM     56  C   UNL A   1      42.394  29.093  34.318  1.00  0.00     0.049 A 
ATOM     57  H   UNL A   1      40.986  29.918  32.979  1.00  0.00     0.167 HD
ATOM     58  C   UNL A   1      42.798  27.907  32.181  1.00  0.00     0.074 A 
ATOM     59  C   UNL A   1      43.492  26.939  31.358  1.00  0.00     0.031 C 
ATOM     60  C   UNL A   1      43.077  28.133  33.489  1.00  0.00     0.037 A 
BRANCH  47  61
ATOM     61  C   UNL A   1      39.537  32.493  36.056  1.00  0.00     0.057 A 
ATOM     62  C   UNL A   1      40.179  33.708  36.333  1.00  0.00     0.134 A 
ATOM     63  C   UNL A   1      38.544  32.069  36.947  1.00  0.00     0.134 A 
ATOM     64  F   UNL A   1      41.149  34.163  35.525  1.00  0.00    -0.206 F 
ATOM     65  C   UNL A   1      39.859  34.462  37.462  1.00  0.00     0.040 A 
ATOM     66  C   UNL A   1      38.199  32.826  38.069  1.00  0.00     0.040 A 
ATOM     67  F   UNL A   1      37.888  30.918  36.739  1.00  0.00    -0.206 F 
ATOM     68  C   UNL A   1      38.862  34.023  38.332  1.00  0.00     0.006 A 
ENDBRANCH  47  61
BRANCH  48  69
ATOM     69  C   UNL A   1      41.473  27.435  27.700  1.00  0.00     0.057 A 
ATOM     70  C   UNL A   1      42.309  27.957  26.707  1.00  0.00     0.134 A 
ATOM     71  C   UNL A   1      40.909  26.174  27.476  1.00  0.00     0.134 A 
ATOM     72  F   UNL A   1      42.858  29.171  26.855  1.00  0.00    -0.206 F 
ATOM     73  C   UNL A   1      42.561  27.259  25.525  1.00  0.00     0.040 A 
ATOM     74  C   UNL A   1      41.172  25.455  26.309  1.00  0.00     0.040 A 
ATOM     75  F   UNL A   1      40.101  25.621  28.391  1.00  0.00    -0.206 F 
ATOM     76  C   UNL A   1      41.994  26.001  25.326  1.00  0.00     0.006 A 
ENDBRANCH  48  69
BRANCH  60  77
ATOM     77  C   UNL A   1      44.159  27.300  34.112  1.00  0.00     0.057 A 
ATOM     78  C   UNL A   1      43.893  26.052  34.687  1.00  0.00     0.134 A 
ATOM     79  C   UNL A   1      45.486  27.748  34.126  1.00  0.00     0.134 A 
ATOM     80  F   UNL A   1      42.640  25.570  34.718  1.00  0.00    -0.206 F 
ATOM     81  C   UNL A   1      44.901  25.292  35.284  1.00  0.00     0.040 A 
ATOM     82  C   UNL A   1      46.508  26.987  34.695  1.00  0.00     0.040 A 
ATOM     83  F   UNL A   1      45.813  28.931  33.582  1.00  0.00    -0.206 F 
ATOM     84  C   UNL A   1      46.215  25.758  35.285  1.00  0.00     0.006 A 
ENDBRANCH  60  77
ENDBRANCH  34  35
ENDBRANCH  27  29
ENDBRANCH  26  27
ENDBRANCH  25  26
ENDBRANCH  24  25
ENDBRANCH   1  24
TORSDOF 18
ENDMDL
