MODEL 1
REMARK VINA RESULT:     -11.1      0.000      0.000
REMARK SMILES CN(CCCC(=O)OCCOCCOC(=O)c1ccc(-c2c3nc(c(-c4c(F)cccc4F)c4ccc([nH]4)c(-c4c(F)cccc4F)c4nc(c(-c5c(F)cccc5F)c5ccc2[nH]5)C=C4)C=C3)cc1)C(=O)c1c[nH]nc1-c1ccccc1
REMARK SMILES IDX 9 1 8 2 6 3 7 4 5 5 4 6 3 7 2 8 1 9 71 10 72 11 73 12 74 13
REMARK SMILES IDX 77 14 75 15 76 16 78 18 79 19 83 20 80 21 82 22 81 23 10 24
REMARK SMILES IDX 11 25 12 26 13 27 14 28 15 29 16 30 17 31 18 32 70 33 19 34
REMARK SMILES IDX 69 35 20 36 21 37 22 38 63 39 23 40 68 41 62 42 64 43 24 44
REMARK SMILES IDX 67 45 61 46 60 47 25 49 51 50 34 51 50 52 35 53 38 54 49 55
REMARK SMILES IDX 65 56 36 57 37 58 48 60 66 61 39 62 26 63 27 64 32 65 28 66
REMARK SMILES IDX 29 67 31 68 33 69 30 70 52 71 53 72 58 73 54 74 55 75 57 76
REMARK SMILES IDX 59 77 56 78 40 79 41 80 46 81 42 82 43 83 45 84 47 85 44 86
REMARK H PARENT 75 17 64 48 38 59
REMARK Flexibility Score: inf
ROOT
ATOM      1  C   UNL A   1      42.169  18.698  26.118  1.00  0.00     0.261 C 
ENDROOT
BRANCH   1   2
ATOM      2  O   UNL A   1      41.352  19.751  25.569  1.00  0.00    -0.463 OA
BRANCH   2   3
ATOM      3  C   UNL A   1      40.629  20.496  26.441  1.00  0.00     0.305 C 
ATOM      4  O   UNL A   1      40.774  20.498  27.659  1.00  0.00    -0.252 OA
BRANCH   3   5
ATOM      5  C   UNL A   1      39.640  21.408  25.746  1.00  0.00     0.124 C 
BRANCH   5   6
ATOM      6  C   UNL A   1      38.194  20.929  25.630  1.00  0.00     0.033 C 
BRANCH   6   7
ATOM      7  C   UNL A   1      37.341  21.531  24.503  1.00  0.00     0.120 C 
BRANCH   7   8
ATOM      8  N   UNL A   1      36.121  22.219  24.927  1.00  0.00    -0.342 N 
ATOM      9  C   UNL A   1      36.247  23.102  26.077  1.00  0.00     0.147 C 
BRANCH   8  10
ATOM     10  C   UNL A   1      34.974  22.385  24.134  1.00  0.00     0.257 C 
ATOM     11  O   UNL A   1      35.033  22.816  22.986  1.00  0.00    -0.269 OA
BRANCH  10  12
ATOM     12  C   UNL A   1      33.686  22.087  24.730  1.00  0.00     0.085 A 
ATOM     13  C   UNL A   1      32.775  23.033  25.161  1.00  0.00     0.119 A 
ATOM     14  C   UNL A   1      32.964  20.859  24.794  1.00  0.00     0.105 A 
ATOM     15  N   UNL A   1      31.691  22.347  25.612  1.00  0.00    -0.284 N 
ATOM     16  N   UNL A   1      31.782  21.027  25.416  1.00  0.00    -0.175 NA
ATOM     17  H   UNL A   1      30.916  22.779  26.040  1.00  0.00     0.189 HD
BRANCH  14  18
ATOM     18  C   UNL A   1      33.305  19.558  24.232  1.00  0.00     0.003 A 
ATOM     19  C   UNL A   1      34.449  18.905  24.714  1.00  0.00     0.010 A 
ATOM     20  C   UNL A   1      32.521  18.935  23.255  1.00  0.00     0.010 A 
ATOM     21  C   UNL A   1      34.795  17.637  24.249  1.00  0.00     0.001 A 
ATOM     22  C   UNL A   1      32.876  17.667  22.783  1.00  0.00     0.001 A 
ATOM     23  C   UNL A   1      34.005  17.018  23.285  1.00  0.00     0.000 A 
ENDBRANCH  14  18
ENDBRANCH  10  12
ENDBRANCH   8  10
ENDBRANCH   7   8
ENDBRANCH   6   7
ENDBRANCH   5   6
ENDBRANCH   3   5
ENDBRANCH   2   3
ENDBRANCH   1   2
BRANCH   1  24
ATOM     24  C   UNL A   1      43.595  18.798  25.578  1.00  0.00     0.202 C 
BRANCH  24  25
ATOM     25  O   UNL A   1      43.808  19.640  24.445  1.00  0.00    -0.374 OA
BRANCH  25  26
ATOM     26  C   UNL A   1      44.587  20.819  24.611  1.00  0.00     0.202 C 
BRANCH  26  27
ATOM     27  C   UNL A   1      44.026  21.936  25.501  1.00  0.00     0.261 C 
BRANCH  27  28
ATOM     28  O   UNL A   1      43.430  23.035  24.796  1.00  0.00    -0.460 OA
BRANCH  28  29
ATOM     29  C   UNL A   1      44.026  24.227  25.044  1.00  0.00     0.338 C 
ATOM     30  O   UNL A   1      45.094  24.629  24.600  1.00  0.00    -0.246 OA
BRANCH  29  31
ATOM     31  C   UNL A   1      43.170  25.086  25.880  1.00  0.00     0.060 A 
ATOM     32  C   UNL A   1      43.450  26.458  25.893  1.00  0.00     0.016 A 
ATOM     33  C   UNL A   1      42.227  24.542  26.755  1.00  0.00     0.016 A 
ATOM     34  C   UNL A   1      42.831  27.284  26.827  1.00  0.00     0.010 A 
ATOM     35  C   UNL A   1      41.611  25.375  27.697  1.00  0.00     0.010 A 
ATOM     36  C   UNL A   1      41.945  26.740  27.766  1.00  0.00    -0.014 A 
BRANCH  36  37
ATOM     37  C   UNL A   1      41.505  27.571  28.913  1.00  0.00     0.031 A 
ATOM     38  C   UNL A   1      42.253  27.474  30.217  1.00  0.00     0.074 A 
ATOM     39  C   UNL A   1      40.485  28.437  28.784  1.00  0.00     0.049 A 
ATOM     40  N   UNL A   1      42.032  28.094  31.349  1.00  0.00    -0.248 NA
ATOM     41  C   UNL A   1      43.405  26.558  30.247  1.00  0.00     0.031 C 
ATOM     42  C   UNL A   1      39.712  28.657  27.562  1.00  0.00     0.029 A 
ATOM     43  N   UNL A   1      39.923  29.293  29.698  1.00  0.00    -0.354 N 
ATOM     44  C   UNL A   1      43.012  27.641  32.224  1.00  0.00     0.074 A 
ATOM     45  C   UNL A   1      43.812  26.675  31.504  1.00  0.00     0.031 C 
ATOM     46  C   UNL A   1      38.767  29.581  27.806  1.00  0.00     0.029 A 
ATOM     47  C   UNL A   1      38.851  29.996  29.206  1.00  0.00     0.049 A 
ATOM     48  H   UNL A   1      40.257  29.394  30.619  1.00  0.00     0.167 HD
ATOM     49  C   UNL A   1      43.231  28.005  33.511  1.00  0.00     0.037 A 
ATOM     50  C   UNL A   1      38.022  30.860  29.821  1.00  0.00     0.037 A 
ATOM     51  C   UNL A   1      42.443  28.974  34.226  1.00  0.00     0.049 A 
ATOM     52  C   UNL A   1      38.247  31.198  31.271  1.00  0.00     0.074 A 
ATOM     53  C   UNL A   1      42.601  29.424  35.524  1.00  0.00     0.029 A 
ATOM     54  N   UNL A   1      41.345  29.638  33.702  1.00  0.00    -0.354 N 
ATOM     55  N   UNL A   1      39.188  30.780  32.082  1.00  0.00    -0.248 NA
ATOM     56  C   UNL A   1      37.292  32.130  31.891  1.00  0.00     0.031 C 
ATOM     57  C   UNL A   1      41.572  30.331  35.802  1.00  0.00     0.029 A 
ATOM     58  C   UNL A   1      40.800  30.476  34.659  1.00  0.00     0.049 A 
ATOM     59  H   UNL A   1      41.004  29.530  32.785  1.00  0.00     0.167 HD
ATOM     60  C   UNL A   1      38.957  31.416  33.295  1.00  0.00     0.074 A 
ATOM     61  C   UNL A   1      37.794  32.258  33.111  1.00  0.00     0.031 C 
ATOM     62  C   UNL A   1      39.646  31.314  34.458  1.00  0.00     0.037 A 
BRANCH  49  63
ATOM     63  C   UNL A   1      44.360  27.338  34.238  1.00  0.00     0.057 A 
ATOM     64  C   UNL A   1      45.646  27.892  34.275  1.00  0.00     0.134 A 
ATOM     65  C   UNL A   1      44.145  26.154  34.955  1.00  0.00     0.134 A 
ATOM     66  F   UNL A   1      45.920  29.018  33.599  1.00  0.00    -0.206 F 
ATOM     67  C   UNL A   1      46.682  27.282  34.984  1.00  0.00     0.040 A 
ATOM     68  C   UNL A   1      45.167  25.548  35.686  1.00  0.00     0.040 A 
ATOM     69  F   UNL A   1      42.935  25.574  34.964  1.00  0.00    -0.206 F 
ATOM     70  C   UNL A   1      46.441  26.110  35.700  1.00  0.00     0.006 A 
ENDBRANCH  49  63
BRANCH  50  71
ATOM     71  C   UNL A   1      36.882  31.454  29.077  1.00  0.00     0.057 A 
ATOM     72  C   UNL A   1      36.912  32.781  28.637  1.00  0.00     0.134 A 
ATOM     73  C   UNL A   1      35.722  30.712  28.817  1.00  0.00     0.134 A 
ATOM     74  F   UNL A   1      37.984  33.548  28.879  1.00  0.00    -0.206 F 
ATOM     75  C   UNL A   1      35.822  33.359  27.982  1.00  0.00     0.040 A 
ATOM     76  C   UNL A   1      34.636  31.268  28.140  1.00  0.00     0.040 A 
ATOM     77  F   UNL A   1      35.633  29.434  29.213  1.00  0.00    -0.206 F 
ATOM     78  C   UNL A   1      34.681  32.599  27.728  1.00  0.00     0.006 A 
ENDBRANCH  50  71
BRANCH  62  79
ATOM     79  C   UNL A   1      39.182  32.154  35.610  1.00  0.00     0.057 A 
ATOM     80  C   UNL A   1      39.617  33.473  35.785  1.00  0.00     0.134 A 
ATOM     81  C   UNL A   1      38.256  31.649  36.533  1.00  0.00     0.134 A 
ATOM     82  F   UNL A   1      40.513  34.011  34.943  1.00  0.00    -0.206 F 
ATOM     83  C   UNL A   1      39.165  34.254  36.849  1.00  0.00     0.040 A 
ATOM     84  C   UNL A   1      37.778  32.429  37.587  1.00  0.00     0.040 A 
ATOM     85  F   UNL A   1      37.792  30.396  36.417  1.00  0.00    -0.206 F 
ATOM     86  C   UNL A   1      38.236  33.734  37.750  1.00  0.00     0.006 A 
ENDBRANCH  62  79
ENDBRANCH  36  37
ENDBRANCH  29  31
ENDBRANCH  28  29
ENDBRANCH  27  28
ENDBRANCH  26  27
ENDBRANCH  25  26
ENDBRANCH  24  25
ENDBRANCH   1  24
TORSDOF 20
ENDMDL
MODEL 2
REMARK VINA RESULT:     -10.8      1.763      3.556
REMARK SMILES CN(CCCC(=O)OCCOCCOC(=O)c1ccc(-c2c3nc(c(-c4c(F)cccc4F)c4ccc([nH]4)c(-c4c(F)cccc4F)c4nc(c(-c5c(F)cccc5F)c5ccc2[nH]5)C=C4)C=C3)cc1)C(=O)c1c[nH]nc1-c1ccccc1
REMARK SMILES IDX 9 1 8 2 6 3 7 4 5 5 4 6 3 7 2 8 1 9 71 10 72 11 73 12 74 13
REMARK SMILES IDX 77 14 75 15 76 16 78 18 79 19 83 20 80 21 82 22 81 23 10 24
REMARK SMILES IDX 11 25 12 26 13 27 14 28 15 29 16 30 17 31 18 32 70 33 19 34
REMARK SMILES IDX 69 35 20 36 21 37 22 38 63 39 23 40 68 41 62 42 64 43 24 44
REMARK SMILES IDX 67 45 61 46 60 47 25 49 51 50 34 51 50 52 35 53 38 54 49 55
REMARK SMILES IDX 65 56 36 57 37 58 48 60 66 61 39 62 26 63 27 64 32 65 28 66
REMARK SMILES IDX 29 67 31 68 33 69 30 70 52 71 53 72 58 73 54 74 55 75 57 76
REMARK SMILES IDX 59 77 56 78 40 79 41 80 46 81 42 82 43 83 45 84 47 85 44 86
REMARK H PARENT 75 17 64 48 38 59
REMARK Flexibility Score: inf
ROOT
ATOM      1  C   UNL A   1      39.814  22.094  26.696  1.00  0.00     0.261 C 
ENDROOT
BRANCH   1   2
ATOM      2  O   UNL A   1      38.722  21.917  25.773  1.00  0.00    -0.463 OA
BRANCH   2   3
ATOM      3  C   UNL A   1      37.696  22.800  25.846  1.00  0.00     0.305 C 
ATOM      4  O   UNL A   1      37.811  24.001  26.067  1.00  0.00    -0.252 OA
BRANCH   3   5
ATOM      5  C   UNL A   1      36.355  22.161  25.553  1.00  0.00     0.124 C 
BRANCH   5   6
ATOM      6  C   UNL A   1      35.705  22.462  24.204  1.00  0.00     0.033 C 
BRANCH   6   7
ATOM      7  C   UNL A   1      34.170  22.502  24.155  1.00  0.00     0.120 C 
BRANCH   7   8
ATOM      8  N   UNL A   1      33.565  23.831  24.260  1.00  0.00    -0.342 N 
ATOM      9  C   UNL A   1      32.917  24.340  23.061  1.00  0.00     0.147 C 
BRANCH   8  10
ATOM     10  C   UNL A   1      33.242  24.475  25.466  1.00  0.00     0.257 C 
ATOM     11  O   UNL A   1      34.104  24.963  26.193  1.00  0.00    -0.269 OA
BRANCH  10  12
ATOM     12  C   UNL A   1      31.851  24.500  25.873  1.00  0.00     0.085 A 
ATOM     13  C   UNL A   1      31.146  23.413  26.353  1.00  0.00     0.119 A 
ATOM     14  C   UNL A   1      30.983  25.606  26.111  1.00  0.00     0.105 A 
ATOM     15  N   UNL A   1      29.900  23.864  26.657  1.00  0.00    -0.284 N 
ATOM     16  N   UNL A   1      29.767  25.187  26.507  1.00  0.00    -0.175 NA
ATOM     17  H   UNL A   1      29.169  23.276  26.957  1.00  0.00     0.189 HD
BRANCH  14  18
ATOM     18  C   UNL A   1      31.270  27.034  26.054  1.00  0.00     0.003 A 
ATOM     19  C   UNL A   1      31.734  27.665  27.219  1.00  0.00     0.010 A 
ATOM     20  C   UNL A   1      31.124  27.783  24.882  1.00  0.00     0.010 A 
ATOM     21  C   UNL A   1      32.072  29.017  27.210  1.00  0.00     0.001 A 
ATOM     22  C   UNL A   1      31.455  29.141  24.879  1.00  0.00     0.001 A 
ATOM     23  C   UNL A   1      31.935  29.754  26.038  1.00  0.00     0.000 A 
ENDBRANCH  14  18
ENDBRANCH  10  12
ENDBRANCH   8  10
ENDBRANCH   7   8
ENDBRANCH   6   7
ENDBRANCH   5   6
ENDBRANCH   3   5
ENDBRANCH   2   3
ENDBRANCH   1   2
BRANCH   1  24
ATOM     24  C   UNL A   1      41.058  21.364  26.191  1.00  0.00     0.202 C 
BRANCH  24  25
ATOM     25  O   UNL A   1      41.960  22.103  25.365  1.00  0.00    -0.374 OA
BRANCH  25  26
ATOM     26  C   UNL A   1      43.342  21.768  25.399  1.00  0.00     0.202 C 
BRANCH  26  27
ATOM     27  C   UNL A   1      44.292  22.528  24.462  1.00  0.00     0.261 C 
BRANCH  27  28
ATOM     28  O   UNL A   1      44.345  23.947  24.669  1.00  0.00    -0.460 OA
BRANCH  28  29
ATOM     29  C   UNL A   1      44.868  24.301  25.868  1.00  0.00     0.338 C 
ATOM     30  O   UNL A   1      45.982  24.033  26.301  1.00  0.00    -0.246 OA
BRANCH  29  31
ATOM     31  C   UNL A   1      43.945  25.173  26.614  1.00  0.00     0.060 A 
ATOM     32  C   UNL A   1      44.255  26.537  26.676  1.00  0.00     0.016 A 
ATOM     33  C   UNL A   1      42.898  24.645  27.372  1.00  0.00     0.016 A 
ATOM     34  C   UNL A   1      43.556  27.370  27.546  1.00  0.00     0.010 A 
ATOM     35  C   UNL A   1      42.200  25.484  28.250  1.00  0.00     0.010 A 
ATOM     36  C   UNL A   1      42.558  26.839  28.373  1.00  0.00    -0.014 A 
BRANCH  36  37
ATOM     37  C   UNL A   1      42.013  27.669  29.475  1.00  0.00     0.031 A 
ATOM     38  C   UNL A   1      42.688  27.635  30.821  1.00  0.00     0.074 A 
ATOM     39  C   UNL A   1      40.960  28.481  29.269  1.00  0.00     0.049 A 
ATOM     40  N   UNL A   1      42.373  28.265  31.924  1.00  0.00    -0.248 NA
ATOM     41  C   UNL A   1      43.879  26.778  30.936  1.00  0.00     0.031 C 
ATOM     42  C   UNL A   1      40.250  28.637  28.001  1.00  0.00     0.029 A 
ATOM     43  N   UNL A   1      40.306  29.325  30.130  1.00  0.00    -0.354 N 
ATOM     44  C   UNL A   1      43.321  27.879  32.863  1.00  0.00     0.074 A 
ATOM     45  C   UNL A   1      44.207  26.940  32.211  1.00  0.00     0.031 C 
ATOM     46  C   UNL A   1      39.248  29.518  28.170  1.00  0.00     0.029 A 
ATOM     47  C   UNL A   1      39.231  29.964  29.563  1.00  0.00     0.049 A 
ATOM     48  H   UNL A   1      40.581  29.460  31.066  1.00  0.00     0.167 HD
ATOM     49  C   UNL A   1      43.448  28.278  34.151  1.00  0.00     0.037 A 
ATOM     50  C   UNL A   1      38.327  30.797  30.111  1.00  0.00     0.037 A 
ATOM     51  C   UNL A   1      42.574  29.220  34.799  1.00  0.00     0.049 A 
ATOM     52  C   UNL A   1      38.451  31.174  31.563  1.00  0.00     0.074 A 
ATOM     53  C   UNL A   1      42.635  29.703  36.094  1.00  0.00     0.029 A 
ATOM     54  N   UNL A   1      41.477  29.818  34.199  1.00  0.00    -0.354 N 
ATOM     55  N   UNL A   1      39.364  30.820  32.435  1.00  0.00    -0.248 NA
ATOM     56  C   UNL A   1      37.418  32.069  32.108  1.00  0.00     0.031 C 
ATOM     57  C   UNL A   1      41.548  30.562  36.293  1.00  0.00     0.029 A 
ATOM     58  C   UNL A   1      40.837  30.647  35.106  1.00  0.00     0.049 A 
ATOM     59  H   UNL A   1      41.194  29.676  33.267  1.00  0.00     0.167 HD
ATOM     60  C   UNL A   1      39.032  31.467  33.619  1.00  0.00     0.074 A 
ATOM     61  C   UNL A   1      37.842  32.246  33.351  1.00  0.00     0.031 C 
ATOM     62  C   UNL A   1      39.657  31.422  34.820  1.00  0.00     0.037 A 
BRANCH  49  63
ATOM     63  C   UNL A   1      44.565  27.683  34.957  1.00  0.00     0.057 A 
ATOM     64  C   UNL A   1      45.818  28.301  35.054  1.00  0.00     0.134 A 
ATOM     65  C   UNL A   1      44.367  26.503  35.685  1.00  0.00     0.134 A 
ATOM     66  F   UNL A   1      46.074  29.426  34.370  1.00  0.00    -0.206 F 
ATOM     67  C   UNL A   1      46.839  27.758  35.834  1.00  0.00     0.040 A 
ATOM     68  C   UNL A   1      45.373  25.963  36.487  1.00  0.00     0.040 A 
ATOM     69  F   UNL A   1      43.188  25.864  35.638  1.00  0.00    -0.206 F 
ATOM     70  C   UNL A   1      46.615  26.589  36.560  1.00  0.00     0.006 A 
ENDBRANCH  49  63
BRANCH  50  71
ATOM     71  C   UNL A   1      37.203  31.318  29.291  1.00  0.00     0.057 A 
ATOM     72  C   UNL A   1      37.219  32.620  28.779  1.00  0.00     0.134 A 
ATOM     73  C   UNL A   1      36.074  30.534  29.027  1.00  0.00     0.134 A 
ATOM     74  F   UNL A   1      38.262  33.427  29.019  1.00  0.00    -0.206 F 
ATOM     75  C   UNL A   1      36.143  33.131  28.049  1.00  0.00     0.040 A 
ATOM     76  C   UNL A   1      35.003  31.022  28.278  1.00  0.00     0.040 A 
ATOM     77  F   UNL A   1      36.000  29.277  29.490  1.00  0.00    -0.206 F 
ATOM     78  C   UNL A   1      35.033  32.329  27.794  1.00  0.00     0.006 A 
ENDBRANCH  50  71
BRANCH  62  79
ATOM     79  C   UNL A   1      39.087  32.260  35.926  1.00  0.00     0.057 A 
ATOM     80  C   UNL A   1      38.209  31.726  36.878  1.00  0.00     0.134 A 
ATOM     81  C   UNL A   1      39.453  33.605  36.064  1.00  0.00     0.134 A 
ATOM     82  F   UNL A   1      37.810  30.448  36.794  1.00  0.00    -0.206 F 
ATOM     83  C   UNL A   1      37.699  32.507  37.916  1.00  0.00     0.040 A 
ATOM     84  C   UNL A   1      38.969  34.389  37.112  1.00  0.00     0.040 A 
ATOM     85  F   UNL A   1      40.297  34.174  35.191  1.00  0.00    -0.206 F 
ATOM     86  C   UNL A   1      38.085  33.842  38.039  1.00  0.00     0.006 A 
ENDBRANCH  62  79
ENDBRANCH  36  37
ENDBRANCH  29  31
ENDBRANCH  28  29
ENDBRANCH  27  28
ENDBRANCH  26  27
ENDBRANCH  25  26
ENDBRANCH  24  25
ENDBRANCH   1  24
TORSDOF 20
ENDMDL
MODEL 3
REMARK VINA RESULT:     -10.7      1.651      6.835
REMARK SMILES CN(CCCC(=O)OCCOCCOC(=O)c1ccc(-c2c3nc(c(-c4c(F)cccc4F)c4ccc([nH]4)c(-c4c(F)cccc4F)c4nc(c(-c5c(F)cccc5F)c5ccc2[nH]5)C=C4)C=C3)cc1)C(=O)c1c[nH]nc1-c1ccccc1
REMARK SMILES IDX 9 1 8 2 6 3 7 4 5 5 4 6 3 7 2 8 1 9 71 10 72 11 73 12 74 13
REMARK SMILES IDX 77 14 75 15 76 16 78 18 79 19 83 20 80 21 82 22 81 23 10 24
REMARK SMILES IDX 11 25 12 26 13 27 14 28 15 29 16 30 17 31 18 32 70 33 19 34
REMARK SMILES IDX 69 35 20 36 21 37 22 38 63 39 23 40 68 41 62 42 64 43 24 44
REMARK SMILES IDX 67 45 61 46 60 47 25 49 51 50 34 51 50 52 35 53 38 54 49 55
REMARK SMILES IDX 65 56 36 57 37 58 48 60 66 61 39 62 26 63 27 64 32 65 28 66
REMARK SMILES IDX 29 67 31 68 33 69 30 70 52 71 53 72 58 73 54 74 55 75 57 76
REMARK SMILES IDX 59 77 56 78 40 79 41 80 46 81 42 82 43 83 45 84 47 85 44 86
REMARK H PARENT 75 17 64 48 38 59
REMARK Flexibility Score: inf
ROOT
ATOM      1  C   UNL A   1      40.056  21.451  26.675  1.00  0.00     0.261 C 
ENDROOT
BRANCH   1   2
ATOM      2  O   UNL A   1      39.686  22.641  25.951  1.00  0.00    -0.463 OA
BRANCH   2   3
ATOM      3  C   UNL A   1      38.480  23.192  26.235  1.00  0.00     0.305 C 
ATOM      4  O   UNL A   1      38.307  24.218  26.883  1.00  0.00    -0.252 OA
BRANCH   3   5
ATOM      5  C   UNL A   1      37.331  22.437  25.599  1.00  0.00     0.124 C 
BRANCH   5   6
ATOM      6  C   UNL A   1      36.587  23.115  24.451  1.00  0.00     0.033 C 
BRANCH   6   7
ATOM      7  C   UNL A   1      35.365  23.974  24.813  1.00  0.00     0.120 C 
BRANCH   7   8
ATOM      8  N   UNL A   1      34.132  23.239  25.096  1.00  0.00    -0.342 N 
ATOM      9  C   UNL A   1      33.820  22.135  24.201  1.00  0.00     0.147 C 
BRANCH   8  10
ATOM     10  C   UNL A   1      33.443  23.265  26.320  1.00  0.00     0.257 C 
ATOM     11  O   UNL A   1      33.915  22.776  27.343  1.00  0.00    -0.269 OA
BRANCH  10  12
ATOM     12  C   UNL A   1      32.112  23.840  26.339  1.00  0.00     0.085 A 
ATOM     13  C   UNL A   1      30.996  23.234  26.884  1.00  0.00     0.119 A 
ATOM     14  C   UNL A   1      31.680  25.169  26.059  1.00  0.00     0.105 A 
ATOM     15  N   UNL A   1      29.969  24.113  26.736  1.00  0.00    -0.284 N 
ATOM     16  N   UNL A   1      30.350  25.289  26.227  1.00  0.00    -0.175 NA
ATOM     17  H   UNL A   1      29.038  23.903  26.980  1.00  0.00     0.189 HD
BRANCH  14  18
ATOM     18  C   UNL A   1      32.472  26.344  25.716  1.00  0.00     0.003 A 
ATOM     19  C   UNL A   1      32.748  26.587  24.361  1.00  0.00     0.010 A 
ATOM     20  C   UNL A   1      32.940  27.241  26.681  1.00  0.00     0.010 A 
ATOM     21  C   UNL A   1      33.458  27.721  23.971  1.00  0.00     0.001 A 
ATOM     22  C   UNL A   1      33.660  28.374  26.287  1.00  0.00     0.001 A 
ATOM     23  C   UNL A   1      33.910  28.616  24.935  1.00  0.00     0.000 A 
ENDBRANCH  14  18
ENDBRANCH  10  12
ENDBRANCH   8  10
ENDBRANCH   7   8
ENDBRANCH   6   7
ENDBRANCH   5   6
ENDBRANCH   3   5
ENDBRANCH   2   3
ENDBRANCH   1   2
BRANCH   1  24
ATOM     24  C   UNL A   1      41.048  21.795  27.787  1.00  0.00     0.202 C 
BRANCH  24  25
ATOM     25  O   UNL A   1      42.437  21.764  27.456  1.00  0.00    -0.374 OA
BRANCH  25  26
ATOM     26  C   UNL A   1      42.820  21.281  26.174  1.00  0.00     0.202 C 
BRANCH  26  27
ATOM     27  C   UNL A   1      43.656  22.203  25.275  1.00  0.00     0.261 C 
BRANCH  27  28
ATOM     28  O   UNL A   1      43.016  23.434  24.903  1.00  0.00    -0.460 OA
BRANCH  28  29
ATOM     29  C   UNL A   1      43.763  24.534  25.164  1.00  0.00     0.338 C 
ATOM     30  O   UNL A   1      44.868  24.807  24.710  1.00  0.00    -0.246 OA
BRANCH  29  31
ATOM     31  C   UNL A   1      43.036  25.477  26.031  1.00  0.00     0.060 A 
ATOM     32  C   UNL A   1      43.668  26.688  26.340  1.00  0.00     0.016 A 
ATOM     33  C   UNL A   1      41.842  25.115  26.659  1.00  0.00     0.016 A 
ATOM     34  C   UNL A   1      43.139  27.516  27.327  1.00  0.00     0.010 A 
ATOM     35  C   UNL A   1      41.316  25.948  27.655  1.00  0.00     0.010 A 
ATOM     36  C   UNL A   1      41.988  27.128  28.024  1.00  0.00    -0.014 A 
BRANCH  36  37
ATOM     37  C   UNL A   1      41.592  27.876  29.241  1.00  0.00     0.031 A 
ATOM     38  C   UNL A   1      40.393  28.786  29.184  1.00  0.00     0.074 A 
ATOM     39  C   UNL A   1      42.260  27.713  30.397  1.00  0.00     0.049 A 
ATOM     40  N   UNL A   1      39.881  29.545  30.120  1.00  0.00    -0.248 NA
ATOM     41  C   UNL A   1      39.675  28.846  27.901  1.00  0.00     0.031 C 
ATOM     42  C   UNL A   1      43.407  26.827  30.592  1.00  0.00     0.029 A 
ATOM     43  N   UNL A   1      42.067  28.292  31.626  1.00  0.00    -0.354 N 
ATOM     44  C   UNL A   1      38.786  30.173  29.539  1.00  0.00     0.074 A 
ATOM     45  C   UNL A   1      38.723  29.730  28.164  1.00  0.00     0.031 C 
ATOM     46  C   UNL A   1      43.823  26.931  31.866  1.00  0.00     0.029 A 
ATOM     47  C   UNL A   1      42.991  27.908  32.566  1.00  0.00     0.049 A 
ATOM     48  H   UNL A   1      41.334  28.923  31.816  1.00  0.00     0.167 HD
ATOM     49  C   UNL A   1      37.907  31.035  30.104  1.00  0.00     0.037 A 
ATOM     50  C   UNL A   1      43.157  28.316  33.839  1.00  0.00     0.037 A 
ATOM     51  C   UNL A   1      37.962  31.469  31.476  1.00  0.00     0.049 A 
ATOM     52  C   UNL A   1      42.206  29.325  34.423  1.00  0.00     0.074 A 
ATOM     53  C   UNL A   1      37.104  32.323  32.145  1.00  0.00     0.029 A 
ATOM     54  N   UNL A   1      38.935  31.083  32.385  1.00  0.00    -0.354 N 
ATOM     55  N   UNL A   1      41.162  29.896  33.872  1.00  0.00    -0.248 NA
ATOM     56  C   UNL A   1      42.455  29.747  35.811  1.00  0.00     0.031 C 
ATOM     57  C   UNL A   1      37.581  32.488  33.450  1.00  0.00     0.029 A 
ATOM     58  C   UNL A   1      38.712  31.702  33.604  1.00  0.00     0.049 A 
ATOM     59  H   UNL A   1      39.673  30.461  32.194  1.00  0.00     0.167 HD
ATOM     60  C   UNL A   1      40.617  30.720  34.848  1.00  0.00     0.074 A 
ATOM     61  C   UNL A   1      41.437  30.566  36.032  1.00  0.00     0.031 C 
ATOM     62  C   UNL A   1      39.534  31.531  34.774  1.00  0.00     0.037 A 
BRANCH  49  63
ATOM     63  C   UNL A   1      36.816  31.584  29.234  1.00  0.00     0.057 A 
ATOM     64  C   UNL A   1      35.682  30.831  28.905  1.00  0.00     0.134 A 
ATOM     65  C   UNL A   1      36.876  32.902  28.763  1.00  0.00     0.134 A 
ATOM     66  F   UNL A   1      35.570  29.559  29.315  1.00  0.00    -0.206 F 
ATOM     67  C   UNL A   1      34.655  31.363  28.124  1.00  0.00     0.040 A 
ATOM     68  C   UNL A   1      35.845  33.453  28.001  1.00  0.00     0.040 A 
ATOM     69  F   UNL A   1      37.933  33.678  29.046  1.00  0.00    -0.206 F 
ATOM     70  C   UNL A   1      34.731  32.681  27.676  1.00  0.00     0.006 A 
ENDBRANCH  49  63
BRANCH  50  71
ATOM     71  C   UNL A   1      44.286  27.788  34.646  1.00  0.00     0.057 A 
ATOM     72  C   UNL A   1      45.564  28.352  34.565  1.00  0.00     0.134 A 
ATOM     73  C   UNL A   1      44.117  26.687  35.496  1.00  0.00     0.134 A 
ATOM     74  F   UNL A   1      45.793  29.391  33.750  1.00  0.00    -0.206 F 
ATOM     75  C   UNL A   1      46.640  27.827  35.285  1.00  0.00     0.040 A 
ATOM     76  C   UNL A   1      45.178  26.169  36.240  1.00  0.00     0.040 A 
ATOM     77  F   UNL A   1      42.916  26.104  35.617  1.00  0.00    -0.206 F 
ATOM     78  C   UNL A   1      46.446  26.735  36.129  1.00  0.00     0.006 A 
ENDBRANCH  50  71
BRANCH  62  79
ATOM     79  C   UNL A   1      39.153  32.289  36.011  1.00  0.00     0.057 A 
ATOM     80  C   UNL A   1      39.641  33.576  36.267  1.00  0.00     0.134 A 
ATOM     81  C   UNL A   1      38.256  31.741  36.937  1.00  0.00     0.134 A 
ATOM     82  F   UNL A   1      40.514  34.152  35.426  1.00  0.00    -0.206 F 
ATOM     83  C   UNL A   1      39.267  34.283  37.410  1.00  0.00     0.040 A 
ATOM     84  C   UNL A   1      37.855  32.448  38.071  1.00  0.00     0.040 A 
ATOM     85  F   UNL A   1      37.745  30.515  36.746  1.00  0.00    -0.206 F 
ATOM     86  C   UNL A   1      38.364  33.721  38.313  1.00  0.00     0.006 A 
ENDBRANCH  62  79
ENDBRANCH  36  37
ENDBRANCH  29  31
ENDBRANCH  28  29
ENDBRANCH  27  28
ENDBRANCH  26  27
ENDBRANCH  25  26
ENDBRANCH  24  25
ENDBRANCH   1  24
TORSDOF 20
ENDMDL
