MODEL 1
REMARK VINA RESULT:      -9.2      0.000      0.000
REMARK SMILES CCCc1cc2c(cc1Cl)C=C(C(=O)OCCOCCOC(=O)c1ccc(-c3c4nc(c(-c5c(F)cccc5F)c5ccc([nH]5)c(-c5c(F)cccc5F)c5nc(c(-c6c(F)cccc6F)c6ccc3[nH]6)C=C5)C=C4)cc1)[C@@H](C(F)(F)F)O2
REMARK SMILES IDX 18 1 17 2 16 3 15 4 13 5 14 6 12 7 4 8 5 9 9 10 6 11 8 12
REMARK SMILES IDX 10 13 7 14 83 15 11 16 78 17 3 18 2 19 1 20 79 21 80 22
REMARK SMILES IDX 81 23 82 24 19 25 20 26 21 27 22 28 23 29 24 30 25 31 77 32
REMARK SMILES IDX 26 33 76 34 27 35 28 36 29 37 70 38 30 39 75 40 69 41 71 42
REMARK SMILES IDX 31 43 74 44 68 45 67 46 32 48 58 49 41 50 57 51 42 52 45 53
REMARK SMILES IDX 56 54 72 55 43 56 44 57 55 59 73 60 46 61 33 62 34 63 39 64
REMARK SMILES IDX 35 65 36 66 38 67 40 68 37 69 59 70 60 71 65 72 61 73 62 74
REMARK SMILES IDX 64 75 66 76 63 77 47 78 48 79 53 80 49 81 50 82 52 83 54 84
REMARK SMILES IDX 51 85
REMARK H PARENT 71 47 45 58
REMARK Flexibility Score: inf
ROOT
ATOM      1  O   UNL A   1      33.225  37.280  32.887  1.00  0.00    -0.374 OA
ENDROOT
BRANCH   1   2
ATOM      2  C   UNL A   1      34.168  36.663  33.757  1.00  0.00     0.202 C 
BRANCH   2   3
ATOM      3  C   UNL A   1      34.856  35.381  33.277  1.00  0.00     0.261 C 
BRANCH   3   4
ATOM      4  O   UNL A   1      36.140  35.189  33.889  1.00  0.00    -0.460 OA
BRANCH   4   5
ATOM      5  C   UNL A   1      36.197  34.137  34.741  1.00  0.00     0.338 C 
ATOM      6  O   UNL A   1      35.384  33.846  35.604  1.00  0.00    -0.246 OA
BRANCH   5   7
ATOM      7  C   UNL A   1      37.338  33.273  34.390  1.00  0.00     0.087 C 
ATOM      8  C   UNL A   1      40.038  29.189  33.288  1.00  0.00    -0.026 A 
ATOM      9  C   UNL A   1      40.326  30.432  33.886  1.00  0.00     0.052 A 
ATOM     10  C   UNL A   1      38.778  29.013  32.695  1.00  0.00     0.045 A 
ATOM     11  C   UNL A   1      39.357  31.436  33.964  1.00  0.00     0.128 A 
ATOM     12  C   UNL A   1      37.797  30.000  32.812  1.00  0.00     0.032 A 
ATOM     13  Cl  UNL A   1      38.357  27.593  31.806  1.00  0.00    -0.084 Cl
ATOM     14  C   UNL A   1      38.075  31.194  33.480  1.00  0.00     0.019 A 
ATOM     15  O   UNL A   1      39.735  32.606  34.559  1.00  0.00    -0.475 OA
ATOM     16  C   UNL A   1      37.015  32.142  33.753  1.00  0.00     0.027 C 
ATOM     17  C   UNL A   1      38.745  33.659  34.752  1.00  0.00     0.316 C 
BRANCH   8  18
ATOM     18  C   UNL A   1      41.070  28.085  33.369  1.00  0.00     0.037 C 
BRANCH  18  19
ATOM     19  C   UNL A   1      42.328  28.471  34.164  1.00  0.00     0.001 C 
ATOM     20  C   UNL A   1      42.545  27.674  35.443  1.00  0.00     0.004 C 
ENDBRANCH  18  19
ENDBRANCH   8  18
BRANCH  17  21
ATOM     21  C   UNL A   1      38.884  34.155  36.200  1.00  0.00     0.430 C 
ATOM     22  F   UNL A   1      37.911  33.634  36.988  1.00  0.00    -0.167 F 
ATOM     23  F   UNL A   1      40.062  33.789  36.754  1.00  0.00    -0.167 F 
ATOM     24  F   UNL A   1      38.796  35.501  36.282  1.00  0.00    -0.167 F 
ENDBRANCH  17  21
ENDBRANCH   5   7
ENDBRANCH   4   5
ENDBRANCH   3   4
ENDBRANCH   2   3
ENDBRANCH   1   2
BRANCH   1  25
ATOM     25  C   UNL A   1      32.330  36.450  32.149  1.00  0.00     0.202 C 
BRANCH  25  26
ATOM     26  C   UNL A   1      32.652  36.149  30.679  1.00  0.00     0.261 C 
BRANCH  26  27
ATOM     27  O   UNL A   1      32.881  34.753  30.426  1.00  0.00    -0.460 OA
BRANCH  27  28
ATOM     28  C   UNL A   1      33.296  34.463  29.169  1.00  0.00     0.338 C 
ATOM     29  O   UNL A   1      32.807  34.845  28.118  1.00  0.00    -0.246 OA
BRANCH  28  30
ATOM     30  C   UNL A   1      34.586  33.753  29.239  1.00  0.00     0.060 A 
ATOM     31  C   UNL A   1      35.577  33.967  28.280  1.00  0.00     0.016 A 
ATOM     32  C   UNL A   1      34.810  32.882  30.315  1.00  0.00     0.016 A 
ATOM     33  C   UNL A   1      36.807  33.321  28.417  1.00  0.00     0.010 A 
ATOM     34  C   UNL A   1      36.039  32.240  30.448  1.00  0.00     0.010 A 
ATOM     35  C   UNL A   1      37.055  32.468  29.510  1.00  0.00    -0.014 A 
BRANCH  35  36
ATOM     36  C   UNL A   1      38.415  31.914  29.721  1.00  0.00     0.031 A 
ATOM     37  C   UNL A   1      39.461  32.672  30.482  1.00  0.00     0.074 A 
ATOM     38  C   UNL A   1      38.699  30.702  29.210  1.00  0.00     0.049 A 
ATOM     39  N   UNL A   1      40.663  32.287  30.834  1.00  0.00    -0.248 NA
ATOM     40  C   UNL A   1      39.119  34.040  30.895  1.00  0.00     0.031 C 
ATOM     41  C   UNL A   1      37.778  29.889  28.413  1.00  0.00     0.029 A 
ATOM     42  N   UNL A   1      39.834  29.938  29.291  1.00  0.00    -0.354 N 
ATOM     43  C   UNL A   1      41.214  33.354  31.531  1.00  0.00     0.074 A 
ATOM     44  C   UNL A   1      40.237  34.423  31.499  1.00  0.00     0.031 C 
ATOM     45  C   UNL A   1      38.372  28.723  28.113  1.00  0.00     0.029 A 
ATOM     46  C   UNL A   1      39.722  28.721  28.665  1.00  0.00     0.049 A 
ATOM     47  H   UNL A   1      40.651  30.233  29.755  1.00  0.00     0.167 HD
ATOM     48  C   UNL A   1      42.416  33.426  32.154  1.00  0.00     0.037 A 
ATOM     49  C   UNL A   1      40.607  27.714  28.554  1.00  0.00     0.037 A 
ATOM     50  C   UNL A   1      43.399  32.371  32.152  1.00  0.00     0.049 A 
ATOM     51  C   UNL A   1      41.956  27.847  29.205  1.00  0.00     0.074 A 
ATOM     52  C   UNL A   1      44.635  32.339  32.778  1.00  0.00     0.029 A 
ATOM     53  N   UNL A   1      43.270  31.168  31.472  1.00  0.00    -0.354 N 
ATOM     54  N   UNL A   1      42.433  28.825  29.936  1.00  0.00    -0.248 NA
ATOM     55  C   UNL A   1      42.889  26.727  29.018  1.00  0.00     0.031 C 
ATOM     56  C   UNL A   1      45.276  31.145  32.427  1.00  0.00     0.029 A 
ATOM     57  C   UNL A   1      44.415  30.402  31.636  1.00  0.00     0.049 A 
ATOM     58  H   UNL A   1      42.482  30.899  30.948  1.00  0.00     0.167 HD
ATOM     59  C   UNL A   1      43.706  28.427  30.321  1.00  0.00     0.074 A 
ATOM     60  C   UNL A   1      43.916  27.107  29.762  1.00  0.00     0.031 C 
ATOM     61  C   UNL A   1      44.619  29.092  31.071  1.00  0.00     0.037 A 
BRANCH  48  62
ATOM     62  C   UNL A   1      42.734  34.699  32.888  1.00  0.00     0.057 A 
ATOM     63  C   UNL A   1      42.562  34.793  34.276  1.00  0.00     0.134 A 
ATOM     64  C   UNL A   1      43.185  35.844  32.217  1.00  0.00     0.134 A 
ATOM     65  F   UNL A   1      42.122  33.740  34.981  1.00  0.00    -0.206 F 
ATOM     66  C   UNL A   1      42.832  35.975  34.967  1.00  0.00     0.040 A 
ATOM     67  C   UNL A   1      43.487  37.023  32.901  1.00  0.00     0.040 A 
ATOM     68  F   UNL A   1      43.377  35.821  30.889  1.00  0.00    -0.206 F 
ATOM     69  C   UNL A   1      43.305  37.092  34.281  1.00  0.00     0.006 A 
ENDBRANCH  48  62
BRANCH  49  70
ATOM     70  C   UNL A   1      40.249  26.479  27.810  1.00  0.00     0.057 A 
ATOM     71  C   UNL A   1      40.731  26.240  26.518  1.00  0.00     0.134 A 
ATOM     72  C   UNL A   1      39.447  25.491  28.393  1.00  0.00     0.134 A 
ATOM     73  F   UNL A   1      41.496  27.152  25.901  1.00  0.00    -0.206 F 
ATOM     74  C   UNL A   1      40.433  25.061  25.834  1.00  0.00     0.040 A 
ATOM     75  C   UNL A   1      39.167  24.293  27.733  1.00  0.00     0.040 A 
ATOM     76  F   UNL A   1      38.968  25.654  29.634  1.00  0.00    -0.206 F 
ATOM     77  C   UNL A   1      39.660  24.078  26.447  1.00  0.00     0.006 A 
ENDBRANCH  49  70
BRANCH  61  78
ATOM     78  C   UNL A   1      45.914  28.382  31.356  1.00  0.00     0.057 A 
ATOM     79  C   UNL A   1      47.030  28.579  30.532  1.00  0.00     0.134 A 
ATOM     80  C   UNL A   1      46.063  27.508  32.441  1.00  0.00     0.134 A 
ATOM     81  F   UNL A   1      46.959  29.396  29.470  1.00  0.00    -0.206 F 
ATOM     82  C   UNL A   1      48.246  27.940  30.782  1.00  0.00     0.040 A 
ATOM     83  C   UNL A   1      47.282  26.889  32.720  1.00  0.00     0.040 A 
ATOM     84  F   UNL A   1      45.038  27.284  33.279  1.00  0.00    -0.206 F 
ATOM     85  C   UNL A   1      48.377  27.101  31.885  1.00  0.00     0.006 A 
ENDBRANCH  61  78
ENDBRANCH  35  36
ENDBRANCH  28  30
ENDBRANCH  27  28
ENDBRANCH  26  27
ENDBRANCH  25  26
ENDBRANCH   1  25
TORSDOF 17
ENDMDL
MODEL 2
REMARK VINA RESULT:      -8.5      0.679      6.184
REMARK SMILES CCCc1cc2c(cc1Cl)C=C(C(=O)OCCOCCOC(=O)c1ccc(-c3c4nc(c(-c5c(F)cccc5F)c5ccc([nH]5)c(-c5c(F)cccc5F)c5nc(c(-c6c(F)cccc6F)c6ccc3[nH]6)C=C5)C=C4)cc1)[C@@H](C(F)(F)F)O2
REMARK SMILES IDX 18 1 17 2 16 3 15 4 13 5 14 6 12 7 4 8 5 9 9 10 6 11 8 12
REMARK SMILES IDX 10 13 7 14 83 15 11 16 78 17 3 18 2 19 1 20 79 21 80 22
REMARK SMILES IDX 81 23 82 24 19 25 20 26 21 27 22 28 23 29 24 30 25 31 77 32
REMARK SMILES IDX 26 33 76 34 27 35 28 36 29 37 70 38 30 39 75 40 69 41 71 42
REMARK SMILES IDX 31 43 74 44 68 45 67 46 32 48 58 49 41 50 57 51 42 52 45 53
REMARK SMILES IDX 56 54 72 55 43 56 44 57 55 59 73 60 46 61 33 62 34 63 39 64
REMARK SMILES IDX 35 65 36 66 38 67 40 68 37 69 59 70 60 71 65 72 61 73 62 74
REMARK SMILES IDX 64 75 66 76 63 77 47 78 48 79 53 80 49 81 50 82 52 83 54 84
REMARK SMILES IDX 51 85
REMARK H PARENT 71 47 45 58
REMARK Flexibility Score: inf
ROOT
ATOM      1  O   UNL A   1      34.141  36.630  32.552  1.00  0.00    -0.374 OA
ENDROOT
BRANCH   1   2
ATOM      2  C   UNL A   1      35.205  35.695  32.697  1.00  0.00     0.202 C 
BRANCH   2   3
ATOM      3  C   UNL A   1      35.251  34.851  33.976  1.00  0.00     0.261 C 
BRANCH   3   4
ATOM      4  O   UNL A   1      36.571  34.780  34.534  1.00  0.00    -0.460 OA
BRANCH   4   5
ATOM      5  C   UNL A   1      36.747  33.765  35.415  1.00  0.00     0.338 C 
ATOM      6  O   UNL A   1      36.023  33.472  36.353  1.00  0.00    -0.246 OA
BRANCH   5   7
ATOM      7  C   UNL A   1      37.896  32.940  35.001  1.00  0.00     0.087 C 
ATOM      8  C   UNL A   1      40.625  28.979  33.571  1.00  0.00    -0.026 A 
ATOM      9  C   UNL A   1      40.902  30.166  34.278  1.00  0.00     0.052 A 
ATOM     10  C   UNL A   1      39.371  28.850  32.953  1.00  0.00     0.045 A 
ATOM     11  C   UNL A   1      39.928  31.155  34.434  1.00  0.00     0.128 A 
ATOM     12  C   UNL A   1      38.385  29.820  33.147  1.00  0.00     0.032 A 
ATOM     13  Cl  UNL A   1      38.965  27.512  31.940  1.00  0.00    -0.084 Cl
ATOM     14  C   UNL A   1      38.651  30.951  33.919  1.00  0.00     0.019 A 
ATOM     15  O   UNL A   1      40.294  32.270  35.132  1.00  0.00    -0.475 OA
ATOM     16  C   UNL A   1      37.583  31.867  34.264  1.00  0.00     0.027 C 
ATOM     17  C   UNL A   1      39.297  33.298  35.408  1.00  0.00     0.316 C 
BRANCH   8  18
ATOM     18  C   UNL A   1      41.661  27.876  33.564  1.00  0.00     0.037 C 
BRANCH  18  19
ATOM     19  C   UNL A   1      42.346  27.662  34.924  1.00  0.00     0.001 C 
ATOM     20  C   UNL A   1      41.634  26.687  35.851  1.00  0.00     0.004 C 
ENDBRANCH  18  19
ENDBRANCH   8  18
BRANCH  17  21
ATOM     21  C   UNL A   1      39.421  33.666  36.895  1.00  0.00     0.430 C 
ATOM     22  F   UNL A   1      38.858  32.715  37.680  1.00  0.00    -0.167 F 
ATOM     23  F   UNL A   1      40.710  33.773  37.289  1.00  0.00    -0.167 F 
ATOM     24  F   UNL A   1      38.811  34.839  37.176  1.00  0.00    -0.167 F 
ENDBRANCH  17  21
ENDBRANCH   5   7
ENDBRANCH   4   5
ENDBRANCH   3   4
ENDBRANCH   2   3
ENDBRANCH   1   2
BRANCH   1  25
ATOM     25  C   UNL A   1      32.843  36.142  32.221  1.00  0.00     0.202 C 
BRANCH  25  26
ATOM     26  C   UNL A   1      32.426  36.109  30.744  1.00  0.00     0.261 C 
BRANCH  26  27
ATOM     27  O   UNL A   1      33.523  35.844  29.855  1.00  0.00    -0.460 OA
BRANCH  27  28
ATOM     28  C   UNL A   1      33.435  34.675  29.174  1.00  0.00     0.338 C 
ATOM     29  O   UNL A   1      32.547  34.322  28.414  1.00  0.00    -0.246 OA
BRANCH  28  30
ATOM     30  C   UNL A   1      34.700  33.932  29.324  1.00  0.00     0.060 A 
ATOM     31  C   UNL A   1      35.779  34.171  28.472  1.00  0.00     0.016 A 
ATOM     32  C   UNL A   1      34.807  33.005  30.370  1.00  0.00     0.016 A 
ATOM     33  C   UNL A   1      36.979  33.489  28.687  1.00  0.00     0.010 A 
ATOM     34  C   UNL A   1      36.007  32.327  30.581  1.00  0.00     0.010 A 
ATOM     35  C   UNL A   1      37.108  32.578  29.752  1.00  0.00    -0.014 A 
BRANCH  35  36
ATOM     36  C   UNL A   1      38.432  31.982  30.058  1.00  0.00     0.031 A 
ATOM     37  C   UNL A   1      38.824  30.632  29.539  1.00  0.00     0.074 A 
ATOM     38  C   UNL A   1      39.289  32.684  30.824  1.00  0.00     0.049 A 
ATOM     39  N   UNL A   1      39.976  30.016  29.638  1.00  0.00    -0.248 NA
ATOM     40  C   UNL A   1      37.791  29.871  28.823  1.00  0.00     0.031 C 
ATOM     41  C   UNL A   1      39.003  33.989  31.425  1.00  0.00     0.029 A 
ATOM     42  N   UNL A   1      40.572  32.409  31.218  1.00  0.00    -0.354 N 
ATOM     43  C   UNL A   1      39.816  28.805  28.976  1.00  0.00     0.074 A 
ATOM     44  C   UNL A   1      38.438  28.750  28.533  1.00  0.00     0.031 C 
ATOM     45  C   UNL A   1      40.094  34.418  32.078  1.00  0.00     0.029 A 
ATOM     46  C   UNL A   1      41.140  33.407  31.971  1.00  0.00     0.049 A 
ATOM     47  H   UNL A   1      41.041  31.576  30.984  1.00  0.00     0.167 HD
ATOM     48  C   UNL A   1      40.740  27.839  28.745  1.00  0.00     0.037 A 
ATOM     49  C   UNL A   1      42.369  33.498  32.510  1.00  0.00     0.037 A 
ATOM     50  C   UNL A   1      42.101  27.883  29.220  1.00  0.00     0.049 A 
ATOM     51  C   UNL A   1      43.353  32.384  32.288  1.00  0.00     0.074 A 
ATOM     52  C   UNL A   1      43.119  26.966  29.014  1.00  0.00     0.029 A 
ATOM     53  N   UNL A   1      42.631  28.889  30.016  1.00  0.00    -0.354 N 
ATOM     54  N   UNL A   1      43.218  31.284  31.587  1.00  0.00    -0.248 NA
ATOM     55  C   UNL A   1      44.666  32.528  32.931  1.00  0.00     0.031 C 
ATOM     56  C   UNL A   1      44.243  27.387  29.734  1.00  0.00     0.029 A 
ATOM     57  C   UNL A   1      43.949  28.599  30.336  1.00  0.00     0.049 A 
ATOM     58  H   UNL A   1      42.142  29.690  30.311  1.00  0.00     0.167 HD
ATOM     59  C   UNL A   1      44.436  30.623  31.678  1.00  0.00     0.074 A 
ATOM     60  C   UNL A   1      45.304  31.458  32.483  1.00  0.00     0.031 C 
ATOM     61  C   UNL A   1      44.804  29.433  31.143  1.00  0.00     0.037 A 
BRANCH  48  62
ATOM     62  C   UNL A   1      40.300  26.645  27.944  1.00  0.00     0.057 A 
ATOM     63  C   UNL A   1      40.712  26.478  26.615  1.00  0.00     0.134 A 
ATOM     64  C   UNL A   1      39.443  25.674  28.480  1.00  0.00     0.134 A 
ATOM     65  F   UNL A   1      41.521  27.375  26.034  1.00  0.00    -0.206 F 
ATOM     66  C   UNL A   1      40.293  25.385  25.853  1.00  0.00     0.040 A 
ATOM     67  C   UNL A   1      39.041  24.562  27.737  1.00  0.00     0.040 A 
ATOM     68  F   UNL A   1      39.015  25.770  29.748  1.00  0.00    -0.206 F 
ATOM     69  C   UNL A   1      39.462  24.418  26.417  1.00  0.00     0.006 A 
ENDBRANCH  48  62
BRANCH  49  70
ATOM     70  C   UNL A   1      42.754  34.695  33.302  1.00  0.00     0.057 A 
ATOM     71  C   UNL A   1      42.861  34.644  34.697  1.00  0.00     0.134 A 
ATOM     72  C   UNL A   1      43.063  35.908  32.675  1.00  0.00     0.134 A 
ATOM     73  F   UNL A   1      42.569  33.514  35.357  1.00  0.00    -0.206 F 
ATOM     74  C   UNL A   1      43.265  35.753  35.440  1.00  0.00     0.040 A 
ATOM     75  C   UNL A   1      43.499  37.017  33.402  1.00  0.00     0.040 A 
ATOM     76  F   UNL A   1      42.995  36.016  31.340  1.00  0.00    -0.206 F 
ATOM     77  C   UNL A   1      43.599  36.940  34.790  1.00  0.00     0.006 A 
ENDBRANCH  49  70
BRANCH  61  78
ATOM     78  C   UNL A   1      46.219  28.985  31.387  1.00  0.00     0.057 A 
ATOM     79  C   UNL A   1      47.215  29.219  30.429  1.00  0.00     0.134 A 
ATOM     80  C   UNL A   1      46.601  28.327  32.564  1.00  0.00     0.134 A 
ATOM     81  F   UNL A   1      46.920  29.836  29.275  1.00  0.00    -0.206 F 
ATOM     82  C   UNL A   1      48.537  28.822  30.637  1.00  0.00     0.040 A 
ATOM     83  C   UNL A   1      47.927  27.956  32.797  1.00  0.00     0.040 A 
ATOM     84  F   UNL A   1      45.702  28.084  33.529  1.00  0.00    -0.206 F 
ATOM     85  C   UNL A   1      48.898  28.200  31.829  1.00  0.00     0.006 A 
ENDBRANCH  61  78
ENDBRANCH  35  36
ENDBRANCH  28  30
ENDBRANCH  27  28
ENDBRANCH  26  27
ENDBRANCH  25  26
ENDBRANCH   1  25
TORSDOF 17
ENDMDL
MODEL 3
REMARK VINA RESULT:      -8.3      5.071      8.764
REMARK SMILES CCCc1cc2c(cc1Cl)C=C(C(=O)OCCOCCOC(=O)c1ccc(-c3c4nc(c(-c5c(F)cccc5F)c5ccc([nH]5)c(-c5c(F)cccc5F)c5nc(c(-c6c(F)cccc6F)c6ccc3[nH]6)C=C5)C=C4)cc1)[C@@H](C(F)(F)F)O2
REMARK SMILES IDX 18 1 17 2 16 3 15 4 13 5 14 6 12 7 4 8 5 9 9 10 6 11 8 12
REMARK SMILES IDX 10 13 7 14 83 15 11 16 78 17 3 18 2 19 1 20 79 21 80 22
REMARK SMILES IDX 81 23 82 24 19 25 20 26 21 27 22 28 23 29 24 30 25 31 77 32
REMARK SMILES IDX 26 33 76 34 27 35 28 36 29 37 70 38 30 39 75 40 69 41 71 42
REMARK SMILES IDX 31 43 74 44 68 45 67 46 32 48 58 49 41 50 57 51 42 52 45 53
REMARK SMILES IDX 56 54 72 55 43 56 44 57 55 59 73 60 46 61 33 62 34 63 39 64
REMARK SMILES IDX 35 65 36 66 38 67 40 68 37 69 59 70 60 71 65 72 61 73 62 74
REMARK SMILES IDX 64 75 66 76 63 77 47 78 48 79 53 80 49 81 50 82 52 83 54 84
REMARK SMILES IDX 51 85
REMARK H PARENT 71 47 45 58
REMARK Flexibility Score: inf
ROOT
ATOM      1  O   UNL A   1      31.180  28.278  25.425  1.00  0.00    -0.374 OA
ENDROOT
BRANCH   1   2
ATOM      2  C   UNL A   1      31.418  28.964  24.201  1.00  0.00     0.202 C 
BRANCH   2   3
ATOM      3  C   UNL A   1      32.535  28.444  23.290  1.00  0.00     0.261 C 
BRANCH   3   4
ATOM      4  O   UNL A   1      33.242  27.339  23.872  1.00  0.00    -0.460 OA
BRANCH   4   5
ATOM      5  C   UNL A   1      33.529  26.343  22.999  1.00  0.00     0.338 C 
ATOM      6  O   UNL A   1      34.031  26.458  21.892  1.00  0.00    -0.246 OA
BRANCH   5   7
ATOM      7  C   UNL A   1      33.279  25.037  23.634  1.00  0.00     0.087 C 
ATOM      8  C   UNL A   1      33.740  20.197  24.877  1.00  0.00    -0.026 A 
ATOM      9  C   UNL A   1      32.661  21.101  24.809  1.00  0.00     0.052 A 
ATOM     10  C   UNL A   1      35.041  20.703  24.733  1.00  0.00     0.045 A 
ATOM     11  C   UNL A   1      32.870  22.452  24.520  1.00  0.00     0.128 A 
ATOM     12  C   UNL A   1      35.245  22.044  24.402  1.00  0.00     0.032 A 
ATOM     13  Cl  UNL A   1      36.449  19.724  24.941  1.00  0.00    -0.084 Cl
ATOM     14  C   UNL A   1      34.159  22.908  24.257  1.00  0.00     0.019 A 
ATOM     15  O   UNL A   1      31.761  23.248  24.480  1.00  0.00    -0.475 OA
ATOM     16  C   UNL A   1      34.355  24.248  23.746  1.00  0.00     0.027 C 
ATOM     17  C   UNL A   1      31.903  24.647  24.095  1.00  0.00     0.316 C 
BRANCH   8  18
ATOM     18  C   UNL A   1      33.444  18.721  25.038  1.00  0.00     0.037 C 
BRANCH  18  19
ATOM     19  C   UNL A   1      33.163  17.998  23.711  1.00  0.00     0.001 C 
ATOM     20  C   UNL A   1      34.021  16.765  23.462  1.00  0.00     0.004 C 
ENDBRANCH  18  19
ENDBRANCH   8  18
BRANCH  17  21
ATOM     21  C   UNL A   1      30.809  24.948  23.058  1.00  0.00     0.430 C 
ATOM     22  F   UNL A   1      30.084  26.035  23.418  1.00  0.00    -0.167 F 
ATOM     23  F   UNL A   1      31.324  25.218  21.837  1.00  0.00    -0.167 F 
ATOM     24  F   UNL A   1      29.950  23.913  22.918  1.00  0.00    -0.167 F 
ENDBRANCH  17  21
ENDBRANCH   5   7
ENDBRANCH   4   5
ENDBRANCH   3   4
ENDBRANCH   2   3
ENDBRANCH   1   2
BRANCH   1  25
ATOM     25  C   UNL A   1      31.772  28.786  26.619  1.00  0.00     0.202 C 
BRANCH  25  26
ATOM     26  C   UNL A   1      31.897  30.306  26.787  1.00  0.00     0.261 C 
BRANCH  26  27
ATOM     27  O   UNL A   1      33.203  30.805  26.452  1.00  0.00    -0.460 OA
BRANCH  27  28
ATOM     28  C   UNL A   1      33.664  31.785  27.266  1.00  0.00     0.338 C 
ATOM     29  O   UNL A   1      33.081  32.801  27.610  1.00  0.00    -0.246 OA
BRANCH  28  30
ATOM     30  C   UNL A   1      34.942  31.355  27.864  1.00  0.00     0.060 A 
ATOM     31  C   UNL A   1      35.962  32.272  28.116  1.00  0.00     0.016 A 
ATOM     32  C   UNL A   1      35.093  30.005  28.210  1.00  0.00     0.016 A 
ATOM     33  C   UNL A   1      37.132  31.834  28.740  1.00  0.00     0.010 A 
ATOM     34  C   UNL A   1      36.262  29.571  28.833  1.00  0.00     0.010 A 
ATOM     35  C   UNL A   1      37.284  30.487  29.120  1.00  0.00    -0.014 A 
BRANCH  35  36
ATOM     36  C   UNL A   1      38.464  30.073  29.918  1.00  0.00     0.031 A 
ATOM     37  C   UNL A   1      38.677  30.565  31.318  1.00  0.00     0.074 A 
ATOM     38  C   UNL A   1      39.356  29.235  29.355  1.00  0.00     0.049 A 
ATOM     39  N   UNL A   1      39.604  30.223  32.177  1.00  0.00    -0.248 NA
ATOM     40  C   UNL A   1      37.734  31.577  31.815  1.00  0.00     0.031 C 
ATOM     41  C   UNL A   1      39.280  28.724  27.985  1.00  0.00     0.029 A 
ATOM     42  N   UNL A   1      40.490  28.658  29.865  1.00  0.00    -0.354 N 
ATOM     43  C   UNL A   1      39.344  30.958  33.327  1.00  0.00     0.074 A 
ATOM     44  C   UNL A   1      38.208  31.808  33.032  1.00  0.00     0.031 C 
ATOM     45  C   UNL A   1      40.301  27.879  27.776  1.00  0.00     0.029 A 
ATOM     46  C   UNL A   1      41.119  27.815  28.982  1.00  0.00     0.049 A 
ATOM     47  H   UNL A   1      40.821  28.832  30.775  1.00  0.00     0.167 HD
ATOM     48  C   UNL A   1      39.983  30.912  34.522  1.00  0.00     0.037 A 
ATOM     49  C   UNL A   1      42.230  27.070  29.132  1.00  0.00     0.037 A 
ATOM     50  C   UNL A   1      41.136  30.090  34.799  1.00  0.00     0.049 A 
ATOM     51  C   UNL A   1      42.953  27.086  30.450  1.00  0.00     0.074 A 
ATOM     52  C   UNL A   1      41.836  29.954  35.986  1.00  0.00     0.029 A 
ATOM     53  N   UNL A   1      41.773  29.280  33.870  1.00  0.00    -0.354 N 
ATOM     54  N   UNL A   1      42.647  27.717  31.558  1.00  0.00    -0.248 NA
ATOM     55  C   UNL A   1      44.176  26.278  30.538  1.00  0.00     0.031 C 
ATOM     56  C   UNL A   1      42.930  29.111  35.759  1.00  0.00     0.029 A 
ATOM     57  C   UNL A   1      42.876  28.668  34.448  1.00  0.00     0.049 A 
ATOM     58  H   UNL A   1      41.486  29.159  32.936  1.00  0.00     0.167 HD
ATOM     59  C   UNL A   1      43.620  27.358  32.481  1.00  0.00     0.074 A 
ATOM     60  C   UNL A   1      44.511  26.436  31.809  1.00  0.00     0.031 C 
ATOM     61  C   UNL A   1      43.762  27.756  33.770  1.00  0.00     0.037 A 
BRANCH  48  62
ATOM     62  C   UNL A   1      39.448  31.786  35.622  1.00  0.00     0.057 A 
ATOM     63  C   UNL A   1      38.414  31.341  36.457  1.00  0.00     0.134 A 
ATOM     64  C   UNL A   1      39.936  33.082  35.837  1.00  0.00     0.134 A 
ATOM     65  F   UNL A   1      37.889  30.117  36.300  1.00  0.00    -0.206 F 
ATOM     66  C   UNL A   1      37.892  32.151  37.467  1.00  0.00     0.040 A 
ATOM     67  C   UNL A   1      39.442  33.890  36.863  1.00  0.00     0.040 A 
ATOM     68  F   UNL A   1      40.930  33.569  35.077  1.00  0.00    -0.206 F 
ATOM     69  C   UNL A   1      38.412  33.426  37.679  1.00  0.00     0.006 A 
ENDBRANCH  48  62
BRANCH  49  70
ATOM     70  C   UNL A   1      42.725  26.229  28.012  1.00  0.00     0.057 A 
ATOM     71  C   UNL A   1      43.635  26.728  27.072  1.00  0.00     0.134 A 
ATOM     72  C   UNL A   1      42.329  24.893  27.881  1.00  0.00     0.134 A 
ATOM     73  F   UNL A   1      44.046  28.002  27.138  1.00  0.00    -0.206 F 
ATOM     74  C   UNL A   1      44.136  25.928  26.045  1.00  0.00     0.040 A 
ATOM     75  C   UNL A   1      42.846  24.072  26.878  1.00  0.00     0.040 A 
ATOM     76  F   UNL A   1      41.471  24.353  28.759  1.00  0.00    -0.206 F 
ATOM     77  C   UNL A   1      43.752  24.592  25.955  1.00  0.00     0.006 A 
ENDBRANCH  49  70
BRANCH  61  78
ATOM     78  C   UNL A   1      44.908  27.162  34.543  1.00  0.00     0.057 A 
ATOM     79  C   UNL A   1      44.733  25.987  35.286  1.00  0.00     0.134 A 
ATOM     80  C   UNL A   1      46.183  27.744  34.552  1.00  0.00     0.134 A 
ATOM     81  F   UNL A   1      43.538  25.379  35.330  1.00  0.00    -0.206 F 
ATOM     82  C   UNL A   1      45.783  25.411  36.003  1.00  0.00     0.040 A 
ATOM     83  C   UNL A   1      47.249  27.159  35.237  1.00  0.00     0.040 A 
ATOM     84  F   UNL A   1      46.424  28.862  33.850  1.00  0.00    -0.206 F 
ATOM     85  C   UNL A   1      47.049  25.991  35.969  1.00  0.00     0.006 A 
ENDBRANCH  61  78
ENDBRANCH  35  36
ENDBRANCH  28  30
ENDBRANCH  27  28
ENDBRANCH  26  27
ENDBRANCH  25  26
ENDBRANCH   1  25
TORSDOF 17
ENDMDL
