MODEL 1
REMARK VINA RESULT:     -11.0      0.000      0.000
REMARK SMILES CC(C)CN(C)S(=O)(=O)c1ccc(C(=O)OCCOCCOC(=O)c2ccc(-c3c4nc(c(-c5c(F)cccc5F)c5ccc([nH]5)c(-c5c(F)cccc5F)c5nc(c(-c6c(F)cccc6F)c6ccc3[nH]6)C=C5)C=C4)cc2)cc1
REMARK SMILES IDX 18 1 17 2 16 3 14 4 15 5 13 6 10 7 11 8 80 9 12 10 79 11
REMARK SMILES IDX 7 12 8 13 9 14 5 15 6 16 4 17 2 18 1 19 3 20 19 21 20 22
REMARK SMILES IDX 21 23 22 24 23 25 24 26 25 27 26 28 78 29 27 30 77 31 28 32
REMARK SMILES IDX 29 33 30 34 71 35 31 36 76 37 70 38 72 39 32 40 75 41 69 42
REMARK SMILES IDX 68 43 33 45 59 46 42 47 58 48 43 49 46 50 57 51 73 52 44 53
REMARK SMILES IDX 45 54 56 56 74 57 47 58 34 59 35 60 40 61 36 62 37 63 39 64
REMARK SMILES IDX 41 65 38 66 60 67 61 68 66 69 62 70 63 71 65 72 67 73 64 74
REMARK SMILES IDX 48 75 49 76 54 77 50 78 51 79 53 80 55 81 52 82
REMARK H PARENT 72 44 46 55
REMARK Flexibility Score: inf
ROOT
ATOM      1  C   UNL A   1      41.038  20.614  26.833  1.00  0.00     0.202 C 
ENDROOT
BRANCH   1   2
ATOM      2  C   UNL A   1      39.975  21.716  26.860  1.00  0.00     0.261 C 
BRANCH   2   3
ATOM      3  O   UNL A   1      38.965  21.483  25.866  1.00  0.00    -0.460 OA
BRANCH   3   4
ATOM      4  C   UNL A   1      38.028  22.457  25.757  1.00  0.00     0.338 C 
ATOM      5  O   UNL A   1      38.199  23.658  25.880  1.00  0.00    -0.246 OA
BRANCH   4   6
ATOM      6  C   UNL A   1      36.741  21.871  25.313  1.00  0.00     0.060 A 
ATOM      7  C   UNL A   1      34.272  20.894  24.481  1.00  0.00     0.082 A 
ATOM      8  C   UNL A   1      34.517  22.268  24.426  1.00  0.00     0.022 A 
ATOM      9  C   UNL A   1      35.260  20.002  24.916  1.00  0.00     0.022 A 
ATOM     10  C   UNL A   1      35.751  22.756  24.855  1.00  0.00     0.017 A 
ATOM     11  C   UNL A   1      36.502  20.492  25.325  1.00  0.00     0.017 A 
BRANCH   7  12
ATOM     12  S   UNL A   1      32.663  20.272  24.046  1.00  0.00     0.242 S 
ATOM     13  O   UNL A   1      32.242  20.955  22.838  1.00  0.00    -0.207 OA
ATOM     14  O   UNL A   1      31.875  20.334  25.253  1.00  0.00    -0.207 OA
BRANCH  12  15
ATOM     15  N   UNL A   1      32.948  18.618  23.611  1.00  0.00    -0.201 NA
ATOM     16  C   UNL A   1      32.403  18.282  22.257  1.00  0.00     0.124 C 
BRANCH  15  17
ATOM     17  C   UNL A   1      32.397  17.637  24.617  1.00  0.00     0.105 C 
BRANCH  17  18
ATOM     18  C   UNL A   1      33.044  16.241  24.562  1.00  0.00    -0.002 C 
ATOM     19  C   UNL A   1      34.570  16.275  24.654  1.00  0.00     0.009 C 
ATOM     20  C   UNL A   1      32.508  15.403  25.733  1.00  0.00     0.009 C 
ENDBRANCH  17  18
ENDBRANCH  15  17
ENDBRANCH  12  15
ENDBRANCH   7  12
ENDBRANCH   4   6
ENDBRANCH   3   4
ENDBRANCH   2   3
ENDBRANCH   1   2
BRANCH   1  21
ATOM     21  O   UNL A   1      41.949  20.659  25.736  1.00  0.00    -0.374 OA
BRANCH  21  22
ATOM     22  C   UNL A   1      43.249  21.196  25.995  1.00  0.00     0.202 C 
BRANCH  22  23
ATOM     23  C   UNL A   1      43.872  22.014  24.857  1.00  0.00     0.261 C 
BRANCH  23  24
ATOM     24  O   UNL A   1      43.209  23.281  24.690  1.00  0.00    -0.460 OA
BRANCH  24  25
ATOM     25  C   UNL A   1      43.957  24.364  25.003  1.00  0.00     0.338 C 
ATOM     26  O   UNL A   1      45.020  24.700  24.510  1.00  0.00    -0.246 OA
BRANCH  25  27
ATOM     27  C   UNL A   1      43.212  25.230  25.937  1.00  0.00     0.060 A 
ATOM     28  C   UNL A   1      43.630  26.561  26.056  1.00  0.00     0.016 A 
ATOM     29  C   UNL A   1      42.171  24.739  26.728  1.00  0.00     0.016 A 
ATOM     30  C   UNL A   1      43.042  27.396  27.003  1.00  0.00     0.010 A 
ATOM     31  C   UNL A   1      41.588  25.575  27.686  1.00  0.00     0.010 A 
ATOM     32  C   UNL A   1      42.043  26.896  27.850  1.00  0.00    -0.014 A 
BRANCH  32  33
ATOM     33  C   UNL A   1      41.582  27.713  28.999  1.00  0.00     0.031 A 
ATOM     34  C   UNL A   1      42.312  27.609  30.309  1.00  0.00     0.074 A 
ATOM     35  C   UNL A   1      40.543  28.556  28.869  1.00  0.00     0.049 A 
ATOM     36  N   UNL A   1      42.064  28.206  31.447  1.00  0.00    -0.248 NA
ATOM     37  C   UNL A   1      43.476  26.709  30.340  1.00  0.00     0.031 C 
ATOM     38  C   UNL A   1      39.779  28.772  27.644  1.00  0.00     0.029 A 
ATOM     39  N   UNL A   1      39.949  29.383  29.789  1.00  0.00    -0.354 N 
ATOM     40  C   UNL A   1      43.035  27.749  32.331  1.00  0.00     0.074 A 
ATOM     41  C   UNL A   1      43.856  26.804  31.606  1.00  0.00     0.031 C 
ATOM     42  C   UNL A   1      38.806  29.667  27.890  1.00  0.00     0.029 A 
ATOM     43  C   UNL A   1      38.864  30.062  29.296  1.00  0.00     0.049 A 
ATOM     44  H   UNL A   1      40.272  29.480  30.714  1.00  0.00     0.167 HD
ATOM     45  C   UNL A   1      43.227  28.092  33.627  1.00  0.00     0.037 A 
ATOM     46  C   UNL A   1      38.002  30.892  29.915  1.00  0.00     0.037 A 
ATOM     47  C   UNL A   1      42.411  29.034  34.346  1.00  0.00     0.049 A 
ATOM     48  C   UNL A   1      38.199  31.211  31.373  1.00  0.00     0.074 A 
ATOM     49  C   UNL A   1      42.543  29.469  35.653  1.00  0.00     0.029 A 
ATOM     50  N   UNL A   1      41.302  29.679  33.820  1.00  0.00    -0.354 N 
ATOM     51  N   UNL A   1      39.137  30.798  32.191  1.00  0.00    -0.248 NA
ATOM     52  C   UNL A   1      37.218  32.114  31.993  1.00  0.00     0.031 C 
ATOM     53  C   UNL A   1      41.486  30.340  35.932  1.00  0.00     0.029 A 
ATOM     54  C   UNL A   1      40.724  30.488  34.784  1.00  0.00     0.049 A 
ATOM     55  H   UNL A   1      40.974  29.578  32.897  1.00  0.00     0.167 HD
ATOM     56  C   UNL A   1      38.876  31.409  33.411  1.00  0.00     0.074 A 
ATOM     57  C   UNL A   1      37.698  32.230  33.224  1.00  0.00     0.031 C 
ATOM     58  C   UNL A   1      39.552  31.302  34.581  1.00  0.00     0.037 A 
BRANCH  45  59
ATOM     59  C   UNL A   1      44.354  27.421  34.356  1.00  0.00     0.057 A 
ATOM     60  C   UNL A   1      45.638  27.977  34.410  1.00  0.00     0.134 A 
ATOM     61  C   UNL A   1      44.144  26.213  35.033  1.00  0.00     0.134 A 
ATOM     62  F   UNL A   1      45.911  29.125  33.771  1.00  0.00    -0.206 F 
ATOM     63  C   UNL A   1      46.680  27.343  35.090  1.00  0.00     0.040 A 
ATOM     64  C   UNL A   1      45.171  25.583  35.738  1.00  0.00     0.040 A 
ATOM     65  F   UNL A   1      42.937  25.629  35.025  1.00  0.00    -0.206 F 
ATOM     66  C   UNL A   1      46.445  26.144  35.762  1.00  0.00     0.006 A 
ENDBRANCH  45  59
BRANCH  46  67
ATOM     67  C   UNL A   1      36.865  31.476  29.161  1.00  0.00     0.057 A 
ATOM     68  C   UNL A   1      36.898  32.797  28.704  1.00  0.00     0.134 A 
ATOM     69  C   UNL A   1      35.713  30.726  28.888  1.00  0.00     0.134 A 
ATOM     70  F   UNL A   1      37.963  33.571  28.954  1.00  0.00    -0.206 F 
ATOM     71  C   UNL A   1      35.822  33.359  28.015  1.00  0.00     0.040 A 
ATOM     72  C   UNL A   1      34.640  31.268  28.180  1.00  0.00     0.040 A 
ATOM     73  F   UNL A   1      35.620  29.453  29.299  1.00  0.00    -0.206 F 
ATOM     74  C   UNL A   1      34.690  32.590  27.746  1.00  0.00     0.006 A 
ENDBRANCH  46  67
BRANCH  58  75
ATOM     75  C   UNL A   1      39.057  32.116  35.742  1.00  0.00     0.057 A 
ATOM     76  C   UNL A   1      38.204  31.578  36.713  1.00  0.00     0.134 A 
ATOM     77  C   UNL A   1      39.472  33.444  35.909  1.00  0.00     0.134 A 
ATOM     78  F   UNL A   1      37.760  30.317  36.605  1.00  0.00    -0.206 F 
ATOM     79  C   UNL A   1      37.765  32.338  37.800  1.00  0.00     0.040 A 
ATOM     80  C   UNL A   1      39.060  34.205  37.005  1.00  0.00     0.040 A 
ATOM     81  F   UNL A   1      40.296  34.018  35.020  1.00  0.00    -0.206 F 
ATOM     82  C   UNL A   1      38.200  33.653  37.951  1.00  0.00     0.006 A 
ENDBRANCH  58  75
ENDBRANCH  32  33
ENDBRANCH  25  27
ENDBRANCH  24  25
ENDBRANCH  23  24
ENDBRANCH  22  23
ENDBRANCH  21  22
ENDBRANCH   1  21
TORSDOF 18
ENDMDL
MODEL 2
REMARK VINA RESULT:     -10.7      1.699      2.673
REMARK SMILES CC(C)CN(C)S(=O)(=O)c1ccc(C(=O)OCCOCCOC(=O)c2ccc(-c3c4nc(c(-c5c(F)cccc5F)c5ccc([nH]5)c(-c5c(F)cccc5F)c5nc(c(-c6c(F)cccc6F)c6ccc3[nH]6)C=C5)C=C4)cc2)cc1
REMARK SMILES IDX 18 1 17 2 16 3 14 4 15 5 13 6 10 7 11 8 80 9 12 10 79 11
REMARK SMILES IDX 7 12 8 13 9 14 5 15 6 16 4 17 2 18 1 19 3 20 19 21 20 22
REMARK SMILES IDX 21 23 22 24 23 25 24 26 25 27 26 28 78 29 27 30 77 31 28 32
REMARK SMILES IDX 29 33 30 34 71 35 31 36 76 37 70 38 72 39 32 40 75 41 69 42
REMARK SMILES IDX 68 43 33 45 59 46 42 47 58 48 43 49 46 50 57 51 73 52 44 53
REMARK SMILES IDX 45 54 56 56 74 57 47 58 34 59 35 60 40 61 36 62 37 63 39 64
REMARK SMILES IDX 41 65 38 66 60 67 61 68 66 69 62 70 63 71 65 72 67 73 64 74
REMARK SMILES IDX 48 75 49 76 54 77 50 78 51 79 53 80 55 81 52 82
REMARK H PARENT 72 44 46 55
REMARK Flexibility Score: inf
ROOT
ATOM      1  C   UNL A   1      41.757  19.236  26.017  1.00  0.00     0.202 C 
ENDROOT
BRANCH   1   2
ATOM      2  C   UNL A   1      40.786  20.064  26.863  1.00  0.00     0.261 C 
BRANCH   2   3
ATOM      3  O   UNL A   1      39.735  20.611  26.053  1.00  0.00    -0.460 OA
BRANCH   3   4
ATOM      4  C   UNL A   1      39.326  21.856  26.403  1.00  0.00     0.338 C 
ATOM      5  O   UNL A   1      39.950  22.679  27.050  1.00  0.00    -0.246 OA
BRANCH   4   6
ATOM      6  C   UNL A   1      38.026  22.160  25.757  1.00  0.00     0.060 A 
ATOM      7  C   UNL A   1      35.584  22.607  24.502  1.00  0.00     0.082 A 
ATOM      8  C   UNL A   1      36.024  21.295  24.693  1.00  0.00     0.022 A 
ATOM      9  C   UNL A   1      36.336  23.695  24.962  1.00  0.00     0.022 A 
ATOM     10  C   UNL A   1      37.255  21.076  25.311  1.00  0.00     0.017 A 
ATOM     11  C   UNL A   1      37.557  23.471  25.601  1.00  0.00     0.017 A 
BRANCH   7  12
ATOM     12  S   UNL A   1      34.073  22.903  23.612  1.00  0.00     0.242 S 
ATOM     13  O   UNL A   1      33.374  21.638  23.502  1.00  0.00    -0.207 OA
ATOM     14  O   UNL A   1      34.444  23.657  22.439  1.00  0.00    -0.207 OA
BRANCH  12  15
ATOM     15  N   UNL A   1      33.136  23.898  24.680  1.00  0.00    -0.201 NA
ATOM     16  C   UNL A   1      32.038  23.136  25.354  1.00  0.00     0.124 C 
BRANCH  15  17
ATOM     17  C   UNL A   1      32.544  25.108  23.997  1.00  0.00     0.105 C 
BRANCH  17  18
ATOM     18  C   UNL A   1      32.812  26.439  24.721  1.00  0.00    -0.002 C 
ATOM     19  C   UNL A   1      33.942  26.356  25.747  1.00  0.00     0.009 C 
ATOM     20  C   UNL A   1      33.185  27.502  23.676  1.00  0.00     0.009 C 
ENDBRANCH  17  18
ENDBRANCH  15  17
ENDBRANCH  12  15
ENDBRANCH   7  12
ENDBRANCH   4   6
ENDBRANCH   3   4
ENDBRANCH   2   3
ENDBRANCH   1   2
BRANCH   1  21
ATOM     21  O   UNL A   1      42.710  19.982  25.259  1.00  0.00    -0.374 OA
BRANCH  21  22
ATOM     22  C   UNL A   1      43.147  21.225  25.813  1.00  0.00     0.202 C 
BRANCH  22  23
ATOM     23  C   UNL A   1      44.020  22.093  24.899  1.00  0.00     0.261 C 
BRANCH  23  24
ATOM     24  O   UNL A   1      43.425  23.385  24.669  1.00  0.00    -0.460 OA
BRANCH  24  25
ATOM     25  C   UNL A   1      44.181  24.439  25.055  1.00  0.00     0.338 C 
ATOM     26  O   UNL A   1      45.274  24.766  24.626  1.00  0.00    -0.246 OA
BRANCH  25  27
ATOM     27  C   UNL A   1      43.409  25.290  25.981  1.00  0.00     0.060 A 
ATOM     28  C   UNL A   1      43.796  26.631  26.098  1.00  0.00     0.016 A 
ATOM     29  C   UNL A   1      42.375  24.778  26.767  1.00  0.00     0.016 A 
ATOM     30  C   UNL A   1      43.182  27.455  27.039  1.00  0.00     0.010 A 
ATOM     31  C   UNL A   1      41.765  25.604  27.718  1.00  0.00     0.010 A 
ATOM     32  C   UNL A   1      42.190  26.935  27.881  1.00  0.00    -0.014 A 
BRANCH  32  33
ATOM     33  C   UNL A   1      41.702  27.745  29.024  1.00  0.00     0.031 A 
ATOM     34  C   UNL A   1      42.416  27.651  30.344  1.00  0.00     0.074 A 
ATOM     35  C   UNL A   1      40.653  28.573  28.881  1.00  0.00     0.049 A 
ATOM     36  N   UNL A   1      42.144  28.242  31.478  1.00  0.00    -0.248 NA
ATOM     37  C   UNL A   1      43.591  26.767  30.389  1.00  0.00     0.031 C 
ATOM     38  C   UNL A   1      39.901  28.779  27.645  1.00  0.00     0.029 A 
ATOM     39  N   UNL A   1      40.035  29.391  29.793  1.00  0.00    -0.354 N 
ATOM     40  C   UNL A   1      43.109  27.799  32.374  1.00  0.00     0.074 A 
ATOM     41  C   UNL A   1      43.953  26.866  31.660  1.00  0.00     0.031 C 
ATOM     42  C   UNL A   1      38.913  29.660  27.879  1.00  0.00     0.029 A 
ATOM     43  C   UNL A   1      38.947  30.055  29.285  1.00  0.00     0.049 A 
ATOM     44  H   UNL A   1      40.344  29.492  30.722  1.00  0.00     0.167 HD
ATOM     45  C   UNL A   1      43.280  28.144  33.673  1.00  0.00     0.037 A 
ATOM     46  C   UNL A   1      38.066  30.872  29.893  1.00  0.00     0.037 A 
ATOM     47  C   UNL A   1      42.441  29.073  34.382  1.00  0.00     0.049 A 
ATOM     48  C   UNL A   1      38.238  31.193  31.354  1.00  0.00     0.074 A 
ATOM     49  C   UNL A   1      42.550  29.510  35.691  1.00  0.00     0.029 A 
ATOM     50  N   UNL A   1      41.330  29.703  33.841  1.00  0.00    -0.354 N 
ATOM     51  N   UNL A   1      39.171  30.793  32.184  1.00  0.00    -0.248 NA
ATOM     52  C   UNL A   1      37.237  32.082  31.962  1.00  0.00     0.031 C 
ATOM     53  C   UNL A   1      41.476  30.366  35.956  1.00  0.00     0.029 A 
ATOM     54  C   UNL A   1      40.728  30.504  34.798  1.00  0.00     0.049 A 
ATOM     55  H   UNL A   1      41.016  29.598  32.914  1.00  0.00     0.167 HD
ATOM     56  C   UNL A   1      38.885  31.399  33.401  1.00  0.00     0.074 A 
ATOM     57  C   UNL A   1      37.699  32.204  33.198  1.00  0.00     0.031 C 
ATOM     58  C   UNL A   1      39.548  31.302  34.580  1.00  0.00     0.037 A 
BRANCH  45  59
ATOM     59  C   UNL A   1      44.406  27.488  34.417  1.00  0.00     0.057 A 
ATOM     60  C   UNL A   1      45.676  28.072  34.506  1.00  0.00     0.134 A 
ATOM     61  C   UNL A   1      44.210  26.267  35.073  1.00  0.00     0.134 A 
ATOM     62  F   UNL A   1      45.935  29.235  33.888  1.00  0.00    -0.206 F 
ATOM     63  C   UNL A   1      46.717  27.452  35.199  1.00  0.00     0.040 A 
ATOM     64  C   UNL A   1      45.235  25.650  35.791  1.00  0.00     0.040 A 
ATOM     65  F   UNL A   1      43.016  25.655  35.031  1.00  0.00    -0.206 F 
ATOM     66  C   UNL A   1      46.496  26.239  35.850  1.00  0.00     0.006 A 
ENDBRANCH  45  59
BRANCH  46  67
ATOM     67  C   UNL A   1      36.930  31.441  29.125  1.00  0.00     0.057 A 
ATOM     68  C   UNL A   1      36.932  32.774  28.704  1.00  0.00     0.134 A 
ATOM     69  C   UNL A   1      35.811  30.663  28.801  1.00  0.00     0.134 A 
ATOM     70  F   UNL A   1      37.965  33.575  29.005  1.00  0.00    -0.206 F 
ATOM     71  C   UNL A   1      35.857  33.321  28.002  1.00  0.00     0.040 A 
ATOM     72  C   UNL A   1      34.740  31.190  28.078  1.00  0.00     0.040 A 
ATOM     73  F   UNL A   1      35.749  29.377  29.173  1.00  0.00    -0.206 F 
ATOM     74  C   UNL A   1      34.759  32.525  27.682  1.00  0.00     0.006 A 
ENDBRANCH  46  67
BRANCH  58  75
ATOM     75  C   UNL A   1      39.025  32.108  35.734  1.00  0.00     0.057 A 
ATOM     76  C   UNL A   1      38.186  31.551  36.707  1.00  0.00     0.134 A 
ATOM     77  C   UNL A   1      39.401  33.448  35.895  1.00  0.00     0.134 A 
ATOM     78  F   UNL A   1      37.779  30.276  36.605  1.00  0.00    -0.206 F 
ATOM     79  C   UNL A   1      37.722  32.304  37.787  1.00  0.00     0.040 A 
ATOM     80  C   UNL A   1      38.965  34.204  36.984  1.00  0.00     0.040 A 
ATOM     81  F   UNL A   1      40.211  34.041  35.004  1.00  0.00    -0.206 F 
ATOM     82  C   UNL A   1      38.118  33.632  37.932  1.00  0.00     0.006 A 
ENDBRANCH  58  75
ENDBRANCH  32  33
ENDBRANCH  25  27
ENDBRANCH  24  25
ENDBRANCH  23  24
ENDBRANCH  22  23
ENDBRANCH  21  22
ENDBRANCH   1  21
TORSDOF 18
ENDMDL
MODEL 3
REMARK VINA RESULT:     -10.6      0.522      6.292
REMARK SMILES CC(C)CN(C)S(=O)(=O)c1ccc(C(=O)OCCOCCOC(=O)c2ccc(-c3c4nc(c(-c5c(F)cccc5F)c5ccc([nH]5)c(-c5c(F)cccc5F)c5nc(c(-c6c(F)cccc6F)c6ccc3[nH]6)C=C5)C=C4)cc2)cc1
REMARK SMILES IDX 18 1 17 2 16 3 14 4 15 5 13 6 10 7 11 8 80 9 12 10 79 11
REMARK SMILES IDX 7 12 8 13 9 14 5 15 6 16 4 17 2 18 1 19 3 20 19 21 20 22
REMARK SMILES IDX 21 23 22 24 23 25 24 26 25 27 26 28 78 29 27 30 77 31 28 32
REMARK SMILES IDX 29 33 30 34 71 35 31 36 76 37 70 38 72 39 32 40 75 41 69 42
REMARK SMILES IDX 68 43 33 45 59 46 42 47 58 48 43 49 46 50 57 51 73 52 44 53
REMARK SMILES IDX 45 54 56 56 74 57 47 58 34 59 35 60 40 61 36 62 37 63 39 64
REMARK SMILES IDX 41 65 38 66 60 67 61 68 66 69 62 70 63 71 65 72 67 73 64 74
REMARK SMILES IDX 48 75 49 76 54 77 50 78 51 79 53 80 55 81 52 82
REMARK H PARENT 72 44 46 55
REMARK Flexibility Score: inf
ROOT
ATOM      1  C   UNL A   1      40.978  21.291  26.745  1.00  0.00     0.202 C 
ENDROOT
BRANCH   1   2
ATOM      2  C   UNL A   1      39.942  22.411  26.615  1.00  0.00     0.261 C 
BRANCH   2   3
ATOM      3  O   UNL A   1      38.819  21.985  25.828  1.00  0.00    -0.460 OA
BRANCH   3   4
ATOM      4  C   UNL A   1      37.807  22.883  25.734  1.00  0.00     0.338 C 
ATOM      5  O   UNL A   1      37.886  24.093  25.856  1.00  0.00    -0.246 OA
BRANCH   4   6
ATOM      6  C   UNL A   1      36.563  22.199  25.309  1.00  0.00     0.060 A 
ATOM      7  C   UNL A   1      34.165  21.031  24.517  1.00  0.00     0.082 A 
ATOM      8  C   UNL A   1      34.289  22.422  24.489  1.00  0.00     0.022 A 
ATOM      9  C   UNL A   1      35.236  20.218  24.904  1.00  0.00     0.022 A 
ATOM     10  C   UNL A   1      35.488  23.004  24.899  1.00  0.00     0.017 A 
ATOM     11  C   UNL A   1      36.443  20.803  25.293  1.00  0.00     0.017 A 
BRANCH   7  12
ATOM     12  S   UNL A   1      32.603  20.283  24.108  1.00  0.00     0.242 S 
ATOM     13  O   UNL A   1      32.203  20.788  22.810  1.00  0.00    -0.207 OA
ATOM     14  O   UNL A   1      31.765  20.456  25.269  1.00  0.00    -0.207 OA
BRANCH  12  15
ATOM     15  N   UNL A   1      32.977  18.603  23.896  1.00  0.00    -0.201 NA
ATOM     16  C   UNL A   1      32.532  18.083  22.565  1.00  0.00     0.124 C 
BRANCH  15  17
ATOM     17  C   UNL A   1      32.401  17.725  24.981  1.00  0.00     0.105 C 
BRANCH  17  18
ATOM     18  C   UNL A   1      33.313  16.561  25.407  1.00  0.00    -0.002 C 
ATOM     19  C   UNL A   1      32.568  15.236  25.574  1.00  0.00     0.009 C 
ATOM     20  C   UNL A   1      34.401  16.372  24.338  1.00  0.00     0.009 C 
ENDBRANCH  17  18
ENDBRANCH  15  17
ENDBRANCH  12  15
ENDBRANCH   7  12
ENDBRANCH   4   6
ENDBRANCH   3   4
ENDBRANCH   2   3
ENDBRANCH   1   2
BRANCH   1  21
ATOM     21  O   UNL A   1      41.871  21.142  25.641  1.00  0.00    -0.374 OA
BRANCH  21  22
ATOM     22  C   UNL A   1      43.217  21.587  25.833  1.00  0.00     0.202 C 
BRANCH  22  23
ATOM     23  C   UNL A   1      43.780  22.501  24.738  1.00  0.00     0.261 C 
BRANCH  23  24
ATOM     24  O   UNL A   1      43.163  23.802  24.765  1.00  0.00    -0.460 OA
BRANCH  24  25
ATOM     25  C   UNL A   1      43.957  24.802  25.215  1.00  0.00     0.338 C 
ATOM     26  O   UNL A   1      45.051  25.130  24.789  1.00  0.00    -0.246 OA
BRANCH  25  27
ATOM     27  C   UNL A   1      43.228  25.601  26.219  1.00  0.00     0.060 A 
ATOM     28  C   UNL A   1      43.597  26.945  26.365  1.00  0.00     0.016 A 
ATOM     29  C   UNL A   1      42.254  25.038  27.045  1.00  0.00     0.016 A 
ATOM     30  C   UNL A   1      43.027  27.719  27.373  1.00  0.00     0.010 A 
ATOM     31  C   UNL A   1      41.689  25.814  28.063  1.00  0.00     0.010 A 
ATOM     32  C   UNL A   1      42.098  27.147  28.252  1.00  0.00    -0.014 A 
BRANCH  32  33
ATOM     33  C   UNL A   1      41.667  27.902  29.454  1.00  0.00     0.031 A 
ATOM     34  C   UNL A   1      40.452  28.783  29.366  1.00  0.00     0.074 A 
ATOM     35  C   UNL A   1      42.334  27.785  30.614  1.00  0.00     0.049 A 
ATOM     36  N   UNL A   1      39.917  29.552  30.279  1.00  0.00    -0.248 NA
ATOM     37  C   UNL A   1      39.749  28.801  28.074  1.00  0.00     0.031 C 
ATOM     38  C   UNL A   1      43.503  26.937  30.835  1.00  0.00     0.029 A 
ATOM     39  N   UNL A   1      42.122  28.391  31.827  1.00  0.00    -0.354 N 
ATOM     40  C   UNL A   1      38.820  30.151  29.671  1.00  0.00     0.074 A 
ATOM     41  C   UNL A   1      38.784  29.678  28.304  1.00  0.00     0.031 C 
ATOM     42  C   UNL A   1      43.915  27.086  32.107  1.00  0.00     0.029 A 
ATOM     43  C   UNL A   1      43.056  28.060  32.777  1.00  0.00     0.049 A 
ATOM     44  H   UNL A   1      41.372  29.005  31.999  1.00  0.00     0.167 HD
ATOM     45  C   UNL A   1      37.920  31.010  30.207  1.00  0.00     0.037 A 
ATOM     46  C   UNL A   1      43.210  28.509  34.037  1.00  0.00     0.037 A 
ATOM     47  C   UNL A   1      37.956  31.477  31.568  1.00  0.00     0.049 A 
ATOM     48  C   UNL A   1      42.234  29.511  34.593  1.00  0.00     0.074 A 
ATOM     49  C   UNL A   1      37.073  32.326  32.212  1.00  0.00     0.029 A 
ATOM     50  N   UNL A   1      38.934  31.141  32.491  1.00  0.00    -0.354 N 
ATOM     51  N   UNL A   1      41.183  30.047  34.019  1.00  0.00    -0.248 NA
ATOM     52  C   UNL A   1      42.465  29.970  35.970  1.00  0.00     0.031 C 
ATOM     53  C   UNL A   1      37.544  32.542  33.511  1.00  0.00     0.029 A 
ATOM     54  C   UNL A   1      38.692  31.787  33.692  1.00  0.00     0.049 A 
ATOM     55  H   UNL A   1      39.689  30.532  32.319  1.00  0.00     0.167 HD
ATOM     56  C   UNL A   1      40.614  30.883  34.972  1.00  0.00     0.074 A 
ATOM     57  C   UNL A   1      41.429  30.775  36.164  1.00  0.00     0.031 C 
ATOM     58  C   UNL A   1      39.512  31.667  34.871  1.00  0.00     0.037 A 
BRANCH  45  59
ATOM     59  C   UNL A   1      36.834  31.520  29.305  1.00  0.00     0.057 A 
ATOM     60  C   UNL A   1      35.726  30.735  28.962  1.00  0.00     0.134 A 
ATOM     61  C   UNL A   1      36.887  32.822  28.793  1.00  0.00     0.134 A 
ATOM     62  F   UNL A   1      35.620  29.474  29.407  1.00  0.00    -0.206 F 
ATOM     63  C   UNL A   1      34.722  31.219  28.121  1.00  0.00     0.040 A 
ATOM     64  C   UNL A   1      35.878  33.326  27.973  1.00  0.00     0.040 A 
ATOM     65  F   UNL A   1      37.919  33.628  29.087  1.00  0.00    -0.206 F 
ATOM     66  C   UNL A   1      34.794  32.522  27.628  1.00  0.00     0.006 A 
ENDBRANCH  45  59
BRANCH  46  67
ATOM     67  C   UNL A   1      44.343  28.020  34.863  1.00  0.00     0.057 A 
ATOM     68  C   UNL A   1      44.213  26.893  35.681  1.00  0.00     0.134 A 
ATOM     69  C   UNL A   1      45.580  28.677  34.861  1.00  0.00     0.134 A 
ATOM     70  F   UNL A   1      43.046  26.235  35.743  1.00  0.00    -0.206 F 
ATOM     71  C   UNL A   1      45.267  26.442  36.478  1.00  0.00     0.040 A 
ATOM     72  C   UNL A   1      46.649  28.224  35.634  1.00  0.00     0.040 A 
ATOM     73  F   UNL A   1      45.769  29.763  34.098  1.00  0.00    -0.206 F 
ATOM     74  C   UNL A   1      46.492  27.107  36.450  1.00  0.00     0.006 A 
ENDBRANCH  46  67
BRANCH  58  75
ATOM     75  C   UNL A   1      39.105  32.445  36.089  1.00  0.00     0.057 A 
ATOM     76  C   UNL A   1      38.293  31.890  37.085  1.00  0.00     0.134 A 
ATOM     77  C   UNL A   1      39.566  33.754  36.285  1.00  0.00     0.134 A 
ATOM     78  F   UNL A   1      37.808  30.646  36.953  1.00  0.00    -0.206 F 
ATOM     79  C   UNL A   1      37.936  32.615  38.224  1.00  0.00     0.040 A 
ATOM     80  C   UNL A   1      39.237  34.480  37.431  1.00  0.00     0.040 A 
ATOM     81  F   UNL A   1      40.355  34.343  35.373  1.00  0.00    -0.206 F 
ATOM     82  C   UNL A   1      38.416  33.912  38.402  1.00  0.00     0.006 A 
ENDBRANCH  58  75
ENDBRANCH  32  33
ENDBRANCH  25  27
ENDBRANCH  24  25
ENDBRANCH  23  24
ENDBRANCH  22  23
ENDBRANCH  21  22
ENDBRANCH   1  21
TORSDOF 18
ENDMDL
