MODEL 1
REMARK VINA RESULT:     -11.4      0.000      0.000
REMARK SMILES O=C(OCCOCCOC(=O)c1c(C(F)(F)F)nn(-c2ccccc2)c1C(F)(F)Cl)c1ccc(-c2c3nc(c(-c4c(F)cccc4F)c4ccc([nH]4)c(-c4c(F)cccc4F)c4nc(c(-c5c(F)cccc5F)c5ccc2[nH]5)C=C4)C=C3)cc1
REMARK SMILES IDX 5 1 4 2 3 3 2 4 1 5 31 6 32 7 84 8 33 9 83 10 34 11 35 12
REMARK SMILES IDX 36 13 77 14 37 15 82 16 76 17 78 18 38 19 81 20 75 21 74 22
REMARK SMILES IDX 39 24 65 25 48 26 64 27 49 28 52 29 63 30 79 31 50 32 51 33
REMARK SMILES IDX 62 35 80 36 53 37 40 38 41 39 46 40 42 41 43 42 45 43 47 44
REMARK SMILES IDX 44 45 66 46 67 47 72 48 68 49 69 50 71 51 73 52 70 53 54 54
REMARK SMILES IDX 55 55 60 56 56 57 57 58 59 59 61 60 58 61 6 62 7 63 8 64
REMARK SMILES IDX 9 65 10 66 11 67 12 68 13 69 26 70 18 71 19 72 14 73 15 74
REMARK SMILES IDX 16 75 17 76 27 77 28 78 29 79 30 80 20 81 21 82 25 83 22 84
REMARK SMILES IDX 24 85 23 86
REMARK H PARENT 78 23 52 34
REMARK Flexibility Score: inf
ROOT
ATOM      1  C   UNL A   1      33.776  30.413  27.143  1.00  0.00     0.202 C 
ENDROOT
BRANCH   1   2
ATOM      2  C   UNL A   1      35.089  29.694  27.502  1.00  0.00     0.261 C 
BRANCH   2   3
ATOM      3  O   UNL A   1      36.113  30.597  27.923  1.00  0.00    -0.460 OA
BRANCH   3   4
ATOM      4  C   UNL A   1      37.193  30.307  28.682  1.00  0.00     0.338 C 
ATOM      5  O   UNL A   1      37.331  30.906  29.748  1.00  0.00    -0.246 OA
BRANCH   4   6
ATOM      6  C   UNL A   1      38.234  29.305  28.295  1.00  0.00     0.060 A 
ATOM      7  C   UNL A   1      38.255  27.953  28.650  1.00  0.00     0.016 A 
ATOM      8  C   UNL A   1      39.302  29.808  27.536  1.00  0.00     0.016 A 
ATOM      9  C   UNL A   1      39.397  27.202  28.529  1.00  0.00     0.010 A 
ATOM     10  C   UNL A   1      40.431  29.039  27.335  1.00  0.00     0.010 A 
ATOM     11  C   UNL A   1      40.502  27.796  27.959  1.00  0.00    -0.014 A 
BRANCH  11  12
ATOM     12  C   UNL A   1      41.752  27.092  28.130  1.00  0.00     0.031 A 
ATOM     13  C   UNL A   1      42.516  27.428  29.364  1.00  0.00     0.074 A 
ATOM     14  C   UNL A   1      42.073  26.180  27.194  1.00  0.00     0.049 A 
ATOM     15  N   UNL A   1      43.776  27.699  29.498  1.00  0.00    -0.248 NA
ATOM     16  C   UNL A   1      41.734  27.599  30.604  1.00  0.00     0.031 C 
ATOM     17  C   UNL A   1      41.251  25.724  26.062  1.00  0.00     0.029 A 
ATOM     18  N   UNL A   1      43.138  25.349  27.141  1.00  0.00    -0.354 N 
ATOM     19  C   UNL A   1      43.977  27.871  30.867  1.00  0.00     0.074 A 
ATOM     20  C   UNL A   1      42.677  27.940  31.479  1.00  0.00     0.031 C 
ATOM     21  C   UNL A   1      41.707  24.528  25.637  1.00  0.00     0.029 A 
ATOM     22  C   UNL A   1      42.912  24.216  26.376  1.00  0.00     0.049 A 
ATOM     23  H   UNL A   1      43.989  25.529  27.601  1.00  0.00     0.167 HD
ATOM     24  C   UNL A   1      45.193  27.697  31.448  1.00  0.00     0.037 A 
ATOM     25  C   UNL A   1      43.583  23.050  26.506  1.00  0.00     0.037 A 
ATOM     26  C   UNL A   1      46.271  27.911  30.527  1.00  0.00     0.049 A 
ATOM     27  C   UNL A   1      44.851  23.353  27.224  1.00  0.00     0.074 A 
ATOM     28  C   UNL A   1      46.717  28.998  29.800  1.00  0.00     0.029 A 
ATOM     29  N   UNL A   1      46.890  26.818  29.974  1.00  0.00    -0.354 N 
ATOM     30  N   UNL A   1      45.804  24.095  26.724  1.00  0.00    -0.248 NA
ATOM     31  C   UNL A   1      44.850  23.240  28.678  1.00  0.00     0.031 C 
ATOM     32  C   UNL A   1      47.173  28.455  28.565  1.00  0.00     0.029 A 
ATOM     33  C   UNL A   1      47.011  27.071  28.630  1.00  0.00     0.049 A 
ATOM     34  H   UNL A   1      47.189  26.009  30.449  1.00  0.00     0.167 HD
ATOM     35  C   UNL A   1      46.281  24.844  27.793  1.00  0.00     0.074 A 
ATOM     36  C   UNL A   1      45.700  24.224  28.982  1.00  0.00     0.031 C 
ATOM     37  C   UNL A   1      46.868  26.064  27.607  1.00  0.00     0.037 A 
BRANCH  24  38
ATOM     38  C   UNL A   1      45.359  26.980  32.760  1.00  0.00     0.057 A 
ATOM     39  C   UNL A   1      46.077  27.583  33.804  1.00  0.00     0.134 A 
ATOM     40  C   UNL A   1      45.081  25.607  32.932  1.00  0.00     0.134 A 
ATOM     41  F   UNL A   1      46.428  28.875  33.742  1.00  0.00    -0.206 F 
ATOM     42  C   UNL A   1      46.528  26.857  34.914  1.00  0.00     0.040 A 
ATOM     43  C   UNL A   1      45.480  24.885  34.058  1.00  0.00     0.040 A 
ATOM     44  F   UNL A   1      44.498  24.870  31.978  1.00  0.00    -0.206 F 
ATOM     45  C   UNL A   1      46.233  25.504  35.042  1.00  0.00     0.006 A 
ENDBRANCH  24  38
BRANCH  25  46
ATOM     46  C   UNL A   1      42.964  21.707  26.442  1.00  0.00     0.057 A 
ATOM     47  C   UNL A   1      43.438  20.730  25.563  1.00  0.00     0.134 A 
ATOM     48  C   UNL A   1      42.013  21.275  27.392  1.00  0.00     0.134 A 
ATOM     49  F   UNL A   1      44.385  21.032  24.664  1.00  0.00    -0.206 F 
ATOM     50  C   UNL A   1      42.982  19.405  25.612  1.00  0.00     0.040 A 
ATOM     51  C   UNL A   1      41.539  19.963  27.441  1.00  0.00     0.040 A 
ATOM     52  F   UNL A   1      41.566  22.095  28.355  1.00  0.00    -0.206 F 
ATOM     53  C   UNL A   1      42.030  19.019  26.552  1.00  0.00     0.006 A 
ENDBRANCH  25  46
BRANCH  37  54
ATOM     54  C   UNL A   1      47.121  26.508  26.191  1.00  0.00     0.057 A 
ATOM     55  C   UNL A   1      46.221  27.309  25.471  1.00  0.00     0.134 A 
ATOM     56  C   UNL A   1      48.371  26.286  25.610  1.00  0.00     0.134 A 
ATOM     57  F   UNL A   1      45.050  27.676  26.003  1.00  0.00    -0.206 F 
ATOM     58  C   UNL A   1      46.531  27.825  24.210  1.00  0.00     0.040 A 
ATOM     59  C   UNL A   1      48.707  26.823  24.364  1.00  0.00     0.040 A 
ATOM     60  F   UNL A   1      49.310  25.594  26.272  1.00  0.00    -0.206 F 
ATOM     61  C   UNL A   1      47.783  27.587  23.655  1.00  0.00     0.006 A 
ENDBRANCH  37  54
ENDBRANCH  11  12
ENDBRANCH   4   6
ENDBRANCH   3   4
ENDBRANCH   2   3
ENDBRANCH   1   2
BRANCH   1  62
ATOM     62  O   UNL A   1      32.637  29.659  26.741  1.00  0.00    -0.374 OA
BRANCH  62  63
ATOM     63  C   UNL A   1      32.175  29.728  25.388  1.00  0.00     0.202 C 
BRANCH  63  64
ATOM     64  C   UNL A   1      31.215  28.648  24.896  1.00  0.00     0.261 C 
BRANCH  64  65
ATOM     65  O   UNL A   1      31.938  27.469  24.504  1.00  0.00    -0.460 OA
BRANCH  65  66
ATOM     66  C   UNL A   1      31.225  26.338  24.278  1.00  0.00     0.342 C 
ATOM     67  O   UNL A   1      30.007  26.240  24.302  1.00  0.00    -0.246 OA
BRANCH  66  68
ATOM     68  C   UNL A   1      32.086  25.243  23.897  1.00  0.00     0.121 A 
ATOM     69  C   UNL A   1      32.690  24.999  22.623  1.00  0.00     0.181 A 
ATOM     70  C   UNL A   1      32.487  24.186  24.707  1.00  0.00     0.145 A 
ATOM     71  N   UNL A   1      33.473  23.906  22.688  1.00  0.00    -0.162 NA
ATOM     72  N   UNL A   1      33.148  23.325  23.859  1.00  0.00    -0.229 N 
BRANCH  69  73
ATOM     73  C   UNL A   1      32.588  25.788  21.337  1.00  0.00     0.436 C 
ATOM     74  F   UNL A   1      33.416  26.869  21.335  1.00  0.00    -0.164 F 
ATOM     75  F   UNL A   1      32.911  25.046  20.247  1.00  0.00    -0.164 F 
ATOM     76  F   UNL A   1      31.344  26.277  21.104  1.00  0.00    -0.164 F 
ENDBRANCH  69  73
BRANCH  70  77
ATOM     77  C   UNL A   1      32.286  23.808  26.133  1.00  0.00     0.365 C 
ATOM     78  F   UNL A   1      33.458  23.350  26.650  1.00  0.00    -0.181 F 
ATOM     79  F   UNL A   1      31.939  24.892  26.878  1.00  0.00    -0.181 F 
ATOM     80  Cl  UNL A   1      31.055  22.579  26.441  1.00  0.00    -0.040 Cl
ENDBRANCH  70  77
BRANCH  72  81
ATOM     81  C   UNL A   1      33.415  21.956  24.046  1.00  0.00     0.065 A 
ATOM     82  C   UNL A   1      34.647  21.566  24.573  1.00  0.00     0.028 A 
ATOM     83  C   UNL A   1      32.424  21.013  23.747  1.00  0.00     0.028 A 
ATOM     84  C   UNL A   1      34.839  20.227  24.908  1.00  0.00     0.002 A 
ATOM     85  C   UNL A   1      32.636  19.676  24.061  1.00  0.00     0.002 A 
ATOM     86  C   UNL A   1      33.831  19.289  24.665  1.00  0.00     0.000 A 
ENDBRANCH  72  81
ENDBRANCH  66  68
ENDBRANCH  65  66
ENDBRANCH  64  65
ENDBRANCH  63  64
ENDBRANCH  62  63
ENDBRANCH   1  62
TORSDOF 17
ENDMDL
MODEL 2
REMARK VINA RESULT:     -11.3      1.929      6.191
REMARK SMILES O=C(OCCOCCOC(=O)c1c(C(F)(F)F)nn(-c2ccccc2)c1C(F)(F)Cl)c1ccc(-c2c3nc(c(-c4c(F)cccc4F)c4ccc([nH]4)c(-c4c(F)cccc4F)c4nc(c(-c5c(F)cccc5F)c5ccc2[nH]5)C=C4)C=C3)cc1
REMARK SMILES IDX 5 1 4 2 3 3 2 4 1 5 31 6 32 7 84 8 33 9 83 10 34 11 35 12
REMARK SMILES IDX 36 13 77 14 37 15 82 16 76 17 78 18 38 19 81 20 75 21 74 22
REMARK SMILES IDX 39 24 65 25 48 26 64 27 49 28 52 29 63 30 79 31 50 32 51 33
REMARK SMILES IDX 62 35 80 36 53 37 40 38 41 39 46 40 42 41 43 42 45 43 47 44
REMARK SMILES IDX 44 45 66 46 67 47 72 48 68 49 69 50 71 51 73 52 70 53 54 54
REMARK SMILES IDX 55 55 60 56 56 57 57 58 59 59 61 60 58 61 6 62 7 63 8 64
REMARK SMILES IDX 9 65 10 66 11 67 12 68 13 69 26 70 18 71 19 72 14 73 15 74
REMARK SMILES IDX 16 75 17 76 27 77 28 78 29 79 30 80 20 81 21 82 25 83 22 84
REMARK SMILES IDX 24 85 23 86
REMARK H PARENT 78 23 52 34
REMARK Flexibility Score: inf
ROOT
ATOM      1  C   UNL A   1      33.411  30.126  27.150  1.00  0.00     0.202 C 
ENDROOT
BRANCH   1   2
ATOM      2  C   UNL A   1      34.071  31.274  27.933  1.00  0.00     0.261 C 
BRANCH   2   3
ATOM      3  O   UNL A   1      35.493  31.150  27.999  1.00  0.00    -0.460 OA
BRANCH   3   4
ATOM      4  C   UNL A   1      36.220  30.637  29.016  1.00  0.00     0.338 C 
ATOM      5  O   UNL A   1      35.952  30.997  30.161  1.00  0.00    -0.246 OA
BRANCH   4   6
ATOM      6  C   UNL A   1      37.338  29.661  28.826  1.00  0.00     0.060 A 
ATOM      7  C   UNL A   1      37.752  28.686  29.740  1.00  0.00     0.016 A 
ATOM      8  C   UNL A   1      38.049  29.786  27.622  1.00  0.00     0.016 A 
ATOM      9  C   UNL A   1      38.971  28.071  29.621  1.00  0.00     0.010 A 
ATOM     10  C   UNL A   1      39.241  29.112  27.450  1.00  0.00     0.010 A 
ATOM     11  C   UNL A   1      39.742  28.372  28.518  1.00  0.00    -0.014 A 
BRANCH  11  12
ATOM     12  C   UNL A   1      41.124  27.953  28.584  1.00  0.00     0.031 A 
ATOM     13  C   UNL A   1      41.415  26.606  28.018  1.00  0.00     0.074 A 
ATOM     14  C   UNL A   1      42.004  28.831  29.100  1.00  0.00     0.049 A 
ATOM     15  N   UNL A   1      42.117  25.641  28.522  1.00  0.00    -0.248 NA
ATOM     16  C   UNL A   1      40.725  26.249  26.763  1.00  0.00     0.031 C 
ATOM     17  C   UNL A   1      41.755  30.222  29.509  1.00  0.00     0.029 A 
ATOM     18  N   UNL A   1      43.346  28.721  29.222  1.00  0.00    -0.354 N 
ATOM     19  C   UNL A   1      42.123  24.638  27.554  1.00  0.00     0.074 A 
ATOM     20  C   UNL A   1      41.144  25.002  26.565  1.00  0.00     0.031 C 
ATOM     21  C   UNL A   1      42.925  30.890  29.542  1.00  0.00     0.029 A 
ATOM     22  C   UNL A   1      43.992  29.944  29.289  1.00  0.00     0.049 A 
ATOM     23  H   UNL A   1      43.818  27.858  29.260  1.00  0.00     0.167 HD
ATOM     24  C   UNL A   1      43.102  23.698  27.491  1.00  0.00     0.037 A 
ATOM     25  C   UNL A   1      45.289  30.152  28.965  1.00  0.00     0.037 A 
ATOM     26  C   UNL A   1      43.726  23.478  28.763  1.00  0.00     0.049 A 
ATOM     27  C   UNL A   1      45.966  28.828  29.009  1.00  0.00     0.074 A 
ATOM     28  C   UNL A   1      43.286  23.010  29.986  1.00  0.00     0.029 A 
ATOM     29  N   UNL A   1      44.942  24.066  29.008  1.00  0.00    -0.354 N 
ATOM     30  N   UNL A   1      46.126  28.134  30.104  1.00  0.00    -0.248 NA
ATOM     31  C   UNL A   1      46.029  28.058  27.772  1.00  0.00     0.031 C 
ATOM     32  C   UNL A   1      44.006  23.768  30.953  1.00  0.00     0.029 A 
ATOM     33  C   UNL A   1      44.865  24.622  30.260  1.00  0.00     0.049 A 
ATOM     34  H   UNL A   1      45.719  24.085  28.403  1.00  0.00     0.167 HD
ATOM     35  C   UNL A   1      45.926  26.810  29.731  1.00  0.00     0.074 A 
ATOM     36  C   UNL A   1      45.936  26.821  28.270  1.00  0.00     0.031 C 
ATOM     37  C   UNL A   1      45.485  25.874  30.623  1.00  0.00     0.037 A 
BRANCH  24  38
ATOM     38  C   UNL A   1      43.709  23.260  26.186  1.00  0.00     0.057 A 
ATOM     39  C   UNL A   1      43.707  21.903  25.830  1.00  0.00     0.134 A 
ATOM     40  C   UNL A   1      44.544  24.088  25.405  1.00  0.00     0.134 A 
ATOM     41  F   UNL A   1      42.976  21.012  26.518  1.00  0.00    -0.206 F 
ATOM     42  C   UNL A   1      44.516  21.401  24.803  1.00  0.00     0.040 A 
ATOM     43  C   UNL A   1      45.316  23.607  24.346  1.00  0.00     0.040 A 
ATOM     44  F   UNL A   1      44.734  25.383  25.688  1.00  0.00    -0.206 F 
ATOM     45  C   UNL A   1      45.326  22.252  24.060  1.00  0.00     0.006 A 
ENDBRANCH  24  38
BRANCH  25  46
ATOM     46  C   UNL A   1      45.796  31.322  28.214  1.00  0.00     0.057 A 
ATOM     47  C   UNL A   1      45.221  31.711  27.002  1.00  0.00     0.134 A 
ATOM     48  C   UNL A   1      46.734  32.218  28.769  1.00  0.00     0.134 A 
ATOM     49  F   UNL A   1      44.277  30.952  26.426  1.00  0.00    -0.206 F 
ATOM     50  C   UNL A   1      45.570  32.912  26.368  1.00  0.00     0.040 A 
ATOM     51  C   UNL A   1      47.102  33.409  28.141  1.00  0.00     0.040 A 
ATOM     52  F   UNL A   1      47.271  32.005  29.980  1.00  0.00    -0.206 F 
ATOM     53  C   UNL A   1      46.512  33.765  26.937  1.00  0.00     0.006 A 
ENDBRANCH  25  46
BRANCH  37  54
ATOM     54  C   UNL A   1      45.368  26.285  32.066  1.00  0.00     0.057 A 
ATOM     55  C   UNL A   1      44.195  26.830  32.612  1.00  0.00     0.134 A 
ATOM     56  C   UNL A   1      46.384  25.953  32.964  1.00  0.00     0.134 A 
ATOM     57  F   UNL A   1      43.124  27.063  31.844  1.00  0.00    -0.206 F 
ATOM     58  C   UNL A   1      44.057  27.079  33.979  1.00  0.00     0.040 A 
ATOM     59  C   UNL A   1      46.249  26.166  34.339  1.00  0.00     0.040 A 
ATOM     60  F   UNL A   1      47.505  25.358  32.526  1.00  0.00    -0.206 F 
ATOM     61  C   UNL A   1      45.086  26.740  34.850  1.00  0.00     0.006 A 
ENDBRANCH  37  54
ENDBRANCH  11  12
ENDBRANCH   4   6
ENDBRANCH   3   4
ENDBRANCH   2   3
ENDBRANCH   1   2
BRANCH   1  62
ATOM     62  O   UNL A   1      34.179  29.355  26.231  1.00  0.00    -0.374 OA
BRANCH  62  63
ATOM     63  C   UNL A   1      33.534  28.698  25.135  1.00  0.00     0.202 C 
BRANCH  63  64
ATOM     64  C   UNL A   1      32.226  27.958  25.405  1.00  0.00     0.261 C 
BRANCH  64  65
ATOM     65  O   UNL A   1      31.625  27.528  24.171  1.00  0.00    -0.460 OA
BRANCH  65  66
ATOM     66  C   UNL A   1      30.979  26.337  24.166  1.00  0.00     0.342 C 
ATOM     67  O   UNL A   1      29.771  26.175  24.275  1.00  0.00    -0.246 OA
BRANCH  66  68
ATOM     68  C   UNL A   1      31.890  25.247  23.911  1.00  0.00     0.121 A 
ATOM     69  C   UNL A   1      32.595  24.953  22.701  1.00  0.00     0.181 A 
ATOM     70  C   UNL A   1      32.250  24.244  24.804  1.00  0.00     0.145 A 
ATOM     71  N   UNL A   1      33.394  23.884  22.884  1.00  0.00    -0.162 NA
ATOM     72  N   UNL A   1      32.993  23.357  24.056  1.00  0.00    -0.229 N 
BRANCH  69  73
ATOM     73  C   UNL A   1      32.576  25.670  21.371  1.00  0.00     0.436 C 
ATOM     74  F   UNL A   1      33.399  26.755  21.365  1.00  0.00    -0.164 F 
ATOM     75  F   UNL A   1      32.972  24.873  20.346  1.00  0.00    -0.164 F 
ATOM     76  F   UNL A   1      31.349  26.138  21.031  1.00  0.00    -0.164 F 
ENDBRANCH  69  73
BRANCH  70  77
ATOM     77  C   UNL A   1      31.947  23.935  26.229  1.00  0.00     0.365 C 
ATOM     78  F   UNL A   1      33.012  23.301  26.791  1.00  0.00    -0.181 F 
ATOM     79  F   UNL A   1      31.764  25.077  26.945  1.00  0.00    -0.181 F 
ATOM     80  Cl  UNL A   1      30.521  22.934  26.517  1.00  0.00    -0.040 Cl
ENDBRANCH  70  77
BRANCH  72  81
ATOM     81  C   UNL A   1      33.275  22.007  24.336  1.00  0.00     0.065 A 
ATOM     82  C   UNL A   1      32.280  21.047  24.146  1.00  0.00     0.028 A 
ATOM     83  C   UNL A   1      34.562  21.643  24.753  1.00  0.00     0.028 A 
ATOM     84  C   UNL A   1      32.615  19.701  24.266  1.00  0.00     0.002 A 
ATOM     85  C   UNL A   1      34.879  20.298  24.895  1.00  0.00     0.002 A 
ATOM     86  C   UNL A   1      33.914  19.328  24.626  1.00  0.00     0.000 A 
ENDBRANCH  72  81
ENDBRANCH  66  68
ENDBRANCH  65  66
ENDBRANCH  64  65
ENDBRANCH  63  64
ENDBRANCH  62  63
ENDBRANCH   1  62
TORSDOF 17
ENDMDL
MODEL 3
REMARK VINA RESULT:     -11.2      4.601      8.848
REMARK SMILES O=C(OCCOCCOC(=O)c1c(C(F)(F)F)nn(-c2ccccc2)c1C(F)(F)Cl)c1ccc(-c2c3nc(c(-c4c(F)cccc4F)c4ccc([nH]4)c(-c4c(F)cccc4F)c4nc(c(-c5c(F)cccc5F)c5ccc2[nH]5)C=C4)C=C3)cc1
REMARK SMILES IDX 5 1 4 2 3 3 2 4 1 5 31 6 32 7 84 8 33 9 83 10 34 11 35 12
REMARK SMILES IDX 36 13 77 14 37 15 82 16 76 17 78 18 38 19 81 20 75 21 74 22
REMARK SMILES IDX 39 24 65 25 48 26 64 27 49 28 52 29 63 30 79 31 50 32 51 33
REMARK SMILES IDX 62 35 80 36 53 37 40 38 41 39 46 40 42 41 43 42 45 43 47 44
REMARK SMILES IDX 44 45 66 46 67 47 72 48 68 49 69 50 71 51 73 52 70 53 54 54
REMARK SMILES IDX 55 55 60 56 56 57 57 58 59 59 61 60 58 61 6 62 7 63 8 64
REMARK SMILES IDX 9 65 10 66 11 67 12 68 13 69 26 70 18 71 19 72 14 73 15 74
REMARK SMILES IDX 16 75 17 76 27 77 28 78 29 79 30 80 20 81 21 82 25 83 22 84
REMARK SMILES IDX 24 85 23 86
REMARK H PARENT 78 23 52 34
REMARK Flexibility Score: inf
ROOT
ATOM      1  C   UNL A   1      38.050  21.897  25.440  1.00  0.00     0.202 C 
ENDROOT
BRANCH   1   2
ATOM      2  C   UNL A   1      38.344  23.248  26.115  1.00  0.00     0.261 C 
BRANCH   2   3
ATOM      3  O   UNL A   1      39.635  23.289  26.727  1.00  0.00    -0.460 OA
BRANCH   3   4
ATOM      4  C   UNL A   1      40.455  24.358  26.828  1.00  0.00     0.338 C 
ATOM      5  O   UNL A   1      41.602  24.253  26.396  1.00  0.00    -0.246 OA
BRANCH   4   6
ATOM      6  C   UNL A   1      40.049  25.659  27.444  1.00  0.00     0.060 A 
ATOM      7  C   UNL A   1      40.289  26.934  26.921  1.00  0.00     0.016 A 
ATOM      8  C   UNL A   1      39.402  25.562  28.685  1.00  0.00     0.016 A 
ATOM      9  C   UNL A   1      40.175  28.056  27.702  1.00  0.00     0.010 A 
ATOM     10  C   UNL A   1      39.206  26.692  29.454  1.00  0.00     0.010 A 
ATOM     11  C   UNL A   1      39.726  27.900  28.995  1.00  0.00    -0.014 A 
BRANCH  11  12
ATOM     12  C   UNL A   1      39.913  29.038  29.867  1.00  0.00     0.031 A 
ATOM     13  C   UNL A   1      38.771  29.993  29.932  1.00  0.00     0.074 A 
ATOM     14  C   UNL A   1      41.066  29.094  30.559  1.00  0.00     0.049 A 
ATOM     15  N   UNL A   1      38.782  31.286  29.857  1.00  0.00    -0.248 NA
ATOM     16  C   UNL A   1      37.417  29.408  29.969  1.00  0.00     0.031 C 
ATOM     17  C   UNL A   1      42.126  28.075  30.627  1.00  0.00     0.029 A 
ATOM     18  N   UNL A   1      41.467  30.002  31.477  1.00  0.00    -0.354 N 
ATOM     19  C   UNL A   1      37.458  31.682  30.044  1.00  0.00     0.074 A 
ATOM     20  C   UNL A   1      36.649  30.495  29.966  1.00  0.00     0.031 C 
ATOM     21  C   UNL A   1      42.869  28.283  31.732  1.00  0.00     0.029 A 
ATOM     22  C   UNL A   1      42.417  29.509  32.356  1.00  0.00     0.049 A 
ATOM     23  H   UNL A   1      41.119  30.922  31.517  1.00  0.00     0.167 HD
ATOM     24  C   UNL A   1      37.129  32.919  30.499  1.00  0.00     0.037 A 
ATOM     25  C   UNL A   1      42.654  30.002  33.593  1.00  0.00     0.037 A 
ATOM     26  C   UNL A   1      38.139  33.893  30.202  1.00  0.00     0.049 A 
ATOM     27  C   UNL A   1      42.096  31.381  33.627  1.00  0.00     0.074 A 
ATOM     28  C   UNL A   1      38.670  34.408  29.036  1.00  0.00     0.029 A 
ATOM     29  N   UNL A   1      39.009  34.261  31.198  1.00  0.00    -0.354 N 
ATOM     30  N   UNL A   1      42.564  32.367  32.909  1.00  0.00    -0.248 NA
ATOM     31  C   UNL A   1      40.721  31.545  34.085  1.00  0.00     0.031 C 
ATOM     32  C   UNL A   1      40.050  34.616  29.317  1.00  0.00     0.029 A 
ATOM     33  C   UNL A   1      40.266  34.251  30.646  1.00  0.00     0.049 A 
ATOM     34  H   UNL A   1      38.777  34.488  32.127  1.00  0.00     0.167 HD
ATOM     35  C   UNL A   1      41.446  33.085  32.502  1.00  0.00     0.074 A 
ATOM     36  C   UNL A   1      40.346  32.569  33.313  1.00  0.00     0.031 C 
ATOM     37  C   UNL A   1      41.451  33.826  31.354  1.00  0.00     0.037 A 
BRANCH  24  38
ATOM     38  C   UNL A   1      36.049  33.135  31.524  1.00  0.00     0.057 A 
ATOM     39  C   UNL A   1      34.994  34.021  31.258  1.00  0.00     0.134 A 
ATOM     40  C   UNL A   1      36.165  32.720  32.868  1.00  0.00     0.134 A 
ATOM     41  F   UNL A   1      34.801  34.509  30.024  1.00  0.00    -0.206 F 
ATOM     42  C   UNL A   1      34.148  34.496  32.268  1.00  0.00     0.040 A 
ATOM     43  C   UNL A   1      35.296  33.147  33.873  1.00  0.00     0.040 A 
ATOM     44  F   UNL A   1      37.182  31.962  33.298  1.00  0.00    -0.206 F 
ATOM     45  C   UNL A   1      34.300  34.063  33.580  1.00  0.00     0.006 A 
ENDBRANCH  24  38
BRANCH  25  46
ATOM     46  C   UNL A   1      42.913  29.179  34.796  1.00  0.00     0.057 A 
ATOM     47  C   UNL A   1      42.047  28.149  35.171  1.00  0.00     0.134 A 
ATOM     48  C   UNL A   1      44.133  29.249  35.501  1.00  0.00     0.134 A 
ATOM     49  F   UNL A   1      40.890  27.967  34.519  1.00  0.00    -0.206 F 
ATOM     50  C   UNL A   1      42.366  27.251  36.199  1.00  0.00     0.040 A 
ATOM     51  C   UNL A   1      44.456  28.371  36.538  1.00  0.00     0.040 A 
ATOM     52  F   UNL A   1      45.088  30.127  35.160  1.00  0.00    -0.206 F 
ATOM     53  C   UNL A   1      43.572  27.360  36.885  1.00  0.00     0.006 A 
ENDBRANCH  25  46
BRANCH  37  54
ATOM     54  C   UNL A   1      42.755  33.965  30.617  1.00  0.00     0.057 A 
ATOM     55  C   UNL A   1      43.176  33.059  29.632  1.00  0.00     0.134 A 
ATOM     56  C   UNL A   1      43.511  35.130  30.765  1.00  0.00     0.134 A 
ATOM     57  F   UNL A   1      42.445  31.978  29.336  1.00  0.00    -0.206 F 
ATOM     58  C   UNL A   1      44.321  33.275  28.863  1.00  0.00     0.040 A 
ATOM     59  C   UNL A   1      44.642  35.376  29.980  1.00  0.00     0.040 A 
ATOM     60  F   UNL A   1      43.128  36.078  31.633  1.00  0.00    -0.206 F 
ATOM     61  C   UNL A   1      45.056  34.443  29.031  1.00  0.00     0.006 A 
ENDBRANCH  37  54
ENDBRANCH  11  12
ENDBRANCH   4   6
ENDBRANCH   3   4
ENDBRANCH   2   3
ENDBRANCH   1   2
BRANCH   1  62
ATOM     62  O   UNL A   1      37.100  21.820  24.381  1.00  0.00    -0.374 OA
BRANCH  62  63
ATOM     63  C   UNL A   1      35.741  21.473  24.664  1.00  0.00     0.202 C 
BRANCH  63  64
ATOM     64  C   UNL A   1      34.832  22.543  25.266  1.00  0.00     0.261 C 
BRANCH  64  65
ATOM     65  O   UNL A   1      33.459  22.118  25.230  1.00  0.00    -0.460 OA
BRANCH  65  66
ATOM     66  C   UNL A   1      32.667  22.622  24.252  1.00  0.00     0.342 C 
ATOM     67  O   UNL A   1      32.395  22.073  23.194  1.00  0.00    -0.246 OA
BRANCH  66  68
ATOM     68  C   UNL A   1      32.080  23.879  24.649  1.00  0.00     0.121 A 
ATOM     69  C   UNL A   1      31.128  24.117  25.691  1.00  0.00     0.181 A 
ATOM     70  C   UNL A   1      32.317  25.122  24.072  1.00  0.00     0.145 A 
ATOM     71  N   UNL A   1      30.873  25.436  25.787  1.00  0.00    -0.162 NA
ATOM     72  N   UNL A   1      31.411  25.968  24.673  1.00  0.00    -0.229 N 
BRANCH  69  73
ATOM     73  C   UNL A   1      30.468  23.143  26.640  1.00  0.00     0.436 C 
ATOM     74  F   UNL A   1      29.382  23.687  27.256  1.00  0.00    -0.164 F 
ATOM     75  F   UNL A   1      30.039  22.018  26.012  1.00  0.00    -0.164 F 
ATOM     76  F   UNL A   1      31.287  22.727  27.638  1.00  0.00    -0.164 F 
ENDBRANCH  69  73
BRANCH  70  77
ATOM     77  C   UNL A   1      33.203  25.636  22.990  1.00  0.00     0.365 C 
ATOM     78  F   UNL A   1      33.672  26.866  23.335  1.00  0.00    -0.181 F 
ATOM     79  F   UNL A   1      34.295  24.841  22.838  1.00  0.00    -0.181 F 
ATOM     80  Cl  UNL A   1      32.465  25.780  21.392  1.00  0.00    -0.040 Cl
ENDBRANCH  70  77
BRANCH  72  81
ATOM     81  C   UNL A   1      30.950  27.216  24.213  1.00  0.00     0.065 A 
ATOM     82  C   UNL A   1      29.959  27.258  23.231  1.00  0.00     0.028 A 
ATOM     83  C   UNL A   1      31.455  28.390  24.784  1.00  0.00     0.028 A 
ATOM     84  C   UNL A   1      29.394  28.488  22.903  1.00  0.00     0.002 A 
ATOM     85  C   UNL A   1      30.901  29.615  24.430  1.00  0.00     0.002 A 
ATOM     86  C   UNL A   1      29.854  29.659  23.511  1.00  0.00     0.000 A 
ENDBRANCH  72  81
ENDBRANCH  66  68
ENDBRANCH  65  66
ENDBRANCH  64  65
ENDBRANCH  63  64
ENDBRANCH  62  63
ENDBRANCH   1  62
TORSDOF 17
ENDMDL
