MODEL 1
REMARK VINA RESULT:     -11.3      0.000      0.000
REMARK SMILES CCCn1ncc(C(=O)N2CCC(C(=O)OCCOCCOC(=O)c3ccc(-c4c5nc(c(-c6c(F)cccc6F)c6ccc([nH]6)c(-c6c(F)cccc6F)c6nc(c(-c7c(F)cccc7F)c7ccc4[nH]7)C=C6)C=C5)cc3)CC2)c1C
REMARK SMILES IDX 18 1 17 2 16 3 14 4 15 5 13 6 8 7 9 8 10 9 11 10 80 11 12 12
REMARK SMILES IDX 79 13 7 14 4 15 5 16 81 17 6 18 82 19 3 20 2 21 1 22 19 23
REMARK SMILES IDX 20 24 21 25 22 26 23 27 24 28 25 29 26 30 78 31 27 32 77 33
REMARK SMILES IDX 28 34 29 35 30 36 71 37 31 38 76 39 70 40 72 41 32 42 75 43
REMARK SMILES IDX 69 44 68 45 33 47 59 48 42 49 58 50 43 51 46 52 57 53 73 54
REMARK SMILES IDX 44 55 45 56 56 58 74 59 47 60 34 61 35 62 40 63 36 64 37 65
REMARK SMILES IDX 39 66 41 67 38 68 60 69 61 70 66 71 62 72 63 73 65 74 67 75
REMARK SMILES IDX 64 76 48 77 49 78 54 79 50 80 51 81 53 82 55 83 52 84
REMARK H PARENT 72 46 46 57
REMARK Flexibility Score: inf
ROOT
ATOM      1  C   UNL A   1      39.544  21.755  26.119  1.00  0.00     0.202 C 
ENDROOT
BRANCH   1   2
ATOM      2  C   UNL A   1      38.313  21.180  25.423  1.00  0.00     0.261 C 
BRANCH   2   3
ATOM      3  O   UNL A   1      37.489  22.196  24.837  1.00  0.00    -0.463 OA
BRANCH   3   4
ATOM      4  C   UNL A   1      36.195  22.170  25.243  1.00  0.00     0.309 C 
ATOM      5  O   UNL A   1      35.794  21.698  26.299  1.00  0.00    -0.252 OA
BRANCH   4   6
ATOM      6  C   UNL A   1      35.253  22.798  24.247  1.00  0.00     0.103 C 
ATOM      7  C   UNL A   1      31.577  24.619  23.563  1.00  0.00     0.257 C 
ATOM      8  O   UNL A   1      30.650  23.858  23.836  1.00  0.00    -0.269 OA
ATOM      9  N   UNL A   1      32.879  24.154  23.405  1.00  0.00    -0.338 N 
ATOM     10  C   UNL A   1      33.099  22.788  22.951  1.00  0.00     0.120 C 
ATOM     11  C   UNL A   1      34.064  24.933  23.756  1.00  0.00     0.120 C 
ATOM     12  C   UNL A   1      33.985  22.002  23.910  1.00  0.00     0.037 C 
ATOM     13  C   UNL A   1      34.896  24.182  24.778  1.00  0.00     0.037 C 
BRANCH   7  14
ATOM     14  C   UNL A   1      31.350  26.033  23.290  1.00  0.00     0.080 A 
ATOM     15  N   UNL A   1      30.831  28.168  23.476  1.00  0.00    -0.269 N 
ATOM     16  N   UNL A   1      30.949  27.973  22.148  1.00  0.00    -0.180 NA
ATOM     17  C   UNL A   1      31.128  27.048  24.217  1.00  0.00     0.048 A 
ATOM     18  C   UNL A   1      31.187  26.671  22.041  1.00  0.00     0.149 A 
ATOM     19  C   UNL A   1      31.150  26.978  25.703  1.00  0.00     0.067 C 
BRANCH  15  20
ATOM     20  C   UNL A   1      30.334  29.459  23.916  1.00  0.00     0.144 C 
BRANCH  20  21
ATOM     21  C   UNL A   1      29.236  30.024  23.007  1.00  0.00     0.020 C 
ATOM     22  C   UNL A   1      28.590  31.286  23.560  1.00  0.00     0.006 C 
ENDBRANCH  20  21
ENDBRANCH  15  20
ENDBRANCH   7  14
ENDBRANCH   4   6
ENDBRANCH   3   4
ENDBRANCH   2   3
ENDBRANCH   1   2
BRANCH   1  23
ATOM     23  O   UNL A   1      40.094  21.069  27.241  1.00  0.00    -0.374 OA
BRANCH  23  24
ATOM     24  C   UNL A   1      41.490  20.800  27.341  1.00  0.00     0.202 C 
BRANCH  24  25
ATOM     25  C   UNL A   1      42.091  19.721  26.451  1.00  0.00     0.261 C 
BRANCH  25  26
ATOM     26  O   UNL A   1      42.615  20.298  25.266  1.00  0.00    -0.460 OA
BRANCH  26  27
ATOM     27  C   UNL A   1      43.952  20.152  25.131  1.00  0.00     0.338 C 
ATOM     28  O   UNL A   1      44.600  19.135  25.263  1.00  0.00    -0.246 OA
BRANCH  27  29
ATOM     29  C   UNL A   1      44.543  21.474  24.863  1.00  0.00     0.060 A 
ATOM     30  C   UNL A   1      45.643  21.765  25.666  1.00  0.00     0.016 A 
ATOM     31  C   UNL A   1      43.744  22.468  24.283  1.00  0.00     0.016 A 
ATOM     32  C   UNL A   1      45.661  22.999  26.257  1.00  0.00     0.010 A 
ATOM     33  C   UNL A   1      43.780  23.712  24.853  1.00  0.00     0.010 A 
ATOM     34  C   UNL A   1      44.629  23.886  25.940  1.00  0.00    -0.014 A 
BRANCH  34  35
ATOM     35  C   UNL A   1      44.430  25.020  26.803  1.00  0.00     0.031 A 
ATOM     36  C   UNL A   1      45.532  25.986  26.703  1.00  0.00     0.074 A 
ATOM     37  C   UNL A   1      43.317  25.165  27.542  1.00  0.00     0.049 A 
ATOM     38  N   UNL A   1      46.460  26.200  27.573  1.00  0.00    -0.248 NA
ATOM     39  C   UNL A   1      45.768  26.602  25.389  1.00  0.00     0.031 C 
ATOM     40  C   UNL A   1      42.087  24.366  27.553  1.00  0.00     0.029 A 
ATOM     41  N   UNL A   1      43.038  26.171  28.411  1.00  0.00    -0.354 N 
ATOM     42  C   UNL A   1      47.285  27.148  26.989  1.00  0.00     0.074 A 
ATOM     43  C   UNL A   1      46.953  27.178  25.589  1.00  0.00     0.031 C 
ATOM     44  C   UNL A   1      41.117  25.053  28.201  1.00  0.00     0.029 A 
ATOM     45  C   UNL A   1      41.692  26.266  28.750  1.00  0.00     0.049 A 
ATOM     46  H   UNL A   1      43.726  26.777  28.769  1.00  0.00     0.167 HD
ATOM     47  C   UNL A   1      47.978  28.037  27.746  1.00  0.00     0.037 A 
ATOM     48  C   UNL A   1      41.135  27.362  29.328  1.00  0.00     0.037 A 
ATOM     49  C   UNL A   1      48.043  27.623  29.124  1.00  0.00     0.049 A 
ATOM     50  C   UNL A   1      42.247  28.104  29.995  1.00  0.00     0.074 A 
ATOM     51  C   UNL A   1      48.581  26.531  29.779  1.00  0.00     0.029 A 
ATOM     52  N   UNL A   1      47.139  28.177  29.999  1.00  0.00    -0.354 N 
ATOM     53  N   UNL A   1      42.906  27.621  31.016  1.00  0.00    -0.248 NA
ATOM     54  C   UNL A   1      42.969  29.095  29.204  1.00  0.00     0.031 C 
ATOM     55  C   UNL A   1      47.633  26.205  30.793  1.00  0.00     0.029 A 
ATOM     56  C   UNL A   1      46.610  27.152  30.744  1.00  0.00     0.049 A 
ATOM     57  H   UNL A   1      46.913  29.132  30.077  1.00  0.00     0.167 HD
ATOM     58  C   UNL A   1      44.239  27.919  30.759  1.00  0.00     0.074 A 
ATOM     59  C   UNL A   1      44.210  28.873  29.651  1.00  0.00     0.031 C 
ATOM     60  C   UNL A   1      45.255  27.145  31.250  1.00  0.00     0.037 A 
BRANCH  47  61
ATOM     61  C   UNL A   1      48.243  29.447  27.309  1.00  0.00     0.057 A 
ATOM     62  C   UNL A   1      49.556  29.938  27.348  1.00  0.00     0.134 A 
ATOM     63  C   UNL A   1      47.236  30.419  27.119  1.00  0.00     0.134 A 
ATOM     64  F   UNL A   1      50.593  29.111  27.541  1.00  0.00    -0.206 F 
ATOM     65  C   UNL A   1      49.838  31.306  27.268  1.00  0.00     0.040 A 
ATOM     66  C   UNL A   1      47.512  31.777  26.980  1.00  0.00     0.040 A 
ATOM     67  F   UNL A   1      45.931  30.122  27.165  1.00  0.00    -0.206 F 
ATOM     68  C   UNL A   1      48.815  32.231  27.090  1.00  0.00     0.006 A 
ENDBRANCH  47  61
BRANCH  48  69
ATOM     69  C   UNL A   1      39.832  27.974  28.967  1.00  0.00     0.057 A 
ATOM     70  C   UNL A   1      38.787  28.094  29.893  1.00  0.00     0.134 A 
ATOM     71  C   UNL A   1      39.662  28.676  27.758  1.00  0.00     0.134 A 
ATOM     72  F   UNL A   1      38.874  27.511  31.096  1.00  0.00    -0.206 F 
ATOM     73  C   UNL A   1      37.642  28.865  29.629  1.00  0.00     0.040 A 
ATOM     74  C   UNL A   1      38.525  29.441  27.481  1.00  0.00     0.040 A 
ATOM     75  F   UNL A   1      40.631  28.714  26.833  1.00  0.00    -0.206 F 
ATOM     76  C   UNL A   1      37.511  29.544  28.421  1.00  0.00     0.006 A 
ENDBRANCH  48  69
BRANCH  60  77
ATOM     77  C   UNL A   1      44.897  26.035  32.203  1.00  0.00     0.057 A 
ATOM     78  C   UNL A   1      44.614  24.722  31.791  1.00  0.00     0.134 A 
ATOM     79  C   UNL A   1      45.016  26.250  33.577  1.00  0.00     0.134 A 
ATOM     80  F   UNL A   1      44.599  24.395  30.495  1.00  0.00    -0.206 F 
ATOM     81  C   UNL A   1      44.411  23.684  32.705  1.00  0.00     0.040 A 
ATOM     82  C   UNL A   1      44.846  25.215  34.502  1.00  0.00     0.040 A 
ATOM     83  F   UNL A   1      45.356  27.460  34.044  1.00  0.00    -0.206 F 
ATOM     84  C   UNL A   1      44.532  23.928  34.069  1.00  0.00     0.006 A 
ENDBRANCH  60  77
ENDBRANCH  34  35
ENDBRANCH  27  29
ENDBRANCH  26  27
ENDBRANCH  25  26
ENDBRANCH  24  25
ENDBRANCH  23  24
ENDBRANCH   1  23
TORSDOF 17
ENDMDL
MODEL 2
REMARK VINA RESULT:     -11.1      5.393     10.320
REMARK SMILES CCCn1ncc(C(=O)N2CCC(C(=O)OCCOCCOC(=O)c3ccc(-c4c5nc(c(-c6c(F)cccc6F)c6ccc([nH]6)c(-c6c(F)cccc6F)c6nc(c(-c7c(F)cccc7F)c7ccc4[nH]7)C=C6)C=C5)cc3)CC2)c1C
REMARK SMILES IDX 18 1 17 2 16 3 14 4 15 5 13 6 8 7 9 8 10 9 11 10 80 11 12 12
REMARK SMILES IDX 79 13 7 14 4 15 5 16 81 17 6 18 82 19 3 20 2 21 1 22 19 23
REMARK SMILES IDX 20 24 21 25 22 26 23 27 24 28 25 29 26 30 78 31 27 32 77 33
REMARK SMILES IDX 28 34 29 35 30 36 71 37 31 38 76 39 70 40 72 41 32 42 75 43
REMARK SMILES IDX 69 44 68 45 33 47 59 48 42 49 58 50 43 51 46 52 57 53 73 54
REMARK SMILES IDX 44 55 45 56 56 58 74 59 47 60 34 61 35 62 40 63 36 64 37 65
REMARK SMILES IDX 39 66 41 67 38 68 60 69 61 70 66 71 62 72 63 73 65 74 67 75
REMARK SMILES IDX 64 76 48 77 49 78 54 79 50 80 51 81 53 82 55 83 52 84
REMARK H PARENT 72 46 46 57
REMARK Flexibility Score: inf
ROOT
ATOM      1  C   UNL A   1      34.003  32.021  28.003  1.00  0.00     0.202 C 
ENDROOT
BRANCH   1   2
ATOM      2  C   UNL A   1      34.113  30.736  27.187  1.00  0.00     0.261 C 
BRANCH   2   3
ATOM      3  O   UNL A   1      32.922  29.942  27.250  1.00  0.00    -0.463 OA
BRANCH   3   4
ATOM      4  C   UNL A   1      32.009  30.225  26.287  1.00  0.00     0.309 C 
ATOM      5  O   UNL A   1      31.443  31.302  26.143  1.00  0.00    -0.252 OA
BRANCH   4   6
ATOM      6  C   UNL A   1      31.739  29.060  25.370  1.00  0.00     0.103 C 
ATOM      7  C   UNL A   1      33.308  25.996  23.036  1.00  0.00     0.257 C 
ATOM      8  O   UNL A   1      34.002  26.446  22.125  1.00  0.00    -0.269 OA
ATOM      9  N   UNL A   1      32.431  26.804  23.752  1.00  0.00    -0.338 N 
ATOM     10  C   UNL A   1      31.849  27.973  23.106  1.00  0.00     0.120 C 
ATOM     11  C   UNL A   1      32.115  26.605  25.164  1.00  0.00     0.120 C 
ATOM     12  C   UNL A   1      32.110  29.252  23.894  1.00  0.00     0.037 C 
ATOM     13  C   UNL A   1      32.461  27.851  25.956  1.00  0.00     0.037 C 
BRANCH   7  14
ATOM     14  C   UNL A   1      33.293  24.573  23.352  1.00  0.00     0.080 A 
ATOM     15  N   UNL A   1      33.816  22.562  24.092  1.00  0.00    -0.269 N 
ATOM     16  N   UNL A   1      32.789  22.345  23.248  1.00  0.00    -0.180 NA
ATOM     17  C   UNL A   1      34.119  23.896  24.245  1.00  0.00     0.048 A 
ATOM     18  C   UNL A   1      32.529  23.549  22.751  1.00  0.00     0.149 A 
ATOM     19  C   UNL A   1      35.156  24.445  25.159  1.00  0.00     0.067 C 
BRANCH  15  20
ATOM     20  C   UNL A   1      34.494  21.396  24.627  1.00  0.00     0.144 C 
BRANCH  20  21
ATOM     21  C   UNL A   1      33.651  20.625  25.648  1.00  0.00     0.020 C 
ATOM     22  C   UNL A   1      33.668  21.252  27.035  1.00  0.00     0.006 C 
ENDBRANCH  20  21
ENDBRANCH  15  20
ENDBRANCH   7  14
ENDBRANCH   4   6
ENDBRANCH   3   4
ENDBRANCH   2   3
ENDBRANCH   1   2
BRANCH   1  23
ATOM     23  O   UNL A   1      34.785  33.154  27.629  1.00  0.00    -0.374 OA
BRANCH  23  24
ATOM     24  C   UNL A   1      34.530  34.448  28.167  1.00  0.00     0.202 C 
BRANCH  24  25
ATOM     25  C   UNL A   1      33.499  34.587  29.279  1.00  0.00     0.261 C 
BRANCH  25  26
ATOM     26  O   UNL A   1      34.081  35.216  30.410  1.00  0.00    -0.460 OA
BRANCH  26  27
ATOM     27  C   UNL A   1      33.377  35.045  31.552  1.00  0.00     0.338 C 
ATOM     28  O   UNL A   1      32.224  35.360  31.763  1.00  0.00    -0.246 OA
BRANCH  27  29
ATOM     29  C   UNL A   1      34.270  34.466  32.570  1.00  0.00     0.060 A 
ATOM     30  C   UNL A   1      35.368  35.271  32.869  1.00  0.00     0.016 A 
ATOM     31  C   UNL A   1      34.274  33.078  32.759  1.00  0.00     0.016 A 
ATOM     32  C   UNL A   1      36.588  34.652  32.904  1.00  0.00     0.010 A 
ATOM     33  C   UNL A   1      35.492  32.459  32.824  1.00  0.00     0.010 A 
ATOM     34  C   UNL A   1      36.619  33.267  32.726  1.00  0.00    -0.014 A 
BRANCH  34  35
ATOM     35  C   UNL A   1      37.884  32.660  32.402  1.00  0.00     0.031 A 
ATOM     36  C   UNL A   1      38.789  32.629  33.558  1.00  0.00     0.074 A 
ATOM     37  C   UNL A   1      38.133  32.137  31.189  1.00  0.00     0.049 A 
ATOM     38  N   UNL A   1      39.831  33.364  33.750  1.00  0.00    -0.248 NA
ATOM     39  C   UNL A   1      38.347  31.871  34.738  1.00  0.00     0.031 C 
ATOM     40  C   UNL A   1      37.231  31.941  30.050  1.00  0.00     0.029 A 
ATOM     41  N   UNL A   1      39.293  31.574  30.764  1.00  0.00    -0.354 N 
ATOM     42  C   UNL A   1      40.299  33.000  35.002  1.00  0.00     0.074 A 
ATOM     43  C   UNL A   1      39.237  32.272  35.644  1.00  0.00     0.031 C 
ATOM     44  C   UNL A   1      37.810  31.095  29.165  1.00  0.00     0.029 A 
ATOM     45  C   UNL A   1      39.156  30.798  29.617  1.00  0.00     0.049 A 
ATOM     46  H   UNL A   1      40.153  31.703  31.226  1.00  0.00     0.167 HD
ATOM     47  C   UNL A   1      41.620  33.079  35.308  1.00  0.00     0.037 A 
ATOM     48  C   UNL A   1      40.081  29.895  29.202  1.00  0.00     0.037 A 
ATOM     49  C   UNL A   1      42.334  33.904  34.368  1.00  0.00     0.049 A 
ATOM     50  C   UNL A   1      41.380  30.302  29.818  1.00  0.00     0.074 A 
ATOM     51  C   UNL A   1      42.262  35.236  34.005  1.00  0.00     0.029 A 
ATOM     52  N   UNL A   1      43.007  33.273  33.349  1.00  0.00    -0.354 N 
ATOM     53  N   UNL A   1      41.993  31.414  29.504  1.00  0.00    -0.248 NA
ATOM     54  C   UNL A   1      41.698  29.770  31.139  1.00  0.00     0.031 C 
ATOM     55  C   UNL A   1      42.453  35.243  32.591  1.00  0.00     0.029 A 
ATOM     56  C   UNL A   1      42.697  33.931  32.184  1.00  0.00     0.049 A 
ATOM     57  H   UNL A   1      43.602  32.492  33.438  1.00  0.00     0.167 HD
ATOM     58  C   UNL A   1      42.436  31.936  30.715  1.00  0.00     0.074 A 
ATOM     59  C   UNL A   1      42.267  30.852  31.682  1.00  0.00     0.031 C 
ATOM     60  C   UNL A   1      42.608  33.281  30.896  1.00  0.00     0.037 A 
BRANCH  47  61
ATOM     61  C   UNL A   1      42.306  32.098  36.213  1.00  0.00     0.057 A 
ATOM     62  C   UNL A   1      43.073  32.579  37.284  1.00  0.00     0.134 A 
ATOM     63  C   UNL A   1      42.473  30.729  35.913  1.00  0.00     0.134 A 
ATOM     64  F   UNL A   1      43.011  33.868  37.648  1.00  0.00    -0.206 F 
ATOM     65  C   UNL A   1      43.986  31.768  37.965  1.00  0.00     0.040 A 
ATOM     66  C   UNL A   1      43.337  29.898  36.623  1.00  0.00     0.040 A 
ATOM     67  F   UNL A   1      41.893  30.147  34.855  1.00  0.00    -0.206 F 
ATOM     68  C   UNL A   1      44.125  30.425  37.632  1.00  0.00     0.006 A 
ENDBRANCH  47  61
BRANCH  48  69
ATOM     69  C   UNL A   1      39.803  28.533  28.684  1.00  0.00     0.057 A 
ATOM     70  C   UNL A   1      40.241  28.116  27.420  1.00  0.00     0.134 A 
ATOM     71  C   UNL A   1      39.299  27.518  29.521  1.00  0.00     0.134 A 
ATOM     72  F   UNL A   1      40.789  28.993  26.567  1.00  0.00    -0.206 F 
ATOM     73  C   UNL A   1      40.178  26.772  27.014  1.00  0.00     0.040 A 
ATOM     74  C   UNL A   1      39.225  26.179  29.127  1.00  0.00     0.040 A 
ATOM     75  F   UNL A   1      38.936  27.776  30.785  1.00  0.00    -0.206 F 
ATOM     76  C   UNL A   1      39.672  25.799  27.871  1.00  0.00     0.006 A 
ENDBRANCH  48  69
BRANCH  60  77
ATOM     77  C   UNL A   1      42.443  34.179  29.698  1.00  0.00     0.057 A 
ATOM     78  C   UNL A   1      41.229  34.796  29.354  1.00  0.00     0.134 A 
ATOM     79  C   UNL A   1      43.573  34.574  28.979  1.00  0.00     0.134 A 
ATOM     80  F   UNL A   1      40.117  34.572  30.061  1.00  0.00    -0.206 F 
ATOM     81  C   UNL A   1      41.136  35.725  28.313  1.00  0.00     0.040 A 
ATOM     82  C   UNL A   1      43.501  35.525  27.956  1.00  0.00     0.040 A 
ATOM     83  F   UNL A   1      44.781  34.084  29.298  1.00  0.00    -0.206 F 
ATOM     84  C   UNL A   1      42.278  36.097  27.612  1.00  0.00     0.006 A 
ENDBRANCH  60  77
ENDBRANCH  34  35
ENDBRANCH  27  29
ENDBRANCH  26  27
ENDBRANCH  25  26
ENDBRANCH  24  25
ENDBRANCH  23  24
ENDBRANCH   1  23
TORSDOF 17
ENDMDL
MODEL 3
REMARK VINA RESULT:     -11.0      1.065      1.681
REMARK SMILES CCCn1ncc(C(=O)N2CCC(C(=O)OCCOCCOC(=O)c3ccc(-c4c5nc(c(-c6c(F)cccc6F)c6ccc([nH]6)c(-c6c(F)cccc6F)c6nc(c(-c7c(F)cccc7F)c7ccc4[nH]7)C=C6)C=C5)cc3)CC2)c1C
REMARK SMILES IDX 18 1 17 2 16 3 14 4 15 5 13 6 8 7 9 8 10 9 11 10 80 11 12 12
REMARK SMILES IDX 79 13 7 14 4 15 5 16 81 17 6 18 82 19 3 20 2 21 1 22 19 23
REMARK SMILES IDX 20 24 21 25 22 26 23 27 24 28 25 29 26 30 78 31 27 32 77 33
REMARK SMILES IDX 28 34 29 35 30 36 71 37 31 38 76 39 70 40 72 41 32 42 75 43
REMARK SMILES IDX 69 44 68 45 33 47 59 48 42 49 58 50 43 51 46 52 57 53 73 54
REMARK SMILES IDX 44 55 45 56 56 58 74 59 47 60 34 61 35 62 40 63 36 64 37 65
REMARK SMILES IDX 39 66 41 67 38 68 60 69 61 70 66 71 62 72 63 73 65 74 67 75
REMARK SMILES IDX 64 76 48 77 49 78 54 79 50 80 51 81 53 82 55 83 52 84
REMARK H PARENT 72 46 46 57
REMARK Flexibility Score: inf
ROOT
ATOM      1  C   UNL A   1      39.607  20.926  26.053  1.00  0.00     0.202 C 
ENDROOT
BRANCH   1   2
ATOM      2  C   UNL A   1      38.507  21.947  25.770  1.00  0.00     0.261 C 
BRANCH   2   3
ATOM      3  O   UNL A   1      37.600  21.508  24.751  1.00  0.00    -0.463 OA
BRANCH   3   4
ATOM      4  C   UNL A   1      36.290  21.650  25.070  1.00  0.00     0.309 C 
ATOM      5  O   UNL A   1      35.628  20.850  25.720  1.00  0.00    -0.252 OA
BRANCH   4   6
ATOM      6  C   UNL A   1      35.689  22.927  24.539  1.00  0.00     0.103 C 
ATOM      7  C   UNL A   1      32.311  25.324  24.163  1.00  0.00     0.257 C 
ATOM      8  O   UNL A   1      31.426  24.744  23.536  1.00  0.00    -0.269 OA
ATOM      9  N   UNL A   1      33.627  24.872  24.153  1.00  0.00    -0.338 N 
ATOM     10  C   UNL A   1      34.123  24.143  22.993  1.00  0.00     0.120 C 
ATOM     11  C   UNL A   1      34.538  25.007  25.287  1.00  0.00     0.120 C 
ATOM     12  C   UNL A   1      34.699  22.784  23.375  1.00  0.00     0.037 C 
ATOM     13  C   UNL A   1      35.038  23.641  25.718  1.00  0.00     0.037 C 
BRANCH   7  14
ATOM     14  C   UNL A   1      32.054  26.572  24.870  1.00  0.00     0.080 A 
ATOM     15  N   UNL A   1      32.061  28.682  25.513  1.00  0.00    -0.269 N 
ATOM     16  N   UNL A   1      31.468  28.029  26.531  1.00  0.00    -0.180 NA
ATOM     17  C   UNL A   1      32.375  27.861  24.454  1.00  0.00     0.048 A 
ATOM     18  C   UNL A   1      31.535  26.754  26.170  1.00  0.00     0.149 A 
ATOM     19  C   UNL A   1      32.974  28.306  23.167  1.00  0.00     0.067 C 
BRANCH  15  20
ATOM     20  C   UNL A   1      32.360  30.089  25.709  1.00  0.00     0.144 C 
BRANCH  20  21
ATOM     21  C   UNL A   1      32.708  30.434  27.161  1.00  0.00     0.020 C 
ATOM     22  C   UNL A   1      34.206  30.448  27.431  1.00  0.00     0.006 C 
ENDBRANCH  20  21
ENDBRANCH  15  20
ENDBRANCH   7  14
ENDBRANCH   4   6
ENDBRANCH   3   4
ENDBRANCH   2   3
ENDBRANCH   1   2
BRANCH   1  23
ATOM     23  O   UNL A   1      40.490  21.140  27.151  1.00  0.00    -0.374 OA
BRANCH  23  24
ATOM     24  C   UNL A   1      41.727  20.440  27.263  1.00  0.00     0.202 C 
BRANCH  24  25
ATOM     25  C   UNL A   1      42.114  19.460  26.163  1.00  0.00     0.261 C 
BRANCH  25  26
ATOM     26  O   UNL A   1      42.730  20.150  25.088  1.00  0.00    -0.460 OA
BRANCH  26  27
ATOM     27  C   UNL A   1      44.077  20.026  25.060  1.00  0.00     0.338 C 
ATOM     28  O   UNL A   1      44.731  19.028  25.273  1.00  0.00    -0.246 OA
BRANCH  27  29
ATOM     29  C   UNL A   1      44.662  21.352  24.796  1.00  0.00     0.060 A 
ATOM     30  C   UNL A   1      45.771  21.639  25.590  1.00  0.00     0.016 A 
ATOM     31  C   UNL A   1      43.857  22.349  24.231  1.00  0.00     0.016 A 
ATOM     32  C   UNL A   1      45.792  22.869  26.190  1.00  0.00     0.010 A 
ATOM     33  C   UNL A   1      43.897  23.588  24.809  1.00  0.00     0.010 A 
ATOM     34  C   UNL A   1      44.755  23.756  25.889  1.00  0.00    -0.014 A 
BRANCH  34  35
ATOM     35  C   UNL A   1      44.563  24.883  26.763  1.00  0.00     0.031 A 
ATOM     36  C   UNL A   1      45.675  25.839  26.678  1.00  0.00     0.074 A 
ATOM     37  C   UNL A   1      43.447  25.033  27.498  1.00  0.00     0.049 A 
ATOM     38  N   UNL A   1      46.600  26.035  27.555  1.00  0.00    -0.248 NA
ATOM     39  C   UNL A   1      45.924  26.466  25.372  1.00  0.00     0.031 C 
ATOM     40  C   UNL A   1      42.210  24.246  27.494  1.00  0.00     0.029 A 
ATOM     41  N   UNL A   1      43.174  26.032  28.375  1.00  0.00    -0.354 N 
ATOM     42  C   UNL A   1      47.438  26.981  26.985  1.00  0.00     0.074 A 
ATOM     43  C   UNL A   1      47.114  27.027  25.584  1.00  0.00     0.031 C 
ATOM     44  C   UNL A   1      41.243  24.935  28.144  1.00  0.00     0.029 A 
ATOM     45  C   UNL A   1      41.827  26.137  28.708  1.00  0.00     0.049 A 
ATOM     46  H   UNL A   1      43.866  26.628  28.742  1.00  0.00     0.167 HD
ATOM     47  C   UNL A   1      48.136  27.854  27.755  1.00  0.00     0.037 A 
ATOM     48  C   UNL A   1      41.278  27.233  29.293  1.00  0.00     0.037 A 
ATOM     49  C   UNL A   1      48.190  27.426  29.129  1.00  0.00     0.049 A 
ATOM     50  C   UNL A   1      42.393  27.957  29.974  1.00  0.00     0.074 A 
ATOM     51  C   UNL A   1      48.713  26.322  29.776  1.00  0.00     0.029 A 
ATOM     52  N   UNL A   1      47.286  27.981  30.005  1.00  0.00    -0.354 N 
ATOM     53  N   UNL A   1      43.042  27.457  30.994  1.00  0.00    -0.248 NA
ATOM     54  C   UNL A   1      43.130  28.948  29.196  1.00  0.00     0.031 C 
ATOM     55  C   UNL A   1      47.756  25.996  30.781  1.00  0.00     0.029 A 
ATOM     56  C   UNL A   1      46.743  26.954  30.737  1.00  0.00     0.049 A 
ATOM     57  H   UNL A   1      47.069  28.938  30.091  1.00  0.00     0.167 HD
ATOM     58  C   UNL A   1      44.380  27.745  30.747  1.00  0.00     0.074 A 
ATOM     59  C   UNL A   1      44.367  28.710  29.648  1.00  0.00     0.031 C 
ATOM     60  C   UNL A   1      45.385  26.956  31.235  1.00  0.00     0.037 A 
BRANCH  47  61
ATOM     61  C   UNL A   1      48.418  29.267  27.333  1.00  0.00     0.057 A 
ATOM     62  C   UNL A   1      49.737  29.738  27.367  1.00  0.00     0.134 A 
ATOM     63  C   UNL A   1      47.423  30.255  27.165  1.00  0.00     0.134 A 
ATOM     64  F   UNL A   1      50.764  28.894  27.540  1.00  0.00    -0.206 F 
ATOM     65  C   UNL A   1      50.039  31.103  27.301  1.00  0.00     0.040 A 
ATOM     66  C   UNL A   1      47.718  31.611  27.041  1.00  0.00     0.040 A 
ATOM     67  F   UNL A   1      46.115  29.977  27.219  1.00  0.00    -0.206 F 
ATOM     68  C   UNL A   1      49.028  32.044  27.144  1.00  0.00     0.006 A 
ENDBRANCH  47  61
BRANCH  48  69
ATOM     69  C   UNL A   1      39.984  27.861  28.931  1.00  0.00     0.057 A 
ATOM     70  C   UNL A   1      38.941  28.000  29.858  1.00  0.00     0.134 A 
ATOM     71  C   UNL A   1      39.821  28.562  27.721  1.00  0.00     0.134 A 
ATOM     72  F   UNL A   1      39.021  27.418  31.063  1.00  0.00    -0.206 F 
ATOM     73  C   UNL A   1      37.806  28.784  29.592  1.00  0.00     0.040 A 
ATOM     74  C   UNL A   1      38.695  29.342  27.441  1.00  0.00     0.040 A 
ATOM     75  F   UNL A   1      40.791  28.584  26.795  1.00  0.00    -0.206 F 
ATOM     76  C   UNL A   1      37.684  29.462  28.383  1.00  0.00     0.006 A 
ENDBRANCH  48  69
BRANCH  60  77
ATOM     77  C   UNL A   1      45.010  25.840  32.175  1.00  0.00     0.057 A 
ATOM     78  C   UNL A   1      44.763  26.031  33.544  1.00  0.00     0.134 A 
ATOM     79  C   UNL A   1      44.716  24.578  31.654  1.00  0.00     0.134 A 
ATOM     80  F   UNL A   1      44.901  27.236  34.108  1.00  0.00    -0.206 F 
ATOM     81  C   UNL A   1      44.291  25.002  34.365  1.00  0.00     0.040 A 
ATOM     82  C   UNL A   1      44.215  23.548  32.457  1.00  0.00     0.040 A 
ATOM     83  F   UNL A   1      44.856  24.340  30.342  1.00  0.00    -0.206 F 
ATOM     84  C   UNL A   1      44.011  23.755  33.820  1.00  0.00     0.006 A 
ENDBRANCH  60  77
ENDBRANCH  34  35
ENDBRANCH  27  29
ENDBRANCH  26  27
ENDBRANCH  25  26
ENDBRANCH  24  25
ENDBRANCH  23  24
ENDBRANCH   1  23
TORSDOF 17
ENDMDL
