MODEL 1
REMARK VINA RESULT:     -11.3      0.000      0.000
REMARK SMILES O=C(OCCOCCOC(=O)c1ccc2c(=O)n(CCC[NH+]3CCOCC3)c(=O)[nH]c2c1)c1ccc(-c2c3nc(c(-c4c(F)cccc4F)c4ccc([nH]4)c(-c4c(F)cccc4F)c4nc(c(-c5c(F)cccc5F)c5ccc2[nH]5)C=C4)C=C3)cc1
REMARK SMILES IDX 7 1 6 2 5 3 4 4 3 5 2 6 1 7 33 8 34 9 86 10 35 11 85 12
REMARK SMILES IDX 36 13 37 14 38 15 79 16 39 17 84 18 78 19 80 20 40 21 83 22
REMARK SMILES IDX 77 23 76 24 41 26 67 27 50 28 66 29 51 30 54 31 65 32 81 33
REMARK SMILES IDX 52 34 53 35 64 37 82 38 55 39 42 40 43 41 48 42 44 43 45 44
REMARK SMILES IDX 47 45 49 46 46 47 68 48 69 49 74 50 70 51 71 52 73 53 75 54
REMARK SMILES IDX 72 55 56 56 57 57 62 58 58 59 59 60 61 61 63 62 60 63 8 64
REMARK SMILES IDX 9 65 10 66 11 67 12 68 13 69 32 70 14 71 31 72 15 73 30 74
REMARK SMILES IDX 16 75 28 76 17 78 18 79 29 80 19 81 20 82 21 83 22 84 23 85
REMARK SMILES IDX 27 86 24 88 26 89 25 90
REMARK H PARENT 80 25 54 36 30 77 22 87
REMARK Flexibility Score: inf
ROOT
ATOM      1  C   UNL A   1      40.567  21.477  27.476  1.00  0.00     0.202 C 
ENDROOT
BRANCH   1   2
ATOM      2  O   UNL A   1      41.970  21.212  27.383  1.00  0.00    -0.374 OA
BRANCH   2   3
ATOM      3  C   UNL A   1      42.450  20.801  26.105  1.00  0.00     0.202 C 
BRANCH   3   4
ATOM      4  C   UNL A   1      43.643  21.614  25.602  1.00  0.00     0.261 C 
BRANCH   4   5
ATOM      5  O   UNL A   1      43.213  22.876  25.072  1.00  0.00    -0.460 OA
BRANCH   5   6
ATOM      6  C   UNL A   1      43.732  24.109  25.251  1.00  0.00     0.338 C 
ATOM      7  O   UNL A   1      44.587  24.482  24.448  1.00  0.00    -0.246 OA
BRANCH   6   8
ATOM      8  C   UNL A   1      43.389  25.048  26.373  1.00  0.00     0.060 A 
ATOM      9  C   UNL A   1      42.274  24.689  27.159  1.00  0.00     0.016 A 
ATOM     10  C   UNL A   1      44.001  26.271  26.655  1.00  0.00     0.016 A 
ATOM     11  C   UNL A   1      41.781  25.532  28.159  1.00  0.00     0.010 A 
ATOM     12  C   UNL A   1      43.513  27.124  27.640  1.00  0.00     0.010 A 
ATOM     13  C   UNL A   1      42.401  26.760  28.394  1.00  0.00    -0.014 A 
BRANCH  13  14
ATOM     14  C   UNL A   1      42.018  27.630  29.514  1.00  0.00     0.031 A 
ATOM     15  C   UNL A   1      42.622  27.455  30.870  1.00  0.00     0.074 A 
ATOM     16  C   UNL A   1      40.975  28.452  29.308  1.00  0.00     0.049 A 
ATOM     17  N   UNL A   1      42.377  28.115  31.970  1.00  0.00    -0.248 NA
ATOM     18  C   UNL A   1      43.609  26.374  31.017  1.00  0.00     0.031 C 
ATOM     19  C   UNL A   1      40.248  28.572  28.040  1.00  0.00     0.029 A 
ATOM     20  N   UNL A   1      40.314  29.288  30.159  1.00  0.00    -0.354 N 
ATOM     21  C   UNL A   1      43.194  27.550  32.939  1.00  0.00     0.074 A 
ATOM     22  C   UNL A   1      43.898  26.452  32.309  1.00  0.00     0.031 C 
ATOM     23  C   UNL A   1      39.219  29.414  28.208  1.00  0.00     0.029 A 
ATOM     24  C   UNL A   1      39.223  29.889  29.585  1.00  0.00     0.049 A 
ATOM     25  H   UNL A   1      40.592  29.445  31.090  1.00  0.00     0.167 HD
ATOM     26  C   UNL A   1      43.344  27.935  34.230  1.00  0.00     0.037 A 
ATOM     27  C   UNL A   1      38.324  30.731  30.120  1.00  0.00     0.037 A 
ATOM     28  C   UNL A   1      42.580  29.001  34.829  1.00  0.00     0.049 A 
ATOM     29  C   UNL A   1      38.517  31.159  31.541  1.00  0.00     0.074 A 
ATOM     30  C   UNL A   1      42.705  29.563  36.087  1.00  0.00     0.029 A 
ATOM     31  N   UNL A   1      41.513  29.644  34.212  1.00  0.00    -0.354 N 
ATOM     32  N   UNL A   1      39.413  30.752  32.408  1.00  0.00    -0.248 NA
ATOM     33  C   UNL A   1      37.597  32.181  32.049  1.00  0.00     0.031 C 
ATOM     34  C   UNL A   1      41.677  30.502  36.249  1.00  0.00     0.029 A 
ATOM     35  C   UNL A   1      40.941  30.564  35.075  1.00  0.00     0.049 A 
ATOM     36  H   UNL A   1      41.208  29.470  33.291  1.00  0.00     0.167 HD
ATOM     37  C   UNL A   1      39.170  31.467  33.570  1.00  0.00     0.074 A 
ATOM     38  C   UNL A   1      38.060  32.357  33.280  1.00  0.00     0.031 C 
ATOM     39  C   UNL A   1      39.803  31.397  34.768  1.00  0.00     0.037 A 
BRANCH  26  40
ATOM     40  C   UNL A   1      44.360  27.197  35.061  1.00  0.00     0.057 A 
ATOM     41  C   UNL A   1      44.003  26.067  35.807  1.00  0.00     0.134 A 
ATOM     42  C   UNL A   1      45.699  27.611  35.131  1.00  0.00     0.134 A 
ATOM     43  F   UNL A   1      42.740  25.615  35.800  1.00  0.00    -0.206 F 
ATOM     44  C   UNL A   1      44.939  25.370  36.577  1.00  0.00     0.040 A 
ATOM     45  C   UNL A   1      46.650  26.907  35.875  1.00  0.00     0.040 A 
ATOM     46  F   UNL A   1      46.116  28.684  34.441  1.00  0.00    -0.206 F 
ATOM     47  C   UNL A   1      46.269  25.783  36.604  1.00  0.00     0.006 A 
ENDBRANCH  26  40
BRANCH  27  48
ATOM     48  C   UNL A   1      37.230  31.248  29.267  1.00  0.00     0.057 A 
ATOM     49  C   UNL A   1      37.270  32.543  28.736  1.00  0.00     0.134 A 
ATOM     50  C   UNL A   1      36.071  30.496  29.055  1.00  0.00     0.134 A 
ATOM     51  F   UNL A   1      38.345  33.322  28.929  1.00  0.00    -0.206 F 
ATOM     52  C   UNL A   1      36.186  33.078  28.039  1.00  0.00     0.040 A 
ATOM     53  C   UNL A   1      34.987  31.011  28.345  1.00  0.00     0.040 A 
ATOM     54  F   UNL A   1      35.978  29.250  29.543  1.00  0.00    -0.206 F 
ATOM     55  C   UNL A   1      35.039  32.310  27.843  1.00  0.00     0.006 A 
ENDBRANCH  27  48
BRANCH  39  56
ATOM     56  C   UNL A   1      39.265  32.286  35.849  1.00  0.00     0.057 A 
ATOM     57  C   UNL A   1      39.725  33.600  35.997  1.00  0.00     0.134 A 
ATOM     58  C   UNL A   1      38.278  31.838  36.737  1.00  0.00     0.134 A 
ATOM     59  F   UNL A   1      40.672  34.086  35.181  1.00  0.00    -0.206 F 
ATOM     60  C   UNL A   1      39.219  34.439  36.989  1.00  0.00     0.040 A 
ATOM     61  C   UNL A   1      37.744  32.678  37.714  1.00  0.00     0.040 A 
ATOM     62  F   UNL A   1      37.782  30.596  36.633  1.00  0.00    -0.206 F 
ATOM     63  C   UNL A   1      38.219  33.982  37.844  1.00  0.00     0.006 A 
ENDBRANCH  39  56
ENDBRANCH  13  14
ENDBRANCH   6   8
ENDBRANCH   5   6
ENDBRANCH   4   5
ENDBRANCH   3   4
ENDBRANCH   2   3
ENDBRANCH   1   2
BRANCH   1  64
ATOM     64  C   UNL A   1      40.032  21.817  26.081  1.00  0.00     0.261 C 
BRANCH  64  65
ATOM     65  O   UNL A   1      38.599  21.752  26.116  1.00  0.00    -0.460 OA
BRANCH  65  66
ATOM     66  C   UNL A   1      38.024  20.904  25.222  1.00  0.00     0.338 C 
ATOM     67  O   UNL A   1      38.304  19.745  25.011  1.00  0.00    -0.246 OA
BRANCH  66  68
ATOM     68  C   UNL A   1      36.800  21.580  24.722  1.00  0.00     0.062 A 
ATOM     69  C   UNL A   1      36.879  22.557  23.718  1.00  0.00     0.016 A 
ATOM     70  C   UNL A   1      35.581  21.321  25.368  1.00  0.00     0.042 A 
ATOM     71  C   UNL A   1      35.762  23.330  23.412  1.00  0.00     0.017 A 
ATOM     72  C   UNL A   1      34.462  22.080  25.033  1.00  0.00     0.056 A 
ATOM     73  C   UNL A   1      34.566  23.097  24.091  1.00  0.00     0.064 A 
ATOM     74  N   UNL A   1      33.228  21.843  25.630  1.00  0.00    -0.307 N 
ATOM     75  C   UNL A   1      33.376  23.920  23.824  1.00  0.00     0.264 A 
ATOM     76  C   UNL A   1      32.062  22.419  25.191  1.00  0.00     0.328 A 
ATOM     77  H   UNL A   1      33.188  21.233  26.402  1.00  0.00     0.171 HD
ATOM     78  O   UNL A   1      33.531  25.048  23.369  1.00  0.00    -0.268 OA
ATOM     79  N   UNL A   1      32.168  23.337  24.153  1.00  0.00    -0.260 N 
ATOM     80  O   UNL A   1      31.002  22.105  25.732  1.00  0.00    -0.248 OA
BRANCH  79  81
ATOM     81  C   UNL A   1      30.916  23.809  23.568  1.00  0.00     0.137 C 
BRANCH  81  82
ATOM     82  C   UNL A   1      30.377  25.227  23.871  1.00  0.00     0.083 C 
BRANCH  82  83
ATOM     83  C   UNL A   1      30.262  25.708  25.334  1.00  0.00     0.264 C 
BRANCH  83  84
ATOM     84  N   UNL A   1      30.781  27.044  25.530  1.00  0.00    -0.331 N 
ATOM     85  C   UNL A   1      31.757  27.213  26.611  1.00  0.00     0.291 C 
ATOM     86  C   UNL A   1      31.297  27.709  24.327  1.00  0.00     0.291 C 
ATOM     87  H   UNL A   1      29.919  27.511  25.814  1.00  0.00     0.348 HD
ATOM     88  C   UNL A   1      31.781  28.716  26.927  1.00  0.00     0.221 C 
ATOM     89  C   UNL A   1      31.383  29.213  24.642  1.00  0.00     0.221 C 
ATOM     90  O   UNL A   1      32.216  29.475  25.784  1.00  0.00    -0.370 OA
ENDBRANCH  83  84
ENDBRANCH  82  83
ENDBRANCH  81  82
ENDBRANCH  79  81
ENDBRANCH  66  68
ENDBRANCH  65  66
ENDBRANCH  64  65
ENDBRANCH   1  64
TORSDOF 18
ENDMDL
MODEL 2
REMARK VINA RESULT:     -11.2      0.787      1.575
REMARK SMILES O=C(OCCOCCOC(=O)c1ccc2c(=O)n(CCC[NH+]3CCOCC3)c(=O)[nH]c2c1)c1ccc(-c2c3nc(c(-c4c(F)cccc4F)c4ccc([nH]4)c(-c4c(F)cccc4F)c4nc(c(-c5c(F)cccc5F)c5ccc2[nH]5)C=C4)C=C3)cc1
REMARK SMILES IDX 7 1 6 2 5 3 4 4 3 5 2 6 1 7 33 8 34 9 86 10 35 11 85 12
REMARK SMILES IDX 36 13 37 14 38 15 79 16 39 17 84 18 78 19 80 20 40 21 83 22
REMARK SMILES IDX 77 23 76 24 41 26 67 27 50 28 66 29 51 30 54 31 65 32 81 33
REMARK SMILES IDX 52 34 53 35 64 37 82 38 55 39 42 40 43 41 48 42 44 43 45 44
REMARK SMILES IDX 47 45 49 46 46 47 68 48 69 49 74 50 70 51 71 52 73 53 75 54
REMARK SMILES IDX 72 55 56 56 57 57 62 58 58 59 59 60 61 61 63 62 60 63 8 64
REMARK SMILES IDX 9 65 10 66 11 67 12 68 13 69 32 70 14 71 31 72 15 73 30 74
REMARK SMILES IDX 16 75 28 76 17 78 18 79 29 80 19 81 20 82 21 83 22 84 23 85
REMARK SMILES IDX 27 86 24 88 26 89 25 90
REMARK H PARENT 80 25 54 36 30 77 22 87
REMARK Flexibility Score: inf
ROOT
ATOM      1  C   UNL A   1      40.234  21.053  26.801  1.00  0.00     0.202 C 
ENDROOT
BRANCH   1   2
ATOM      2  O   UNL A   1      41.591  21.507  26.849  1.00  0.00    -0.374 OA
BRANCH   2   3
ATOM      3  C   UNL A   1      42.540  20.736  26.117  1.00  0.00     0.202 C 
BRANCH   3   4
ATOM      4  C   UNL A   1      43.582  21.576  25.380  1.00  0.00     0.261 C 
BRANCH   4   5
ATOM      5  O   UNL A   1      43.067  22.882  25.084  1.00  0.00    -0.460 OA
BRANCH   5   6
ATOM      6  C   UNL A   1      43.629  24.095  25.277  1.00  0.00     0.338 C 
ATOM      7  O   UNL A   1      44.516  24.436  24.494  1.00  0.00    -0.246 OA
BRANCH   6   8
ATOM      8  C   UNL A   1      43.295  25.046  26.392  1.00  0.00     0.060 A 
ATOM      9  C   UNL A   1      42.226  24.665  27.228  1.00  0.00     0.016 A 
ATOM     10  C   UNL A   1      43.874  26.296  26.624  1.00  0.00     0.016 A 
ATOM     11  C   UNL A   1      41.741  25.513  28.229  1.00  0.00     0.010 A 
ATOM     12  C   UNL A   1      43.393  27.153  27.609  1.00  0.00     0.010 A 
ATOM     13  C   UNL A   1      42.324  26.766  28.413  1.00  0.00    -0.014 A 
BRANCH  13  14
ATOM     14  C   UNL A   1      41.954  27.647  29.530  1.00  0.00     0.031 A 
ATOM     15  C   UNL A   1      42.566  27.479  30.882  1.00  0.00     0.074 A 
ATOM     16  C   UNL A   1      40.914  28.472  29.324  1.00  0.00     0.049 A 
ATOM     17  N   UNL A   1      42.332  28.150  31.979  1.00  0.00    -0.248 NA
ATOM     18  C   UNL A   1      43.550  26.395  31.031  1.00  0.00     0.031 C 
ATOM     19  C   UNL A   1      40.178  28.586  28.060  1.00  0.00     0.029 A 
ATOM     20  N   UNL A   1      40.262  29.318  30.173  1.00  0.00    -0.354 N 
ATOM     21  C   UNL A   1      43.154  27.588  32.946  1.00  0.00     0.074 A 
ATOM     22  C   UNL A   1      43.848  26.482  32.320  1.00  0.00     0.031 C 
ATOM     23  C   UNL A   1      39.154  29.434  28.229  1.00  0.00     0.029 A 
ATOM     24  C   UNL A   1      39.171  29.920  29.602  1.00  0.00     0.049 A 
ATOM     25  H   UNL A   1      40.547  29.481  31.101  1.00  0.00     0.167 HD
ATOM     26  C   UNL A   1      43.315  27.982  34.234  1.00  0.00     0.037 A 
ATOM     27  C   UNL A   1      38.279  30.770  30.137  1.00  0.00     0.037 A 
ATOM     28  C   UNL A   1      42.560  29.057  34.829  1.00  0.00     0.049 A 
ATOM     29  C   UNL A   1      38.484  31.209  31.553  1.00  0.00     0.074 A 
ATOM     30  C   UNL A   1      42.696  29.628  36.082  1.00  0.00     0.029 A 
ATOM     31  N   UNL A   1      41.492  29.700  34.214  1.00  0.00    -0.354 N 
ATOM     32  N   UNL A   1      39.385  30.804  32.417  1.00  0.00    -0.248 NA
ATOM     33  C   UNL A   1      37.573  32.239  32.060  1.00  0.00     0.031 C 
ATOM     34  C   UNL A   1      41.675  30.574  36.244  1.00  0.00     0.029 A 
ATOM     35  C   UNL A   1      40.930  30.630  35.075  1.00  0.00     0.049 A 
ATOM     36  H   UNL A   1      41.179  29.521  33.297  1.00  0.00     0.167 HD
ATOM     37  C   UNL A   1      39.153  31.530  33.575  1.00  0.00     0.074 A 
ATOM     38  C   UNL A   1      38.045  32.423  33.285  1.00  0.00     0.031 C 
ATOM     39  C   UNL A   1      39.794  31.466  34.769  1.00  0.00     0.037 A 
BRANCH  26  40
ATOM     40  C   UNL A   1      44.333  27.246  35.063  1.00  0.00     0.057 A 
ATOM     41  C   UNL A   1      45.671  27.655  35.097  1.00  0.00     0.134 A 
ATOM     42  C   UNL A   1      43.991  26.119  35.825  1.00  0.00     0.134 A 
ATOM     43  F   UNL A   1      46.080  28.718  34.387  1.00  0.00    -0.206 F 
ATOM     44  C   UNL A   1      46.625  26.983  35.868  1.00  0.00     0.040 A 
ATOM     45  C   UNL A   1      44.928  25.455  36.621  1.00  0.00     0.040 A 
ATOM     46  F   UNL A   1      42.726  25.669  35.843  1.00  0.00    -0.206 F 
ATOM     47  C   UNL A   1      46.252  25.886  36.642  1.00  0.00     0.006 A 
ENDBRANCH  26  40
BRANCH  27  48
ATOM     48  C   UNL A   1      37.182  31.286  29.288  1.00  0.00     0.057 A 
ATOM     49  C   UNL A   1      37.223  32.578  28.750  1.00  0.00     0.134 A 
ATOM     50  C   UNL A   1      36.020  30.536  29.086  1.00  0.00     0.134 A 
ATOM     51  F   UNL A   1      38.300  33.356  28.933  1.00  0.00    -0.206 F 
ATOM     52  C   UNL A   1      36.136  33.113  28.056  1.00  0.00     0.040 A 
ATOM     53  C   UNL A   1      34.933  31.050  28.379  1.00  0.00     0.040 A 
ATOM     54  F   UNL A   1      35.926  29.293  29.581  1.00  0.00    -0.206 F 
ATOM     55  C   UNL A   1      34.986  32.347  27.871  1.00  0.00     0.006 A 
ENDBRANCH  27  48
BRANCH  39  56
ATOM     56  C   UNL A   1      39.268  32.366  35.847  1.00  0.00     0.057 A 
ATOM     57  C   UNL A   1      39.738  33.678  35.983  1.00  0.00     0.134 A 
ATOM     58  C   UNL A   1      38.283  31.931  36.743  1.00  0.00     0.134 A 
ATOM     59  F   UNL A   1      40.683  34.152  35.158  1.00  0.00    -0.206 F 
ATOM     60  C   UNL A   1      39.242  34.528  36.971  1.00  0.00     0.040 A 
ATOM     61  C   UNL A   1      37.760  32.781  37.718  1.00  0.00     0.040 A 
ATOM     62  F   UNL A   1      37.778  30.692  36.651  1.00  0.00    -0.206 F 
ATOM     63  C   UNL A   1      38.244  34.083  37.836  1.00  0.00     0.006 A 
ENDBRANCH  39  56
ENDBRANCH  13  14
ENDBRANCH   6   8
ENDBRANCH   5   6
ENDBRANCH   4   5
ENDBRANCH   3   4
ENDBRANCH   2   3
ENDBRANCH   1   2
BRANCH   1  64
ATOM     64  C   UNL A   1      39.401  22.059  26.002  1.00  0.00     0.261 C 
BRANCH  64  65
ATOM     65  O   UNL A   1      38.017  21.702  26.126  1.00  0.00    -0.460 OA
BRANCH  65  66
ATOM     66  C   UNL A   1      37.520  20.914  25.135  1.00  0.00     0.338 C 
ATOM     67  O   UNL A   1      37.959  19.859  24.734  1.00  0.00    -0.246 OA
BRANCH  66  68
ATOM     68  C   UNL A   1      36.175  21.448  24.802  1.00  0.00     0.062 A 
ATOM     69  C   UNL A   1      35.033  20.639  24.916  1.00  0.00     0.016 A 
ATOM     70  C   UNL A   1      36.083  22.731  24.240  1.00  0.00     0.042 A 
ATOM     71  C   UNL A   1      33.818  21.077  24.401  1.00  0.00     0.017 A 
ATOM     72  C   UNL A   1      34.855  23.171  23.754  1.00  0.00     0.056 A 
ATOM     73  C   UNL A   1      33.745  22.335  23.803  1.00  0.00     0.064 A 
ATOM     74  N   UNL A   1      34.711  24.444  23.211  1.00  0.00    -0.307 N 
ATOM     75  C   UNL A   1      32.487  22.816  23.211  1.00  0.00     0.264 A 
ATOM     76  C   UNL A   1      33.491  24.995  22.909  1.00  0.00     0.328 A 
ATOM     77  H   UNL A   1      35.522  24.974  23.034  1.00  0.00     0.171 HD
ATOM     78  O   UNL A   1      31.656  21.992  22.844  1.00  0.00    -0.268 OA
ATOM     79  N   UNL A   1      32.375  24.188  23.094  1.00  0.00    -0.260 N 
ATOM     80  O   UNL A   1      33.447  26.153  22.493  1.00  0.00    -0.248 OA
BRANCH  79  81
ATOM     81  C   UNL A   1      31.072  24.831  22.949  1.00  0.00     0.137 C 
BRANCH  81  82
ATOM     82  C   UNL A   1      30.227  25.213  24.187  1.00  0.00     0.083 C 
BRANCH  82  83
ATOM     83  C   UNL A   1      30.165  26.686  24.649  1.00  0.00     0.264 C 
BRANCH  83  84
ATOM     84  N   UNL A   1      31.474  27.272  24.838  1.00  0.00    -0.331 N 
ATOM     85  C   UNL A   1      31.568  28.726  24.673  1.00  0.00     0.291 C 
ATOM     86  C   UNL A   1      32.166  26.896  26.078  1.00  0.00     0.291 C 
ATOM     87  H   UNL A   1      31.960  26.839  24.052  1.00  0.00     0.348 HD
ATOM     88  C   UNL A   1      33.057  29.030  24.445  1.00  0.00     0.221 C 
ATOM     89  C   UNL A   1      33.653  27.246  25.890  1.00  0.00     0.221 C 
ATOM     90  O   UNL A   1      33.843  28.638  25.585  1.00  0.00    -0.370 OA
ENDBRANCH  83  84
ENDBRANCH  82  83
ENDBRANCH  81  82
ENDBRANCH  79  81
ENDBRANCH  66  68
ENDBRANCH  65  66
ENDBRANCH  64  65
ENDBRANCH   1  64
TORSDOF 18
ENDMDL
MODEL 3
REMARK VINA RESULT:     -11.1      1.594      6.765
REMARK SMILES O=C(OCCOCCOC(=O)c1ccc2c(=O)n(CCC[NH+]3CCOCC3)c(=O)[nH]c2c1)c1ccc(-c2c3nc(c(-c4c(F)cccc4F)c4ccc([nH]4)c(-c4c(F)cccc4F)c4nc(c(-c5c(F)cccc5F)c5ccc2[nH]5)C=C4)C=C3)cc1
REMARK SMILES IDX 7 1 6 2 5 3 4 4 3 5 2 6 1 7 33 8 34 9 86 10 35 11 85 12
REMARK SMILES IDX 36 13 37 14 38 15 79 16 39 17 84 18 78 19 80 20 40 21 83 22
REMARK SMILES IDX 77 23 76 24 41 26 67 27 50 28 66 29 51 30 54 31 65 32 81 33
REMARK SMILES IDX 52 34 53 35 64 37 82 38 55 39 42 40 43 41 48 42 44 43 45 44
REMARK SMILES IDX 47 45 49 46 46 47 68 48 69 49 74 50 70 51 71 52 73 53 75 54
REMARK SMILES IDX 72 55 56 56 57 57 62 58 58 59 59 60 61 61 63 62 60 63 8 64
REMARK SMILES IDX 9 65 10 66 11 67 12 68 13 69 32 70 14 71 31 72 15 73 30 74
REMARK SMILES IDX 16 75 28 76 17 78 18 79 29 80 19 81 20 82 21 83 22 84 23 85
REMARK SMILES IDX 27 86 24 88 26 89 25 90
REMARK H PARENT 80 25 54 36 30 77 22 87
REMARK Flexibility Score: inf
ROOT
ATOM      1  C   UNL A   1      45.113  19.929  24.459  1.00  0.00     0.202 C 
ENDROOT
BRANCH   1   2
ATOM      2  O   UNL A   1      45.677  20.846  25.401  1.00  0.00    -0.374 OA
BRANCH   2   3
ATOM      3  C   UNL A   1      44.924  22.030  25.656  1.00  0.00     0.202 C 
BRANCH   3   4
ATOM      4  C   UNL A   1      44.140  22.535  24.445  1.00  0.00     0.261 C 
BRANCH   4   5
ATOM      5  O   UNL A   1      43.574  23.827  24.707  1.00  0.00    -0.460 OA
BRANCH   5   6
ATOM      6  C   UNL A   1      44.146  24.928  25.239  1.00  0.00     0.338 C 
ATOM      7  O   UNL A   1      45.224  25.288  24.764  1.00  0.00    -0.246 OA
BRANCH   6   8
ATOM      8  C   UNL A   1      43.605  25.725  26.392  1.00  0.00     0.060 A 
ATOM      9  C   UNL A   1      42.669  25.064  27.213  1.00  0.00     0.016 A 
ATOM     10  C   UNL A   1      43.865  27.068  26.674  1.00  0.00     0.016 A 
ATOM     11  C   UNL A   1      42.004  25.729  28.248  1.00  0.00     0.010 A 
ATOM     12  C   UNL A   1      43.201  27.744  27.693  1.00  0.00     0.010 A 
ATOM     13  C   UNL A   1      42.267  27.078  28.482  1.00  0.00    -0.014 A 
BRANCH  13  14
ATOM     14  C   UNL A   1      41.706  27.798  29.634  1.00  0.00     0.031 A 
ATOM     15  C   UNL A   1      40.511  28.681  29.485  1.00  0.00     0.074 A 
ATOM     16  C   UNL A   1      42.427  27.772  30.768  1.00  0.00     0.049 A 
ATOM     17  N   UNL A   1      39.908  29.407  30.389  1.00  0.00    -0.248 NA
ATOM     18  C   UNL A   1      39.934  28.788  28.136  1.00  0.00     0.031 C 
ATOM     19  C   UNL A   1      43.684  27.036  30.939  1.00  0.00     0.029 A 
ATOM     20  N   UNL A   1      42.246  28.415  31.957  1.00  0.00    -0.354 N 
ATOM     21  C   UNL A   1      38.865  30.042  29.728  1.00  0.00     0.074 A 
ATOM     22  C   UNL A   1      38.955  29.661  28.335  1.00  0.00     0.031 C 
ATOM     23  C   UNL A   1      44.177  27.295  32.158  1.00  0.00     0.029 A 
ATOM     24  C   UNL A   1      43.269  28.205  32.845  1.00  0.00     0.049 A 
ATOM     25  H   UNL A   1      41.460  28.972  32.159  1.00  0.00     0.167 HD
ATOM     26  C   UNL A   1      37.916  30.854  30.256  1.00  0.00     0.037 A 
ATOM     27  C   UNL A   1      43.452  28.699  34.080  1.00  0.00     0.037 A 
ATOM     28  C   UNL A   1      37.898  31.249  31.643  1.00  0.00     0.049 A 
ATOM     29  C   UNL A   1      42.385  29.578  34.654  1.00  0.00     0.074 A 
ATOM     30  C   UNL A   1      36.943  31.975  32.331  1.00  0.00     0.029 A 
ATOM     31  N   UNL A   1      38.918  30.976  32.549  1.00  0.00    -0.354 N 
ATOM     32  N   UNL A   1      41.297  30.032  34.078  1.00  0.00    -0.248 NA
ATOM     33  C   UNL A   1      42.552  29.989  36.050  1.00  0.00     0.031 C 
ATOM     34  C   UNL A   1      37.412  32.189  33.634  1.00  0.00     0.029 A 
ATOM     35  C   UNL A   1      38.638  31.556  33.776  1.00  0.00     0.049 A 
ATOM     36  H   UNL A   1      39.723  30.446  32.347  1.00  0.00     0.167 HD
ATOM     37  C   UNL A   1      40.643  30.785  35.041  1.00  0.00     0.074 A 
ATOM     38  C   UNL A   1      41.447  30.695  36.248  1.00  0.00     0.031 C 
ATOM     39  C   UNL A   1      39.487  31.488  34.941  1.00  0.00     0.037 A 
BRANCH  26  40
ATOM     40  C   UNL A   1      36.841  31.357  29.331  1.00  0.00     0.057 A 
ATOM     41  C   UNL A   1      36.854  32.673  28.853  1.00  0.00     0.134 A 
ATOM     42  C   UNL A   1      35.779  30.539  28.916  1.00  0.00     0.134 A 
ATOM     43  F   UNL A   1      37.830  33.521  29.212  1.00  0.00    -0.206 F 
ATOM     44  C   UNL A   1      35.864  33.151  27.989  1.00  0.00     0.040 A 
ATOM     45  C   UNL A   1      34.799  30.995  28.031  1.00  0.00     0.040 A 
ATOM     46  F   UNL A   1      35.700  29.265  29.331  1.00  0.00    -0.206 F 
ATOM     47  C   UNL A   1      34.839  32.307  27.566  1.00  0.00     0.006 A 
ENDBRANCH  26  40
BRANCH  27  48
ATOM     48  C   UNL A   1      44.658  28.300  34.841  1.00  0.00     0.057 A 
ATOM     49  C   UNL A   1      44.647  27.191  35.695  1.00  0.00     0.134 A 
ATOM     50  C   UNL A   1      45.814  29.086  34.812  1.00  0.00     0.134 A 
ATOM     51  F   UNL A   1      43.556  26.415  35.786  1.00  0.00    -0.206 F 
ATOM     52  C   UNL A   1      45.740  26.887  36.509  1.00  0.00     0.040 A 
ATOM     53  C   UNL A   1      46.920  28.784  35.606  1.00  0.00     0.040 A 
ATOM     54  F   UNL A   1      45.878  30.161  34.014  1.00  0.00    -0.206 F 
ATOM     55  C   UNL A   1      46.881  27.687  36.466  1.00  0.00     0.006 A 
ENDBRANCH  27  48
BRANCH  39  56
ATOM     56  C   UNL A   1      39.065  32.238  36.169  1.00  0.00     0.057 A 
ATOM     57  C   UNL A   1      39.512  33.542  36.406  1.00  0.00     0.134 A 
ATOM     58  C   UNL A   1      38.201  31.664  37.112  1.00  0.00     0.134 A 
ATOM     59  F   UNL A   1      40.344  34.145  35.543  1.00  0.00    -0.206 F 
ATOM     60  C   UNL A   1      39.112  34.254  37.537  1.00  0.00     0.040 A 
ATOM     61  C   UNL A   1      37.772  32.376  38.232  1.00  0.00     0.040 A 
ATOM     62  F   UNL A   1      37.722  30.424  36.930  1.00  0.00    -0.206 F 
ATOM     63  C   UNL A   1      38.232  33.674  38.448  1.00  0.00     0.006 A 
ENDBRANCH  39  56
ENDBRANCH  13  14
ENDBRANCH   6   8
ENDBRANCH   5   6
ENDBRANCH   4   5
ENDBRANCH   3   4
ENDBRANCH   2   3
ENDBRANCH   1   2
BRANCH   1  64
ATOM     64  C   UNL A   1      44.343  18.844  25.220  1.00  0.00     0.261 C 
BRANCH  64  65
ATOM     65  O   UNL A   1      42.944  19.158  25.166  1.00  0.00    -0.460 OA
BRANCH  65  66
ATOM     66  C   UNL A   1      42.262  19.016  26.334  1.00  0.00     0.338 C 
ATOM     67  O   UNL A   1      42.673  18.576  27.385  1.00  0.00    -0.246 OA
BRANCH  66  68
ATOM     68  C   UNL A   1      40.980  19.747  26.169  1.00  0.00     0.062 A 
ATOM     69  C   UNL A   1      39.871  19.125  25.575  1.00  0.00     0.016 A 
ATOM     70  C   UNL A   1      40.940  21.111  26.495  1.00  0.00     0.042 A 
ATOM     71  C   UNL A   1      38.753  19.879  25.233  1.00  0.00     0.017 A 
ATOM     72  C   UNL A   1      39.804  21.851  26.175  1.00  0.00     0.056 A 
ATOM     73  C   UNL A   1      38.739  21.245  25.518  1.00  0.00     0.064 A 
ATOM     74  N   UNL A   1      39.710  23.200  26.500  1.00  0.00    -0.307 N 
ATOM     75  C   UNL A   1      37.592  22.082  25.136  1.00  0.00     0.264 A 
ATOM     76  C   UNL A   1      38.544  23.916  26.392  1.00  0.00     0.328 A 
ATOM     77  H   UNL A   1      40.517  23.664  26.821  1.00  0.00     0.171 HD
ATOM     78  O   UNL A   1      36.877  21.714  24.210  1.00  0.00    -0.268 OA
ATOM     79  N   UNL A   1      37.447  23.252  25.857  1.00  0.00    -0.260 N 
ATOM     80  O   UNL A   1      38.529  25.090  26.763  1.00  0.00    -0.248 OA
BRANCH  79  81
ATOM     81  C   UNL A   1      36.167  23.953  25.912  1.00  0.00     0.137 C 
BRANCH  81  82
ATOM     82  C   UNL A   1      34.869  23.216  26.320  1.00  0.00     0.083 C 
BRANCH  82  83
ATOM     83  C   UNL A   1      33.808  22.882  25.248  1.00  0.00     0.264 C 
BRANCH  83  84
ATOM     84  N   UNL A   1      32.491  23.376  25.587  1.00  0.00    -0.331 N 
ATOM     85  C   UNL A   1      32.030  23.121  26.955  1.00  0.00     0.291 C 
ATOM     86  C   UNL A   1      32.238  24.786  25.264  1.00  0.00     0.291 C 
ATOM     87  H   UNL A   1      31.935  22.795  24.958  1.00  0.00     0.348 HD
ATOM     88  C   UNL A   1      30.504  23.288  26.925  1.00  0.00     0.221 C 
ATOM     89  C   UNL A   1      30.712  24.989  25.284  1.00  0.00     0.221 C 
ATOM     90  O   UNL A   1      30.140  24.630  26.554  1.00  0.00    -0.370 OA
ENDBRANCH  83  84
ENDBRANCH  82  83
ENDBRANCH  81  82
ENDBRANCH  79  81
ENDBRANCH  66  68
ENDBRANCH  65  66
ENDBRANCH  64  65
ENDBRANCH   1  64
TORSDOF 18
ENDMDL
