MODEL 1
REMARK VINA RESULT:     -10.3      0.000      0.000
REMARK SMILES C[C@@](NC(=O)CCOC1CC[NH2+]CC1)(C(=O)OCCOCCOC(=O)c1ccc(-c2c3nc(c(-c4c(F)cccc4F)c4ccc([nH]4)c(-c4c(F)cccc4F)c4nc(c(-c5c(F)cccc5F)c5ccc2[nH]5)C=C4)C=C3)cc1)C(F)(F)F
REMARK SMILES IDX 18 1 17 2 15 3 16 4 2 5 1 6 3 7 4 8 5 10 6 11 7 12 8 13 9 14
REMARK SMILES IDX 10 15 14 16 11 17 13 18 12 19 80 22 81 23 82 24 83 25 19 26
REMARK SMILES IDX 20 27 21 28 22 29 23 30 24 31 25 32 26 33 27 34 79 35 28 36
REMARK SMILES IDX 78 37 29 38 30 39 31 40 72 41 32 42 77 43 71 44 73 45 33 46
REMARK SMILES IDX 76 47 70 48 69 49 34 51 60 52 43 53 59 54 44 55 47 56 58 57
REMARK SMILES IDX 74 58 45 59 46 60 57 62 75 63 48 64 35 65 36 66 41 67 37 68
REMARK SMILES IDX 38 69 40 70 42 71 39 72 61 73 62 74 67 75 63 76 64 77 66 78
REMARK SMILES IDX 68 79 65 80 49 81 50 82 55 83 51 84 52 85 54 86 56 87 53 88
REMARK H PARENT 3 9 12 20 12 21 73 50 47 61
REMARK Flexibility Score: inf
ROOT
ATOM      1  C   UNL A   1      31.737  27.393  26.587  1.00  0.00     0.261 C 
ENDROOT
BRANCH   1   2
ATOM      2  O   UNL A   1      32.061  27.498  25.194  1.00  0.00    -0.461 OA
BRANCH   2   3
ATOM      3  C   UNL A   1      31.078  27.347  24.268  1.00  0.00     0.341 C 
ATOM      4  O   UNL A   1      30.072  26.679  24.446  1.00  0.00    -0.249 OA
BRANCH   3   5
ATOM      5  C   UNL A   1      31.469  28.053  22.968  1.00  0.00     0.231 C 
ATOM      6  C   UNL A   1      32.703  28.946  23.125  1.00  0.00     0.058 C 
BRANCH   5   7
ATOM      7  N   UNL A   1      31.620  27.081  21.835  1.00  0.00    -0.333 N 
ATOM      8  C   UNL A   1      32.576  26.169  21.518  1.00  0.00     0.223 C 
ATOM      9  H   UNL A   1      30.875  27.109  21.192  1.00  0.00     0.164 HD
ATOM     10  O   UNL A   1      32.502  25.617  20.418  1.00  0.00    -0.275 OA
BRANCH   8  11
ATOM     11  C   UNL A   1      33.698  25.836  22.468  1.00  0.00     0.128 C 
BRANCH  11  12
ATOM     12  C   UNL A   1      33.658  24.365  22.862  1.00  0.00     0.170 C 
BRANCH  12  13
ATOM     13  O   UNL A   1      33.095  24.246  24.166  1.00  0.00    -0.377 OA
BRANCH  13  14
ATOM     14  C   UNL A   1      31.810  23.621  24.234  1.00  0.00     0.129 C 
ATOM     15  C   UNL A   1      31.446  23.444  25.701  1.00  0.00     0.093 C 
ATOM     16  C   UNL A   1      31.846  22.273  23.492  1.00  0.00     0.093 C 
ATOM     17  C   UNL A   1      32.288  22.348  26.342  1.00  0.00     0.263 C 
ATOM     18  C   UNL A   1      32.383  21.076  24.289  1.00  0.00     0.263 C 
ATOM     19  N   UNL A   1      32.007  21.067  25.700  1.00  0.00    -0.346 N 
ATOM     20  H   UNL A   1      31.009  20.872  25.773  1.00  0.00     0.346 HD
ATOM     21  H   UNL A   1      32.556  20.347  26.170  1.00  0.00     0.346 HD
ENDBRANCH  13  14
ENDBRANCH  12  13
ENDBRANCH  11  12
ENDBRANCH   8  11
ENDBRANCH   5   7
BRANCH   5  22
ATOM     22  C   UNL A   1      30.301  29.027  22.703  1.00  0.00     0.422 C 
ATOM     23  F   UNL A   1      30.018  29.795  23.779  1.00  0.00    -0.168 F 
ATOM     24  F   UNL A   1      30.632  29.880  21.694  1.00  0.00    -0.168 F 
ATOM     25  F   UNL A   1      29.171  28.404  22.314  1.00  0.00    -0.168 F 
ENDBRANCH   5  22
ENDBRANCH   3   5
ENDBRANCH   2   3
ENDBRANCH   1   2
BRANCH   1  26
ATOM     26  C   UNL A   1      32.350  28.612  27.285  1.00  0.00     0.202 C 
BRANCH  26  27
ATOM     27  O   UNL A   1      31.506  29.769  27.342  1.00  0.00    -0.374 OA
BRANCH  27  28
ATOM     28  C   UNL A   1      31.823  30.844  26.462  1.00  0.00     0.202 C 
BRANCH  28  29
ATOM     29  C   UNL A   1      31.530  32.260  26.981  1.00  0.00     0.261 C 
BRANCH  29  30
ATOM     30  O   UNL A   1      32.649  33.153  26.852  1.00  0.00    -0.460 OA
BRANCH  30  31
ATOM     31  C   UNL A   1      33.224  33.472  28.037  1.00  0.00     0.338 C 
ATOM     32  O   UNL A   1      32.732  34.099  28.958  1.00  0.00    -0.246 OA
BRANCH  31  33
ATOM     33  C   UNL A   1      34.546  32.842  28.167  1.00  0.00     0.060 A 
ATOM     34  C   UNL A   1      34.572  31.519  28.620  1.00  0.00     0.016 A 
ATOM     35  C   UNL A   1      35.727  33.581  28.057  1.00  0.00     0.016 A 
ATOM     36  C   UNL A   1      35.772  30.952  29.032  1.00  0.00     0.010 A 
ATOM     37  C   UNL A   1      36.936  33.006  28.472  1.00  0.00     0.010 A 
ATOM     38  C   UNL A   1      36.955  31.707  29.010  1.00  0.00    -0.014 A 
BRANCH  38  39
ATOM     39  C   UNL A   1      38.146  31.150  29.701  1.00  0.00     0.031 A 
ATOM     40  C   UNL A   1      38.391  31.486  31.149  1.00  0.00     0.074 A 
ATOM     41  C   UNL A   1      38.926  30.247  29.081  1.00  0.00     0.049 A 
ATOM     42  N   UNL A   1      39.291  31.005  31.971  1.00  0.00    -0.248 NA
ATOM     43  C   UNL A   1      37.503  32.490  31.755  1.00  0.00     0.031 C 
ATOM     44  C   UNL A   1      38.774  29.816  27.693  1.00  0.00     0.029 A 
ATOM     45  N   UNL A   1      39.985  29.512  29.549  1.00  0.00    -0.354 N 
ATOM     46  C   UNL A   1      39.066  31.632  33.191  1.00  0.00     0.074 A 
ATOM     47  C   UNL A   1      37.979  32.565  32.990  1.00  0.00     0.031 C 
ATOM     48  C   UNL A   1      39.699  28.880  27.424  1.00  0.00     0.029 A 
ATOM     49  C   UNL A   1      40.520  28.661  28.613  1.00  0.00     0.049 A 
ATOM     50  H   UNL A   1      40.330  29.587  30.469  1.00  0.00     0.167 HD
ATOM     51  C   UNL A   1      39.694  31.436  34.376  1.00  0.00     0.037 A 
ATOM     52  C   UNL A   1      41.554  27.804  28.704  1.00  0.00     0.037 A 
ATOM     53  C   UNL A   1      40.781  30.513  34.579  1.00  0.00     0.049 A 
ATOM     54  C   UNL A   1      42.269  27.641  30.019  1.00  0.00     0.074 A 
ATOM     55  C   UNL A   1      41.483  30.248  35.742  1.00  0.00     0.029 A 
ATOM     56  N   UNL A   1      41.324  29.704  33.593  1.00  0.00    -0.354 N 
ATOM     57  N   UNL A   1      42.031  28.226  31.169  1.00  0.00    -0.248 NA
ATOM     58  C   UNL A   1      43.387  26.689  30.051  1.00  0.00     0.031 C 
ATOM     59  C   UNL A   1      42.481  29.312  35.449  1.00  0.00     0.029 A 
ATOM     60  C   UNL A   1      42.366  28.954  34.116  1.00  0.00     0.049 A 
ATOM     61  H   UNL A   1      41.016  29.667  32.659  1.00  0.00     0.167 HD
ATOM     62  C   UNL A   1      42.955  27.700  32.062  1.00  0.00     0.074 A 
ATOM     63  C   UNL A   1      43.739  26.728  31.327  1.00  0.00     0.031 C 
ATOM     64  C   UNL A   1      43.143  27.996  33.372  1.00  0.00     0.037 A 
BRANCH  51  65
ATOM     65  C   UNL A   1      39.223  32.246  35.550  1.00  0.00     0.057 A 
ATOM     66  C   UNL A   1      39.650  33.565  35.755  1.00  0.00     0.134 A 
ATOM     67  C   UNL A   1      38.300  31.718  36.461  1.00  0.00     0.134 A 
ATOM     68  F   UNL A   1      40.543  34.127  34.926  1.00  0.00    -0.206 F 
ATOM     69  C   UNL A   1      39.190  34.323  36.834  1.00  0.00     0.040 A 
ATOM     70  C   UNL A   1      37.813  32.474  37.530  1.00  0.00     0.040 A 
ATOM     71  F   UNL A   1      37.845  30.464  36.321  1.00  0.00    -0.206 F 
ATOM     72  C   UNL A   1      38.263  33.778  37.721  1.00  0.00     0.006 A 
ENDBRANCH  51  65
BRANCH  52  73
ATOM     73  C   UNL A   1      41.987  27.036  27.508  1.00  0.00     0.057 A 
ATOM     74  C   UNL A   1      42.854  27.585  26.557  1.00  0.00     0.134 A 
ATOM     75  C   UNL A   1      41.515  25.737  27.279  1.00  0.00     0.134 A 
ATOM     76  F   UNL A   1      43.321  28.832  26.709  1.00  0.00    -0.206 F 
ATOM     77  C   UNL A   1      43.220  26.879  25.409  1.00  0.00     0.040 A 
ATOM     78  C   UNL A   1      41.895  25.009  26.150  1.00  0.00     0.040 A 
ATOM     79  F   UNL A   1      40.685  25.154  28.155  1.00  0.00    -0.206 F 
ATOM     80  C   UNL A   1      42.744  25.585  25.207  1.00  0.00     0.006 A 
ENDBRANCH  52  73
BRANCH  64  81
ATOM     81  C   UNL A   1      44.228  27.246  34.092  1.00  0.00     0.057 A 
ATOM     82  C   UNL A   1      45.536  27.742  34.182  1.00  0.00     0.134 A 
ATOM     83  C   UNL A   1      43.961  26.016  34.707  1.00  0.00     0.134 A 
ATOM     84  F   UNL A   1      45.861  28.908  33.604  1.00  0.00    -0.206 F 
ATOM     85  C   UNL A   1      46.547  27.024  34.823  1.00  0.00     0.040 A 
ATOM     86  C   UNL A   1      44.957  25.304  35.376  1.00  0.00     0.040 A 
ATOM     87  F   UNL A   1      42.728  25.489  34.670  1.00  0.00    -0.206 F 
ATOM     88  C   UNL A   1      46.257  25.802  35.427  1.00  0.00     0.006 A 
ENDBRANCH  64  81
ENDBRANCH  38  39
ENDBRANCH  31  33
ENDBRANCH  30  31
ENDBRANCH  29  30
ENDBRANCH  28  29
ENDBRANCH  27  28
ENDBRANCH  26  27
ENDBRANCH   1  26
TORSDOF 20
ENDMDL
MODEL 2
REMARK VINA RESULT:     -10.0      0.984      6.336
REMARK SMILES C[C@@](NC(=O)CCOC1CC[NH2+]CC1)(C(=O)OCCOCCOC(=O)c1ccc(-c2c3nc(c(-c4c(F)cccc4F)c4ccc([nH]4)c(-c4c(F)cccc4F)c4nc(c(-c5c(F)cccc5F)c5ccc2[nH]5)C=C4)C=C3)cc1)C(F)(F)F
REMARK SMILES IDX 18 1 17 2 15 3 16 4 2 5 1 6 3 7 4 8 5 10 6 11 7 12 8 13 9 14
REMARK SMILES IDX 10 15 14 16 11 17 13 18 12 19 80 22 81 23 82 24 83 25 19 26
REMARK SMILES IDX 20 27 21 28 22 29 23 30 24 31 25 32 26 33 27 34 79 35 28 36
REMARK SMILES IDX 78 37 29 38 30 39 31 40 72 41 32 42 77 43 71 44 73 45 33 46
REMARK SMILES IDX 76 47 70 48 69 49 34 51 60 52 43 53 59 54 44 55 47 56 58 57
REMARK SMILES IDX 74 58 45 59 46 60 57 62 75 63 48 64 35 65 36 66 41 67 37 68
REMARK SMILES IDX 38 69 40 70 42 71 39 72 61 73 62 74 67 75 63 76 64 77 66 78
REMARK SMILES IDX 68 79 65 80 49 81 50 82 55 83 51 84 52 85 54 86 56 87 53 88
REMARK H PARENT 3 9 12 20 12 21 73 50 47 61
REMARK Flexibility Score: inf
ROOT
ATOM      1  C   UNL A   1      31.613  27.455  26.535  1.00  0.00     0.261 C 
ENDROOT
BRANCH   1   2
ATOM      2  O   UNL A   1      31.950  27.630  25.153  1.00  0.00    -0.461 OA
BRANCH   2   3
ATOM      3  C   UNL A   1      31.020  27.358  24.200  1.00  0.00     0.341 C 
ATOM      4  O   UNL A   1      30.070  26.611  24.370  1.00  0.00    -0.249 OA
BRANCH   3   5
ATOM      5  C   UNL A   1      31.397  28.049  22.888  1.00  0.00     0.231 C 
ATOM      6  C   UNL A   1      32.612  28.971  23.028  1.00  0.00     0.058 C 
BRANCH   5   7
ATOM      7  N   UNL A   1      31.569  27.059  21.773  1.00  0.00    -0.333 N 
ATOM      8  C   UNL A   1      32.534  26.148  21.484  1.00  0.00     0.223 C 
ATOM      9  H   UNL A   1      30.834  27.073  21.119  1.00  0.00     0.164 HD
ATOM     10  O   UNL A   1      32.479  25.578  20.392  1.00  0.00    -0.275 OA
BRANCH   8  11
ATOM     11  C   UNL A   1      33.644  25.836  22.456  1.00  0.00     0.128 C 
BRANCH  11  12
ATOM     12  C   UNL A   1      33.252  24.690  23.380  1.00  0.00     0.170 C 
BRANCH  12  13
ATOM     13  O   UNL A   1      34.423  23.975  23.762  1.00  0.00    -0.377 OA
BRANCH  13  14
ATOM     14  C   UNL A   1      34.938  24.274  25.063  1.00  0.00     0.129 C 
ATOM     15  C   UNL A   1      36.323  23.653  25.179  1.00  0.00     0.093 C 
ATOM     16  C   UNL A   1      33.981  23.731  26.140  1.00  0.00     0.093 C 
ATOM     17  C   UNL A   1      36.232  22.137  25.292  1.00  0.00     0.263 C 
ATOM     18  C   UNL A   1      34.143  22.248  26.503  1.00  0.00     0.263 C 
ATOM     19  N   UNL A   1      35.523  21.772  26.515  1.00  0.00    -0.346 N 
ATOM     20  H   UNL A   1      36.006  22.185  27.313  1.00  0.00     0.346 HD
ATOM     21  H   UNL A   1      35.507  20.755  26.584  1.00  0.00     0.346 HD
ENDBRANCH  13  14
ENDBRANCH  12  13
ENDBRANCH  11  12
ENDBRANCH   8  11
ENDBRANCH   5   7
BRANCH   5  22
ATOM     22  C   UNL A   1      30.208  28.992  22.604  1.00  0.00     0.422 C 
ATOM     23  F   UNL A   1      29.090  28.317  22.252  1.00  0.00    -0.168 F 
ATOM     24  F   UNL A   1      29.898  29.694  23.729  1.00  0.00    -0.168 F 
ATOM     25  F   UNL A   1      30.474  29.907  21.651  1.00  0.00    -0.168 F 
ENDBRANCH   5  22
ENDBRANCH   3   5
ENDBRANCH   2   3
ENDBRANCH   1   2
BRANCH   1  26
ATOM     26  C   UNL A   1      32.211  28.642  27.299  1.00  0.00     0.202 C 
BRANCH  26  27
ATOM     27  O   UNL A   1      31.408  29.829  27.303  1.00  0.00    -0.374 OA
BRANCH  27  28
ATOM     28  C   UNL A   1      31.777  30.862  26.391  1.00  0.00     0.202 C 
BRANCH  28  29
ATOM     29  C   UNL A   1      31.447  32.300  26.819  1.00  0.00     0.261 C 
BRANCH  29  30
ATOM     30  O   UNL A   1      32.554  33.204  26.665  1.00  0.00    -0.460 OA
BRANCH  30  31
ATOM     31  C   UNL A   1      33.068  33.634  27.843  1.00  0.00     0.338 C 
ATOM     32  O   UNL A   1      32.550  34.386  28.650  1.00  0.00    -0.246 OA
BRANCH  31  33
ATOM     33  C   UNL A   1      34.344  32.965  28.138  1.00  0.00     0.060 A 
ATOM     34  C   UNL A   1      34.289  31.595  28.407  1.00  0.00     0.016 A 
ATOM     35  C   UNL A   1      35.520  33.688  28.353  1.00  0.00     0.016 A 
ATOM     36  C   UNL A   1      35.391  30.954  28.961  1.00  0.00     0.010 A 
ATOM     37  C   UNL A   1      36.631  33.039  28.909  1.00  0.00     0.010 A 
ATOM     38  C   UNL A   1      36.552  31.680  29.264  1.00  0.00    -0.014 A 
BRANCH  38  39
ATOM     39  C   UNL A   1      37.592  31.013  30.089  1.00  0.00     0.031 A 
ATOM     40  C   UNL A   1      38.549  30.045  29.443  1.00  0.00     0.074 A 
ATOM     41  C   UNL A   1      37.766  31.370  31.374  1.00  0.00     0.049 A 
ATOM     42  N   UNL A   1      39.605  29.460  29.950  1.00  0.00    -0.248 NA
ATOM     43  C   UNL A   1      38.288  29.696  28.037  1.00  0.00     0.031 C 
ATOM     44  C   UNL A   1      36.926  32.317  32.105  1.00  0.00     0.029 A 
ATOM     45  N   UNL A   1      38.723  30.995  32.283  1.00  0.00    -0.354 N 
ATOM     46  C   UNL A   1      40.142  28.689  28.926  1.00  0.00     0.074 A 
ATOM     47  C   UNL A   1      39.269  28.842  27.782  1.00  0.00     0.031 C 
ATOM     48  C   UNL A   1      37.413  32.461  33.349  1.00  0.00     0.029 A 
ATOM     49  C   UNL A   1      38.585  31.601  33.507  1.00  0.00     0.049 A 
ATOM     50  H   UNL A   1      39.440  30.352  32.077  1.00  0.00     0.167 HD
ATOM     51  C   UNL A   1      41.270  27.938  28.929  1.00  0.00     0.037 A 
ATOM     52  C   UNL A   1      39.319  31.477  34.629  1.00  0.00     0.037 A 
ATOM     53  C   UNL A   1      42.140  27.779  30.066  1.00  0.00     0.049 A 
ATOM     54  C   UNL A   1      40.540  30.596  34.622  1.00  0.00     0.074 A 
ATOM     55  C   UNL A   1      43.302  27.035  30.167  1.00  0.00     0.029 A 
ATOM     56  N   UNL A   1      41.939  28.372  31.303  1.00  0.00    -0.354 N 
ATOM     57  N   UNL A   1      41.047  29.892  33.639  1.00  0.00    -0.248 NA
ATOM     58  C   UNL A   1      41.297  30.506  35.878  1.00  0.00     0.031 C 
ATOM     59  C   UNL A   1      43.781  27.142  31.478  1.00  0.00     0.029 A 
ATOM     60  C   UNL A   1      42.945  27.996  32.179  1.00  0.00     0.049 A 
ATOM     61  H   UNL A   1      41.191  28.972  31.527  1.00  0.00     0.167 HD
ATOM     62  C   UNL A   1      42.189  29.290  34.151  1.00  0.00     0.074 A 
ATOM     63  C   UNL A   1      42.316  29.737  35.523  1.00  0.00     0.031 C 
ATOM     64  C   UNL A   1      43.054  28.441  33.544  1.00  0.00     0.037 A 
BRANCH  51  65
ATOM     65  C   UNL A   1      41.628  27.221  27.658  1.00  0.00     0.057 A 
ATOM     66  C   UNL A   1      41.242  25.894  27.427  1.00  0.00     0.134 A 
ATOM     67  C   UNL A   1      42.326  27.877  26.637  1.00  0.00     0.134 A 
ATOM     68  F   UNL A   1      40.582  25.204  28.369  1.00  0.00    -0.206 F 
ATOM     69  C   UNL A   1      41.555  25.240  26.233  1.00  0.00     0.040 A 
ATOM     70  C   UNL A   1      42.622  27.242  25.429  1.00  0.00     0.040 A 
ATOM     71  F   UNL A   1      42.720  29.151  26.790  1.00  0.00    -0.206 F 
ATOM     72  C   UNL A   1      42.241  25.918  25.227  1.00  0.00     0.006 A 
ENDBRANCH  51  65
BRANCH  52  73
ATOM     73  C   UNL A   1      38.914  32.199  35.862  1.00  0.00     0.057 A 
ATOM     74  C   UNL A   1      38.156  31.579  36.862  1.00  0.00     0.134 A 
ATOM     75  C   UNL A   1      39.258  33.544  36.054  1.00  0.00     0.134 A 
ATOM     76  F   UNL A   1      37.778  30.300  36.726  1.00  0.00    -0.206 F 
ATOM     77  C   UNL A   1      37.736  32.274  37.998  1.00  0.00     0.040 A 
ATOM     78  C   UNL A   1      38.868  34.243  37.197  1.00  0.00     0.040 A 
ATOM     79  F   UNL A   1      39.985  34.194  35.135  1.00  0.00    -0.206 F 
ATOM     80  C   UNL A   1      38.097  33.609  38.169  1.00  0.00     0.006 A 
ENDBRANCH  52  73
BRANCH  64  81
ATOM     81  C   UNL A   1      44.220  27.957  34.360  1.00  0.00     0.057 A 
ATOM     82  C   UNL A   1      44.160  26.773  35.106  1.00  0.00     0.134 A 
ATOM     83  C   UNL A   1      45.420  28.682  34.395  1.00  0.00     0.134 A 
ATOM     84  F   UNL A   1      43.038  26.038  35.126  1.00  0.00    -0.206 F 
ATOM     85  C   UNL A   1      45.236  26.346  35.888  1.00  0.00     0.040 A 
ATOM     86  C   UNL A   1      46.511  28.250  35.149  1.00  0.00     0.040 A 
ATOM     87  F   UNL A   1      45.550  29.818  33.694  1.00  0.00    -0.206 F 
ATOM     88  C   UNL A   1      46.418  27.085  35.908  1.00  0.00     0.006 A 
ENDBRANCH  64  81
ENDBRANCH  38  39
ENDBRANCH  31  33
ENDBRANCH  30  31
ENDBRANCH  29  30
ENDBRANCH  28  29
ENDBRANCH  27  28
ENDBRANCH  26  27
ENDBRANCH   1  26
TORSDOF 20
ENDMDL
MODEL 3
REMARK VINA RESULT:      -9.9      1.903      3.682
REMARK SMILES C[C@@](NC(=O)CCOC1CC[NH2+]CC1)(C(=O)OCCOCCOC(=O)c1ccc(-c2c3nc(c(-c4c(F)cccc4F)c4ccc([nH]4)c(-c4c(F)cccc4F)c4nc(c(-c5c(F)cccc5F)c5ccc2[nH]5)C=C4)C=C3)cc1)C(F)(F)F
REMARK SMILES IDX 18 1 17 2 15 3 16 4 2 5 1 6 3 7 4 8 5 10 6 11 7 12 8 13 9 14
REMARK SMILES IDX 10 15 14 16 11 17 13 18 12 19 80 22 81 23 82 24 83 25 19 26
REMARK SMILES IDX 20 27 21 28 22 29 23 30 24 31 25 32 26 33 27 34 79 35 28 36
REMARK SMILES IDX 78 37 29 38 30 39 31 40 72 41 32 42 77 43 71 44 73 45 33 46
REMARK SMILES IDX 76 47 70 48 69 49 34 51 60 52 43 53 59 54 44 55 47 56 58 57
REMARK SMILES IDX 74 58 45 59 46 60 57 62 75 63 48 64 35 65 36 66 41 67 37 68
REMARK SMILES IDX 38 69 40 70 42 71 39 72 61 73 62 74 67 75 63 76 64 77 66 78
REMARK SMILES IDX 68 79 65 80 49 81 50 82 55 83 51 84 52 85 54 86 56 87 53 88
REMARK H PARENT 3 9 12 20 12 21 73 50 47 61
REMARK Flexibility Score: inf
ROOT
ATOM      1  C   UNL A   1      33.404  27.374  26.150  1.00  0.00     0.261 C 
ENDROOT
BRANCH   1   2
ATOM      2  O   UNL A   1      33.091  25.979  26.036  1.00  0.00    -0.461 OA
BRANCH   2   3
ATOM      3  C   UNL A   1      33.480  25.298  24.926  1.00  0.00     0.341 C 
ATOM      4  O   UNL A   1      34.637  25.225  24.543  1.00  0.00    -0.249 OA
BRANCH   3   5
ATOM      5  C   UNL A   1      32.256  24.730  24.204  1.00  0.00     0.231 C 
ATOM      6  C   UNL A   1      30.979  24.811  25.045  1.00  0.00     0.058 C 
BRANCH   5   7
ATOM      7  N   UNL A   1      32.077  25.352  22.849  1.00  0.00    -0.333 N 
ATOM      8  C   UNL A   1      31.459  26.484  22.425  1.00  0.00     0.223 C 
ATOM      9  H   UNL A   1      32.493  24.834  22.123  1.00  0.00     0.164 HD
ATOM     10  O   UNL A   1      31.338  26.652  21.209  1.00  0.00    -0.275 OA
BRANCH   8  11
ATOM     11  C   UNL A   1      30.929  27.509  23.396  1.00  0.00     0.128 C 
BRANCH  11  12
ATOM     12  C   UNL A   1      29.708  28.219  22.825  1.00  0.00     0.170 C 
BRANCH  12  13
ATOM     13  O   UNL A   1      29.779  29.604  23.149  1.00  0.00    -0.377 OA
BRANCH  13  14
ATOM     14  C   UNL A   1      28.526  30.252  23.388  1.00  0.00     0.129 C 
ATOM     15  C   UNL A   1      27.648  30.054  22.161  1.00  0.00     0.093 C 
ATOM     16  C   UNL A   1      28.758  31.745  23.683  1.00  0.00     0.093 C 
ATOM     17  C   UNL A   1      28.145  30.898  20.994  1.00  0.00     0.263 C 
ATOM     18  C   UNL A   1      28.909  32.660  22.460  1.00  0.00     0.263 C 
ATOM     19  N   UNL A   1      28.049  32.315  21.332  1.00  0.00    -0.346 N 
ATOM     20  H   UNL A   1      27.083  32.533  21.575  1.00  0.00     0.346 HD
ATOM     21  H   UNL A   1      28.353  32.857  20.523  1.00  0.00     0.346 HD
ENDBRANCH  13  14
ENDBRANCH  12  13
ENDBRANCH  11  12
ENDBRANCH   8  11
ENDBRANCH   5   7
BRANCH   5  22
ATOM     22  C   UNL A   1      32.559  23.222  24.079  1.00  0.00     0.422 C 
ATOM     23  F   UNL A   1      33.088  22.708  25.213  1.00  0.00    -0.168 F 
ATOM     24  F   UNL A   1      31.405  22.538  23.846  1.00  0.00    -0.168 F 
ATOM     25  F   UNL A   1      33.383  22.931  23.053  1.00  0.00    -0.168 F 
ENDBRANCH   5  22
ENDBRANCH   3   5
ENDBRANCH   2   3
ENDBRANCH   1   2
BRANCH   1  26
ATOM     26  C   UNL A   1      32.358  27.996  27.082  1.00  0.00     0.202 C 
BRANCH  26  27
ATOM     27  O   UNL A   1      31.452  28.913  26.455  1.00  0.00    -0.374 OA
BRANCH  27  28
ATOM     28  C   UNL A   1      32.026  30.047  25.809  1.00  0.00     0.202 C 
BRANCH  28  29
ATOM     29  C   UNL A   1      31.780  31.409  26.475  1.00  0.00     0.261 C 
BRANCH  29  30
ATOM     30  O   UNL A   1      32.504  31.575  27.707  1.00  0.00    -0.460 OA
BRANCH  30  31
ATOM     31  C   UNL A   1      33.379  32.610  27.683  1.00  0.00     0.338 C 
ATOM     32  O   UNL A   1      33.124  33.799  27.622  1.00  0.00    -0.246 OA
BRANCH  31  33
ATOM     33  C   UNL A   1      34.758  32.137  27.876  1.00  0.00     0.060 A 
ATOM     34  C   UNL A   1      34.925  30.775  28.144  1.00  0.00     0.016 A 
ATOM     35  C   UNL A   1      35.829  33.026  28.002  1.00  0.00     0.016 A 
ATOM     36  C   UNL A   1      36.148  30.307  28.609  1.00  0.00     0.010 A 
ATOM     37  C   UNL A   1      37.062  32.551  28.469  1.00  0.00     0.010 A 
ATOM     38  C   UNL A   1      37.211  31.198  28.824  1.00  0.00    -0.014 A 
BRANCH  38  39
ATOM     39  C   UNL A   1      38.398  30.696  29.565  1.00  0.00     0.031 A 
ATOM     40  C   UNL A   1      38.593  31.083  31.008  1.00  0.00     0.074 A 
ATOM     41  C   UNL A   1      39.219  29.798  28.994  1.00  0.00     0.049 A 
ATOM     42  N   UNL A   1      39.482  30.652  31.868  1.00  0.00    -0.248 NA
ATOM     43  C   UNL A   1      37.659  32.078  31.559  1.00  0.00     0.031 C 
ATOM     44  C   UNL A   1      39.119  29.322  27.616  1.00  0.00     0.029 A 
ATOM     45  N   UNL A   1      40.286  29.109  29.513  1.00  0.00    -0.354 N 
ATOM     46  C   UNL A   1      39.206  31.309  33.062  1.00  0.00     0.074 A 
ATOM     47  C   UNL A   1      38.098  32.203  32.803  1.00  0.00     0.031 C 
ATOM     48  C   UNL A   1      40.077  28.406  27.400  1.00  0.00     0.029 A 
ATOM     49  C   UNL A   1      40.870  28.246  28.618  1.00  0.00     0.049 A 
ATOM     50  H   UNL A   1      40.602  29.221  30.438  1.00  0.00     0.167 HD
ATOM     51  C   UNL A   1      39.805  31.166  34.269  1.00  0.00     0.037 A 
ATOM     52  C   UNL A   1      41.925  27.422  28.763  1.00  0.00     0.037 A 
ATOM     53  C   UNL A   1      40.911  30.281  34.530  1.00  0.00     0.049 A 
ATOM     54  C   UNL A   1      42.607  27.320  30.102  1.00  0.00     0.074 A 
ATOM     55  C   UNL A   1      41.588  30.072  35.718  1.00  0.00     0.029 A 
ATOM     56  N   UNL A   1      41.504  29.459  33.584  1.00  0.00    -0.354 N 
ATOM     57  N   UNL A   1      42.320  27.931  31.226  1.00  0.00    -0.248 NA
ATOM     58  C   UNL A   1      43.750  26.401  30.192  1.00  0.00     0.031 C 
ATOM     59  C   UNL A   1      42.620  29.156  35.482  1.00  0.00     0.029 A 
ATOM     60  C   UNL A   1      42.552  28.755  34.158  1.00  0.00     0.049 A 
ATOM     61  H   UNL A   1      41.224  29.386  32.643  1.00  0.00     0.167 HD
ATOM     62  C   UNL A   1      43.233  27.459  32.159  1.00  0.00     0.074 A 
ATOM     63  C   UNL A   1      44.064  26.489  31.476  1.00  0.00     0.031 C 
ATOM     64  C   UNL A   1      43.376  27.799  33.464  1.00  0.00     0.037 A 
BRANCH  51  65
ATOM     65  C   UNL A   1      39.279  31.996  35.404  1.00  0.00     0.057 A 
ATOM     66  C   UNL A   1      39.694  33.320  35.605  1.00  0.00     0.134 A 
ATOM     67  C   UNL A   1      38.314  31.484  36.281  1.00  0.00     0.134 A 
ATOM     68  F   UNL A   1      40.624  33.868  34.808  1.00  0.00    -0.206 F 
ATOM     69  C   UNL A   1      39.183  34.096  36.647  1.00  0.00     0.040 A 
ATOM     70  C   UNL A   1      37.777  32.258  37.312  1.00  0.00     0.040 A 
ATOM     71  F   UNL A   1      37.869  30.226  36.143  1.00  0.00    -0.206 F 
ATOM     72  C   UNL A   1      38.216  33.567  37.500  1.00  0.00     0.006 A 
ENDBRANCH  51  65
BRANCH  52  73
ATOM     73  C   UNL A   1      42.412  26.632  27.604  1.00  0.00     0.057 A 
ATOM     74  C   UNL A   1      43.303  27.172  26.669  1.00  0.00     0.134 A 
ATOM     75  C   UNL A   1      41.971  25.320  27.391  1.00  0.00     0.134 A 
ATOM     76  F   UNL A   1      43.745  28.430  26.805  1.00  0.00    -0.206 F 
ATOM     77  C   UNL A   1      43.722  26.444  25.553  1.00  0.00     0.040 A 
ATOM     78  C   UNL A   1      42.403  24.570  26.296  1.00  0.00     0.040 A 
ATOM     79  F   UNL A   1      41.119  24.744  28.252  1.00  0.00    -0.206 F 
ATOM     80  C   UNL A   1      43.274  25.137  25.368  1.00  0.00     0.006 A 
ENDBRANCH  52  73
BRANCH  64  81
ATOM     81  C   UNL A   1      44.461  27.103  34.236  1.00  0.00     0.057 A 
ATOM     82  C   UNL A   1      44.236  25.888  34.897  1.00  0.00     0.134 A 
ATOM     83  C   UNL A   1      45.749  27.651  34.315  1.00  0.00     0.134 A 
ATOM     84  F   UNL A   1      43.023  25.316  34.871  1.00  0.00    -0.206 F 
ATOM     85  C   UNL A   1      45.239  25.263  35.640  1.00  0.00     0.040 A 
ATOM     86  C   UNL A   1      46.767  27.021  35.030  1.00  0.00     0.040 A 
ATOM     87  F   UNL A   1      46.037  28.805  33.696  1.00  0.00    -0.206 F 
ATOM     88  C   UNL A   1      46.511  25.828  35.705  1.00  0.00     0.006 A 
ENDBRANCH  64  81
ENDBRANCH  38  39
ENDBRANCH  31  33
ENDBRANCH  30  31
ENDBRANCH  29  30
ENDBRANCH  28  29
ENDBRANCH  27  28
ENDBRANCH  26  27
ENDBRANCH   1  26
TORSDOF 20
ENDMDL
