MODEL 1
REMARK VINA RESULT:      -9.5      0.000      0.000
REMARK SMILES CC(C)OCCS(=O)(=O)N1CCC[C@H](C(=O)OCCOCCOC(=O)c2ccc(-c3c4nc(c(-c5c(F)cccc5F)c5ccc([nH]5)c(-c5c(F)cccc5F)c5nc(c(-c6c(F)cccc6F)c6ccc3[nH]6)C=C5)C=C4)cc2)C1
REMARK SMILES IDX 18 1 17 2 15 3 16 4 14 5 10 6 11 7 80 8 12 9 13 10 7 11 8 12
REMARK SMILES IDX 9 13 6 14 5 15 4 16 2 17 1 18 3 19 19 20 20 21 21 22 22 23
REMARK SMILES IDX 23 24 24 25 25 26 26 27 27 28 79 29 28 30 78 31 29 32 30 33
REMARK SMILES IDX 31 34 72 35 32 36 77 37 71 38 73 39 33 40 76 41 70 42 69 43
REMARK SMILES IDX 34 45 60 46 43 47 59 48 44 49 47 50 58 51 74 52 45 53 46 54
REMARK SMILES IDX 57 56 75 57 48 58 35 59 36 60 41 61 37 62 38 63 40 64 42 65
REMARK SMILES IDX 39 66 61 67 62 68 67 69 63 70 64 71 66 72 68 73 65 74 49 75
REMARK SMILES IDX 50 76 55 77 51 78 52 79 54 80 56 81 53 82
REMARK H PARENT 73 44 47 55
REMARK Flexibility Score: inf
ROOT
ATOM      1  C   UNL A   1      36.181  23.250  24.495  1.00  0.00     0.261 C 
ENDROOT
BRANCH   1   2
ATOM      2  O   UNL A   1      35.490  24.517  24.519  1.00  0.00    -0.463 OA
BRANCH   2   3
ATOM      3  C   UNL A   1      34.430  24.604  23.676  1.00  0.00     0.310 C 
ATOM      4  O   UNL A   1      34.338  23.986  22.620  1.00  0.00    -0.252 OA
BRANCH   3   5
ATOM      5  C   UNL A   1      33.323  25.538  24.142  1.00  0.00     0.114 C 
ATOM      6  N   UNL A   1      31.747  23.932  25.137  1.00  0.00    -0.201 NA
ATOM      7  C   UNL A   1      30.560  24.520  24.471  1.00  0.00     0.102 C 
ATOM      8  C   UNL A   1      32.755  24.978  25.448  1.00  0.00     0.117 C 
ATOM      9  C   UNL A   1      30.997  25.033  23.099  1.00  0.00     0.018 C 
ATOM     10  C   UNL A   1      32.221  25.952  23.153  1.00  0.00     0.018 C 
BRANCH   6  11
ATOM     11  S   UNL A   1      31.458  22.760  26.333  1.00  0.00     0.216 S 
ATOM     12  O   UNL A   1      30.202  22.116  26.035  1.00  0.00    -0.212 OA
ATOM     13  O   UNL A   1      31.657  23.421  27.611  1.00  0.00    -0.212 OA
BRANCH  11  14
ATOM     14  C   UNL A   1      32.802  21.586  26.073  1.00  0.00     0.182 C 
BRANCH  14  15
ATOM     15  C   UNL A   1      32.674  20.759  24.795  1.00  0.00     0.178 C 
BRANCH  15  16
ATOM     16  O   UNL A   1      33.724  19.806  24.593  1.00  0.00    -0.378 OA
BRANCH  16  17
ATOM     17  C   UNL A   1      33.389  18.451  24.283  1.00  0.00     0.112 C 
ATOM     18  C   UNL A   1      32.491  18.267  23.066  1.00  0.00     0.038 C 
ATOM     19  C   UNL A   1      34.609  17.574  24.180  1.00  0.00     0.038 C 
ENDBRANCH  16  17
ENDBRANCH  15  16
ENDBRANCH  14  15
ENDBRANCH  11  14
ENDBRANCH   6  11
ENDBRANCH   3   5
ENDBRANCH   2   3
ENDBRANCH   1   2
BRANCH   1  20
ATOM     20  C   UNL A   1      36.069  22.513  25.828  1.00  0.00     0.202 C 
BRANCH  20  21
ATOM     21  O   UNL A   1      36.585  21.184  25.862  1.00  0.00    -0.374 OA
BRANCH  21  22
ATOM     22  C   UNL A   1      37.273  20.710  24.710  1.00  0.00     0.202 C 
BRANCH  22  23
ATOM     23  C   UNL A   1      38.560  19.901  24.936  1.00  0.00     0.261 C 
BRANCH  23  24
ATOM     24  O   UNL A   1      39.256  20.195  26.163  1.00  0.00    -0.460 OA
BRANCH  24  25
ATOM     25  C   UNL A   1      40.580  19.898  26.128  1.00  0.00     0.338 C 
ATOM     26  O   UNL A   1      41.096  18.885  25.685  1.00  0.00    -0.246 OA
BRANCH  25  27
ATOM     27  C   UNL A   1      41.406  21.022  26.609  1.00  0.00     0.060 A 
ATOM     28  C   UNL A   1      41.347  21.328  27.975  1.00  0.00     0.016 A 
ATOM     29  C   UNL A   1      42.058  21.880  25.721  1.00  0.00     0.016 A 
ATOM     30  C   UNL A   1      41.884  22.526  28.445  1.00  0.00     0.010 A 
ATOM     31  C   UNL A   1      42.602  23.081  26.199  1.00  0.00     0.010 A 
ATOM     32  C   UNL A   1      42.478  23.433  27.556  1.00  0.00    -0.014 A 
BRANCH  32  33
ATOM     33  C   UNL A   1      42.864  24.786  28.042  1.00  0.00     0.031 A 
ATOM     34  C   UNL A   1      41.807  25.834  28.276  1.00  0.00     0.074 A 
ATOM     35  C   UNL A   1      44.149  25.065  28.323  1.00  0.00     0.049 A 
ATOM     36  N   UNL A   1      41.938  27.061  28.719  1.00  0.00    -0.248 NA
ATOM     37  C   UNL A   1      40.420  25.451  27.972  1.00  0.00     0.031 C 
ATOM     38  C   UNL A   1      45.265  24.134  28.168  1.00  0.00     0.029 A 
ATOM     39  N   UNL A   1      44.731  26.213  28.801  1.00  0.00    -0.354 N 
ATOM     40  C   UNL A   1      40.656  27.596  28.742  1.00  0.00     0.074 A 
ATOM     41  C   UNL A   1      39.765  26.575  28.233  1.00  0.00     0.031 C 
ATOM     42  C   UNL A   1      46.399  24.747  28.544  1.00  0.00     0.029 A 
ATOM     43  C   UNL A   1      46.094  26.121  28.939  1.00  0.00     0.049 A 
ATOM     44  H   UNL A   1      44.221  27.024  29.024  1.00  0.00     0.167 HD
ATOM     45  C   UNL A   1      40.253  28.823  29.158  1.00  0.00     0.037 A 
ATOM     46  C   UNL A   1      46.999  27.042  29.326  1.00  0.00     0.037 A 
ATOM     47  C   UNL A   1      41.137  29.840  29.669  1.00  0.00     0.049 A 
ATOM     48  C   UNL A   1      46.536  28.414  29.731  1.00  0.00     0.074 A 
ATOM     49  C   UNL A   1      40.817  31.100  30.145  1.00  0.00     0.029 A 
ATOM     50  N   UNL A   1      42.516  29.719  29.763  1.00  0.00    -0.354 N 
ATOM     51  N   UNL A   1      45.317  28.896  29.783  1.00  0.00    -0.248 NA
ATOM     52  C   UNL A   1      47.574  29.370  30.141  1.00  0.00     0.031 C 
ATOM     53  C   UNL A   1      42.005  31.763  30.471  1.00  0.00     0.029 A 
ATOM     54  C   UNL A   1      43.062  30.893  30.258  1.00  0.00     0.049 A 
ATOM     55  H   UNL A   1      43.030  28.918  29.513  1.00  0.00     0.167 HD
ATOM     56  C   UNL A   1      45.439  30.196  30.261  1.00  0.00     0.074 A 
ATOM     57  C   UNL A   1      46.850  30.424  30.493  1.00  0.00     0.031 C 
ATOM     58  C   UNL A   1      44.467  31.113  30.491  1.00  0.00     0.037 A 
BRANCH  45  59
ATOM     59  C   UNL A   1      38.788  29.145  29.055  1.00  0.00     0.057 A 
ATOM     60  C   UNL A   1      37.925  29.047  30.154  1.00  0.00     0.134 A 
ATOM     61  C   UNL A   1      38.242  29.597  27.847  1.00  0.00     0.134 A 
ATOM     62  F   UNL A   1      38.380  28.614  31.340  1.00  0.00    -0.206 F 
ATOM     63  C   UNL A   1      36.567  29.359  30.048  1.00  0.00     0.040 A 
ATOM     64  C   UNL A   1      36.893  29.940  27.735  1.00  0.00     0.040 A 
ATOM     65  F   UNL A   1      39.013  29.726  26.756  1.00  0.00    -0.206 F 
ATOM     66  C   UNL A   1      36.050  29.813  28.836  1.00  0.00     0.006 A 
ENDBRANCH  45  59
BRANCH  46  67
ATOM     67  C   UNL A   1      48.441  26.691  29.350  1.00  0.00     0.057 A 
ATOM     68  C   UNL A   1      49.274  26.960  28.259  1.00  0.00     0.134 A 
ATOM     69  C   UNL A   1      49.019  26.075  30.467  1.00  0.00     0.134 A 
ATOM     70  F   UNL A   1      48.774  27.528  27.151  1.00  0.00    -0.206 F 
ATOM     71  C   UNL A   1      50.627  26.617  28.269  1.00  0.00     0.040 A 
ATOM     72  C   UNL A   1      50.377  25.751  30.503  1.00  0.00     0.040 A 
ATOM     73  F   UNL A   1      48.275  25.793  31.546  1.00  0.00    -0.206 F 
ATOM     74  C   UNL A   1      51.183  26.016  29.398  1.00  0.00     0.006 A 
ENDBRANCH  46  67
BRANCH  58  75
ATOM     75  C   UNL A   1      44.890  32.438  31.062  1.00  0.00     0.057 A 
ATOM     76  C   UNL A   1      44.978  32.661  32.442  1.00  0.00     0.134 A 
ATOM     77  C   UNL A   1      45.245  33.496  30.214  1.00  0.00     0.134 A 
ATOM     78  F   UNL A   1      44.643  31.697  33.311  1.00  0.00    -0.206 F 
ATOM     79  C   UNL A   1      45.378  33.897  32.958  1.00  0.00     0.040 A 
ATOM     80  C   UNL A   1      45.673  34.726  30.718  1.00  0.00     0.040 A 
ATOM     81  F   UNL A   1      45.193  33.349  28.881  1.00  0.00    -0.206 F 
ATOM     82  C   UNL A   1      45.732  34.931  32.093  1.00  0.00     0.006 A 
ENDBRANCH  58  75
ENDBRANCH  32  33
ENDBRANCH  25  27
ENDBRANCH  24  25
ENDBRANCH  23  24
ENDBRANCH  22  23
ENDBRANCH  21  22
ENDBRANCH  20  21
ENDBRANCH   1  20
TORSDOF 19
ENDMDL
MODEL 2
REMARK VINA RESULT:      -9.4      2.469      7.032
REMARK SMILES CC(C)OCCS(=O)(=O)N1CCC[C@H](C(=O)OCCOCCOC(=O)c2ccc(-c3c4nc(c(-c5c(F)cccc5F)c5ccc([nH]5)c(-c5c(F)cccc5F)c5nc(c(-c6c(F)cccc6F)c6ccc3[nH]6)C=C5)C=C4)cc2)C1
REMARK SMILES IDX 18 1 17 2 15 3 16 4 14 5 10 6 11 7 80 8 12 9 13 10 7 11 8 12
REMARK SMILES IDX 9 13 6 14 5 15 4 16 2 17 1 18 3 19 19 20 20 21 21 22 22 23
REMARK SMILES IDX 23 24 24 25 25 26 26 27 27 28 79 29 28 30 78 31 29 32 30 33
REMARK SMILES IDX 31 34 72 35 32 36 77 37 71 38 73 39 33 40 76 41 70 42 69 43
REMARK SMILES IDX 34 45 60 46 43 47 59 48 44 49 47 50 58 51 74 52 45 53 46 54
REMARK SMILES IDX 57 56 75 57 48 58 35 59 36 60 41 61 37 62 38 63 40 64 42 65
REMARK SMILES IDX 39 66 61 67 62 68 67 69 63 70 64 71 66 72 68 73 65 74 49 75
REMARK SMILES IDX 50 76 55 77 51 78 52 79 54 80 56 81 53 82
REMARK H PARENT 73 44 47 55
REMARK Flexibility Score: inf
ROOT
ATOM      1  C   UNL A   1      35.147  23.263  24.164  1.00  0.00     0.261 C 
ENDROOT
BRANCH   1   2
ATOM      2  O   UNL A   1      33.949  22.501  23.903  1.00  0.00    -0.463 OA
BRANCH   2   3
ATOM      3  C   UNL A   1      33.196  22.231  24.999  1.00  0.00     0.310 C 
ATOM      4  O   UNL A   1      33.656  21.889  26.084  1.00  0.00    -0.252 OA
BRANCH   3   5
ATOM      5  C   UNL A   1      31.698  22.395  24.795  1.00  0.00     0.114 C 
ATOM      6  N   UNL A   1      31.555  24.802  24.305  1.00  0.00    -0.201 NA
ATOM      7  C   UNL A   1      30.419  25.033  25.230  1.00  0.00     0.102 C 
ATOM      8  C   UNL A   1      31.484  23.445  23.703  1.00  0.00     0.117 C 
ATOM      9  C   UNL A   1      30.583  24.089  26.421  1.00  0.00     0.018 C 
ATOM     10  C   UNL A   1      30.792  22.627  26.017  1.00  0.00     0.018 C 
BRANCH   6  11
ATOM     11  S   UNL A   1      31.980  26.082  23.272  1.00  0.00     0.216 S 
ATOM     12  O   UNL A   1      31.846  25.624  21.911  1.00  0.00    -0.212 OA
ATOM     13  O   UNL A   1      33.254  26.589  23.752  1.00  0.00    -0.212 OA
BRANCH  11  14
ATOM     14  C   UNL A   1      30.704  27.310  23.612  1.00  0.00     0.182 C 
BRANCH  14  15
ATOM     15  C   UNL A   1      30.846  28.601  22.809  1.00  0.00     0.178 C 
BRANCH  15  16
ATOM     16  O   UNL A   1      29.773  28.857  21.895  1.00  0.00    -0.378 OA
BRANCH  16  17
ATOM     17  C   UNL A   1      28.642  29.612  22.338  1.00  0.00     0.112 C 
ATOM     18  C   UNL A   1      27.532  28.796  22.989  1.00  0.00     0.038 C 
ATOM     19  C   UNL A   1      29.040  30.765  23.221  1.00  0.00     0.038 C 
ENDBRANCH  16  17
ENDBRANCH  15  16
ENDBRANCH  14  15
ENDBRANCH  11  14
ENDBRANCH   6  11
ENDBRANCH   3   5
ENDBRANCH   2   3
ENDBRANCH   1   2
BRANCH   1  20
ATOM     20  C   UNL A   1      36.409  22.497  23.770  1.00  0.00     0.202 C 
BRANCH  20  21
ATOM     21  O   UNL A   1      37.044  21.749  24.804  1.00  0.00    -0.374 OA
BRANCH  21  22
ATOM     22  C   UNL A   1      37.127  20.337  24.646  1.00  0.00     0.202 C 
BRANCH  22  23
ATOM     23  C   UNL A   1      38.476  19.668  24.953  1.00  0.00     0.261 C 
BRANCH  23  24
ATOM     24  O   UNL A   1      38.976  19.890  26.287  1.00  0.00    -0.460 OA
BRANCH  24  25
ATOM     25  C   UNL A   1      40.295  20.210  26.334  1.00  0.00     0.338 C 
ATOM     26  O   UNL A   1      41.223  19.577  25.856  1.00  0.00    -0.246 OA
BRANCH  25  27
ATOM     27  C   UNL A   1      40.517  21.525  26.962  1.00  0.00     0.060 A 
ATOM     28  C   UNL A   1      39.855  22.627  26.405  1.00  0.00     0.016 A 
ATOM     29  C   UNL A   1      41.501  21.711  27.936  1.00  0.00     0.016 A 
ATOM     30  C   UNL A   1      40.222  23.921  26.774  1.00  0.00     0.010 A 
ATOM     31  C   UNL A   1      41.862  23.014  28.308  1.00  0.00     0.010 A 
ATOM     32  C   UNL A   1      41.258  24.128  27.696  1.00  0.00    -0.014 A 
BRANCH  32  33
ATOM     33  C   UNL A   1      41.767  25.507  27.926  1.00  0.00     0.031 A 
ATOM     34  C   UNL A   1      43.111  25.916  27.382  1.00  0.00     0.074 A 
ATOM     35  C   UNL A   1      41.011  26.411  28.573  1.00  0.00     0.049 A 
ATOM     36  N   UNL A   1      43.719  27.075  27.454  1.00  0.00    -0.248 NA
ATOM     37  C   UNL A   1      43.872  24.884  26.662  1.00  0.00     0.031 C 
ATOM     38  C   UNL A   1      39.682  26.155  29.124  1.00  0.00     0.029 A 
ATOM     39  N   UNL A   1      41.252  27.728  28.874  1.00  0.00    -0.354 N 
ATOM     40  C   UNL A   1      44.932  26.910  26.797  1.00  0.00     0.074 A 
ATOM     41  C   UNL A   1      44.991  25.530  26.364  1.00  0.00     0.031 C 
ATOM     42  C   UNL A   1      39.223  27.280  29.697  1.00  0.00     0.029 A 
ATOM     43  C   UNL A   1      40.236  28.326  29.578  1.00  0.00     0.049 A 
ATOM     44  H   UNL A   1      42.075  28.200  28.610  1.00  0.00     0.167 HD
ATOM     45  C   UNL A   1      45.904  27.827  26.563  1.00  0.00     0.037 A 
ATOM     46  C   UNL A   1      40.137  29.572  30.084  1.00  0.00     0.037 A 
ATOM     47  C   UNL A   1      45.846  29.203  26.989  1.00  0.00     0.049 A 
ATOM     48  C   UNL A   1      41.252  30.556  29.861  1.00  0.00     0.074 A 
ATOM     49  C   UNL A   1      46.768  30.213  26.771  1.00  0.00     0.029 A 
ATOM     50  N   UNL A   1      44.814  29.761  27.728  1.00  0.00    -0.354 N 
ATOM     51  N   UNL A   1      42.377  30.399  29.205  1.00  0.00    -0.248 NA
ATOM     52  C   UNL A   1      41.079  31.896  30.440  1.00  0.00     0.031 C 
ATOM     53  C   UNL A   1      46.322  31.365  27.427  1.00  0.00     0.029 A 
ATOM     54  C   UNL A   1      45.091  31.092  28.001  1.00  0.00     0.049 A 
ATOM     55  H   UNL A   1      44.004  29.282  28.018  1.00  0.00     0.167 HD
ATOM     56  C   UNL A   1      43.029  31.625  29.266  1.00  0.00     0.074 A 
ATOM     57  C   UNL A   1      42.169  32.518  30.014  1.00  0.00     0.031 C 
ATOM     58  C   UNL A   1      44.230  31.978  28.743  1.00  0.00     0.037 A 
BRANCH  45  59
ATOM     59  C   UNL A   1      47.134  27.364  25.832  1.00  0.00     0.057 A 
ATOM     60  C   UNL A   1      47.258  27.476  24.440  1.00  0.00     0.134 A 
ATOM     61  C   UNL A   1      48.224  26.836  26.535  1.00  0.00     0.134 A 
ATOM     62  F   UNL A   1      46.249  27.966  23.704  1.00  0.00    -0.206 F 
ATOM     63  C   UNL A   1      48.410  27.051  23.773  1.00  0.00     0.040 A 
ATOM     64  C   UNL A   1      49.392  26.435  25.882  1.00  0.00     0.040 A 
ATOM     65  F   UNL A   1      48.179  26.712  27.870  1.00  0.00    -0.206 F 
ATOM     66  C   UNL A   1      49.483  26.535  24.497  1.00  0.00     0.006 A 
ENDBRANCH  45  59
BRANCH  46  67
ATOM     67  C   UNL A   1      38.928  29.958  30.853  1.00  0.00     0.057 A 
ATOM     68  C   UNL A   1      38.824  29.700  32.224  1.00  0.00     0.134 A 
ATOM     69  C   UNL A   1      37.845  30.594  30.232  1.00  0.00     0.134 A 
ATOM     70  F   UNL A   1      39.818  29.073  32.870  1.00  0.00    -0.206 F 
ATOM     71  C   UNL A   1      37.682  30.046  32.950  1.00  0.00     0.040 A 
ATOM     72  C   UNL A   1      36.708  30.970  30.950  1.00  0.00     0.040 A 
ATOM     73  F   UNL A   1      37.884  30.872  28.922  1.00  0.00    -0.206 F 
ATOM     74  C   UNL A   1      36.623  30.690  32.312  1.00  0.00     0.006 A 
ENDBRANCH  46  67
BRANCH  58  75
ATOM     75  C   UNL A   1      44.670  33.403  28.924  1.00  0.00     0.057 A 
ATOM     76  C   UNL A   1      45.460  33.808  30.007  1.00  0.00     0.134 A 
ATOM     77  C   UNL A   1      44.323  34.380  27.979  1.00  0.00     0.134 A 
ATOM     78  F   UNL A   1      45.819  32.929  30.954  1.00  0.00    -0.206 F 
ATOM     79  C   UNL A   1      45.866  35.137  30.160  1.00  0.00     0.040 A 
ATOM     80  C   UNL A   1      44.748  35.704  28.105  1.00  0.00     0.040 A 
ATOM     81  F   UNL A   1      43.577  34.060  26.911  1.00  0.00    -0.206 F 
ATOM     82  C   UNL A   1      45.514  36.086  29.203  1.00  0.00     0.006 A 
ENDBRANCH  58  75
ENDBRANCH  32  33
ENDBRANCH  25  27
ENDBRANCH  24  25
ENDBRANCH  23  24
ENDBRANCH  22  23
ENDBRANCH  21  22
ENDBRANCH  20  21
ENDBRANCH   1  20
TORSDOF 19
ENDMDL
MODEL 3
REMARK VINA RESULT:      -9.3      3.834      7.082
REMARK SMILES CC(C)OCCS(=O)(=O)N1CCC[C@H](C(=O)OCCOCCOC(=O)c2ccc(-c3c4nc(c(-c5c(F)cccc5F)c5ccc([nH]5)c(-c5c(F)cccc5F)c5nc(c(-c6c(F)cccc6F)c6ccc3[nH]6)C=C5)C=C4)cc2)C1
REMARK SMILES IDX 18 1 17 2 15 3 16 4 14 5 10 6 11 7 80 8 12 9 13 10 7 11 8 12
REMARK SMILES IDX 9 13 6 14 5 15 4 16 2 17 1 18 3 19 19 20 20 21 21 22 22 23
REMARK SMILES IDX 23 24 24 25 25 26 26 27 27 28 79 29 28 30 78 31 29 32 30 33
REMARK SMILES IDX 31 34 72 35 32 36 77 37 71 38 73 39 33 40 76 41 70 42 69 43
REMARK SMILES IDX 34 45 60 46 43 47 59 48 44 49 47 50 58 51 74 52 45 53 46 54
REMARK SMILES IDX 57 56 75 57 48 58 35 59 36 60 41 61 37 62 38 63 40 64 42 65
REMARK SMILES IDX 39 66 61 67 62 68 67 69 63 70 64 71 66 72 68 73 65 74 49 75
REMARK SMILES IDX 50 76 55 77 51 78 52 79 54 80 56 81 53 82
REMARK H PARENT 73 44 47 55
REMARK Flexibility Score: inf
ROOT
ATOM      1  C   UNL A   1      32.855  26.361  24.117  1.00  0.00     0.261 C 
ENDROOT
BRANCH   1   2
ATOM      2  O   UNL A   1      32.437  25.777  22.865  1.00  0.00    -0.463 OA
BRANCH   2   3
ATOM      3  C   UNL A   1      32.839  24.495  22.672  1.00  0.00     0.310 C 
ATOM      4  O   UNL A   1      33.984  24.171  22.372  1.00  0.00    -0.252 OA
BRANCH   3   5
ATOM      5  C   UNL A   1      31.750  23.452  22.867  1.00  0.00     0.114 C 
ATOM      6  N   UNL A   1      32.050  22.905  25.247  1.00  0.00    -0.201 NA
ATOM      7  C   UNL A   1      31.990  21.440  25.029  1.00  0.00     0.102 C 
ATOM      8  C   UNL A   1      31.182  23.623  24.278  1.00  0.00     0.117 C 
ATOM      9  C   UNL A   1      32.624  21.140  23.671  1.00  0.00     0.018 C 
ATOM     10  C   UNL A   1      32.047  21.981  22.529  1.00  0.00     0.018 C 
BRANCH   6  11
ATOM     11  S   UNL A   1      32.019  23.446  26.858  1.00  0.00     0.216 S 
ATOM     12  O   UNL A   1      31.221  22.523  27.626  1.00  0.00    -0.212 OA
ATOM     13  O   UNL A   1      31.666  24.854  26.809  1.00  0.00    -0.212 OA
BRANCH  11  14
ATOM     14  C   UNL A   1      33.745  23.299  27.361  1.00  0.00     0.182 C 
BRANCH  14  15
ATOM     15  C   UNL A   1      34.743  23.388  26.208  1.00  0.00     0.178 C 
BRANCH  15  16
ATOM     16  O   UNL A   1      35.930  22.606  26.385  1.00  0.00    -0.378 OA
BRANCH  16  17
ATOM     17  C   UNL A   1      37.056  22.841  25.536  1.00  0.00     0.112 C 
ATOM     18  C   UNL A   1      36.719  23.161  24.085  1.00  0.00     0.038 C 
ATOM     19  C   UNL A   1      37.989  23.878  26.106  1.00  0.00     0.038 C 
ENDBRANCH  16  17
ENDBRANCH  15  16
ENDBRANCH  14  15
ENDBRANCH  11  14
ENDBRANCH   6  11
ENDBRANCH   3   5
ENDBRANCH   2   3
ENDBRANCH   1   2
BRANCH   1  20
ATOM     20  C   UNL A   1      33.642  27.654  23.910  1.00  0.00     0.202 C 
BRANCH  20  21
ATOM     21  O   UNL A   1      33.397  28.702  24.845  1.00  0.00    -0.374 OA
BRANCH  21  22
ATOM     22  C   UNL A   1      32.189  29.442  24.710  1.00  0.00     0.202 C 
BRANCH  22  23
ATOM     23  C   UNL A   1      31.772  30.336  25.888  1.00  0.00     0.261 C 
BRANCH  23  24
ATOM     24  O   UNL A   1      32.607  30.232  27.058  1.00  0.00    -0.460 OA
BRANCH  24  25
ATOM     25  C   UNL A   1      33.324  31.354  27.323  1.00  0.00     0.338 C 
ATOM     26  O   UNL A   1      32.909  32.501  27.360  1.00  0.00    -0.246 OA
BRANCH  25  27
ATOM     27  C   UNL A   1      34.718  31.039  27.688  1.00  0.00     0.060 A 
ATOM     28  C   UNL A   1      35.049  29.691  27.872  1.00  0.00     0.016 A 
ATOM     29  C   UNL A   1      35.624  32.043  28.039  1.00  0.00     0.016 A 
ATOM     30  C   UNL A   1      36.260  29.345  28.470  1.00  0.00     0.010 A 
ATOM     31  C   UNL A   1      36.843  31.690  28.635  1.00  0.00     0.010 A 
ATOM     32  C   UNL A   1      37.149  30.342  28.896  1.00  0.00    -0.014 A 
BRANCH  32  33
ATOM     33  C   UNL A   1      38.338  29.962  29.707  1.00  0.00     0.031 A 
ATOM     34  C   UNL A   1      38.503  30.502  31.104  1.00  0.00     0.074 A 
ATOM     35  C   UNL A   1      39.245  29.097  29.220  1.00  0.00     0.049 A 
ATOM     36  N   UNL A   1      39.453  30.272  31.978  1.00  0.00    -0.248 NA
ATOM     37  C   UNL A   1      37.460  31.423  31.582  1.00  0.00     0.031 C 
ATOM     38  C   UNL A   1      39.190  28.480  27.896  1.00  0.00     0.029 A 
ATOM     39  N   UNL A   1      40.387  28.586  29.783  1.00  0.00    -0.354 N 
ATOM     40  C   UNL A   1      39.127  31.021  33.102  1.00  0.00     0.074 A 
ATOM     41  C   UNL A   1      37.912  31.742  32.788  1.00  0.00     0.031 C 
ATOM     42  C   UNL A   1      40.253  27.671  27.748  1.00  0.00     0.029 A 
ATOM     43  C   UNL A   1      41.077  27.736  28.954  1.00  0.00     0.049 A 
ATOM     44  H   UNL A   1      40.685  28.807  30.695  1.00  0.00     0.167 HD
ATOM     45  C   UNL A   1      39.774  31.094  34.292  1.00  0.00     0.037 A 
ATOM     46  C   UNL A   1      42.246  27.092  29.137  1.00  0.00     0.037 A 
ATOM     47  C   UNL A   1      40.982  30.374  34.608  1.00  0.00     0.049 A 
ATOM     48  C   UNL A   1      42.975  27.232  30.445  1.00  0.00     0.074 A 
ATOM     49  C   UNL A   1      41.690  30.360  35.798  1.00  0.00     0.029 A 
ATOM     50  N   UNL A   1      41.666  29.548  33.729  1.00  0.00    -0.354 N 
ATOM     51  N   UNL A   1      42.637  27.913  31.514  1.00  0.00    -0.248 NA
ATOM     52  C   UNL A   1      44.245  26.504  30.577  1.00  0.00     0.031 C 
ATOM     53  C   UNL A   1      42.833  29.574  35.620  1.00  0.00     0.029 A 
ATOM     54  C   UNL A   1      42.804  29.045  34.339  1.00  0.00     0.049 A 
ATOM     55  H   UNL A   1      41.384  29.349  32.807  1.00  0.00     0.167 HD
ATOM     56  C   UNL A   1      43.633  27.671  32.453  1.00  0.00     0.074 A 
ATOM     57  C   UNL A   1      44.582  26.772  31.831  1.00  0.00     0.031 C 
ATOM     58  C   UNL A   1      43.744  28.147  33.717  1.00  0.00     0.037 A 
BRANCH  45  59
ATOM     59  C   UNL A   1      39.200  32.008  35.339  1.00  0.00     0.057 A 
ATOM     60  C   UNL A   1      38.363  31.538  36.360  1.00  0.00     0.134 A 
ATOM     61  C   UNL A   1      39.521  33.371  35.347  1.00  0.00     0.134 A 
ATOM     62  F   UNL A   1      38.009  30.244  36.408  1.00  0.00    -0.206 F 
ATOM     63  C   UNL A   1      37.844  32.395  37.333  1.00  0.00     0.040 A 
ATOM     64  C   UNL A   1      39.032  34.233  36.331  1.00  0.00     0.040 A 
ATOM     65  F   UNL A   1      40.326  33.888  34.406  1.00  0.00    -0.206 F 
ATOM     66  C   UNL A   1      38.184  33.747  37.323  1.00  0.00     0.006 A 
ENDBRANCH  45  59
BRANCH  46  67
ATOM     67  C   UNL A   1      42.801  26.252  28.046  1.00  0.00     0.057 A 
ATOM     68  C   UNL A   1      43.687  26.778  27.100  1.00  0.00     0.134 A 
ATOM     69  C   UNL A   1      42.454  24.900  27.924  1.00  0.00     0.134 A 
ATOM     70  F   UNL A   1      44.040  28.071  27.152  1.00  0.00    -0.206 F 
ATOM     71  C   UNL A   1      44.199  25.996  26.063  1.00  0.00     0.040 A 
ATOM     72  C   UNL A   1      42.978  24.099  26.908  1.00  0.00     0.040 A 
ATOM     73  F   UNL A   1      41.611  24.335  28.800  1.00  0.00    -0.206 F 
ATOM     74  C   UNL A   1      43.849  24.650  25.970  1.00  0.00     0.006 A 
ENDBRANCH  46  67
BRANCH  58  75
ATOM     75  C   UNL A   1      44.915  27.673  34.533  1.00  0.00     0.057 A 
ATOM     76  C   UNL A   1      46.125  28.377  34.579  1.00  0.00     0.134 A 
ATOM     77  C   UNL A   1      44.815  26.510  35.310  1.00  0.00     0.134 A 
ATOM     78  F   UNL A   1      46.293  29.491  33.853  1.00  0.00    -0.206 F 
ATOM     79  C   UNL A   1      47.203  27.927  35.347  1.00  0.00     0.040 A 
ATOM     80  C   UNL A   1      45.875  26.067  36.103  1.00  0.00     0.040 A 
ATOM     81  F   UNL A   1      43.682  25.793  35.321  1.00  0.00    -0.206 F 
ATOM     82  C   UNL A   1      47.076  26.772  36.116  1.00  0.00     0.006 A 
ENDBRANCH  58  75
ENDBRANCH  32  33
ENDBRANCH  25  27
ENDBRANCH  24  25
ENDBRANCH  23  24
ENDBRANCH  22  23
ENDBRANCH  21  22
ENDBRANCH  20  21
ENDBRANCH   1  20
TORSDOF 19
ENDMDL
