MODEL 1
REMARK VINA RESULT:     -12.0      0.000      0.000
REMARK SMILES Cc1nn([C@H]2CCS(=O)(=O)C2)c(C)c1/C=C(\CC(=O)OCCOCCOC(=O)c1ccc(-c2c3nc(c(-c4c(F)cccc4F)c4ccc([nH]4)c(-c4c(F)cccc4F)c4nc(c(-c5c(F)cccc5F)c5ccc2[nH]5)C=C4)C=C3)cc1)c1nc2ccccc2s1
REMARK SMILES IDX 22 1 21 2 20 3 18 4 19 5 17 6 16 7 15 8 14 9 1 10 2 11 3 12
REMARK SMILES IDX 4 13 12 14 13 15 5 16 6 17 11 18 7 19 8 20 9 21 10 22 83 23
REMARK SMILES IDX 84 24 91 25 85 26 90 27 86 28 89 29 87 30 88 31 23 32 24 33
REMARK SMILES IDX 25 34 26 35 27 36 28 37 29 38 30 39 82 40 31 41 81 42 32 43
REMARK SMILES IDX 33 44 34 45 75 46 35 47 80 48 74 49 76 50 36 51 79 52 73 53
REMARK SMILES IDX 72 54 37 56 63 57 46 58 62 59 47 60 50 61 61 62 77 63 48 64
REMARK SMILES IDX 49 65 60 67 78 68 51 69 38 70 39 71 44 72 40 73 41 74 43 75
REMARK SMILES IDX 45 76 42 77 64 78 65 79 70 80 66 81 67 82 69 83 71 84 68 85
REMARK SMILES IDX 52 86 53 87 58 88 54 89 55 90 57 91 59 92 56 93
REMARK H PARENT 76 55 50 66
REMARK Flexibility Score: inf
ROOT
ATOM      1  C   UNL A   1      37.125  22.703  24.246  1.00  0.00     0.202 C 
ENDROOT
BRANCH   1   2
ATOM      2  C   UNL A   1      35.770  23.427  24.158  1.00  0.00     0.261 C 
BRANCH   2   3
ATOM      3  O   UNL A   1      35.118  23.280  22.868  1.00  0.00    -0.463 OA
BRANCH   3   4
ATOM      4  C   UNL A   1      33.985  24.006  22.707  1.00  0.00     0.310 C 
ATOM      5  O   UNL A   1      33.337  24.028  21.661  1.00  0.00    -0.252 OA
BRANCH   4   6
ATOM      6  C   UNL A   1      33.377  24.579  23.988  1.00  0.00     0.161 C 
BRANCH   6   7
ATOM      7  C   UNL A   1      31.991  24.387  24.575  1.00  0.00    -0.000 C 
ATOM      8  C   UNL A   1      31.593  23.245  25.192  1.00  0.00     0.019 C 
BRANCH   8   9
ATOM      9  C   UNL A   1      32.293  21.988  25.245  1.00  0.00     0.019 A 
ATOM     10  C   UNL A   1      33.925  22.383  27.272  1.00  0.00     0.069 C 
ATOM     11  C   UNL A   1      33.244  21.579  26.223  1.00  0.00     0.067 A 
ATOM     12  N   UNL A   1      33.562  20.285  26.079  1.00  0.00    -0.177 NA
ATOM     13  N   UNL A   1      32.854  19.889  25.003  1.00  0.00    -0.265 N 
ATOM     14  C   UNL A   1      32.357  20.967  24.303  1.00  0.00     0.043 A 
ATOM     15  C   UNL A   1      32.057  20.911  22.846  1.00  0.00     0.067 C 
BRANCH  13  16
ATOM     16  C   UNL A   1      32.801  18.466  24.680  1.00  0.00     0.123 C 
ATOM     17  C   UNL A   1      33.644  18.100  23.436  1.00  0.00     0.044 C 
ATOM     18  C   UNL A   1      33.348  17.541  25.767  1.00  0.00     0.164 C 
ATOM     19  C   UNL A   1      33.652  16.581  23.318  1.00  0.00     0.139 C 
ATOM     20  S   UNL A   1      33.528  15.966  24.982  1.00  0.00     0.152 S 
ATOM     21  O   UNL A   1      32.262  15.262  25.115  1.00  0.00    -0.229 OA
ATOM     22  O   UNL A   1      34.782  15.378  25.376  1.00  0.00    -0.229 OA
ENDBRANCH  13  16
ENDBRANCH   8   9
BRANCH   7  23
ATOM     23  C   UNL A   1      31.151  25.559  24.730  1.00  0.00     0.121 A 
ATOM     24  N   UNL A   1      29.950  25.744  24.227  1.00  0.00    -0.236 NA
ATOM     25  S   UNL A   1      31.825  27.019  25.391  1.00  0.00    -0.114 S 
ATOM     26  C   UNL A   1      29.727  27.091  23.962  1.00  0.00     0.082 A 
ATOM     27  C   UNL A   1      30.679  27.953  24.498  1.00  0.00     0.055 A 
ATOM     28  C   UNL A   1      28.726  27.638  23.126  1.00  0.00     0.030 A 
ATOM     29  C   UNL A   1      30.653  29.335  24.237  1.00  0.00     0.021 A 
ATOM     30  C   UNL A   1      28.767  28.982  22.755  1.00  0.00     0.002 A 
ATOM     31  C   UNL A   1      29.717  29.821  23.315  1.00  0.00     0.002 A 
ENDBRANCH   7  23
ENDBRANCH   6   7
ENDBRANCH   4   6
ENDBRANCH   3   4
ENDBRANCH   2   3
ENDBRANCH   1   2
BRANCH   1  32
ATOM     32  O   UNL A   1      37.151  21.280  24.259  1.00  0.00    -0.374 OA
BRANCH  32  33
ATOM     33  C   UNL A   1      38.156  20.605  24.991  1.00  0.00     0.202 C 
BRANCH  33  34
ATOM     34  C   UNL A   1      38.864  21.321  26.144  1.00  0.00     0.261 C 
BRANCH  34  35
ATOM     35  O   UNL A   1      40.258  21.041  26.319  1.00  0.00    -0.460 OA
BRANCH  35  36
ATOM     36  C   UNL A   1      41.070  22.107  26.125  1.00  0.00     0.338 C 
ATOM     37  O   UNL A   1      42.039  22.130  25.378  1.00  0.00    -0.246 OA
BRANCH  36  38
ATOM     38  C   UNL A   1      40.819  23.193  27.102  1.00  0.00     0.060 A 
ATOM     39  C   UNL A   1      39.930  24.177  26.671  1.00  0.00     0.016 A 
ATOM     40  C   UNL A   1      41.656  23.437  28.193  1.00  0.00     0.016 A 
ATOM     41  C   UNL A   1      40.068  25.465  27.150  1.00  0.00     0.010 A 
ATOM     42  C   UNL A   1      41.841  24.745  28.636  1.00  0.00     0.010 A 
ATOM     43  C   UNL A   1      41.094  25.768  28.057  1.00  0.00    -0.014 A 
BRANCH  43  44
ATOM     44  C   UNL A   1      41.123  27.132  28.573  1.00  0.00     0.031 A 
ATOM     45  C   UNL A   1      42.313  27.848  28.059  1.00  0.00     0.074 A 
ATOM     46  C   UNL A   1      40.233  27.720  29.400  1.00  0.00     0.049 A 
ATOM     47  N   UNL A   1      43.396  28.112  28.710  1.00  0.00    -0.248 NA
ATOM     48  C   UNL A   1      42.405  28.086  26.610  1.00  0.00     0.031 C 
ATOM     49  C   UNL A   1      38.904  27.257  29.798  1.00  0.00     0.029 A 
ATOM     50  N   UNL A   1      40.330  28.932  30.030  1.00  0.00    -0.354 N 
ATOM     51  C   UNL A   1      44.231  28.745  27.798  1.00  0.00     0.074 A 
ATOM     52  C   UNL A   1      43.663  28.513  26.499  1.00  0.00     0.031 C 
ATOM     53  C   UNL A   1      38.241  28.267  30.415  1.00  0.00     0.029 A 
ATOM     54  C   UNL A   1      39.138  29.402  30.580  1.00  0.00     0.049 A 
ATOM     55  H   UNL A   1      41.175  29.433  30.090  1.00  0.00     0.167 HD
ATOM     56  C   UNL A   1      45.156  29.644  28.228  1.00  0.00     0.037 A 
ATOM     57  C   UNL A   1      38.911  30.644  31.090  1.00  0.00     0.037 A 
ATOM     58  C   UNL A   1      45.434  29.455  29.633  1.00  0.00     0.049 A 
ATOM     59  C   UNL A   1      40.226  31.245  31.415  1.00  0.00     0.074 A 
ATOM     60  C   UNL A   1      45.914  28.417  30.408  1.00  0.00     0.029 A 
ATOM     61  N   UNL A   1      44.853  30.338  30.507  1.00  0.00    -0.354 N 
ATOM     62  N   UNL A   1      40.979  30.858  32.402  1.00  0.00    -0.248 NA
ATOM     63  C   UNL A   1      40.898  32.006  30.375  1.00  0.00     0.031 C 
ATOM     64  C   UNL A   1      45.199  28.508  31.639  1.00  0.00     0.029 A 
ATOM     65  C   UNL A   1      44.378  29.634  31.578  1.00  0.00     0.049 A 
ATOM     66  H   UNL A   1      44.789  31.312  30.384  1.00  0.00     0.167 HD
ATOM     67  C   UNL A   1      42.265  30.901  31.889  1.00  0.00     0.074 A 
ATOM     68  C   UNL A   1      42.164  31.711  30.677  1.00  0.00     0.031 C 
ATOM     69  C   UNL A   1      43.220  30.036  32.339  1.00  0.00     0.037 A 
BRANCH  56  70
ATOM     70  C   UNL A   1      45.423  30.958  27.523  1.00  0.00     0.057 A 
ATOM     71  C   UNL A   1      46.760  31.334  27.295  1.00  0.00     0.134 A 
ATOM     72  C   UNL A   1      44.481  31.997  27.361  1.00  0.00     0.134 A 
ATOM     73  F   UNL A   1      47.755  30.442  27.405  1.00  0.00    -0.206 F 
ATOM     74  C   UNL A   1      47.137  32.659  27.050  1.00  0.00     0.040 A 
ATOM     75  C   UNL A   1      44.845  33.313  27.070  1.00  0.00     0.040 A 
ATOM     76  F   UNL A   1      43.170  31.837  27.564  1.00  0.00    -0.206 F 
ATOM     77  C   UNL A   1      46.179  33.658  26.953  1.00  0.00     0.006 A 
ENDBRANCH  56  70
BRANCH  57  78
ATOM     78  C   UNL A   1      37.687  31.487  31.076  1.00  0.00     0.057 A 
ATOM     79  C   UNL A   1      37.122  31.938  29.868  1.00  0.00     0.134 A 
ATOM     80  C   UNL A   1      36.865  31.597  32.209  1.00  0.00     0.134 A 
ATOM     81  F   UNL A   1      37.806  31.842  28.717  1.00  0.00    -0.206 F 
ATOM     82  C   UNL A   1      35.810  32.428  29.787  1.00  0.00     0.040 A 
ATOM     83  C   UNL A   1      35.555  32.089  32.142  1.00  0.00     0.040 A 
ATOM     84  F   UNL A   1      37.271  31.138  33.401  1.00  0.00    -0.206 F 
ATOM     85  C   UNL A   1      35.017  32.490  30.926  1.00  0.00     0.006 A 
ENDBRANCH  57  78
BRANCH  69  86
ATOM     86  C   UNL A   1      42.952  29.290  33.616  1.00  0.00     0.057 A 
ATOM     87  C   UNL A   1      42.241  28.084  33.707  1.00  0.00     0.134 A 
ATOM     88  C   UNL A   1      43.560  29.759  34.786  1.00  0.00     0.134 A 
ATOM     89  F   UNL A   1      41.702  27.506  32.624  1.00  0.00    -0.206 F 
ATOM     90  C   UNL A   1      42.110  27.402  34.923  1.00  0.00     0.040 A 
ATOM     91  C   UNL A   1      43.469  29.068  35.994  1.00  0.00     0.040 A 
ATOM     92  F   UNL A   1      44.294  30.883  34.763  1.00  0.00    -0.206 F 
ATOM     93  C   UNL A   1      42.732  27.890  36.069  1.00  0.00     0.006 A 
ENDBRANCH  69  86
ENDBRANCH  43  44
ENDBRANCH  36  38
ENDBRANCH  35  36
ENDBRANCH  34  35
ENDBRANCH  33  34
ENDBRANCH  32  33
ENDBRANCH   1  32
TORSDOF 18
ENDMDL
MODEL 2
REMARK VINA RESULT:     -11.6      3.063      7.145
REMARK SMILES Cc1nn([C@H]2CCS(=O)(=O)C2)c(C)c1/C=C(\CC(=O)OCCOCCOC(=O)c1ccc(-c2c3nc(c(-c4c(F)cccc4F)c4ccc([nH]4)c(-c4c(F)cccc4F)c4nc(c(-c5c(F)cccc5F)c5ccc2[nH]5)C=C4)C=C3)cc1)c1nc2ccccc2s1
REMARK SMILES IDX 22 1 21 2 20 3 18 4 19 5 17 6 16 7 15 8 14 9 1 10 2 11 3 12
REMARK SMILES IDX 4 13 12 14 13 15 5 16 6 17 11 18 7 19 8 20 9 21 10 22 83 23
REMARK SMILES IDX 84 24 91 25 85 26 90 27 86 28 89 29 87 30 88 31 23 32 24 33
REMARK SMILES IDX 25 34 26 35 27 36 28 37 29 38 30 39 82 40 31 41 81 42 32 43
REMARK SMILES IDX 33 44 34 45 75 46 35 47 80 48 74 49 76 50 36 51 79 52 73 53
REMARK SMILES IDX 72 54 37 56 63 57 46 58 62 59 47 60 50 61 61 62 77 63 48 64
REMARK SMILES IDX 49 65 60 67 78 68 51 69 38 70 39 71 44 72 40 73 41 74 43 75
REMARK SMILES IDX 45 76 42 77 64 78 65 79 70 80 66 81 67 82 69 83 71 84 68 85
REMARK SMILES IDX 52 86 53 87 58 88 54 89 55 90 57 91 59 92 56 93
REMARK H PARENT 76 55 50 66
REMARK Flexibility Score: inf
ROOT
ATOM      1  C   UNL A   1      32.678  30.542  26.711  1.00  0.00     0.202 C 
ENDROOT
BRANCH   1   2
ATOM      2  C   UNL A   1      31.760  29.309  26.638  1.00  0.00     0.261 C 
BRANCH   2   3
ATOM      3  O   UNL A   1      32.473  28.070  26.379  1.00  0.00    -0.463 OA
BRANCH   3   4
ATOM      4  C   UNL A   1      31.692  27.009  26.061  1.00  0.00     0.310 C 
ATOM      5  O   UNL A   1      30.711  26.668  26.720  1.00  0.00    -0.252 OA
BRANCH   4   6
ATOM      6  C   UNL A   1      31.913  26.418  24.667  1.00  0.00     0.161 C 
BRANCH   6   7
ATOM      7  C   UNL A   1      30.902  25.907  23.658  1.00  0.00    -0.000 C 
ATOM      8  C   UNL A   1      30.622  24.590  23.484  1.00  0.00     0.019 C 
BRANCH   8   9
ATOM      9  C   UNL A   1      31.321  23.464  24.046  1.00  0.00     0.019 A 
ATOM     10  C   UNL A   1      30.373  23.432  26.501  1.00  0.00     0.069 C 
ATOM     11  C   UNL A   1      31.133  22.899  25.339  1.00  0.00     0.067 A 
ATOM     12  N   UNL A   1      31.812  21.751  25.471  1.00  0.00    -0.177 NA
ATOM     13  N   UNL A   1      32.452  21.609  24.294  1.00  0.00    -0.265 N 
ATOM     14  C   UNL A   1      32.434  22.781  23.568  1.00  0.00     0.043 A 
ATOM     15  C   UNL A   1      33.480  23.122  22.565  1.00  0.00     0.067 C 
BRANCH  13  16
ATOM     16  C   UNL A   1      33.132  20.348  24.010  1.00  0.00     0.123 C 
ATOM     17  C   UNL A   1      34.410  20.150  24.859  1.00  0.00     0.044 C 
ATOM     18  C   UNL A   1      32.308  19.096  24.304  1.00  0.00     0.164 C 
ATOM     19  C   UNL A   1      34.915  18.734  24.602  1.00  0.00     0.139 C 
ATOM     20  S   UNL A   1      33.468  17.761  24.253  1.00  0.00     0.152 S 
ATOM     21  O   UNL A   1      33.549  17.302  22.875  1.00  0.00    -0.229 OA
ATOM     22  O   UNL A   1      33.212  16.864  25.351  1.00  0.00    -0.229 OA
ENDBRANCH  13  16
ENDBRANCH   8   9
BRANCH   7  23
ATOM     23  C   UNL A   1      30.000  26.868  23.054  1.00  0.00     0.121 A 
ATOM     24  N   UNL A   1      30.316  27.832  22.217  1.00  0.00    -0.236 NA
ATOM     25  S   UNL A   1      28.373  27.016  23.651  1.00  0.00    -0.114 S 
ATOM     26  C   UNL A   1      29.460  28.918  22.367  1.00  0.00     0.082 A 
ATOM     27  C   UNL A   1      28.341  28.670  23.157  1.00  0.00     0.055 A 
ATOM     28  C   UNL A   1      29.676  30.239  21.910  1.00  0.00     0.030 A 
ATOM     29  C   UNL A   1      27.432  29.690  23.488  1.00  0.00     0.021 A 
ATOM     30  C   UNL A   1      28.855  31.282  22.340  1.00  0.00     0.002 A 
ATOM     31  C   UNL A   1      27.739  31.005  23.114  1.00  0.00     0.002 A 
ENDBRANCH   7  23
ENDBRANCH   6   7
ENDBRANCH   4   6
ENDBRANCH   3   4
ENDBRANCH   2   3
ENDBRANCH   1   2
BRANCH   1  32
ATOM     32  O   UNL A   1      33.563  30.682  27.816  1.00  0.00    -0.374 OA
BRANCH  32  33
ATOM     33  C   UNL A   1      34.366  31.842  27.926  1.00  0.00     0.202 C 
BRANCH  33  34
ATOM     34  C   UNL A   1      34.796  32.337  29.309  1.00  0.00     0.261 C 
BRANCH  34  35
ATOM     35  O   UNL A   1      35.258  31.345  30.235  1.00  0.00    -0.460 OA
BRANCH  35  36
ATOM     36  C   UNL A   1      35.909  31.847  31.311  1.00  0.00     0.338 C 
ATOM     37  O   UNL A   1      35.665  32.921  31.846  1.00  0.00    -0.246 OA
BRANCH  36  38
ATOM     38  C   UNL A   1      37.129  31.075  31.644  1.00  0.00     0.060 A 
ATOM     39  C   UNL A   1      38.318  31.618  31.159  1.00  0.00     0.016 A 
ATOM     40  C   UNL A   1      37.090  29.745  32.068  1.00  0.00     0.016 A 
ATOM     41  C   UNL A   1      39.368  30.774  30.855  1.00  0.00     0.010 A 
ATOM     42  C   UNL A   1      38.122  28.880  31.707  1.00  0.00     0.010 A 
ATOM     43  C   UNL A   1      39.229  29.391  31.033  1.00  0.00    -0.014 A 
BRANCH  43  44
ATOM     44  C   UNL A   1      40.409  28.578  30.762  1.00  0.00     0.031 A 
ATOM     45  C   UNL A   1      41.237  28.456  31.985  1.00  0.00     0.074 A 
ATOM     46  C   UNL A   1      40.759  27.994  29.597  1.00  0.00     0.049 A 
ATOM     47  N   UNL A   1      42.340  29.078  32.235  1.00  0.00    -0.248 NA
ATOM     48  C   UNL A   1      40.662  27.753  33.142  1.00  0.00     0.031 C 
ATOM     49  C   UNL A   1      39.959  27.806  28.388  1.00  0.00     0.029 A 
ATOM     50  N   UNL A   1      41.938  27.376  29.276  1.00  0.00    -0.354 N 
ATOM     51  C   UNL A   1      42.710  28.676  33.513  1.00  0.00     0.074 A 
ATOM     52  C   UNL A   1      41.554  28.044  34.089  1.00  0.00     0.031 C 
ATOM     53  C   UNL A   1      40.592  26.939  27.559  1.00  0.00     0.029 A 
ATOM     54  C   UNL A   1      41.900  26.614  28.109  1.00  0.00     0.049 A 
ATOM     55  H   UNL A   1      42.749  27.462  29.827  1.00  0.00     0.167 HD
ATOM     56  C   UNL A   1      44.021  28.650  33.868  1.00  0.00     0.037 A 
ATOM     57  C   UNL A   1      42.860  25.756  27.665  1.00  0.00     0.037 A 
ATOM     58  C   UNL A   1      44.803  29.490  32.992  1.00  0.00     0.049 A 
ATOM     59  C   UNL A   1      44.131  26.117  28.336  1.00  0.00     0.074 A 
ATOM     60  C   UNL A   1      44.802  30.831  32.659  1.00  0.00     0.029 A 
ATOM     61  N   UNL A   1      45.536  28.863  32.016  1.00  0.00    -0.354 N 
ATOM     62  N   UNL A   1      44.814  27.192  28.072  1.00  0.00    -0.248 NA
ATOM     63  C   UNL A   1      44.428  25.483  29.609  1.00  0.00     0.031 C 
ATOM     64  C   UNL A   1      45.140  30.873  31.274  1.00  0.00     0.029 A 
ATOM     65  C   UNL A   1      45.398  29.569  30.854  1.00  0.00     0.049 A 
ATOM     66  H   UNL A   1      46.069  28.044  32.133  1.00  0.00     0.167 HD
ATOM     67  C   UNL A   1      45.256  27.629  29.310  1.00  0.00     0.074 A 
ATOM     68  C   UNL A   1      45.077  26.487  30.203  1.00  0.00     0.031 C 
ATOM     69  C   UNL A   1      45.448  28.959  29.547  1.00  0.00     0.037 A 
BRANCH  56  70
ATOM     70  C   UNL A   1      44.640  27.517  34.662  1.00  0.00     0.057 A 
ATOM     71  C   UNL A   1      45.508  27.841  35.721  1.00  0.00     0.134 A 
ATOM     72  C   UNL A   1      44.692  26.169  34.246  1.00  0.00     0.134 A 
ATOM     73  F   UNL A   1      45.553  29.085  36.220  1.00  0.00    -0.206 F 
ATOM     74  C   UNL A   1      46.439  26.931  36.236  1.00  0.00     0.040 A 
ATOM     75  C   UNL A   1      45.584  25.241  34.787  1.00  0.00     0.040 A 
ATOM     76  F   UNL A   1      43.962  25.684  33.237  1.00  0.00    -0.206 F 
ATOM     77  C   UNL A   1      46.491  25.630  35.757  1.00  0.00     0.006 A 
ENDBRANCH  56  70
BRANCH  57  78
ATOM     78  C   UNL A   1      42.744  24.474  26.922  1.00  0.00     0.057 A 
ATOM     79  C   UNL A   1      43.331  24.308  25.653  1.00  0.00     0.134 A 
ATOM     80  C   UNL A   1      42.344  23.293  27.566  1.00  0.00     0.134 A 
ATOM     81  F   UNL A   1      43.787  25.368  24.968  1.00  0.00    -0.206 F 
ATOM     82  C   UNL A   1      43.543  23.045  25.081  1.00  0.00     0.040 A 
ATOM     83  C   UNL A   1      42.546  22.026  27.004  1.00  0.00     0.040 A 
ATOM     84  F   UNL A   1      41.835  23.323  28.806  1.00  0.00    -0.206 F 
ATOM     85  C   UNL A   1      43.162  21.897  25.765  1.00  0.00     0.006 A 
ENDBRANCH  57  78
BRANCH  69  86
ATOM     86  C   UNL A   1      45.506  29.887  28.366  1.00  0.00     0.057 A 
ATOM     87  C   UNL A   1      44.389  30.473  27.749  1.00  0.00     0.134 A 
ATOM     88  C   UNL A   1      46.767  30.300  27.920  1.00  0.00     0.134 A 
ATOM     89  F   UNL A   1      43.143  30.212  28.167  1.00  0.00    -0.206 F 
ATOM     90  C   UNL A   1      44.531  31.398  26.708  1.00  0.00     0.040 A 
ATOM     91  C   UNL A   1      46.920  31.250  26.911  1.00  0.00     0.040 A 
ATOM     92  F   UNL A   1      47.879  29.814  28.495  1.00  0.00    -0.206 F 
ATOM     93  C   UNL A   1      45.798  31.795  26.292  1.00  0.00     0.006 A 
ENDBRANCH  69  86
ENDBRANCH  43  44
ENDBRANCH  36  38
ENDBRANCH  35  36
ENDBRANCH  34  35
ENDBRANCH  33  34
ENDBRANCH  32  33
ENDBRANCH   1  32
TORSDOF 18
ENDMDL
MODEL 3
REMARK VINA RESULT:     -11.3      3.865      8.435
REMARK SMILES Cc1nn([C@H]2CCS(=O)(=O)C2)c(C)c1/C=C(\CC(=O)OCCOCCOC(=O)c1ccc(-c2c3nc(c(-c4c(F)cccc4F)c4ccc([nH]4)c(-c4c(F)cccc4F)c4nc(c(-c5c(F)cccc5F)c5ccc2[nH]5)C=C4)C=C3)cc1)c1nc2ccccc2s1
REMARK SMILES IDX 22 1 21 2 20 3 18 4 19 5 17 6 16 7 15 8 14 9 1 10 2 11 3 12
REMARK SMILES IDX 4 13 12 14 13 15 5 16 6 17 11 18 7 19 8 20 9 21 10 22 83 23
REMARK SMILES IDX 84 24 91 25 85 26 90 27 86 28 89 29 87 30 88 31 23 32 24 33
REMARK SMILES IDX 25 34 26 35 27 36 28 37 29 38 30 39 82 40 31 41 81 42 32 43
REMARK SMILES IDX 33 44 34 45 75 46 35 47 80 48 74 49 76 50 36 51 79 52 73 53
REMARK SMILES IDX 72 54 37 56 63 57 46 58 62 59 47 60 50 61 61 62 77 63 48 64
REMARK SMILES IDX 49 65 60 67 78 68 51 69 38 70 39 71 44 72 40 73 41 74 43 75
REMARK SMILES IDX 45 76 42 77 64 78 65 79 70 80 66 81 67 82 69 83 71 84 68 85
REMARK SMILES IDX 52 86 53 87 58 88 54 89 55 90 57 91 59 92 56 93
REMARK H PARENT 76 55 50 66
REMARK Flexibility Score: inf
ROOT
ATOM      1  C   UNL A   1      31.579  29.464  26.728  1.00  0.00     0.202 C 
ENDROOT
BRANCH   1   2
ATOM      2  C   UNL A   1      31.731  28.167  27.542  1.00  0.00     0.261 C 
BRANCH   2   3
ATOM      3  O   UNL A   1      32.724  27.256  26.999  1.00  0.00    -0.463 OA
BRANCH   3   4
ATOM      4  C   UNL A   1      32.230  26.108  26.474  1.00  0.00     0.310 C 
ATOM      5  O   UNL A   1      31.054  25.764  26.583  1.00  0.00    -0.252 OA
BRANCH   4   6
ATOM      6  C   UNL A   1      33.142  25.388  25.480  1.00  0.00     0.161 C 
BRANCH   6   7
ATOM      7  C   UNL A   1      32.847  24.891  24.077  1.00  0.00    -0.000 C 
ATOM      8  C   UNL A   1      32.443  25.702  23.067  1.00  0.00     0.019 C 
BRANCH   8   9
ATOM      9  C   UNL A   1      32.048  27.084  23.158  1.00  0.00     0.019 A 
ATOM     10  C   UNL A   1      34.353  28.258  23.637  1.00  0.00     0.069 C 
ATOM     11  C   UNL A   1      32.904  28.211  23.308  1.00  0.00     0.067 A 
ATOM     12  N   UNL A   1      32.224  29.358  23.173  1.00  0.00    -0.177 NA
ATOM     13  N   UNL A   1      30.950  28.966  22.979  1.00  0.00    -0.265 N 
ATOM     14  C   UNL A   1      30.779  27.636  23.299  1.00  0.00     0.043 A 
ATOM     15  C   UNL A   1      29.471  27.076  23.736  1.00  0.00     0.067 C 
BRANCH  13  16
ATOM     16  C   UNL A   1      29.958  29.964  22.587  1.00  0.00     0.123 C 
ATOM     17  C   UNL A   1      28.707  29.339  21.925  1.00  0.00     0.044 C 
ATOM     18  C   UNL A   1      29.380  30.782  23.742  1.00  0.00     0.164 C 
ATOM     19  C   UNL A   1      27.686  30.455  21.734  1.00  0.00     0.139 C 
ATOM     20  S   UNL A   1      27.969  31.602  23.062  1.00  0.00     0.152 S 
ATOM     21  O   UNL A   1      28.425  32.859  22.488  1.00  0.00    -0.229 OA
ATOM     22  O   UNL A   1      26.879  31.534  24.001  1.00  0.00    -0.229 OA
ENDBRANCH  13  16
ENDBRANCH   8   9
BRANCH   7  23
ATOM     23  C   UNL A   1      33.279  23.551  23.726  1.00  0.00     0.121 A 
ATOM     24  N   UNL A   1      32.599  22.653  23.047  1.00  0.00    -0.236 NA
ATOM     25  S   UNL A   1      34.700  22.882  24.473  1.00  0.00    -0.114 S 
ATOM     26  C   UNL A   1      32.934  21.366  23.456  1.00  0.00     0.082 A 
ATOM     27  C   UNL A   1      34.053  21.292  24.280  1.00  0.00     0.055 A 
ATOM     28  C   UNL A   1      32.198  20.182  23.220  1.00  0.00     0.030 A 
ATOM     29  C   UNL A   1      34.463  20.078  24.858  1.00  0.00     0.021 A 
ATOM     30  C   UNL A   1      32.518  19.002  23.892  1.00  0.00     0.002 A 
ATOM     31  C   UNL A   1      33.646  18.952  24.695  1.00  0.00     0.002 A 
ENDBRANCH   7  23
ENDBRANCH   6   7
ENDBRANCH   4   6
ENDBRANCH   3   4
ENDBRANCH   2   3
ENDBRANCH   1   2
BRANCH   1  32
ATOM     32  O   UNL A   1      32.423  30.571  27.025  1.00  0.00    -0.374 OA
BRANCH  32  33
ATOM     33  C   UNL A   1      33.784  30.537  26.637  1.00  0.00     0.202 C 
BRANCH  33  34
ATOM     34  C   UNL A   1      34.877  30.703  27.695  1.00  0.00     0.261 C 
BRANCH  34  35
ATOM     35  O   UNL A   1      35.395  29.502  28.281  1.00  0.00    -0.460 OA
BRANCH  35  36
ATOM     36  C   UNL A   1      36.408  29.702  29.158  1.00  0.00     0.338 C 
ATOM     37  O   UNL A   1      36.390  30.498  30.088  1.00  0.00    -0.246 OA
BRANCH  36  38
ATOM     38  C   UNL A   1      37.659  29.029  28.738  1.00  0.00     0.060 A 
ATOM     39  C   UNL A   1      38.138  28.070  29.630  1.00  0.00     0.016 A 
ATOM     40  C   UNL A   1      38.499  29.543  27.748  1.00  0.00     0.016 A 
ATOM     41  C   UNL A   1      39.498  27.834  29.697  1.00  0.00     0.010 A 
ATOM     42  C   UNL A   1      39.876  29.356  27.851  1.00  0.00     0.010 A 
ATOM     43  C   UNL A   1      40.375  28.556  28.876  1.00  0.00    -0.014 A 
BRANCH  43  44
ATOM     44  C   UNL A   1      41.786  28.192  28.953  1.00  0.00     0.031 A 
ATOM     45  C   UNL A   1      42.093  27.129  27.968  1.00  0.00     0.074 A 
ATOM     46  C   UNL A   1      42.726  28.704  29.775  1.00  0.00     0.049 A 
ATOM     47  N   UNL A   1      42.273  25.875  28.216  1.00  0.00    -0.248 NA
ATOM     48  C   UNL A   1      41.956  27.450  26.539  1.00  0.00     0.031 C 
ATOM     49  C   UNL A   1      42.659  29.899  30.615  1.00  0.00     0.029 A 
ATOM     50  N   UNL A   1      44.005  28.261  29.983  1.00  0.00    -0.354 N 
ATOM     51  C   UNL A   1      42.482  25.280  26.978  1.00  0.00     0.074 A 
ATOM     52  C   UNL A   1      42.071  26.240  25.992  1.00  0.00     0.031 C 
ATOM     53  C   UNL A   1      43.903  30.204  31.063  1.00  0.00     0.029 A 
ATOM     54  C   UNL A   1      44.831  29.158  30.659  1.00  0.00     0.049 A 
ATOM     55  H   UNL A   1      44.318  27.379  29.677  1.00  0.00     0.167 HD
ATOM     56  C   UNL A   1      43.243  24.158  26.880  1.00  0.00     0.037 A 
ATOM     57  C   UNL A   1      46.178  29.054  30.831  1.00  0.00     0.037 A 
ATOM     58  C   UNL A   1      43.340  23.495  28.159  1.00  0.00     0.049 A 
ATOM     59  C   UNL A   1      46.550  27.635  30.622  1.00  0.00     0.074 A 
ATOM     60  C   UNL A   1      42.439  22.945  29.051  1.00  0.00     0.029 A 
ATOM     61  N   UNL A   1      44.507  23.662  28.861  1.00  0.00    -0.354 N 
ATOM     62  N   UNL A   1      46.260  26.676  31.452  1.00  0.00    -0.248 NA
ATOM     63  C   UNL A   1      46.885  27.215  29.271  1.00  0.00     0.031 C 
ATOM     64  C   UNL A   1      42.968  23.235  30.344  1.00  0.00     0.029 A 
ATOM     65  C   UNL A   1      44.193  23.879  30.173  1.00  0.00     0.049 A 
ATOM     66  H   UNL A   1      45.415  23.631  28.484  1.00  0.00     0.167 HD
ATOM     67  C   UNL A   1      45.911  25.612  30.637  1.00  0.00     0.074 A 
ATOM     68  C   UNL A   1      46.411  25.967  29.311  1.00  0.00     0.031 C 
ATOM     69  C   UNL A   1      44.998  24.689  31.056  1.00  0.00     0.037 A 
BRANCH  56  70
ATOM     70  C   UNL A   1      44.267  23.946  25.783  1.00  0.00     0.057 A 
ATOM     71  C   UNL A   1      44.301  22.697  25.135  1.00  0.00     0.134 A 
ATOM     72  C   UNL A   1      45.401  24.757  25.565  1.00  0.00     0.134 A 
ATOM     73  F   UNL A   1      43.283  21.832  25.250  1.00  0.00    -0.206 F 
ATOM     74  C   UNL A   1      45.425  22.245  24.433  1.00  0.00     0.040 A 
ATOM     75  C   UNL A   1      46.507  24.333  24.826  1.00  0.00     0.040 A 
ATOM     76  F   UNL A   1      45.559  25.962  26.121  1.00  0.00    -0.206 F 
ATOM     77  C   UNL A   1      46.540  23.058  24.291  1.00  0.00     0.006 A 
ENDBRANCH  56  70
BRANCH  57  78
ATOM     78  C   UNL A   1      47.230  30.102  30.889  1.00  0.00     0.057 A 
ATOM     79  C   UNL A   1      48.196  30.113  31.913  1.00  0.00     0.134 A 
ATOM     80  C   UNL A   1      47.511  30.914  29.780  1.00  0.00     0.134 A 
ATOM     81  F   UNL A   1      48.047  29.341  33.000  1.00  0.00    -0.206 F 
ATOM     82  C   UNL A   1      49.384  30.853  31.819  1.00  0.00     0.040 A 
ATOM     83  C   UNL A   1      48.692  31.662  29.676  1.00  0.00     0.040 A 
ATOM     84  F   UNL A   1      46.696  30.933  28.715  1.00  0.00    -0.206 F 
ATOM     85  C   UNL A   1      49.642  31.619  30.689  1.00  0.00     0.006 A 
ENDBRANCH  57  78
BRANCH  69  86
ATOM     86  C   UNL A   1      44.649  24.653  32.518  1.00  0.00     0.057 A 
ATOM     87  C   UNL A   1      43.884  25.622  33.185  1.00  0.00     0.134 A 
ATOM     88  C   UNL A   1      45.004  23.512  33.247  1.00  0.00     0.134 A 
ATOM     89  F   UNL A   1      43.418  26.706  32.548  1.00  0.00    -0.206 F 
ATOM     90  C   UNL A   1      43.527  25.473  34.530  1.00  0.00     0.040 A 
ATOM     91  C   UNL A   1      44.620  23.334  34.575  1.00  0.00     0.040 A 
ATOM     92  F   UNL A   1      45.698  22.523  32.659  1.00  0.00    -0.206 F 
ATOM     93  C   UNL A   1      43.888  24.323  35.226  1.00  0.00     0.006 A 
ENDBRANCH  69  86
ENDBRANCH  43  44
ENDBRANCH  36  38
ENDBRANCH  35  36
ENDBRANCH  34  35
ENDBRANCH  33  34
ENDBRANCH  32  33
ENDBRANCH   1  32
TORSDOF 18
ENDMDL
