MODEL 1
REMARK VINA RESULT:     -12.6      0.000      0.000
REMARK SMILES O=C(/C=C/c1ccc(S(=O)(=O)Nc2ccc3c(c2)OCCO3)cc1)OCCOCCOC(=O)c1ccc(-c2c3nc(c(-c4c(F)cccc4F)c4ccc([nH]4)c(-c4c(F)cccc4F)c4nc(c(-c5c(F)cccc5F)c5ccc2[nH]5)C=C4)C=C3)cc1
REMARK SMILES IDX 27 1 26 2 25 3 2 4 1 5 3 6 4 7 5 8 6 9 24 10 7 11 23 12 8 13
REMARK SMILES IDX 9 14 10 15 11 16 12 17 13 19 14 20 18 21 15 22 17 23 16 24
REMARK SMILES IDX 19 25 22 26 20 27 21 28 28 29 29 30 30 31 31 32 32 33 33 34
REMARK SMILES IDX 34 35 35 36 87 37 36 38 86 39 37 40 38 41 39 42 80 43 40 44
REMARK SMILES IDX 85 45 79 46 81 47 41 48 84 49 78 50 77 51 42 53 68 54 51 55
REMARK SMILES IDX 67 56 52 57 55 58 66 59 82 60 53 61 54 62 65 64 83 65 56 66
REMARK SMILES IDX 43 67 44 68 49 69 45 70 46 71 48 72 50 73 47 74 69 75 70 76
REMARK SMILES IDX 75 77 71 78 72 79 74 80 76 81 73 82 57 83 58 84 63 85 59 86
REMARK SMILES IDX 60 87 62 88 64 89 61 90
REMARK H PARENT 12 18 81 52 55 63
REMARK Flexibility Score: inf
ROOT
ATOM      1  C   UNL A   1      41.517  20.763  26.359  1.00  0.00     0.202 C 
ENDROOT
BRANCH   1   2
ATOM      2  C   UNL A   1      40.186  21.349  26.820  1.00  0.00     0.261 C 
BRANCH   2   3
ATOM      3  O   UNL A   1      39.353  21.874  25.771  1.00  0.00    -0.460 OA
BRANCH   3   4
ATOM      4  C   UNL A   1      38.239  21.335  25.229  1.00  0.00     0.330 C 
ATOM      5  O   UNL A   1      38.165  20.120  25.061  1.00  0.00    -0.247 OA
BRANCH   4   6
ATOM      6  C   UNL A   1      37.166  22.175  24.671  1.00  0.00     0.094 C 
ATOM      7  C   UNL A   1      35.918  22.317  25.131  1.00  0.00     0.015 C 
BRANCH   7   8
ATOM      8  C   UNL A   1      34.902  23.248  24.617  1.00  0.00    -0.025 A 
ATOM      9  C   UNL A   1      34.333  22.958  23.369  1.00  0.00     0.009 A 
ATOM     10  C   UNL A   1      34.591  24.462  25.236  1.00  0.00     0.009 A 
ATOM     11  C   UNL A   1      33.618  23.932  22.675  1.00  0.00     0.023 A 
ATOM     12  C   UNL A   1      33.820  25.418  24.566  1.00  0.00     0.023 A 
ATOM     13  C   UNL A   1      33.431  25.193  23.247  1.00  0.00     0.087 A 
BRANCH  13  14
ATOM     14  S   UNL A   1      32.848  26.513  22.198  1.00  0.00     0.261 S 
ATOM     15  O   UNL A   1      34.025  27.147  21.633  1.00  0.00    -0.201 OA
ATOM     16  O   UNL A   1      31.823  25.971  21.335  1.00  0.00    -0.201 OA
BRANCH  14  17
ATOM     17  N   UNL A   1      32.117  27.748  23.167  1.00  0.00    -0.279 N 
ATOM     18  H   UNL A   1      32.587  28.150  23.932  1.00  0.00     0.180 HD
BRANCH  17  19
ATOM     19  C   UNL A   1      30.790  28.160  22.797  1.00  0.00     0.053 A 
ATOM     20  C   UNL A   1      29.722  27.447  23.357  1.00  0.00     0.031 A 
ATOM     21  C   UNL A   1      30.564  29.316  22.057  1.00  0.00     0.077 A 
ATOM     22  C   UNL A   1      28.448  28.009  23.372  1.00  0.00     0.052 A 
ATOM     23  C   UNL A   1      29.309  29.907  22.126  1.00  0.00     0.163 A 
ATOM     24  C   UNL A   1      28.278  29.281  22.839  1.00  0.00     0.161 A 
ATOM     25  O   UNL A   1      29.204  31.169  21.604  1.00  0.00    -0.486 OA
ATOM     26  O   UNL A   1      27.127  29.958  23.164  1.00  0.00    -0.486 OA
ATOM     27  C   UNL A   1      28.077  31.905  22.100  1.00  0.00     0.271 C 
ATOM     28  C   UNL A   1      27.504  31.325  23.384  1.00  0.00     0.271 C 
ENDBRANCH  17  19
ENDBRANCH  14  17
ENDBRANCH  13  14
ENDBRANCH   7   8
ENDBRANCH   4   6
ENDBRANCH   3   4
ENDBRANCH   2   3
ENDBRANCH   1   2
BRANCH   1  29
ATOM     29  O   UNL A   1      42.274  21.558  25.450  1.00  0.00    -0.374 OA
BRANCH  29  30
ATOM     30  C   UNL A   1      43.695  21.389  25.544  1.00  0.00     0.202 C 
BRANCH  30  31
ATOM     31  C   UNL A   1      44.496  22.388  24.706  1.00  0.00     0.261 C 
BRANCH  31  32
ATOM     32  O   UNL A   1      43.761  23.606  24.540  1.00  0.00    -0.460 OA
BRANCH  32  33
ATOM     33  C   UNL A   1      44.404  24.705  25.000  1.00  0.00     0.338 C 
ATOM     34  O   UNL A   1      45.512  25.106  24.683  1.00  0.00    -0.246 OA
BRANCH  33  35
ATOM     35  C   UNL A   1      43.470  25.496  25.824  1.00  0.00     0.060 A 
ATOM     36  C   UNL A   1      43.715  26.872  25.929  1.00  0.00     0.016 A 
ATOM     37  C   UNL A   1      42.381  24.913  26.479  1.00  0.00     0.016 A 
ATOM     38  C   UNL A   1      42.926  27.656  26.760  1.00  0.00     0.010 A 
ATOM     39  C   UNL A   1      41.592  25.698  27.320  1.00  0.00     0.010 A 
ATOM     40  C   UNL A   1      41.908  27.054  27.510  1.00  0.00    -0.014 A 
BRANCH  40  41
ATOM     41  C   UNL A   1      41.385  27.780  28.687  1.00  0.00     0.031 A 
ATOM     42  C   UNL A   1      42.139  27.642  29.982  1.00  0.00     0.074 A 
ATOM     43  C   UNL A   1      40.321  28.592  28.590  1.00  0.00     0.049 A 
ATOM     44  N   UNL A   1      41.904  28.188  31.145  1.00  0.00    -0.248 NA
ATOM     45  C   UNL A   1      43.321  26.760  29.961  1.00  0.00     0.031 C 
ATOM     46  C   UNL A   1      39.548  28.834  27.374  1.00  0.00     0.029 A 
ATOM     47  N   UNL A   1      39.715  29.371  29.540  1.00  0.00    -0.354 N 
ATOM     48  C   UNL A   1      42.897  27.709  31.992  1.00  0.00     0.074 A 
ATOM     49  C   UNL A   1      43.712  26.798  31.224  1.00  0.00     0.031 C 
ATOM     50  C   UNL A   1      38.565  29.709  27.652  1.00  0.00     0.029 A 
ATOM     51  C   UNL A   1      38.628  30.064  29.069  1.00  0.00     0.049 A 
ATOM     52  H   UNL A   1      40.028  29.427  30.471  1.00  0.00     0.167 HD
ATOM     53  C   UNL A   1      43.117  28.013  33.291  1.00  0.00     0.037 A 
ATOM     54  C   UNL A   1      37.782  30.885  29.720  1.00  0.00     0.037 A 
ATOM     55  C   UNL A   1      42.303  28.928  34.045  1.00  0.00     0.049 A 
ATOM     56  C   UNL A   1      38.015  31.163  31.182  1.00  0.00     0.074 A 
ATOM     57  C   UNL A   1      42.442  29.321  35.364  1.00  0.00     0.029 A 
ATOM     58  N   UNL A   1      41.191  29.586  33.542  1.00  0.00    -0.354 N 
ATOM     59  N   UNL A   1      38.969  30.726  31.969  1.00  0.00    -0.248 NA
ATOM     60  C   UNL A   1      37.058  32.062  31.842  1.00  0.00     0.031 C 
ATOM     61  C   UNL A   1      41.379  30.176  35.674  1.00  0.00     0.029 A 
ATOM     62  C   UNL A   1      40.619  30.369  34.531  1.00  0.00     0.049 A 
ATOM     63  H   UNL A   1      40.858  29.510  32.619  1.00  0.00     0.167 HD
ATOM     64  C   UNL A   1      38.753  31.330  33.203  1.00  0.00     0.074 A 
ATOM     65  C   UNL A   1      37.583  32.169  33.054  1.00  0.00     0.031 C 
ATOM     66  C   UNL A   1      39.462  31.209  34.354  1.00  0.00     0.037 A 
BRANCH  53  67
ATOM     67  C   UNL A   1      44.258  27.320  33.980  1.00  0.00     0.057 A 
ATOM     68  C   UNL A   1      44.078  26.154  34.736  1.00  0.00     0.134 A 
ATOM     69  C   UNL A   1      45.559  27.829  33.880  1.00  0.00     0.134 A 
ATOM     70  F   UNL A   1      42.855  25.626  34.893  1.00  0.00    -0.206 F 
ATOM     71  C   UNL A   1      45.147  25.535  35.389  1.00  0.00     0.040 A 
ATOM     72  C   UNL A   1      46.640  27.201  34.502  1.00  0.00     0.040 A 
ATOM     73  F   UNL A   1      45.803  28.943  33.174  1.00  0.00    -0.206 F 
ATOM     74  C   UNL A   1      46.433  26.056  35.267  1.00  0.00     0.006 A 
ENDBRANCH  53  67
BRANCH  54  75
ATOM     75  C   UNL A   1      36.645  31.510  28.998  1.00  0.00     0.057 A 
ATOM     76  C   UNL A   1      36.669  32.863  28.638  1.00  0.00     0.134 A 
ATOM     77  C   UNL A   1      35.496  30.779  28.674  1.00  0.00     0.134 A 
ATOM     78  F   UNL A   1      37.733  33.623  28.938  1.00  0.00    -0.206 F 
ATOM     79  C   UNL A   1      35.584  33.472  28.005  1.00  0.00     0.040 A 
ATOM     80  C   UNL A   1      34.414  31.367  28.015  1.00  0.00     0.040 A 
ATOM     81  F   UNL A   1      35.410  29.478  28.985  1.00  0.00    -0.206 F 
ATOM     82  C   UNL A   1      34.454  32.721  27.689  1.00  0.00     0.006 A 
ENDBRANCH  54  75
BRANCH  66  83
ATOM     83  C   UNL A   1      39.030  32.053  35.518  1.00  0.00     0.057 A 
ATOM     84  C   UNL A   1      38.224  31.554  36.548  1.00  0.00     0.134 A 
ATOM     85  C   UNL A   1      39.451  33.387  35.618  1.00  0.00     0.134 A 
ATOM     86  F   UNL A   1      37.778  30.288  36.511  1.00  0.00    -0.206 F 
ATOM     87  C   UNL A   1      37.821  32.360  37.615  1.00  0.00     0.040 A 
ATOM     88  C   UNL A   1      39.083  34.192  36.696  1.00  0.00     0.040 A 
ATOM     89  F   UNL A   1      40.237  33.926  34.673  1.00  0.00    -0.206 F 
ATOM     90  C   UNL A   1      38.255  33.681  37.693  1.00  0.00     0.006 A 
ENDBRANCH  66  83
ENDBRANCH  40  41
ENDBRANCH  33  35
ENDBRANCH  32  33
ENDBRANCH  31  32
ENDBRANCH  30  31
ENDBRANCH  29  30
ENDBRANCH   1  29
TORSDOF 18
ENDMDL
MODEL 2
REMARK VINA RESULT:     -12.4      2.929      4.489
REMARK SMILES O=C(/C=C/c1ccc(S(=O)(=O)Nc2ccc3c(c2)OCCO3)cc1)OCCOCCOC(=O)c1ccc(-c2c3nc(c(-c4c(F)cccc4F)c4ccc([nH]4)c(-c4c(F)cccc4F)c4nc(c(-c5c(F)cccc5F)c5ccc2[nH]5)C=C4)C=C3)cc1
REMARK SMILES IDX 27 1 26 2 25 3 2 4 1 5 3 6 4 7 5 8 6 9 24 10 7 11 23 12 8 13
REMARK SMILES IDX 9 14 10 15 11 16 12 17 13 19 14 20 18 21 15 22 17 23 16 24
REMARK SMILES IDX 19 25 22 26 20 27 21 28 28 29 29 30 30 31 31 32 32 33 33 34
REMARK SMILES IDX 34 35 35 36 87 37 36 38 86 39 37 40 38 41 39 42 80 43 40 44
REMARK SMILES IDX 85 45 79 46 81 47 41 48 84 49 78 50 77 51 42 53 68 54 51 55
REMARK SMILES IDX 67 56 52 57 55 58 66 59 82 60 53 61 54 62 65 64 83 65 56 66
REMARK SMILES IDX 43 67 44 68 49 69 45 70 46 71 48 72 50 73 47 74 69 75 70 76
REMARK SMILES IDX 75 77 71 78 72 79 74 80 76 81 73 82 57 83 58 84 63 85 59 86
REMARK SMILES IDX 60 87 62 88 64 89 61 90
REMARK H PARENT 12 18 81 52 55 63
REMARK Flexibility Score: inf
ROOT
ATOM      1  C   UNL A   1      44.039  19.100  24.721  1.00  0.00     0.202 C 
ENDROOT
BRANCH   1   2
ATOM      2  C   UNL A   1      43.247  19.505  25.961  1.00  0.00     0.261 C 
BRANCH   2   3
ATOM      3  O   UNL A   1      42.272  20.542  25.752  1.00  0.00    -0.460 OA
BRANCH   3   4
ATOM      4  C   UNL A   1      41.610  21.274  26.674  1.00  0.00     0.330 C 
ATOM      5  O   UNL A   1      42.034  21.340  27.825  1.00  0.00    -0.247 OA
BRANCH   4   6
ATOM      6  C   UNL A   1      40.293  21.869  26.390  1.00  0.00     0.094 C 
ATOM      7  C   UNL A   1      39.256  21.298  25.766  1.00  0.00     0.015 C 
BRANCH   7   8
ATOM      8  C   UNL A   1      37.917  21.880  25.596  1.00  0.00    -0.025 A 
ATOM      9  C   UNL A   1      36.945  21.092  24.965  1.00  0.00     0.009 A 
ATOM     10  C   UNL A   1      37.615  23.211  25.899  1.00  0.00     0.009 A 
ATOM     11  C   UNL A   1      35.770  21.667  24.484  1.00  0.00     0.023 A 
ATOM     12  C   UNL A   1      36.408  23.776  25.472  1.00  0.00     0.023 A 
ATOM     13  C   UNL A   1      35.542  23.033  24.671  1.00  0.00     0.087 A 
BRANCH  13  14
ATOM     14  S   UNL A   1      34.233  23.801  23.734  1.00  0.00     0.261 S 
ATOM     15  O   UNL A   1      34.291  25.222  24.025  1.00  0.00    -0.201 OA
ATOM     16  O   UNL A   1      34.328  23.328  22.372  1.00  0.00    -0.201 OA
BRANCH  14  17
ATOM     17  N   UNL A   1      32.697  23.297  24.357  1.00  0.00    -0.279 N 
ATOM     18  H   UNL A   1      32.123  23.909  24.871  1.00  0.00     0.180 HD
BRANCH  17  19
ATOM     19  C   UNL A   1      32.301  21.942  24.085  1.00  0.00     0.053 A 
ATOM     20  C   UNL A   1      32.143  21.581  22.741  1.00  0.00     0.031 A 
ATOM     21  C   UNL A   1      32.241  20.983  25.091  1.00  0.00     0.077 A 
ATOM     22  C   UNL A   1      32.155  20.236  22.379  1.00  0.00     0.052 A 
ATOM     23  C   UNL A   1      32.316  19.644  24.729  1.00  0.00     0.163 A 
ATOM     24  C   UNL A   1      32.338  19.284  23.375  1.00  0.00     0.161 A 
ATOM     25  O   UNL A   1      32.518  18.752  25.748  1.00  0.00    -0.486 OA
ATOM     26  O   UNL A   1      32.692  18.016  22.984  1.00  0.00    -0.486 OA
ATOM     27  C   UNL A   1      33.050  17.492  25.312  1.00  0.00     0.271 C 
ATOM     28  C   UNL A   1      33.671  17.554  23.925  1.00  0.00     0.271 C 
ENDBRANCH  17  19
ENDBRANCH  14  17
ENDBRANCH  13  14
ENDBRANCH   7   8
ENDBRANCH   4   6
ENDBRANCH   3   4
ENDBRANCH   2   3
ENDBRANCH   1   2
BRANCH   1  29
ATOM     29  O   UNL A   1      44.449  20.161  23.862  1.00  0.00    -0.374 OA
BRANCH  29  30
ATOM     30  C   UNL A   1      45.207  21.195  24.503  1.00  0.00     0.202 C 
BRANCH  30  31
ATOM     31  C   UNL A   1      44.893  22.603  23.992  1.00  0.00     0.261 C 
BRANCH  31  32
ATOM     32  O   UNL A   1      44.204  23.359  24.996  1.00  0.00    -0.460 OA
BRANCH  32  33
ATOM     33  C   UNL A   1      44.686  24.612  25.170  1.00  0.00     0.338 C 
ATOM     34  O   UNL A   1      45.654  25.119  24.627  1.00  0.00    -0.246 OA
BRANCH  33  35
ATOM     35  C   UNL A   1      43.731  25.382  25.990  1.00  0.00     0.060 A 
ATOM     36  C   UNL A   1      43.938  26.764  26.085  1.00  0.00     0.016 A 
ATOM     37  C   UNL A   1      42.660  24.773  26.651  1.00  0.00     0.016 A 
ATOM     38  C   UNL A   1      43.128  27.532  26.912  1.00  0.00     0.010 A 
ATOM     39  C   UNL A   1      41.852  25.541  27.488  1.00  0.00     0.010 A 
ATOM     40  C   UNL A   1      42.129  26.907  27.668  1.00  0.00    -0.014 A 
BRANCH  40  41
ATOM     41  C   UNL A   1      41.588  27.625  28.841  1.00  0.00     0.031 A 
ATOM     42  C   UNL A   1      42.320  27.478  30.148  1.00  0.00     0.074 A 
ATOM     43  C   UNL A   1      40.526  28.440  28.732  1.00  0.00     0.049 A 
ATOM     44  N   UNL A   1      42.067  28.017  31.311  1.00  0.00    -0.248 NA
ATOM     45  C   UNL A   1      43.501  26.595  30.140  1.00  0.00     0.031 C 
ATOM     46  C   UNL A   1      39.773  28.690  27.505  1.00  0.00     0.029 A 
ATOM     47  N   UNL A   1      39.905  29.213  29.677  1.00  0.00    -0.354 N 
ATOM     48  C   UNL A   1      43.046  27.531  32.170  1.00  0.00     0.074 A 
ATOM     49  C   UNL A   1      43.873  26.625  31.409  1.00  0.00     0.031 C 
ATOM     50  C   UNL A   1      38.787  29.564  27.774  1.00  0.00     0.029 A 
ATOM     51  C   UNL A   1      38.828  29.910  29.193  1.00  0.00     0.049 A 
ATOM     52  H   UNL A   1      40.204  29.263  30.614  1.00  0.00     0.167 HD
ATOM     53  C   UNL A   1      43.245  27.827  33.475  1.00  0.00     0.037 A 
ATOM     54  C   UNL A   1      37.972  30.727  29.835  1.00  0.00     0.037 A 
ATOM     55  C   UNL A   1      42.420  28.738  34.221  1.00  0.00     0.049 A 
ATOM     56  C   UNL A   1      38.181  30.996  31.303  1.00  0.00     0.074 A 
ATOM     57  C   UNL A   1      42.537  29.123  35.544  1.00  0.00     0.029 A 
ATOM     58  N   UNL A   1      41.316  29.401  33.705  1.00  0.00    -0.354 N 
ATOM     59  N   UNL A   1      39.121  30.553  32.103  1.00  0.00    -0.248 NA
ATOM     60  C   UNL A   1      37.214  31.892  31.953  1.00  0.00     0.031 C 
ATOM     61  C   UNL A   1      41.471  29.977  35.843  1.00  0.00     0.029 A 
ATOM     62  C   UNL A   1      40.730  30.178  34.688  1.00  0.00     0.049 A 
ATOM     63  H   UNL A   1      40.998  29.331  32.775  1.00  0.00     0.167 HD
ATOM     64  C   UNL A   1      38.886  31.149  33.336  1.00  0.00     0.074 A 
ATOM     65  C   UNL A   1      37.720  31.991  33.174  1.00  0.00     0.031 C 
ATOM     66  C   UNL A   1      39.576  31.020  34.498  1.00  0.00     0.037 A 
BRANCH  53  67
ATOM     67  C   UNL A   1      44.374  27.129  34.177  1.00  0.00     0.057 A 
ATOM     68  C   UNL A   1      45.661  27.678  34.253  1.00  0.00     0.134 A 
ATOM     69  C   UNL A   1      44.166  25.887  34.792  1.00  0.00     0.134 A 
ATOM     70  F   UNL A   1      45.936  28.853  33.667  1.00  0.00    -0.206 F 
ATOM     71  C   UNL A   1      46.706  27.005  34.891  1.00  0.00     0.040 A 
ATOM     72  C   UNL A   1      45.195  25.221  35.459  1.00  0.00     0.040 A 
ATOM     73  F   UNL A   1      42.959  25.302  34.756  1.00  0.00    -0.206 F 
ATOM     74  C   UNL A   1      46.471  25.776  35.502  1.00  0.00     0.006 A 
ENDBRANCH  53  67
BRANCH  54  75
ATOM     75  C   UNL A   1      36.847  31.359  29.099  1.00  0.00     0.057 A 
ATOM     76  C   UNL A   1      35.707  30.625  28.746  1.00  0.00     0.134 A 
ATOM     77  C   UNL A   1      36.894  32.702  28.707  1.00  0.00     0.134 A 
ATOM     78  F   UNL A   1      35.610  29.329  29.076  1.00  0.00    -0.206 F 
ATOM     79  C   UNL A   1      34.668  31.197  28.010  1.00  0.00     0.040 A 
ATOM     80  C   UNL A   1      35.850  33.295  27.995  1.00  0.00     0.040 A 
ATOM     81  F   UNL A   1      37.955  33.461  29.017  1.00  0.00    -0.206 F 
ATOM     82  C   UNL A   1      34.737  32.537  27.636  1.00  0.00     0.006 A 
ENDBRANCH  54  75
BRANCH  66  83
ATOM     83  C   UNL A   1      39.126  31.858  35.661  1.00  0.00     0.057 A 
ATOM     84  C   UNL A   1      39.548  33.181  35.840  1.00  0.00     0.134 A 
ATOM     85  C   UNL A   1      38.233  31.332  36.605  1.00  0.00     0.134 A 
ATOM     86  F   UNL A   1      40.408  33.744  34.977  1.00  0.00    -0.206 F 
ATOM     87  C   UNL A   1      39.129  33.938  36.935  1.00  0.00     0.040 A 
ATOM     88  C   UNL A   1      37.781  32.089  37.686  1.00  0.00     0.040 A 
ATOM     89  F   UNL A   1      37.778  30.075  36.487  1.00  0.00    -0.206 F 
ATOM     90  C   UNL A   1      38.239  33.393  37.859  1.00  0.00     0.006 A 
ENDBRANCH  66  83
ENDBRANCH  40  41
ENDBRANCH  33  35
ENDBRANCH  32  33
ENDBRANCH  31  32
ENDBRANCH  30  31
ENDBRANCH  29  30
ENDBRANCH   1  29
TORSDOF 18
ENDMDL
MODEL 3
REMARK VINA RESULT:     -12.4      1.504      2.134
REMARK SMILES O=C(/C=C/c1ccc(S(=O)(=O)Nc2ccc3c(c2)OCCO3)cc1)OCCOCCOC(=O)c1ccc(-c2c3nc(c(-c4c(F)cccc4F)c4ccc([nH]4)c(-c4c(F)cccc4F)c4nc(c(-c5c(F)cccc5F)c5ccc2[nH]5)C=C4)C=C3)cc1
REMARK SMILES IDX 27 1 26 2 25 3 2 4 1 5 3 6 4 7 5 8 6 9 24 10 7 11 23 12 8 13
REMARK SMILES IDX 9 14 10 15 11 16 12 17 13 19 14 20 18 21 15 22 17 23 16 24
REMARK SMILES IDX 19 25 22 26 20 27 21 28 28 29 29 30 30 31 31 32 32 33 33 34
REMARK SMILES IDX 34 35 35 36 87 37 36 38 86 39 37 40 38 41 39 42 80 43 40 44
REMARK SMILES IDX 85 45 79 46 81 47 41 48 84 49 78 50 77 51 42 53 68 54 51 55
REMARK SMILES IDX 67 56 52 57 55 58 66 59 82 60 53 61 54 62 65 64 83 65 56 66
REMARK SMILES IDX 43 67 44 68 49 69 45 70 46 71 48 72 50 73 47 74 69 75 70 76
REMARK SMILES IDX 75 77 71 78 72 79 74 80 76 81 73 82 57 83 58 84 63 85 59 86
REMARK SMILES IDX 60 87 62 88 64 89 61 90
REMARK H PARENT 12 18 81 52 55 63
REMARK Flexibility Score: inf
ROOT
ATOM      1  C   UNL A   1      41.778  20.727  26.667  1.00  0.00     0.202 C 
ENDROOT
BRANCH   1   2
ATOM      2  C   UNL A   1      40.621  21.572  27.189  1.00  0.00     0.261 C 
BRANCH   2   3
ATOM      3  O   UNL A   1      39.780  22.151  26.176  1.00  0.00    -0.460 OA
BRANCH   3   4
ATOM      4  C   UNL A   1      38.560  21.746  25.759  1.00  0.00     0.330 C 
ATOM      5  O   UNL A   1      38.458  20.773  25.016  1.00  0.00    -0.247 OA
BRANCH   4   6
ATOM      6  C   UNL A   1      37.348  22.536  26.031  1.00  0.00     0.094 C 
ATOM      7  C   UNL A   1      36.074  22.150  25.895  1.00  0.00     0.015 C 
BRANCH   7   8
ATOM      8  C   UNL A   1      34.885  22.925  26.280  1.00  0.00    -0.025 A 
ATOM      9  C   UNL A   1      33.882  22.256  26.994  1.00  0.00     0.009 A 
ATOM     10  C   UNL A   1      34.651  24.234  25.850  1.00  0.00     0.009 A 
ATOM     11  C   UNL A   1      32.610  22.813  27.116  1.00  0.00     0.023 A 
ATOM     12  C   UNL A   1      33.392  24.820  26.027  1.00  0.00     0.023 A 
ATOM     13  C   UNL A   1      32.347  24.068  26.558  1.00  0.00     0.087 A 
BRANCH  13  14
ATOM     14  S   UNL A   1      30.645  24.578  26.406  1.00  0.00     0.261 S 
ATOM     15  O   UNL A   1      29.857  23.642  27.186  1.00  0.00    -0.201 OA
ATOM     16  O   UNL A   1      30.583  25.995  26.682  1.00  0.00    -0.201 OA
BRANCH  14  17
ATOM     17  N   UNL A   1      30.108  24.339  24.777  1.00  0.00    -0.279 N 
ATOM     18  H   UNL A   1      29.644  23.516  24.502  1.00  0.00     0.180 HD
BRANCH  17  19
ATOM     19  C   UNL A   1      30.372  25.401  23.845  1.00  0.00     0.053 A 
ATOM     20  C   UNL A   1      29.473  26.475  23.830  1.00  0.00     0.031 A 
ATOM     21  C   UNL A   1      31.553  25.452  23.111  1.00  0.00     0.077 A 
ATOM     22  C   UNL A   1      29.855  27.690  23.267  1.00  0.00     0.052 A 
ATOM     23  C   UNL A   1      31.962  26.679  22.606  1.00  0.00     0.163 A 
ATOM     24  C   UNL A   1      31.138  27.804  22.745  1.00  0.00     0.161 A 
ATOM     25  O   UNL A   1      33.243  26.740  22.124  1.00  0.00    -0.486 OA
ATOM     26  O   UNL A   1      31.621  29.070  22.517  1.00  0.00    -0.486 OA
ATOM     27  C   UNL A   1      33.771  28.073  22.059  1.00  0.00     0.271 C 
ATOM     28  C   UNL A   1      32.998  29.063  22.918  1.00  0.00     0.271 C 
ENDBRANCH  17  19
ENDBRANCH  14  17
ENDBRANCH  13  14
ENDBRANCH   7   8
ENDBRANCH   4   6
ENDBRANCH   3   4
ENDBRANCH   2   3
ENDBRANCH   1   2
BRANCH   1  29
ATOM     29  O   UNL A   1      42.441  21.217  25.504  1.00  0.00    -0.374 OA
BRANCH  29  30
ATOM     30  C   UNL A   1      43.873  21.181  25.568  1.00  0.00     0.202 C 
BRANCH  30  31
ATOM     31  C   UNL A   1      44.562  22.205  24.664  1.00  0.00     0.261 C 
BRANCH  31  32
ATOM     32  O   UNL A   1      43.779  23.401  24.574  1.00  0.00    -0.460 OA
BRANCH  32  33
ATOM     33  C   UNL A   1      44.425  24.516  24.990  1.00  0.00     0.338 C 
ATOM     34  O   UNL A   1      45.519  24.921  24.630  1.00  0.00    -0.246 OA
BRANCH  33  35
ATOM     35  C   UNL A   1      43.510  25.315  25.827  1.00  0.00     0.060 A 
ATOM     36  C   UNL A   1      43.744  26.695  25.895  1.00  0.00     0.016 A 
ATOM     37  C   UNL A   1      42.449  24.736  26.530  1.00  0.00     0.016 A 
ATOM     38  C   UNL A   1      42.973  27.489  26.734  1.00  0.00     0.010 A 
ATOM     39  C   UNL A   1      41.680  25.531  27.379  1.00  0.00     0.010 A 
ATOM     40  C   UNL A   1      41.987  26.894  27.530  1.00  0.00    -0.014 A 
BRANCH  40  41
ATOM     41  C   UNL A   1      41.495  27.639  28.708  1.00  0.00     0.031 A 
ATOM     42  C   UNL A   1      42.265  27.498  29.993  1.00  0.00     0.074 A 
ATOM     43  C   UNL A   1      40.445  28.471  28.619  1.00  0.00     0.049 A 
ATOM     44  N   UNL A   1      42.057  28.060  31.155  1.00  0.00    -0.248 NA
ATOM     45  C   UNL A   1      43.430  26.595  29.963  1.00  0.00     0.031 C 
ATOM     46  C   UNL A   1      39.658  28.716  27.411  1.00  0.00     0.029 A 
ATOM     47  N   UNL A   1      39.867  29.269  29.570  1.00  0.00    -0.354 N 
ATOM     48  C   UNL A   1      43.053  27.569  31.991  1.00  0.00     0.074 A 
ATOM     49  C   UNL A   1      43.840  26.637  31.220  1.00  0.00     0.031 C 
ATOM     50  C   UNL A   1      38.696  29.612  27.696  1.00  0.00     0.029 A 
ATOM     51  C   UNL A   1      38.787  29.978  29.108  1.00  0.00     0.049 A 
ATOM     52  H   UNL A   1      40.195  29.328  30.496  1.00  0.00     0.167 HD
ATOM     53  C   UNL A   1      43.298  27.880  33.284  1.00  0.00     0.037 A 
ATOM     54  C   UNL A   1      37.966  30.820  29.764  1.00  0.00     0.037 A 
ATOM     55  C   UNL A   1      42.512  28.817  34.042  1.00  0.00     0.049 A 
ATOM     56  C   UNL A   1      38.225  31.107  31.220  1.00  0.00     0.074 A 
ATOM     57  C   UNL A   1      42.677  29.220  35.354  1.00  0.00     0.029 A 
ATOM     58  N   UNL A   1      41.405  29.492  33.549  1.00  0.00    -0.354 N 
ATOM     59  N   UNL A   1      39.182  30.659  31.997  1.00  0.00    -0.248 NA
ATOM     60  C   UNL A   1      37.294  32.030  31.885  1.00  0.00     0.031 C 
ATOM     61  C   UNL A   1      41.635  30.097  35.672  1.00  0.00     0.029 A 
ATOM     62  C   UNL A   1      40.863  30.294  34.538  1.00  0.00     0.049 A 
ATOM     63  H   UNL A   1      41.057  29.414  32.631  1.00  0.00     0.167 HD
ATOM     64  C   UNL A   1      38.996  31.278  33.228  1.00  0.00     0.074 A 
ATOM     65  C   UNL A   1      37.839  32.138  33.089  1.00  0.00     0.031 C 
ATOM     66  C   UNL A   1      39.718  31.154  34.370  1.00  0.00     0.037 A 
BRANCH  53  67
ATOM     67  C   UNL A   1      44.436  27.173  33.963  1.00  0.00     0.057 A 
ATOM     68  C   UNL A   1      44.273  25.936  34.601  1.00  0.00     0.134 A 
ATOM     69  C   UNL A   1      45.716  27.740  33.973  1.00  0.00     0.134 A 
ATOM     70  F   UNL A   1      43.068  25.347  34.648  1.00  0.00    -0.206 F 
ATOM     71  C   UNL A   1      45.337  25.302  35.247  1.00  0.00     0.040 A 
ATOM     72  C   UNL A   1      46.794  27.100  34.588  1.00  0.00     0.040 A 
ATOM     73  F   UNL A   1      45.943  28.923  33.384  1.00  0.00    -0.206 F 
ATOM     74  C   UNL A   1      46.603  25.882  35.235  1.00  0.00     0.006 A 
ENDBRANCH  53  67
BRANCH  54  75
ATOM     75  C   UNL A   1      36.830  31.460  29.053  1.00  0.00     0.057 A 
ATOM     76  C   UNL A   1      36.882  32.804  28.663  1.00  0.00     0.134 A 
ATOM     77  C   UNL A   1      35.655  30.754  28.769  1.00  0.00     0.134 A 
ATOM     78  F   UNL A   1      37.972  33.541  28.923  1.00  0.00    -0.206 F 
ATOM     79  C   UNL A   1      35.799  33.428  28.040  1.00  0.00     0.040 A 
ATOM     80  C   UNL A   1      34.575  31.357  28.121  1.00  0.00     0.040 A 
ATOM     81  F   UNL A   1      35.542  29.462  29.111  1.00  0.00    -0.206 F 
ATOM     82  C   UNL A   1      34.643  32.701  27.764  1.00  0.00     0.006 A 
ENDBRANCH  54  75
BRANCH  66  83
ATOM     83  C   UNL A   1      39.319  32.017  35.533  1.00  0.00     0.057 A 
ATOM     84  C   UNL A   1      38.429  31.578  36.520  1.00  0.00     0.134 A 
ATOM     85  C   UNL A   1      39.857  33.303  35.675  1.00  0.00     0.134 A 
ATOM     86  F   UNL A   1      37.870  30.360  36.441  1.00  0.00    -0.206 F 
ATOM     87  C   UNL A   1      38.059  32.401  37.586  1.00  0.00     0.040 A 
ATOM     88  C   UNL A   1      39.522  34.122  36.753  1.00  0.00     0.040 A 
ATOM     89  F   UNL A   1      40.728  33.781  34.773  1.00  0.00    -0.206 F 
ATOM     90  C   UNL A   1      38.610  33.675  37.707  1.00  0.00     0.006 A 
ENDBRANCH  66  83
ENDBRANCH  40  41
ENDBRANCH  33  35
ENDBRANCH  32  33
ENDBRANCH  31  32
ENDBRANCH  30  31
ENDBRANCH  29  30
ENDBRANCH   1  29
TORSDOF 18
ENDMDL
