MODEL 1
REMARK VINA RESULT:     -11.2      0.000      0.000
REMARK SMILES O=C(COc1ccc2c3c(c(=O)oc2c1)CCC3)NCCCC(=O)OCCOCCOC(=O)c1ccc(-c2c3nc(c(-c4c(F)cccc4F)c4ccc([nH]4)c(-c4c(F)cccc4F)c4nc(c(-c5c(F)cccc5F)c5ccc2[nH]5)C=C4)C=C3)cc1
REMARK SMILES IDX 26 1 25 2 23 3 24 4 22 5 21 6 20 7 19 8 1 9 2 10 3 12 4 13
REMARK SMILES IDX 5 14 6 15 15 16 7 17 14 18 8 19 13 20 9 21 11 22 10 23 18 24
REMARK SMILES IDX 12 25 16 26 17 27 27 28 28 29 29 30 30 31 31 32 32 33 33 34
REMARK SMILES IDX 34 35 35 36 87 37 36 38 86 39 37 40 38 41 39 42 80 43 40 44
REMARK SMILES IDX 85 45 79 46 81 47 41 48 84 49 78 50 77 51 42 53 68 54 51 55
REMARK SMILES IDX 67 56 52 57 55 58 66 59 82 60 53 61 54 62 65 64 83 65 56 66
REMARK SMILES IDX 43 67 44 68 49 69 45 70 46 71 48 72 50 73 47 74 69 75 70 76
REMARK SMILES IDX 75 77 71 78 72 79 74 80 76 81 73 82 57 83 58 84 63 85 59 86
REMARK SMILES IDX 60 87 62 88 64 89 61 90
REMARK H PARENT 19 11 81 52 55 63
REMARK Flexibility Score: inf
ROOT
ATOM      1  C   UNL A   1      40.984  20.649  26.933  1.00  0.00     0.261 C 
ENDROOT
BRANCH   1   2
ATOM      2  O   UNL A   1      40.706  21.851  26.185  1.00  0.00    -0.463 OA
BRANCH   2   3
ATOM      3  C   UNL A   1      39.420  22.280  26.184  1.00  0.00     0.305 C 
ATOM      4  O   UNL A   1      39.035  23.338  26.665  1.00  0.00    -0.252 OA
BRANCH   3   5
ATOM      5  C   UNL A   1      38.464  21.268  25.588  1.00  0.00     0.124 C 
BRANCH   5   6
ATOM      6  C   UNL A   1      37.396  21.774  24.615  1.00  0.00     0.033 C 
BRANCH   6   7
ATOM      7  C   UNL A   1      35.965  21.347  24.922  1.00  0.00     0.116 C 
BRANCH   7   8
ATOM      8  N   UNL A   1      34.986  22.304  24.468  1.00  0.00    -0.353 N 
ATOM      9  O   UNL A   1      33.286  20.804  24.100  1.00  0.00    -0.271 OA
ATOM     10  C   UNL A   1      33.685  21.962  24.170  1.00  0.00     0.257 C 
ATOM     11  H   UNL A   1      35.260  23.246  24.367  1.00  0.00     0.163 HD
BRANCH  10  12
ATOM     12  C   UNL A   1      32.761  23.168  23.967  1.00  0.00     0.329 C 
BRANCH  12  13
ATOM     13  O   UNL A   1      33.373  24.314  23.371  1.00  0.00    -0.484 OA
BRANCH  13  14
ATOM     14  C   UNL A   1      32.621  25.458  23.408  1.00  0.00     0.123 A 
ATOM     15  C   UNL A   1      31.638  25.582  22.421  1.00  0.00     0.047 A 
ATOM     16  C   UNL A   1      32.825  26.502  24.307  1.00  0.00     0.094 A 
ATOM     17  C   UNL A   1      30.836  26.730  22.356  1.00  0.00     0.016 A 
ATOM     18  C   UNL A   1      32.026  27.636  24.229  1.00  0.00     0.142 A 
ATOM     19  C   UNL A   1      31.026  27.769  23.268  1.00  0.00     0.021 A 
ATOM     20  O   UNL A   1      32.275  28.647  25.184  1.00  0.00    -0.422 OA
ATOM     21  C   UNL A   1      30.253  28.991  23.292  1.00  0.00    -0.027 A 
ATOM     22  C   UNL A   1      31.503  29.803  25.247  1.00  0.00     0.339 A 
ATOM     23  C   UNL A   1      30.481  29.931  24.210  1.00  0.00     0.042 A 
ATOM     24  C   UNL A   1      29.173  29.375  22.354  1.00  0.00     0.037 C 
ATOM     25  O   UNL A   1      31.696  30.670  26.090  1.00  0.00    -0.246 OA
ATOM     26  C   UNL A   1      29.601  31.116  24.063  1.00  0.00     0.044 C 
ATOM     27  C   UNL A   1      28.761  30.774  22.829  1.00  0.00     0.010 C 
ENDBRANCH  13  14
ENDBRANCH  12  13
ENDBRANCH  10  12
ENDBRANCH   7   8
ENDBRANCH   6   7
ENDBRANCH   5   6
ENDBRANCH   3   5
ENDBRANCH   2   3
ENDBRANCH   1   2
BRANCH   1  28
ATOM     28  C   UNL A   1      42.356  20.080  26.558  1.00  0.00     0.202 C 
BRANCH  28  29
ATOM     29  O   UNL A   1      42.897  20.564  25.326  1.00  0.00    -0.374 OA
BRANCH  29  30
ATOM     30  C   UNL A   1      44.225  21.080  25.376  1.00  0.00     0.202 C 
BRANCH  30  31
ATOM     31  C   UNL A   1      44.547  22.177  24.354  1.00  0.00     0.261 C 
BRANCH  31  32
ATOM     32  O   UNL A   1      43.710  23.334  24.528  1.00  0.00    -0.460 OA
BRANCH  32  33
ATOM     33  C   UNL A   1      44.372  24.438  24.948  1.00  0.00     0.338 C 
ATOM     34  O   UNL A   1      45.495  24.798  24.617  1.00  0.00    -0.246 OA
BRANCH  33  35
ATOM     35  C   UNL A   1      43.500  25.284  25.783  1.00  0.00     0.060 A 
ATOM     36  C   UNL A   1      43.831  26.641  25.890  1.00  0.00     0.016 A 
ATOM     37  C   UNL A   1      42.454  24.753  26.535  1.00  0.00     0.016 A 
ATOM     38  C   UNL A   1      43.167  27.457  26.805  1.00  0.00     0.010 A 
ATOM     39  C   UNL A   1      41.795  25.575  27.456  1.00  0.00     0.010 A 
ATOM     40  C   UNL A   1      42.170  26.921  27.632  1.00  0.00    -0.014 A 
BRANCH  40  41
ATOM     41  C   UNL A   1      41.675  27.705  28.798  1.00  0.00     0.031 A 
ATOM     42  C   UNL A   1      42.384  27.562  30.125  1.00  0.00     0.074 A 
ATOM     43  C   UNL A   1      40.636  28.557  28.686  1.00  0.00     0.049 A 
ATOM     44  N   UNL A   1      42.092  28.091  31.288  1.00  0.00    -0.248 NA
ATOM     45  C   UNL A   1      43.570  26.689  30.146  1.00  0.00     0.031 C 
ATOM     46  C   UNL A   1      39.842  28.782  27.478  1.00  0.00     0.029 A 
ATOM     47  N   UNL A   1      40.055  29.378  29.622  1.00  0.00    -0.354 N 
ATOM     48  C   UNL A   1      43.048  27.605  32.175  1.00  0.00     0.074 A 
ATOM     49  C   UNL A   1      43.893  26.697  31.430  1.00  0.00     0.031 C 
ATOM     50  C   UNL A   1      38.863  29.664  27.753  1.00  0.00     0.029 A 
ATOM     51  C   UNL A   1      38.946  30.047  29.160  1.00  0.00     0.049 A 
ATOM     52  H   UNL A   1      40.401  29.479  30.539  1.00  0.00     0.167 HD
ATOM     53  C   UNL A   1      43.234  27.907  33.482  1.00  0.00     0.037 A 
ATOM     54  C   UNL A   1      38.072  30.837  29.813  1.00  0.00     0.037 A 
ATOM     55  C   UNL A   1      42.421  28.836  34.222  1.00  0.00     0.049 A 
ATOM     56  C   UNL A   1      38.268  31.123  31.275  1.00  0.00     0.074 A 
ATOM     57  C   UNL A   1      42.569  29.262  35.531  1.00  0.00     0.029 A 
ATOM     58  N   UNL A   1      41.309  29.485  33.712  1.00  0.00    -0.354 N 
ATOM     59  N   UNL A   1      39.175  30.655  32.097  1.00  0.00    -0.248 NA
ATOM     60  C   UNL A   1      37.316  32.058  31.893  1.00  0.00     0.031 C 
ATOM     61  C   UNL A   1      41.527  30.147  35.822  1.00  0.00     0.029 A 
ATOM     62  C   UNL A   1      40.756  30.305  34.683  1.00  0.00     0.049 A 
ATOM     63  H   UNL A   1      40.962  29.380  32.797  1.00  0.00     0.167 HD
ATOM     64  C   UNL A   1      38.925  31.264  33.320  1.00  0.00     0.074 A 
ATOM     65  C   UNL A   1      37.770  32.119  33.137  1.00  0.00     0.031 C 
ATOM     66  C   UNL A   1      39.603  31.143  34.486  1.00  0.00     0.037 A 
BRANCH  53  67
ATOM     67  C   UNL A   1      44.375  27.240  34.196  1.00  0.00     0.057 A 
ATOM     68  C   UNL A   1      44.217  26.011  34.852  1.00  0.00     0.134 A 
ATOM     69  C   UNL A   1      45.655  27.809  34.193  1.00  0.00     0.134 A 
ATOM     70  F   UNL A   1      43.015  25.416  34.899  1.00  0.00    -0.206 F 
ATOM     71  C   UNL A   1      45.283  25.386  35.501  1.00  0.00     0.040 A 
ATOM     72  C   UNL A   1      46.735  27.180  34.817  1.00  0.00     0.040 A 
ATOM     73  F   UNL A   1      45.880  28.978  33.575  1.00  0.00    -0.206 F 
ATOM     74  C   UNL A   1      46.549  25.967  35.478  1.00  0.00     0.006 A 
ENDBRANCH  53  67
BRANCH  54  75
ATOM     75  C   UNL A   1      36.882  31.385  29.118  1.00  0.00     0.057 A 
ATOM     76  C   UNL A   1      35.773  30.587  28.827  1.00  0.00     0.134 A 
ATOM     77  C   UNL A   1      36.863  32.708  28.665  1.00  0.00     0.134 A 
ATOM     78  F   UNL A   1      35.761  29.294  29.180  1.00  0.00    -0.206 F 
ATOM     79  C   UNL A   1      34.680  31.092  28.120  1.00  0.00     0.040 A 
ATOM     80  C   UNL A   1      35.767  33.236  27.982  1.00  0.00     0.040 A 
ATOM     81  F   UNL A   1      37.932  33.496  28.835  1.00  0.00    -0.206 F 
ATOM     82  C   UNL A   1      34.671  32.424  27.706  1.00  0.00     0.006 A 
ENDBRANCH  54  75
BRANCH  66  83
ATOM     83  C   UNL A   1      39.153  32.002  35.628  1.00  0.00     0.057 A 
ATOM     84  C   UNL A   1      38.297  31.524  36.628  1.00  0.00     0.134 A 
ATOM     85  C   UNL A   1      39.594  33.328  35.730  1.00  0.00     0.134 A 
ATOM     86  F   UNL A   1      37.827  30.268  36.577  1.00  0.00    -0.206 F 
ATOM     87  C   UNL A   1      37.874  32.345  37.675  1.00  0.00     0.040 A 
ATOM     88  C   UNL A   1      39.196  34.150  36.783  1.00  0.00     0.040 A 
ATOM     89  F   UNL A   1      40.418  33.843  34.806  1.00  0.00    -0.206 F 
ATOM     90  C   UNL A   1      38.327  33.661  37.756  1.00  0.00     0.006 A 
ENDBRANCH  66  83
ENDBRANCH  40  41
ENDBRANCH  33  35
ENDBRANCH  32  33
ENDBRANCH  31  32
ENDBRANCH  30  31
ENDBRANCH  29  30
ENDBRANCH  28  29
ENDBRANCH   1  28
TORSDOF 20
ENDMDL
MODEL 2
REMARK VINA RESULT:     -10.8      1.145      2.074
REMARK SMILES O=C(COc1ccc2c3c(c(=O)oc2c1)CCC3)NCCCC(=O)OCCOCCOC(=O)c1ccc(-c2c3nc(c(-c4c(F)cccc4F)c4ccc([nH]4)c(-c4c(F)cccc4F)c4nc(c(-c5c(F)cccc5F)c5ccc2[nH]5)C=C4)C=C3)cc1
REMARK SMILES IDX 26 1 25 2 23 3 24 4 22 5 21 6 20 7 19 8 1 9 2 10 3 12 4 13
REMARK SMILES IDX 5 14 6 15 15 16 7 17 14 18 8 19 13 20 9 21 11 22 10 23 18 24
REMARK SMILES IDX 12 25 16 26 17 27 27 28 28 29 29 30 30 31 31 32 32 33 33 34
REMARK SMILES IDX 34 35 35 36 87 37 36 38 86 39 37 40 38 41 39 42 80 43 40 44
REMARK SMILES IDX 85 45 79 46 81 47 41 48 84 49 78 50 77 51 42 53 68 54 51 55
REMARK SMILES IDX 67 56 52 57 55 58 66 59 82 60 53 61 54 62 65 64 83 65 56 66
REMARK SMILES IDX 43 67 44 68 49 69 45 70 46 71 48 72 50 73 47 74 69 75 70 76
REMARK SMILES IDX 75 77 71 78 72 79 74 80 76 81 73 82 57 83 58 84 63 85 59 86
REMARK SMILES IDX 60 87 62 88 64 89 61 90
REMARK H PARENT 19 11 81 52 55 63
REMARK Flexibility Score: inf
ROOT
ATOM      1  C   UNL A   1      41.041  20.344  26.876  1.00  0.00     0.261 C 
ENDROOT
BRANCH   1   2
ATOM      2  O   UNL A   1      40.785  21.524  26.086  1.00  0.00    -0.463 OA
BRANCH   2   3
ATOM      3  C   UNL A   1      39.535  22.047  26.167  1.00  0.00     0.305 C 
ATOM      4  O   UNL A   1      39.246  23.076  26.762  1.00  0.00    -0.252 OA
BRANCH   3   5
ATOM      5  C   UNL A   1      38.490  21.177  25.501  1.00  0.00     0.124 C 
BRANCH   5   6
ATOM      6  C   UNL A   1      37.150  21.817  25.132  1.00  0.00     0.033 C 
BRANCH   6   7
ATOM      7  C   UNL A   1      35.969  20.860  25.015  1.00  0.00     0.116 C 
BRANCH   7   8
ATOM      8  N   UNL A   1      34.696  21.519  25.179  1.00  0.00    -0.353 N 
ATOM      9  O   UNL A   1      34.696  21.545  27.476  1.00  0.00    -0.271 OA
ATOM     10  C   UNL A   1      34.196  21.887  26.409  1.00  0.00     0.257 C 
ATOM     11  H   UNL A   1      34.161  21.716  24.376  1.00  0.00     0.163 HD
BRANCH  10  12
ATOM     12  C   UNL A   1      32.969  22.801  26.328  1.00  0.00     0.329 C 
BRANCH  12  13
ATOM     13  O   UNL A   1      32.200  22.688  25.127  1.00  0.00    -0.484 OA
BRANCH  13  14
ATOM     14  C   UNL A   1      31.774  23.877  24.597  1.00  0.00     0.123 A 
ATOM     15  C   UNL A   1      32.761  24.686  24.026  1.00  0.00     0.047 A 
ATOM     16  C   UNL A   1      30.461  24.337  24.659  1.00  0.00     0.094 A 
ATOM     17  C   UNL A   1      32.431  25.936  23.483  1.00  0.00     0.016 A 
ATOM     18  C   UNL A   1      30.148  25.580  24.122  1.00  0.00     0.142 A 
ATOM     19  C   UNL A   1      31.113  26.391  23.527  1.00  0.00     0.021 A 
ATOM     20  O   UNL A   1      28.794  25.976  24.201  1.00  0.00    -0.422 OA
ATOM     21  C   UNL A   1      30.664  27.659  22.995  1.00  0.00    -0.027 A 
ATOM     22  C   UNL A   1      28.345  27.170  23.646  1.00  0.00     0.339 A 
ATOM     23  C   UNL A   1      29.381  28.015  23.055  1.00  0.00     0.042 A 
ATOM     24  C   UNL A   1      31.505  28.699  22.358  1.00  0.00     0.037 C 
ATOM     25  O   UNL A   1      27.168  27.505  23.688  1.00  0.00    -0.246 OA
ATOM     26  C   UNL A   1      29.119  29.354  22.474  1.00  0.00     0.044 C 
ATOM     27  C   UNL A   1      30.511  29.824  22.042  1.00  0.00     0.010 C 
ENDBRANCH  13  14
ENDBRANCH  12  13
ENDBRANCH  10  12
ENDBRANCH   7   8
ENDBRANCH   6   7
ENDBRANCH   5   6
ENDBRANCH   3   5
ENDBRANCH   2   3
ENDBRANCH   1   2
BRANCH   1  28
ATOM     28  C   UNL A   1      42.371  19.699  26.473  1.00  0.00     0.202 C 
BRANCH  28  29
ATOM     29  O   UNL A   1      42.938  20.189  25.256  1.00  0.00    -0.374 OA
BRANCH  29  30
ATOM     30  C   UNL A   1      44.168  20.901  25.372  1.00  0.00     0.202 C 
BRANCH  30  31
ATOM     31  C   UNL A   1      44.380  22.026  24.351  1.00  0.00     0.261 C 
BRANCH  31  32
ATOM     32  O   UNL A   1      43.566  23.175  24.644  1.00  0.00    -0.460 OA
BRANCH  32  33
ATOM     33  C   UNL A   1      44.269  24.270  25.019  1.00  0.00     0.338 C 
ATOM     34  O   UNL A   1      45.400  24.579  24.667  1.00  0.00    -0.246 OA
BRANCH  33  35
ATOM     35  C   UNL A   1      43.433  25.176  25.827  1.00  0.00     0.060 A 
ATOM     36  C   UNL A   1      43.881  26.493  25.990  1.00  0.00     0.016 A 
ATOM     37  C   UNL A   1      42.301  24.728  26.508  1.00  0.00     0.016 A 
ATOM     38  C   UNL A   1      43.244  27.348  26.890  1.00  0.00     0.010 A 
ATOM     39  C   UNL A   1      41.669  25.589  27.413  1.00  0.00     0.010 A 
ATOM     40  C   UNL A   1      42.158  26.889  27.646  1.00  0.00    -0.014 A 
BRANCH  40  41
ATOM     41  C   UNL A   1      41.672  27.690  28.804  1.00  0.00     0.031 A 
ATOM     42  C   UNL A   1      42.370  27.540  30.136  1.00  0.00     0.074 A 
ATOM     43  C   UNL A   1      40.651  28.562  28.681  1.00  0.00     0.049 A 
ATOM     44  N   UNL A   1      42.082  28.082  31.295  1.00  0.00    -0.248 NA
ATOM     45  C   UNL A   1      43.537  26.643  30.170  1.00  0.00     0.031 C 
ATOM     46  C   UNL A   1      39.870  28.797  27.467  1.00  0.00     0.029 A 
ATOM     47  N   UNL A   1      40.082  29.401  29.609  1.00  0.00    -0.354 N 
ATOM     48  C   UNL A   1      43.023  27.581  32.190  1.00  0.00     0.074 A 
ATOM     49  C   UNL A   1      43.853  26.652  31.456  1.00  0.00     0.031 C 
ATOM     50  C   UNL A   1      38.907  29.701  27.731  1.00  0.00     0.029 A 
ATOM     51  C   UNL A   1      38.990  30.091  29.136  1.00  0.00     0.049 A 
ATOM     52  H   UNL A   1      40.424  29.500  30.527  1.00  0.00     0.167 HD
ATOM     53  C   UNL A   1      43.207  27.888  33.497  1.00  0.00     0.037 A 
ATOM     54  C   UNL A   1      38.128  30.902  29.779  1.00  0.00     0.037 A 
ATOM     55  C   UNL A   1      42.409  28.837  34.226  1.00  0.00     0.049 A 
ATOM     56  C   UNL A   1      38.322  31.193  31.241  1.00  0.00     0.074 A 
ATOM     57  C   UNL A   1      42.558  29.268  35.533  1.00  0.00     0.029 A 
ATOM     58  N   UNL A   1      41.313  29.506  33.706  1.00  0.00    -0.354 N 
ATOM     59  N   UNL A   1      39.214  30.711  32.071  1.00  0.00    -0.248 NA
ATOM     60  C   UNL A   1      37.386  32.151  31.847  1.00  0.00     0.031 C 
ATOM     61  C   UNL A   1      41.532  30.177  35.813  1.00  0.00     0.029 A 
ATOM     62  C   UNL A   1      40.772  30.343  34.669  1.00  0.00     0.049 A 
ATOM     63  H   UNL A   1      40.970  29.403  32.790  1.00  0.00     0.167 HD
ATOM     64  C   UNL A   1      38.969  31.332  33.289  1.00  0.00     0.074 A 
ATOM     65  C   UNL A   1      37.834  32.210  33.094  1.00  0.00     0.031 C 
ATOM     66  C   UNL A   1      39.638  31.204  34.460  1.00  0.00     0.037 A 
BRANCH  53  67
ATOM     67  C   UNL A   1      44.329  27.201  34.221  1.00  0.00     0.057 A 
ATOM     68  C   UNL A   1      45.576  27.816  34.402  1.00  0.00     0.134 A 
ATOM     69  C   UNL A   1      44.151  25.930  34.782  1.00  0.00     0.134 A 
ATOM     70  F   UNL A   1      45.815  29.030  33.884  1.00  0.00    -0.206 F 
ATOM     71  C   UNL A   1      46.612  27.181  35.089  1.00  0.00     0.040 A 
ATOM     72  C   UNL A   1      45.171  25.295  35.494  1.00  0.00     0.040 A 
ATOM     73  F   UNL A   1      42.979  25.288  34.657  1.00  0.00    -0.206 F 
ATOM     74  C   UNL A   1      46.408  25.919  35.644  1.00  0.00     0.006 A 
ENDBRANCH  53  67
BRANCH  54  75
ATOM     75  C   UNL A   1      36.954  31.470  29.074  1.00  0.00     0.057 A 
ATOM     76  C   UNL A   1      36.933  32.798  28.641  1.00  0.00     0.134 A 
ATOM     77  C   UNL A   1      35.796  30.710  28.885  1.00  0.00     0.134 A 
ATOM     78  F   UNL A   1      37.991  33.594  28.853  1.00  0.00    -0.206 F 
ATOM     79  C   UNL A   1      35.802  33.345  28.030  1.00  0.00     0.040 A 
ATOM     80  C   UNL A   1      34.668  31.233  28.251  1.00  0.00     0.040 A 
ATOM     81  F   UNL A   1      35.723  29.459  29.357  1.00  0.00    -0.206 F 
ATOM     82  C   UNL A   1      34.670  32.557  27.823  1.00  0.00     0.006 A 
ENDBRANCH  54  75
BRANCH  66  83
ATOM     83  C   UNL A   1      39.200  32.079  35.594  1.00  0.00     0.057 A 
ATOM     84  C   UNL A   1      39.648  33.397  35.735  1.00  0.00     0.134 A 
ATOM     85  C   UNL A   1      38.307  31.590  36.557  1.00  0.00     0.134 A 
ATOM     86  F   UNL A   1      40.518  33.918  34.856  1.00  0.00    -0.206 F 
ATOM     87  C   UNL A   1      39.242  34.192  36.809  1.00  0.00     0.040 A 
ATOM     88  C   UNL A   1      37.877  32.381  37.621  1.00  0.00     0.040 A 
ATOM     89  F   UNL A   1      37.838  30.336  36.475  1.00  0.00    -0.206 F 
ATOM     90  C   UNL A   1      38.351  33.684  37.754  1.00  0.00     0.006 A 
ENDBRANCH  66  83
ENDBRANCH  40  41
ENDBRANCH  33  35
ENDBRANCH  32  33
ENDBRANCH  31  32
ENDBRANCH  30  31
ENDBRANCH  29  30
ENDBRANCH  28  29
ENDBRANCH   1  28
TORSDOF 20
ENDMDL
MODEL 3
REMARK VINA RESULT:     -10.6      4.160      8.634
REMARK SMILES O=C(COc1ccc2c3c(c(=O)oc2c1)CCC3)NCCCC(=O)OCCOCCOC(=O)c1ccc(-c2c3nc(c(-c4c(F)cccc4F)c4ccc([nH]4)c(-c4c(F)cccc4F)c4nc(c(-c5c(F)cccc5F)c5ccc2[nH]5)C=C4)C=C3)cc1
REMARK SMILES IDX 26 1 25 2 23 3 24 4 22 5 21 6 20 7 19 8 1 9 2 10 3 12 4 13
REMARK SMILES IDX 5 14 6 15 15 16 7 17 14 18 8 19 13 20 9 21 11 22 10 23 18 24
REMARK SMILES IDX 12 25 16 26 17 27 27 28 28 29 29 30 30 31 31 32 32 33 33 34
REMARK SMILES IDX 34 35 35 36 87 37 36 38 86 39 37 40 38 41 39 42 80 43 40 44
REMARK SMILES IDX 85 45 79 46 81 47 41 48 84 49 78 50 77 51 42 53 68 54 51 55
REMARK SMILES IDX 67 56 52 57 55 58 66 59 82 60 53 61 54 62 65 64 83 65 56 66
REMARK SMILES IDX 43 67 44 68 49 69 45 70 46 71 48 72 50 73 47 74 69 75 70 76
REMARK SMILES IDX 75 77 71 78 72 79 74 80 76 81 73 82 57 83 58 84 63 85 59 86
REMARK SMILES IDX 60 87 62 88 64 89 61 90
REMARK H PARENT 19 11 81 52 55 63
REMARK Flexibility Score: inf
ROOT
ATOM      1  C   UNL A   1      36.581  23.703  24.367  1.00  0.00     0.261 C 
ENDROOT
BRANCH   1   2
ATOM      2  O   UNL A   1      35.246  23.305  24.744  1.00  0.00    -0.463 OA
BRANCH   2   3
ATOM      3  C   UNL A   1      34.610  24.097  25.643  1.00  0.00     0.305 C 
ATOM      4  O   UNL A   1      34.188  23.722  26.729  1.00  0.00    -0.252 OA
BRANCH   3   5
ATOM      5  C   UNL A   1      34.394  25.507  25.135  1.00  0.00     0.124 C 
BRANCH   5   6
ATOM      6  C   UNL A   1      33.640  26.489  26.035  1.00  0.00     0.033 C 
BRANCH   6   7
ATOM      7  C   UNL A   1      33.781  27.962  25.671  1.00  0.00     0.116 C 
BRANCH   7   8
ATOM      8  N   UNL A   1      32.518  28.582  25.351  1.00  0.00    -0.353 N 
ATOM      9  O   UNL A   1      32.996  29.059  23.155  1.00  0.00    -0.271 OA
ATOM     10  C   UNL A   1      32.194  29.010  24.082  1.00  0.00     0.257 C 
ATOM     11  H   UNL A   1      31.857  28.705  26.072  1.00  0.00     0.163 HD
BRANCH  10  12
ATOM     12  C   UNL A   1      30.718  29.390  23.918  1.00  0.00     0.329 C 
BRANCH  12  13
ATOM     13  O   UNL A   1      29.877  28.363  23.387  1.00  0.00    -0.484 OA
BRANCH  13  14
ATOM     14  C   UNL A   1      30.303  27.083  23.626  1.00  0.00     0.123 A 
ATOM     15  C   UNL A   1      30.945  26.438  22.565  1.00  0.00     0.047 A 
ATOM     16  C   UNL A   1      30.075  26.390  24.813  1.00  0.00     0.094 A 
ATOM     17  C   UNL A   1      31.392  25.117  22.700  1.00  0.00     0.016 A 
ATOM     18  C   UNL A   1      30.519  25.078  24.932  1.00  0.00     0.142 A 
ATOM     19  C   UNL A   1      31.181  24.426  23.894  1.00  0.00     0.021 A 
ATOM     20  O   UNL A   1      30.271  24.441  26.169  1.00  0.00    -0.422 OA
ATOM     21  C   UNL A   1      31.604  23.065  24.140  1.00  0.00    -0.027 A 
ATOM     22  C   UNL A   1      30.720  23.151  26.432  1.00  0.00     0.339 A 
ATOM     23  C   UNL A   1      31.385  22.479  25.318  1.00  0.00     0.042 A 
ATOM     24  C   UNL A   1      32.285  22.162  23.183  1.00  0.00     0.037 C 
ATOM     25  O   UNL A   1      30.532  22.604  27.512  1.00  0.00    -0.246 OA
ATOM     26  C   UNL A   1      31.875  21.080  25.374  1.00  0.00     0.044 C 
ATOM     27  C   UNL A   1      32.438  20.853  23.968  1.00  0.00     0.010 C 
ENDBRANCH  13  14
ENDBRANCH  12  13
ENDBRANCH  10  12
ENDBRANCH   7   8
ENDBRANCH   6   7
ENDBRANCH   5   6
ENDBRANCH   3   5
ENDBRANCH   2   3
ENDBRANCH   1   2
BRANCH   1  28
ATOM     28  C   UNL A   1      37.536  23.602  25.560  1.00  0.00     0.202 C 
BRANCH  28  29
ATOM     29  O   UNL A   1      37.777  22.274  26.034  1.00  0.00    -0.374 OA
BRANCH  29  30
ATOM     30  C   UNL A   1      39.142  21.873  26.128  1.00  0.00     0.202 C 
BRANCH  30  31
ATOM     31  C   UNL A   1      39.432  20.419  25.734  1.00  0.00     0.261 C 
BRANCH  31  32
ATOM     32  O   UNL A   1      40.234  19.747  26.721  1.00  0.00    -0.460 OA
BRANCH  32  33
ATOM     33  C   UNL A   1      41.503  19.490  26.322  1.00  0.00     0.338 C 
ATOM     34  O   UNL A   1      41.909  18.488  25.748  1.00  0.00    -0.246 OA
BRANCH  33  35
ATOM     35  C   UNL A   1      42.365  20.666  26.535  1.00  0.00     0.060 A 
ATOM     36  C   UNL A   1      42.409  21.208  27.826  1.00  0.00     0.016 A 
ATOM     37  C   UNL A   1      43.027  21.298  25.483  1.00  0.00     0.016 A 
ATOM     38  C   UNL A   1      43.052  22.424  28.058  1.00  0.00     0.010 A 
ATOM     39  C   UNL A   1      43.665  22.521  25.720  1.00  0.00     0.010 A 
ATOM     40  C   UNL A   1      43.648  23.117  26.996  1.00  0.00    -0.014 A 
BRANCH  40  41
ATOM     41  C   UNL A   1      44.068  24.535  27.181  1.00  0.00     0.031 A 
ATOM     42  C   UNL A   1      43.046  25.538  27.664  1.00  0.00     0.074 A 
ATOM     43  C   UNL A   1      45.337  24.930  26.960  1.00  0.00     0.049 A 
ATOM     44  N   UNL A   1      43.164  26.833  27.832  1.00  0.00    -0.248 NA
ATOM     45  C   UNL A   1      41.706  25.015  27.978  1.00  0.00     0.031 C 
ATOM     46  C   UNL A   1      46.424  24.081  26.472  1.00  0.00     0.029 A 
ATOM     47  N   UNL A   1      45.920  26.168  27.097  1.00  0.00    -0.354 N 
ATOM     48  C   UNL A   1      41.914  27.273  28.259  1.00  0.00     0.074 A 
ATOM     49  C   UNL A   1      41.040  26.121  28.269  1.00  0.00     0.031 C 
ATOM     50  C   UNL A   1      47.535  24.827  26.328  1.00  0.00     0.029 A 
ATOM     51  C   UNL A   1      47.234  26.209  26.691  1.00  0.00     0.049 A 
ATOM     52  H   UNL A   1      45.442  26.951  27.454  1.00  0.00     0.167 HD
ATOM     53  C   UNL A   1      41.530  28.515  28.642  1.00  0.00     0.037 A 
ATOM     54  C   UNL A   1      48.076  27.254  26.578  1.00  0.00     0.037 A 
ATOM     55  C   UNL A   1      42.401  29.659  28.670  1.00  0.00     0.049 A 
ATOM     56  C   UNL A   1      47.616  28.632  26.964  1.00  0.00     0.074 A 
ATOM     57  C   UNL A   1      42.127  30.945  29.106  1.00  0.00     0.029 A 
ATOM     58  N   UNL A   1      43.720  29.653  28.246  1.00  0.00    -0.354 N 
ATOM     59  N   UNL A   1      46.434  29.030  27.363  1.00  0.00    -0.248 NA
ATOM     60  C   UNL A   1      48.621  29.703  26.886  1.00  0.00     0.031 C 
ATOM     61  C   UNL A   1      43.272  31.724  28.918  1.00  0.00     0.029 A 
ATOM     62  C   UNL A   1      44.271  30.914  28.405  1.00  0.00     0.049 A 
ATOM     63  H   UNL A   1      44.195  28.870  27.886  1.00  0.00     0.167 HD
ATOM     64  C   UNL A   1      46.559  30.390  27.618  1.00  0.00     0.074 A 
ATOM     65  C   UNL A   1      47.928  30.751  27.309  1.00  0.00     0.031 C 
ATOM     66  C   UNL A   1      45.632  31.258  28.087  1.00  0.00     0.037 A 
BRANCH  53  67
ATOM     67  C   UNL A   1      40.106  28.698  29.082  1.00  0.00     0.057 A 
ATOM     68  C   UNL A   1      39.714  28.505  30.414  1.00  0.00     0.134 A 
ATOM     69  C   UNL A   1      39.122  29.114  28.175  1.00  0.00     0.134 A 
ATOM     70  F   UNL A   1      40.605  28.100  31.331  1.00  0.00    -0.206 F 
ATOM     71  C   UNL A   1      38.392  28.691  30.822  1.00  0.00     0.040 A 
ATOM     72  C   UNL A   1      37.802  29.329  28.577  1.00  0.00     0.040 A 
ATOM     73  F   UNL A   1      39.429  29.329  26.887  1.00  0.00    -0.206 F 
ATOM     74  C   UNL A   1      37.433  29.111  29.903  1.00  0.00     0.006 A 
ENDBRANCH  53  67
BRANCH  54  75
ATOM     75  C   UNL A   1      49.438  27.071  26.023  1.00  0.00     0.057 A 
ATOM     76  C   UNL A   1      49.689  27.167  24.653  1.00  0.00     0.134 A 
ATOM     77  C   UNL A   1      50.509  26.721  26.853  1.00  0.00     0.134 A 
ATOM     78  F   UNL A   1      48.689  27.436  23.801  1.00  0.00    -0.206 F 
ATOM     79  C   UNL A   1      50.963  26.935  24.129  1.00  0.00     0.040 A 
ATOM     80  C   UNL A   1      51.792  26.513  26.349  1.00  0.00     0.040 A 
ATOM     81  F   UNL A   1      50.313  26.527  28.164  1.00  0.00    -0.206 F 
ATOM     82  C   UNL A   1      52.021  26.618  24.980  1.00  0.00     0.006 A 
ENDBRANCH  54  75
BRANCH  66  83
ATOM     83  C   UNL A   1      46.085  32.661  28.354  1.00  0.00     0.057 A 
ATOM     84  C   UNL A   1      45.992  33.671  27.390  1.00  0.00     0.134 A 
ATOM     85  C   UNL A   1      46.618  33.003  29.604  1.00  0.00     0.134 A 
ATOM     86  F   UNL A   1      45.507  33.401  26.167  1.00  0.00    -0.206 F 
ATOM     87  C   UNL A   1      46.436  34.968  27.651  1.00  0.00     0.040 A 
ATOM     88  C   UNL A   1      47.044  34.301  29.884  1.00  0.00     0.040 A 
ATOM     89  F   UNL A   1      46.730  32.081  30.571  1.00  0.00    -0.206 F 
ATOM     90  C   UNL A   1      46.961  35.287  28.903  1.00  0.00     0.006 A 
ENDBRANCH  66  83
ENDBRANCH  40  41
ENDBRANCH  33  35
ENDBRANCH  32  33
ENDBRANCH  31  32
ENDBRANCH  30  31
ENDBRANCH  29  30
ENDBRANCH  28  29
ENDBRANCH   1  28
TORSDOF 20
ENDMDL
