MODEL 1
REMARK VINA RESULT:     -11.6      0.000      0.000
REMARK SMILES Cc1cccc2c1N=CN1C2=[NH+]NC(=O)[C@@H]1CC(=O)OCCOCCOC(=O)c1ccc(-c2c3nc(c(-c4c(F)cccc4F)c4ccc([nH]4)c(-c4c(F)cccc4F)c4nc(c(-c5c(F)cccc5F)c5ccc2[nH]5)C=C4)C=C3)cc1
REMARK SMILES IDX 24 1 23 2 22 3 21 4 20 5 18 6 19 7 17 8 16 9 1 10 2 11 3 12
REMARK SMILES IDX 7 13 4 14 6 15 8 16 5 17 11 18 9 19 10 20 12 21 13 22 14 24
REMARK SMILES IDX 15 26 25 27 26 28 27 29 28 30 29 31 30 32 82 33 31 34 81 35
REMARK SMILES IDX 32 36 33 37 34 38 75 39 35 40 80 41 74 42 76 43 36 44 79 45
REMARK SMILES IDX 73 46 72 47 37 49 63 50 46 51 62 52 47 53 50 54 61 55 77 56
REMARK SMILES IDX 48 57 49 58 60 60 78 61 51 62 38 63 39 64 44 65 40 66 41 67
REMARK SMILES IDX 43 68 45 69 42 70 64 71 65 72 70 73 66 74 67 75 69 76 71 77
REMARK SMILES IDX 68 78 52 79 53 80 58 81 54 82 55 83 57 84 59 85 56 86
REMARK H PARENT 12 23 13 25 76 48 50 59
REMARK Flexibility Score: inf
ROOT
ATOM      1  C   UNL A   1      42.375  20.823  26.049  1.00  0.00     0.202 C 
ENDROOT
BRANCH   1   2
ATOM      2  O   UNL A   1      41.810  21.231  27.299  1.00  0.00    -0.374 OA
BRANCH   2   3
ATOM      3  C   UNL A   1      40.409  21.504  27.328  1.00  0.00     0.202 C 
BRANCH   3   4
ATOM      4  C   UNL A   1      39.766  21.844  25.978  1.00  0.00     0.261 C 
BRANCH   4   5
ATOM      5  O   UNL A   1      38.360  21.540  25.959  1.00  0.00    -0.463 OA
BRANCH   5   6
ATOM      6  C   UNL A   1      37.558  22.629  25.872  1.00  0.00     0.310 C 
ATOM      7  O   UNL A   1      37.924  23.745  25.526  1.00  0.00    -0.252 OA
BRANCH   6   8
ATOM      8  C   UNL A   1      36.115  22.307  26.137  1.00  0.00     0.183 C 
BRANCH   8   9
ATOM      9  C   UNL A   1      35.138  22.431  24.970  1.00  0.00     0.286 C 
ATOM     10  C   UNL A   1      32.169  28.237  25.303  1.00  0.00     0.047 C 
ATOM     11  C   UNL A   1      31.695  26.881  24.860  1.00  0.00    -0.024 A 
ATOM     12  C   UNL A   1      30.387  26.770  24.354  1.00  0.00     0.006 A 
ATOM     13  C   UNL A   1      32.526  25.747  24.898  1.00  0.00     0.085 A 
ATOM     14  C   UNL A   1      29.910  25.557  23.864  1.00  0.00     0.001 A 
ATOM     15  C   UNL A   1      32.014  24.520  24.434  1.00  0.00     0.092 A 
ATOM     16  N   UNL A   1      33.857  25.880  25.359  1.00  0.00    -0.215 NA
ATOM     17  C   UNL A   1      30.727  24.432  23.891  1.00  0.00     0.019 A 
ATOM     18  C   UNL A   1      32.895  23.316  24.527  1.00  0.00     0.309 C 
ATOM     19  C   UNL A   1      34.580  24.809  25.373  1.00  0.00     0.317 C 
ATOM     20  N   UNL A   1      34.172  23.538  25.029  1.00  0.00    -0.202 N 
ATOM     21  N   UNL A   1      32.412  22.175  24.131  1.00  0.00    -0.169 N 
ATOM     22  N   UNL A   1      33.205  21.084  24.230  1.00  0.00    -0.193 N 
ATOM     23  H   UNL A   1      31.497  22.108  23.772  1.00  0.00     0.340 HD
ATOM     24  C   UNL A   1      34.494  21.077  24.683  1.00  0.00     0.300 C 
ATOM     25  H   UNL A   1      32.820  20.222  23.950  1.00  0.00     0.216 HD
ATOM     26  O   UNL A   1      35.112  20.014  24.764  1.00  0.00    -0.267 OA
ENDBRANCH   8   9
ENDBRANCH   6   8
ENDBRANCH   5   6
ENDBRANCH   4   5
ENDBRANCH   3   4
ENDBRANCH   2   3
ENDBRANCH   1   2
BRANCH   1  27
ATOM     27  C   UNL A   1      43.510  21.697  25.498  1.00  0.00     0.261 C 
BRANCH  27  28
ATOM     28  O   UNL A   1      43.014  22.857  24.800  1.00  0.00    -0.460 OA
BRANCH  28  29
ATOM     29  C   UNL A   1      43.790  23.960  24.931  1.00  0.00     0.338 C 
ATOM     30  O   UNL A   1      44.903  24.139  24.471  1.00  0.00    -0.246 OA
BRANCH  29  31
ATOM     31  C   UNL A   1      43.102  24.990  25.730  1.00  0.00     0.060 A 
ATOM     32  C   UNL A   1      43.625  26.285  25.839  1.00  0.00     0.016 A 
ATOM     33  C   UNL A   1      42.037  24.596  26.534  1.00  0.00     0.016 A 
ATOM     34  C   UNL A   1      43.090  27.182  26.775  1.00  0.00     0.010 A 
ATOM     35  C   UNL A   1      41.501  25.498  27.457  1.00  0.00     0.010 A 
ATOM     36  C   UNL A   1      42.035  26.790  27.612  1.00  0.00    -0.014 A 
BRANCH  36  37
ATOM     37  C   UNL A   1      41.577  27.639  28.751  1.00  0.00     0.031 A 
ATOM     38  C   UNL A   1      42.279  27.519  30.084  1.00  0.00     0.074 A 
ATOM     39  C   UNL A   1      40.537  28.487  28.639  1.00  0.00     0.049 A 
ATOM     40  N   UNL A   1      41.976  28.060  31.238  1.00  0.00    -0.248 NA
ATOM     41  C   UNL A   1      43.468  26.655  30.120  1.00  0.00     0.031 C 
ATOM     42  C   UNL A   1      39.756  28.725  27.428  1.00  0.00     0.029 A 
ATOM     43  N   UNL A   1      39.946  29.299  29.580  1.00  0.00    -0.354 N 
ATOM     44  C   UNL A   1      42.921  27.581  32.138  1.00  0.00     0.074 A 
ATOM     45  C   UNL A   1      43.768  26.661  31.410  1.00  0.00     0.031 C 
ATOM     46  C   UNL A   1      38.790  29.621  27.699  1.00  0.00     0.029 A 
ATOM     47  C   UNL A   1      38.858  29.992  29.110  1.00  0.00     0.049 A 
ATOM     48  H   UNL A   1      40.275  29.376  30.506  1.00  0.00     0.167 HD
ATOM     49  C   UNL A   1      43.101  27.896  33.443  1.00  0.00     0.037 A 
ATOM     50  C   UNL A   1      38.002  30.816  29.744  1.00  0.00     0.037 A 
ATOM     51  C   UNL A   1      42.310  28.850  34.172  1.00  0.00     0.049 A 
ATOM     52  C   UNL A   1      38.193  31.124  31.206  1.00  0.00     0.074 A 
ATOM     53  C   UNL A   1      42.465  29.281  35.479  1.00  0.00     0.029 A 
ATOM     54  N   UNL A   1      41.220  29.529  33.654  1.00  0.00    -0.354 N 
ATOM     55  N   UNL A   1      39.115  30.694  32.031  1.00  0.00    -0.248 NA
ATOM     56  C   UNL A   1      37.224  32.048  31.820  1.00  0.00     0.031 C 
ATOM     57  C   UNL A   1      41.451  30.205  35.758  1.00  0.00     0.029 A 
ATOM     58  C   UNL A   1      40.685  30.369  34.617  1.00  0.00     0.049 A 
ATOM     59  H   UNL A   1      40.878  29.430  32.736  1.00  0.00     0.167 HD
ATOM     60  C   UNL A   1      38.864  31.324  33.245  1.00  0.00     0.074 A 
ATOM     61  C   UNL A   1      37.703  32.166  33.051  1.00  0.00     0.031 C 
ATOM     62  C   UNL A   1      39.543  31.220  34.412  1.00  0.00     0.037 A 
BRANCH  49  63
ATOM     63  C   UNL A   1      44.220  27.202  34.161  1.00  0.00     0.057 A 
ATOM     64  C   UNL A   1      45.501  27.765  34.205  1.00  0.00     0.134 A 
ATOM     65  C   UNL A   1      44.026  25.978  34.815  1.00  0.00     0.134 A 
ATOM     66  F   UNL A   1      45.755  28.931  33.592  1.00  0.00    -0.206 F 
ATOM     67  C   UNL A   1      46.547  27.142  34.887  1.00  0.00     0.040 A 
ATOM     68  C   UNL A   1      45.056  25.359  35.523  1.00  0.00     0.040 A 
ATOM     69  F   UNL A   1      42.818  25.395  34.821  1.00  0.00    -0.206 F 
ATOM     70  C   UNL A   1      46.323  25.940  35.558  1.00  0.00     0.006 A 
ENDBRANCH  49  63
BRANCH  50  71
ATOM     71  C   UNL A   1      36.867  31.428  29.009  1.00  0.00     0.057 A 
ATOM     72  C   UNL A   1      35.697  30.707  28.744  1.00  0.00     0.134 A 
ATOM     73  C   UNL A   1      36.906  32.770  28.614  1.00  0.00     0.134 A 
ATOM     74  F   UNL A   1      35.600  29.418  29.100  1.00  0.00    -0.206 F 
ATOM     75  C   UNL A   1      34.602  31.304  28.118  1.00  0.00     0.040 A 
ATOM     76  C   UNL A   1      35.811  33.384  28.004  1.00  0.00     0.040 A 
ATOM     77  F   UNL A   1      37.991  33.517  28.870  1.00  0.00    -0.206 F 
ATOM     78  C   UNL A   1      34.654  32.648  27.755  1.00  0.00     0.006 A 
ENDBRANCH  50  71
BRANCH  62  79
ATOM     79  C   UNL A   1      39.086  32.077  35.556  1.00  0.00     0.057 A 
ATOM     80  C   UNL A   1      38.219  31.561  36.528  1.00  0.00     0.134 A 
ATOM     81  C   UNL A   1      39.475  33.416  35.680  1.00  0.00     0.134 A 
ATOM     82  F   UNL A   1      37.804  30.287  36.464  1.00  0.00    -0.206 F 
ATOM     83  C   UNL A   1      37.752  32.349  37.582  1.00  0.00     0.040 A 
ATOM     84  C   UNL A   1      39.032  34.208  36.743  1.00  0.00     0.040 A 
ATOM     85  F   UNL A   1      40.316  33.965  34.791  1.00  0.00    -0.206 F 
ATOM     86  C   UNL A   1      38.163  33.675  37.693  1.00  0.00     0.006 A 
ENDBRANCH  62  79
ENDBRANCH  36  37
ENDBRANCH  29  31
ENDBRANCH  28  29
ENDBRANCH  27  28
ENDBRANCH   1  27
TORSDOF 15
ENDMDL
MODEL 2
REMARK VINA RESULT:     -11.6      4.590      9.675
REMARK SMILES Cc1cccc2c1N=CN1C2=[NH+]NC(=O)[C@@H]1CC(=O)OCCOCCOC(=O)c1ccc(-c2c3nc(c(-c4c(F)cccc4F)c4ccc([nH]4)c(-c4c(F)cccc4F)c4nc(c(-c5c(F)cccc5F)c5ccc2[nH]5)C=C4)C=C3)cc1
REMARK SMILES IDX 24 1 23 2 22 3 21 4 20 5 18 6 19 7 17 8 16 9 1 10 2 11 3 12
REMARK SMILES IDX 7 13 4 14 6 15 8 16 5 17 11 18 9 19 10 20 12 21 13 22 14 24
REMARK SMILES IDX 15 26 25 27 26 28 27 29 28 30 29 31 30 32 82 33 31 34 81 35
REMARK SMILES IDX 32 36 33 37 34 38 75 39 35 40 80 41 74 42 76 43 36 44 79 45
REMARK SMILES IDX 73 46 72 47 37 49 63 50 46 51 62 52 47 53 50 54 61 55 77 56
REMARK SMILES IDX 48 57 49 58 60 60 78 61 51 62 38 63 39 64 44 65 40 66 41 67
REMARK SMILES IDX 43 68 45 69 42 70 64 71 65 72 70 73 66 74 67 75 69 76 71 77
REMARK SMILES IDX 68 78 52 79 53 80 58 81 54 82 55 83 57 84 59 85 56 86
REMARK H PARENT 12 23 13 25 76 48 50 59
REMARK Flexibility Score: inf
ROOT
ATOM      1  C   UNL A   1      34.444  34.250  30.074  1.00  0.00     0.202 C 
ENDROOT
BRANCH   1   2
ATOM      2  O   UNL A   1      34.015  33.293  29.100  1.00  0.00    -0.374 OA
BRANCH   2   3
ATOM      3  C   UNL A   1      34.904  33.011  28.020  1.00  0.00     0.202 C 
BRANCH   3   4
ATOM      4  C   UNL A   1      34.992  31.541  27.592  1.00  0.00     0.261 C 
BRANCH   4   5
ATOM      5  O   UNL A   1      33.748  30.847  27.788  1.00  0.00    -0.463 OA
BRANCH   5   6
ATOM      6  C   UNL A   1      33.686  29.638  27.179  1.00  0.00     0.310 C 
ATOM      7  O   UNL A   1      34.632  29.069  26.648  1.00  0.00    -0.252 OA
BRANCH   6   8
ATOM      8  C   UNL A   1      32.338  28.988  27.317  1.00  0.00     0.183 C 
BRANCH   8   9
ATOM      9  C   UNL A   1      31.659  28.493  26.042  1.00  0.00     0.286 C 
ATOM     10  C   UNL A   1      33.805  22.473  24.707  1.00  0.00     0.047 C 
ATOM     11  C   UNL A   1      33.417  23.628  23.827  1.00  0.00    -0.024 A 
ATOM     12  C   UNL A   1      33.443  23.435  22.434  1.00  0.00     0.006 A 
ATOM     13  C   UNL A   1      32.997  24.862  24.353  1.00  0.00     0.085 A 
ATOM     14  C   UNL A   1      33.032  24.443  21.565  1.00  0.00     0.001 A 
ATOM     15  C   UNL A   1      32.620  25.882  23.458  1.00  0.00     0.092 A 
ATOM     16  N   UNL A   1      32.924  25.028  25.756  1.00  0.00    -0.215 NA
ATOM     17  C   UNL A   1      32.607  25.665  22.076  1.00  0.00     0.019 A 
ATOM     18  C   UNL A   1      32.222  27.203  24.034  1.00  0.00     0.309 C 
ATOM     19  C   UNL A   1      32.530  26.180  26.188  1.00  0.00     0.317 C 
ATOM     20  N   UNL A   1      32.218  27.282  25.422  1.00  0.00    -0.202 N 
ATOM     21  N   UNL A   1      31.908  28.158  23.208  1.00  0.00    -0.169 N 
ATOM     22  N   UNL A   1      31.562  29.357  23.731  1.00  0.00    -0.193 N 
ATOM     23  H   UNL A   1      31.922  28.013  22.235  1.00  0.00     0.340 HD
ATOM     24  C   UNL A   1      31.481  29.650  25.062  1.00  0.00     0.300 C 
ATOM     25  H   UNL A   1      31.349  30.080  23.096  1.00  0.00     0.216 HD
ATOM     26  O   UNL A   1      31.189  30.791  25.425  1.00  0.00    -0.267 OA
ENDBRANCH   8   9
ENDBRANCH   6   8
ENDBRANCH   5   6
ENDBRANCH   4   5
ENDBRANCH   3   4
ENDBRANCH   2   3
ENDBRANCH   1   2
BRANCH   1  27
ATOM     27  C   UNL A   1      34.250  33.857  31.545  1.00  0.00     0.261 C 
BRANCH  27  28
ATOM     28  O   UNL A   1      34.509  32.457  31.774  1.00  0.00    -0.460 OA
BRANCH  28  29
ATOM     29  C   UNL A   1      35.511  32.212  32.653  1.00  0.00     0.338 C 
ATOM     30  O   UNL A   1      35.606  32.619  33.797  1.00  0.00    -0.246 OA
BRANCH  29  31
ATOM     31  C   UNL A   1      36.533  31.339  32.049  1.00  0.00     0.060 A 
ATOM     32  C   UNL A   1      37.544  30.766  32.831  1.00  0.00     0.016 A 
ATOM     33  C   UNL A   1      36.591  31.259  30.661  1.00  0.00     0.016 A 
ATOM     34  C   UNL A   1      38.631  30.129  32.216  1.00  0.00     0.010 A 
ATOM     35  C   UNL A   1      37.673  30.612  30.055  1.00  0.00     0.010 A 
ATOM     36  C   UNL A   1      38.719  30.064  30.818  1.00  0.00    -0.014 A 
BRANCH  36  37
ATOM     37  C   UNL A   1      39.951  29.579  30.128  1.00  0.00     0.031 A 
ATOM     38  C   UNL A   1      41.089  30.544  29.894  1.00  0.00     0.074 A 
ATOM     39  C   UNL A   1      40.068  28.315  29.679  1.00  0.00     0.049 A 
ATOM     40  N   UNL A   1      42.196  30.380  29.211  1.00  0.00    -0.248 NA
ATOM     41  C   UNL A   1      40.947  31.879  30.493  1.00  0.00     0.031 C 
ATOM     42  C   UNL A   1      39.069  27.259  29.827  1.00  0.00     0.029 A 
ATOM     43  N   UNL A   1      41.091  27.710  28.984  1.00  0.00    -0.354 N 
ATOM     44  C   UNL A   1      42.864  31.597  29.279  1.00  0.00     0.074 A 
ATOM     45  C   UNL A   1      42.012  32.505  30.017  1.00  0.00     0.031 C 
ATOM     46  C   UNL A   1      39.526  26.139  29.240  1.00  0.00     0.029 A 
ATOM     47  C   UNL A   1      40.832  26.404  28.643  1.00  0.00     0.049 A 
ATOM     48  H   UNL A   1      41.931  28.171  28.754  1.00  0.00     0.167 HD
ATOM     49  C   UNL A   1      44.089  31.931  28.806  1.00  0.00     0.037 A 
ATOM     50  C   UNL A   1      41.554  25.528  27.917  1.00  0.00     0.037 A 
ATOM     51  C   UNL A   1      44.976  31.031  28.122  1.00  0.00     0.049 A 
ATOM     52  C   UNL A   1      42.896  25.929  27.365  1.00  0.00     0.074 A 
ATOM     53  C   UNL A   1      46.264  31.266  27.668  1.00  0.00     0.029 A 
ATOM     54  N   UNL A   1      44.673  29.718  27.801  1.00  0.00    -0.354 N 
ATOM     55  N   UNL A   1      43.530  27.071  27.473  1.00  0.00    -0.248 NA
ATOM     56  C   UNL A   1      43.629  24.908  26.598  1.00  0.00     0.031 C 
ATOM     57  C   UNL A   1      46.730  30.099  27.051  1.00  0.00     0.029 A 
ATOM     58  C   UNL A   1      45.744  29.133  27.146  1.00  0.00     0.049 A 
ATOM     59  H   UNL A   1      43.823  29.268  28.009  1.00  0.00     0.167 HD
ATOM     60  C   UNL A   1      44.749  26.892  26.827  1.00  0.00     0.074 A 
ATOM     61  C   UNL A   1      44.766  25.534  26.329  1.00  0.00     0.031 C 
ATOM     62  C   UNL A   1      45.765  27.774  26.671  1.00  0.00     0.037 A 
BRANCH  49  63
ATOM     63  C   UNL A   1      44.542  33.342  29.035  1.00  0.00     0.057 A 
ATOM     64  C   UNL A   1      44.275  34.343  28.093  1.00  0.00     0.134 A 
ATOM     65  C   UNL A   1      45.237  33.712  30.194  1.00  0.00     0.134 A 
ATOM     66  F   UNL A   1      43.620  34.054  26.959  1.00  0.00    -0.206 F 
ATOM     67  C   UNL A   1      44.671  35.664  28.302  1.00  0.00     0.040 A 
ATOM     68  C   UNL A   1      45.615  35.034  30.428  1.00  0.00     0.040 A 
ATOM     69  F   UNL A   1      45.511  32.801  31.142  1.00  0.00    -0.206 F 
ATOM     70  C   UNL A   1      45.333  36.015  29.478  1.00  0.00     0.006 A 
ENDBRANCH  49  63
BRANCH  50  71
ATOM     71  C   UNL A   1      41.034  24.163  27.659  1.00  0.00     0.057 A 
ATOM     72  C   UNL A   1      40.053  23.928  26.689  1.00  0.00     0.134 A 
ATOM     73  C   UNL A   1      41.558  23.054  28.333  1.00  0.00     0.134 A 
ATOM     74  F   UNL A   1      39.514  24.951  26.009  1.00  0.00    -0.206 F 
ATOM     75  C   UNL A   1      39.616  22.636  26.394  1.00  0.00     0.040 A 
ATOM     76  C   UNL A   1      41.145  21.755  28.034  1.00  0.00     0.040 A 
ATOM     77  F   UNL A   1      42.523  23.217  29.251  1.00  0.00    -0.206 F 
ATOM     78  C   UNL A   1      40.170  21.544  27.060  1.00  0.00     0.006 A 
ENDBRANCH  50  71
BRANCH  62  79
ATOM     79  C   UNL A   1      47.005  27.285  25.982  1.00  0.00     0.057 A 
ATOM     80  C   UNL A   1      48.026  26.664  26.713  1.00  0.00     0.134 A 
ATOM     81  C   UNL A   1      47.204  27.455  24.607  1.00  0.00     0.134 A 
ATOM     82  F   UNL A   1      47.900  26.476  28.035  1.00  0.00    -0.206 F 
ATOM     83  C   UNL A   1      49.203  26.232  26.101  1.00  0.00     0.040 A 
ATOM     84  C   UNL A   1      48.369  27.007  23.978  1.00  0.00     0.040 A 
ATOM     85  F   UNL A   1      46.258  28.028  23.849  1.00  0.00    -0.206 F 
ATOM     86  C   UNL A   1      49.374  26.399  24.728  1.00  0.00     0.006 A 
ENDBRANCH  62  79
ENDBRANCH  36  37
ENDBRANCH  29  31
ENDBRANCH  28  29
ENDBRANCH  27  28
ENDBRANCH   1  27
TORSDOF 15
ENDMDL
MODEL 3
REMARK VINA RESULT:     -11.5      1.505      2.947
REMARK SMILES Cc1cccc2c1N=CN1C2=[NH+]NC(=O)[C@@H]1CC(=O)OCCOCCOC(=O)c1ccc(-c2c3nc(c(-c4c(F)cccc4F)c4ccc([nH]4)c(-c4c(F)cccc4F)c4nc(c(-c5c(F)cccc5F)c5ccc2[nH]5)C=C4)C=C3)cc1
REMARK SMILES IDX 24 1 23 2 22 3 21 4 20 5 18 6 19 7 17 8 16 9 1 10 2 11 3 12
REMARK SMILES IDX 7 13 4 14 6 15 8 16 5 17 11 18 9 19 10 20 12 21 13 22 14 24
REMARK SMILES IDX 15 26 25 27 26 28 27 29 28 30 29 31 30 32 82 33 31 34 81 35
REMARK SMILES IDX 32 36 33 37 34 38 75 39 35 40 80 41 74 42 76 43 36 44 79 45
REMARK SMILES IDX 73 46 72 47 37 49 63 50 46 51 62 52 47 53 50 54 61 55 77 56
REMARK SMILES IDX 48 57 49 58 60 60 78 61 51 62 38 63 39 64 44 65 40 66 41 67
REMARK SMILES IDX 43 68 45 69 42 70 64 71 65 72 70 73 66 74 67 75 69 76 71 77
REMARK SMILES IDX 68 78 52 79 53 80 58 81 54 82 55 83 57 84 59 85 56 86
REMARK H PARENT 12 23 13 25 76 48 50 59
REMARK Flexibility Score: inf
ROOT
ATOM      1  C   UNL A   1      42.820  20.762  25.784  1.00  0.00     0.202 C 
ENDROOT
BRANCH   1   2
ATOM      2  O   UNL A   1      42.265  21.006  27.080  1.00  0.00    -0.374 OA
BRANCH   2   3
ATOM      3  C   UNL A   1      40.858  20.830  27.236  1.00  0.00     0.202 C 
BRANCH   3   4
ATOM      4  C   UNL A   1      40.020  22.113  27.248  1.00  0.00     0.261 C 
BRANCH   4   5
ATOM      5  O   UNL A   1      39.179  22.220  26.087  1.00  0.00    -0.463 OA
BRANCH   5   6
ATOM      6  C   UNL A   1      38.343  23.287  26.104  1.00  0.00     0.310 C 
ATOM      7  O   UNL A   1      38.451  24.253  26.849  1.00  0.00    -0.252 OA
BRANCH   6   8
ATOM      8  C   UNL A   1      37.307  23.228  25.017  1.00  0.00     0.183 C 
BRANCH   8   9
ATOM      9  C   UNL A   1      35.892  22.808  25.412  1.00  0.00     0.286 C 
ATOM     10  C   UNL A   1      35.261  16.375  24.497  1.00  0.00     0.047 C 
ATOM     11  C   UNL A   1      34.301  17.520  24.334  1.00  0.00    -0.024 A 
ATOM     12  C   UNL A   1      32.975  17.224  23.968  1.00  0.00     0.006 A 
ATOM     13  C   UNL A   1      34.678  18.853  24.574  1.00  0.00     0.085 A 
ATOM     14  C   UNL A   1      32.020  18.233  23.866  1.00  0.00     0.001 A 
ATOM     15  C   UNL A   1      33.708  19.864  24.429  1.00  0.00     0.092 A 
ATOM     16  N   UNL A   1      35.999  19.134  24.992  1.00  0.00    -0.215 NA
ATOM     17  C   UNL A   1      32.381  19.554  24.108  1.00  0.00     0.019 A 
ATOM     18  C   UNL A   1      34.138  21.279  24.641  1.00  0.00     0.309 C 
ATOM     19  C   UNL A   1      36.294  20.375  25.201  1.00  0.00     0.317 C 
ATOM     20  N   UNL A   1      35.466  21.459  25.013  1.00  0.00    -0.202 N 
ATOM     21  N   UNL A   1      33.252  22.217  24.473  1.00  0.00    -0.169 N 
ATOM     22  N   UNL A   1      33.647  23.499  24.651  1.00  0.00    -0.193 N 
ATOM     23  H   UNL A   1      32.325  22.002  24.223  1.00  0.00     0.340 HD
ATOM     24  C   UNL A   1      34.898  23.900  25.027  1.00  0.00     0.300 C 
ATOM     25  H   UNL A   1      32.975  24.202  24.498  1.00  0.00     0.216 HD
ATOM     26  O   UNL A   1      35.156  25.101  25.124  1.00  0.00    -0.267 OA
ENDBRANCH   8   9
ENDBRANCH   6   8
ENDBRANCH   5   6
ENDBRANCH   4   5
ENDBRANCH   3   4
ENDBRANCH   2   3
ENDBRANCH   1   2
BRANCH   1  27
ATOM     27  C   UNL A   1      43.842  21.788  25.277  1.00  0.00     0.261 C 
BRANCH  27  28
ATOM     28  O   UNL A   1      43.212  22.996  24.804  1.00  0.00    -0.460 OA
BRANCH  28  29
ATOM     29  C   UNL A   1      43.960  24.115  24.964  1.00  0.00     0.338 C 
ATOM     30  O   UNL A   1      45.074  24.327  24.523  1.00  0.00    -0.246 OA
BRANCH  29  31
ATOM     31  C   UNL A   1      43.236  25.115  25.768  1.00  0.00     0.060 A 
ATOM     32  C   UNL A   1      43.683  26.441  25.839  1.00  0.00     0.016 A 
ATOM     33  C   UNL A   1      42.221  24.672  26.610  1.00  0.00     0.016 A 
ATOM     34  C   UNL A   1      43.124  27.320  26.778  1.00  0.00     0.010 A 
ATOM     35  C   UNL A   1      41.661  25.558  27.536  1.00  0.00     0.010 A 
ATOM     36  C   UNL A   1      42.120  26.882  27.654  1.00  0.00    -0.014 A 
BRANCH  36  37
ATOM     37  C   UNL A   1      41.646  27.721  28.793  1.00  0.00     0.031 A 
ATOM     38  C   UNL A   1      42.347  27.610  30.127  1.00  0.00     0.074 A 
ATOM     39  C   UNL A   1      40.594  28.553  28.680  1.00  0.00     0.049 A 
ATOM     40  N   UNL A   1      42.035  28.145  31.282  1.00  0.00    -0.248 NA
ATOM     41  C   UNL A   1      43.550  26.764  30.165  1.00  0.00     0.031 C 
ATOM     42  C   UNL A   1      39.812  28.782  27.468  1.00  0.00     0.029 A 
ATOM     43  N   UNL A   1      39.989  29.355  29.622  1.00  0.00    -0.354 N 
ATOM     44  C   UNL A   1      42.984  27.678  32.183  1.00  0.00     0.074 A 
ATOM     45  C   UNL A   1      43.847  26.773  31.455  1.00  0.00     0.031 C 
ATOM     46  C   UNL A   1      38.832  29.662  27.738  1.00  0.00     0.029 A 
ATOM     47  C   UNL A   1      38.891  30.032  29.150  1.00  0.00     0.049 A 
ATOM     48  H   UNL A   1      40.315  29.435  30.548  1.00  0.00     0.167 HD
ATOM     49  C   UNL A   1      43.157  27.994  33.489  1.00  0.00     0.037 A 
ATOM     50  C   UNL A   1      38.022  30.842  29.784  1.00  0.00     0.037 A 
ATOM     51  C   UNL A   1      42.350  28.934  34.218  1.00  0.00     0.049 A 
ATOM     52  C   UNL A   1      38.205  31.151  31.247  1.00  0.00     0.074 A 
ATOM     53  C   UNL A   1      42.495  29.366  35.526  1.00  0.00     0.029 A 
ATOM     54  N   UNL A   1      41.251  29.598  33.698  1.00  0.00    -0.354 N 
ATOM     55  N   UNL A   1      39.131  30.733  32.073  1.00  0.00    -0.248 NA
ATOM     56  C   UNL A   1      37.221  32.059  31.860  1.00  0.00     0.031 C 
ATOM     57  C   UNL A   1      41.467  30.274  35.804  1.00  0.00     0.029 A 
ATOM     58  C   UNL A   1      40.701  30.427  34.662  1.00  0.00     0.049 A 
ATOM     59  H   UNL A   1      40.912  29.495  32.780  1.00  0.00     0.167 HD
ATOM     60  C   UNL A   1      38.869  31.357  33.287  1.00  0.00     0.074 A 
ATOM     61  C   UNL A   1      37.695  32.182  33.092  1.00  0.00     0.031 C 
ATOM     62  C   UNL A   1      39.547  31.262  34.456  1.00  0.00     0.037 A 
BRANCH  49  63
ATOM     63  C   UNL A   1      44.285  27.315  34.208  1.00  0.00     0.057 A 
ATOM     64  C   UNL A   1      45.537  27.932  34.320  1.00  0.00     0.134 A 
ATOM     65  C   UNL A   1      44.129  26.053  34.796  1.00  0.00     0.134 A 
ATOM     66  F   UNL A   1      45.754  29.138  33.773  1.00  0.00    -0.206 F 
ATOM     67  C   UNL A   1      46.589  27.323  35.004  1.00  0.00     0.040 A 
ATOM     68  C   UNL A   1      45.164  25.446  35.506  1.00  0.00     0.040 A 
ATOM     69  F   UNL A   1      42.948  25.417  34.735  1.00  0.00    -0.206 F 
ATOM     70  C   UNL A   1      46.401  26.081  35.609  1.00  0.00     0.006 A 
ENDBRANCH  49  63
BRANCH  50  71
ATOM     71  C   UNL A   1      36.880  31.437  29.047  1.00  0.00     0.057 A 
ATOM     72  C   UNL A   1      35.711  30.709  28.802  1.00  0.00     0.134 A 
ATOM     73  C   UNL A   1      36.909  32.774  28.631  1.00  0.00     0.134 A 
ATOM     74  F   UNL A   1      35.622  29.425  29.178  1.00  0.00    -0.206 F 
ATOM     75  C   UNL A   1      34.608  31.291  28.174  1.00  0.00     0.040 A 
ATOM     76  C   UNL A   1      35.808  33.374  28.020  1.00  0.00     0.040 A 
ATOM     77  F   UNL A   1      37.993  33.530  28.868  1.00  0.00    -0.206 F 
ATOM     78  C   UNL A   1      34.652  32.629  27.790  1.00  0.00     0.006 A 
ENDBRANCH  50  71
BRANCH  62  79
ATOM     79  C   UNL A   1      39.074  32.110  35.600  1.00  0.00     0.057 A 
ATOM     80  C   UNL A   1      39.469  33.450  35.701  1.00  0.00     0.134 A 
ATOM     81  C   UNL A   1      38.259  31.596  36.616  1.00  0.00     0.134 A 
ATOM     82  F   UNL A   1      40.254  34.002  34.765  1.00  0.00    -0.206 F 
ATOM     83  C   UNL A   1      39.071  34.249  36.774  1.00  0.00     0.040 A 
ATOM     84  C   UNL A   1      37.836  32.392  37.683  1.00  0.00     0.040 A 
ATOM     85  F   UNL A   1      37.835  30.324  36.568  1.00  0.00    -0.206 F 
ATOM     86  C   UNL A   1      38.247  33.720  37.766  1.00  0.00     0.006 A 
ENDBRANCH  62  79
ENDBRANCH  36  37
ENDBRANCH  29  31
ENDBRANCH  28  29
ENDBRANCH  27  28
ENDBRANCH   1  27
TORSDOF 15
ENDMDL
