MODEL 1
REMARK VINA RESULT:     -10.8      0.000      0.000
REMARK SMILES C[C@@H](C(=O)OCCOCCOC(=O)c1ccc(-c2c3nc(c(-c4c(F)cccc4F)c4ccc([nH]4)c(-c4c(F)cccc4F)c4nc(c(-c5c(F)cccc5F)c5ccc2[nH]5)C=C4)C=C3)cc1)c1ccc(O[C@H]2CCCC2=O)cc1F
REMARK SMILES IDX 7 1 6 2 5 3 3 4 4 5 2 6 1 7 68 8 69 9 80 10 70 11 79 12
REMARK SMILES IDX 81 13 71 14 72 15 73 16 74 17 77 18 75 19 76 20 78 21 8 22
REMARK SMILES IDX 9 23 10 24 11 25 12 26 13 27 14 28 15 29 67 30 16 31 66 32
REMARK SMILES IDX 17 33 18 34 19 35 60 36 20 37 65 38 59 39 61 40 21 41 64 42
REMARK SMILES IDX 58 43 57 44 22 46 48 47 31 48 47 49 32 50 35 51 46 52 62 53
REMARK SMILES IDX 33 54 34 55 45 57 63 58 36 59 23 60 24 61 29 62 25 63 26 64
REMARK SMILES IDX 28 65 30 66 27 67 49 68 50 69 55 70 51 71 52 72 54 73 56 74
REMARK SMILES IDX 53 75 37 76 38 77 43 78 39 79 40 80 42 81 44 82 41 83
REMARK H PARENT 61 45 35 56
REMARK Flexibility Score: inf
ROOT
ATOM      1  C   UNL A   1      33.760  34.043  29.077  1.00  0.00     0.202 C 
ENDROOT
BRANCH   1   2
ATOM      2  C   UNL A   1      34.062  33.071  27.932  1.00  0.00     0.261 C 
BRANCH   2   3
ATOM      3  O   UNL A   1      33.948  31.718  28.384  1.00  0.00    -0.463 OA
BRANCH   3   4
ATOM      4  C   UNL A   1      33.336  30.860  27.524  1.00  0.00     0.313 C 
ATOM      5  O   UNL A   1      32.420  31.170  26.774  1.00  0.00    -0.252 OA
BRANCH   4   6
ATOM      6  C   UNL A   1      33.961  29.465  27.588  1.00  0.00     0.129 C 
ATOM      7  C   UNL A   1      35.491  29.594  27.471  1.00  0.00     0.025 C 
BRANCH   6   8
ATOM      8  C   UNL A   1      33.345  28.428  26.644  1.00  0.00     0.002 A 
ATOM      9  C   UNL A   1      34.027  27.985  25.498  1.00  0.00     0.011 A 
ATOM     10  C   UNL A   1      32.126  27.794  26.922  1.00  0.00     0.130 A 
ATOM     11  C   UNL A   1      33.509  26.959  24.696  1.00  0.00     0.047 A 
ATOM     12  C   UNL A   1      31.603  26.773  26.117  1.00  0.00     0.086 A 
ATOM     13  F   UNL A   1      31.411  28.137  28.000  1.00  0.00    -0.207 F 
ATOM     14  C   UNL A   1      32.305  26.327  25.010  1.00  0.00     0.123 A 
BRANCH  14  15
ATOM     15  O   UNL A   1      31.968  25.315  24.166  1.00  0.00    -0.483 OA
BRANCH  15  16
ATOM     16  C   UNL A   1      32.196  23.960  24.473  1.00  0.00     0.239 C 
ATOM     17  C   UNL A   1      31.310  22.960  23.716  1.00  0.00     0.054 C 
ATOM     18  C   UNL A   1      33.583  23.330  24.427  1.00  0.00     0.173 C 
ATOM     19  C   UNL A   1      32.243  21.933  23.076  1.00  0.00     0.012 C 
ATOM     20  C   UNL A   1      33.530  21.927  23.889  1.00  0.00     0.080 C 
ATOM     21  O   UNL A   1      34.609  23.863  24.830  1.00  0.00    -0.296 OA
ENDBRANCH  15  16
ENDBRANCH  14  15
ENDBRANCH   6   8
ENDBRANCH   4   6
ENDBRANCH   3   4
ENDBRANCH   2   3
ENDBRANCH   1   2
BRANCH   1  22
ATOM     22  O   UNL A   1      34.782  34.202  30.060  1.00  0.00    -0.374 OA
BRANCH  22  23
ATOM     23  C   UNL A   1      34.405  34.702  31.346  1.00  0.00     0.202 C 
BRANCH  23  24
ATOM     24  C   UNL A   1      34.203  33.668  32.461  1.00  0.00     0.261 C 
BRANCH  24  25
ATOM     25  O   UNL A   1      34.813  32.396  32.164  1.00  0.00    -0.460 OA
BRANCH  25  26
ATOM     26  C   UNL A   1      35.935  32.129  32.874  1.00  0.00     0.338 C 
ATOM     27  O   UNL A   1      36.141  32.365  34.057  1.00  0.00    -0.246 OA
BRANCH  26  28
ATOM     28  C   UNL A   1      36.883  31.339  32.069  1.00  0.00     0.060 A 
ATOM     29  C   UNL A   1      37.880  30.631  32.750  1.00  0.00     0.016 A 
ATOM     30  C   UNL A   1      36.877  31.392  30.674  1.00  0.00     0.016 A 
ATOM     31  C   UNL A   1      38.904  30.008  32.039  1.00  0.00     0.010 A 
ATOM     32  C   UNL A   1      37.912  30.773  29.962  1.00  0.00     0.010 A 
ATOM     33  C   UNL A   1      38.949  30.110  30.643  1.00  0.00    -0.014 A 
BRANCH  33  34
ATOM     34  C   UNL A   1      40.159  29.648  29.917  1.00  0.00     0.031 A 
ATOM     35  C   UNL A   1      41.293  30.611  29.697  1.00  0.00     0.074 A 
ATOM     36  C   UNL A   1      40.264  28.377  29.492  1.00  0.00     0.049 A 
ATOM     37  N   UNL A   1      42.431  30.427  29.076  1.00  0.00    -0.248 NA
ATOM     38  C   UNL A   1      41.122  31.963  30.253  1.00  0.00     0.031 C 
ATOM     39  C   UNL A   1      39.253  27.339  29.678  1.00  0.00     0.029 A 
ATOM     40  N   UNL A   1      41.275  27.748  28.810  1.00  0.00    -0.354 N 
ATOM     41  C   UNL A   1      43.111  31.635  29.166  1.00  0.00     0.074 A 
ATOM     42  C   UNL A   1      42.246  32.555  29.874  1.00  0.00     0.031 C 
ATOM     43  C   UNL A   1      39.690  26.201  29.112  1.00  0.00     0.029 A 
ATOM     44  C   UNL A   1      40.998  26.439  28.503  1.00  0.00     0.049 A 
ATOM     45  H   UNL A   1      42.118  28.193  28.565  1.00  0.00     0.167 HD
ATOM     46  C   UNL A   1      44.347  31.948  28.710  1.00  0.00     0.037 A 
ATOM     47  C   UNL A   1      41.711  25.542  27.795  1.00  0.00     0.037 A 
ATOM     48  C   UNL A   1      45.208  31.036  28.004  1.00  0.00     0.049 A 
ATOM     49  C   UNL A   1      43.053  25.933  27.237  1.00  0.00     0.074 A 
ATOM     50  C   UNL A   1      46.482  31.258  27.512  1.00  0.00     0.029 A 
ATOM     51  N   UNL A   1      44.878  29.728  27.684  1.00  0.00    -0.354 N 
ATOM     52  N   UNL A   1      43.694  27.072  27.345  1.00  0.00    -0.248 NA
ATOM     53  C   UNL A   1      43.773  24.911  26.462  1.00  0.00     0.031 C 
ATOM     54  C   UNL A   1      46.907  30.096  26.857  1.00  0.00     0.029 A 
ATOM     55  C   UNL A   1      45.914  29.137  26.982  1.00  0.00     0.049 A 
ATOM     56  H   UNL A   1      44.031  29.285  27.923  1.00  0.00     0.167 HD
ATOM     57  C   UNL A   1      44.899  26.897  26.675  1.00  0.00     0.074 A 
ATOM     58  C   UNL A   1      44.906  25.538  26.173  1.00  0.00     0.031 C 
ATOM     59  C   UNL A   1      45.909  27.782  26.492  1.00  0.00     0.037 A 
BRANCH  46  60
ATOM     60  C   UNL A   1      44.833  33.347  28.946  1.00  0.00     0.057 A 
ATOM     61  C   UNL A   1      44.649  34.363  27.998  1.00  0.00     0.134 A 
ATOM     62  C   UNL A   1      45.471  33.690  30.144  1.00  0.00     0.134 A 
ATOM     63  F   UNL A   1      44.057  34.096  26.823  1.00  0.00    -0.206 F 
ATOM     64  C   UNL A   1      45.101  35.663  28.225  1.00  0.00     0.040 A 
ATOM     65  C   UNL A   1      45.907  34.992  30.393  1.00  0.00     0.040 A 
ATOM     66  F   UNL A   1      45.675  32.766  31.096  1.00  0.00    -0.206 F 
ATOM     67  C   UNL A   1      45.728  35.982  29.429  1.00  0.00     0.006 A 
ENDBRANCH  46  60
BRANCH  47  68
ATOM     68  C   UNL A   1      41.162  24.183  27.557  1.00  0.00     0.057 A 
ATOM     69  C   UNL A   1      41.651  23.070  28.248  1.00  0.00     0.134 A 
ATOM     70  C   UNL A   1      40.146  23.967  26.618  1.00  0.00     0.134 A 
ATOM     71  F   UNL A   1      42.641  23.211  29.140  1.00  0.00    -0.206 F 
ATOM     72  C   UNL A   1      41.157  21.787  28.006  1.00  0.00     0.040 A 
ATOM     73  C   UNL A   1      39.627  22.693  26.383  1.00  0.00     0.040 A 
ATOM     74  F   UNL A   1      39.636  24.994  25.922  1.00  0.00    -0.206 F 
ATOM     75  C   UNL A   1      40.138  21.596  27.075  1.00  0.00     0.006 A 
ENDBRANCH  47  68
BRANCH  59  76
ATOM     76  C   UNL A   1      47.118  27.302  25.746  1.00  0.00     0.057 A 
ATOM     77  C   UNL A   1      47.290  27.553  24.379  1.00  0.00     0.134 A 
ATOM     78  C   UNL A   1      48.143  26.617  26.412  1.00  0.00     0.134 A 
ATOM     79  F   UNL A   1      46.341  28.194  23.680  1.00  0.00    -0.206 F 
ATOM     80  C   UNL A   1      48.430  27.123  23.696  1.00  0.00     0.040 A 
ATOM     81  C   UNL A   1      49.297  26.202  25.746  1.00  0.00     0.040 A 
ATOM     82  F   UNL A   1      48.044  26.352  27.723  1.00  0.00    -0.206 F 
ATOM     83  C   UNL A   1      49.441  26.451  24.382  1.00  0.00     0.006 A 
ENDBRANCH  59  76
ENDBRANCH  33  34
ENDBRANCH  26  28
ENDBRANCH  25  26
ENDBRANCH  24  25
ENDBRANCH  23  24
ENDBRANCH  22  23
ENDBRANCH   1  22
TORSDOF 17
ENDMDL
MODEL 2
REMARK VINA RESULT:     -10.4      4.068      7.364
REMARK SMILES C[C@@H](C(=O)OCCOCCOC(=O)c1ccc(-c2c3nc(c(-c4c(F)cccc4F)c4ccc([nH]4)c(-c4c(F)cccc4F)c4nc(c(-c5c(F)cccc5F)c5ccc2[nH]5)C=C4)C=C3)cc1)c1ccc(O[C@H]2CCCC2=O)cc1F
REMARK SMILES IDX 7 1 6 2 5 3 3 4 4 5 2 6 1 7 68 8 69 9 80 10 70 11 79 12
REMARK SMILES IDX 81 13 71 14 72 15 73 16 74 17 77 18 75 19 76 20 78 21 8 22
REMARK SMILES IDX 9 23 10 24 11 25 12 26 13 27 14 28 15 29 67 30 16 31 66 32
REMARK SMILES IDX 17 33 18 34 19 35 60 36 20 37 65 38 59 39 61 40 21 41 64 42
REMARK SMILES IDX 58 43 57 44 22 46 48 47 31 48 47 49 32 50 35 51 46 52 62 53
REMARK SMILES IDX 33 54 34 55 45 57 63 58 36 59 23 60 24 61 29 62 25 63 26 64
REMARK SMILES IDX 28 65 30 66 27 67 49 68 50 69 55 70 51 71 52 72 54 73 56 74
REMARK SMILES IDX 53 75 37 76 38 77 43 78 39 79 40 80 42 81 44 82 41 83
REMARK H PARENT 61 45 35 56
REMARK Flexibility Score: inf
ROOT
ATOM      1  C   UNL A   1      33.214  36.407  30.382  1.00  0.00     0.202 C 
ENDROOT
BRANCH   1   2
ATOM      2  C   UNL A   1      33.632  35.344  31.403  1.00  0.00     0.261 C 
BRANCH   2   3
ATOM      3  O   UNL A   1      34.617  35.873  32.297  1.00  0.00    -0.463 OA
BRANCH   3   4
ATOM      4  C   UNL A   1      35.276  34.956  33.055  1.00  0.00     0.313 C 
ATOM      5  O   UNL A   1      35.470  35.065  34.259  1.00  0.00    -0.252 OA
BRANCH   4   6
ATOM      6  C   UNL A   1      35.716  33.753  32.218  1.00  0.00     0.129 C 
ATOM      7  C   UNL A   1      35.575  32.474  33.064  1.00  0.00     0.025 C 
BRANCH   6   8
ATOM      8  C   UNL A   1      37.073  33.900  31.524  1.00  0.00     0.002 A 
ATOM      9  C   UNL A   1      37.209  33.718  30.137  1.00  0.00     0.011 A 
ATOM     10  C   UNL A   1      38.223  34.321  32.208  1.00  0.00     0.130 A 
ATOM     11  C   UNL A   1      38.429  33.959  29.489  1.00  0.00     0.047 A 
ATOM     12  C   UNL A   1      39.444  34.554  31.564  1.00  0.00     0.086 A 
ATOM     13  F   UNL A   1      38.187  34.535  33.529  1.00  0.00    -0.207 F 
ATOM     14  C   UNL A   1      39.551  34.401  30.192  1.00  0.00     0.123 A 
BRANCH  14  15
ATOM     15  O   UNL A   1      40.640  34.642  29.412  1.00  0.00    -0.483 OA
BRANCH  15  16
ATOM     16  C   UNL A   1      41.944  34.269  29.788  1.00  0.00     0.239 C 
ATOM     17  C   UNL A   1      42.156  32.763  30.006  1.00  0.00     0.054 C 
ATOM     18  C   UNL A   1      43.180  34.704  29.010  1.00  0.00     0.173 C 
ATOM     19  C   UNL A   1      43.363  32.356  29.162  1.00  0.00     0.012 C 
ATOM     20  C   UNL A   1      44.205  33.606  28.949  1.00  0.00     0.080 C 
ATOM     21  O   UNL A   1      43.355  35.822  28.543  1.00  0.00    -0.296 OA
ENDBRANCH  15  16
ENDBRANCH  14  15
ENDBRANCH   6   8
ENDBRANCH   4   6
ENDBRANCH   3   4
ENDBRANCH   2   3
ENDBRANCH   1   2
BRANCH   1  22
ATOM     22  O   UNL A   1      33.042  35.962  29.037  1.00  0.00    -0.374 OA
BRANCH  22  23
ATOM     23  C   UNL A   1      34.044  35.106  28.480  1.00  0.00     0.202 C 
BRANCH  23  24
ATOM     24  C   UNL A   1      33.617  33.676  28.126  1.00  0.00     0.261 C 
BRANCH  24  25
ATOM     25  O   UNL A   1      34.466  32.674  28.719  1.00  0.00    -0.460 OA
BRANCH  25  26
ATOM     26  C   UNL A   1      34.333  31.434  28.188  1.00  0.00     0.338 C 
ATOM     27  O   UNL A   1      33.426  31.023  27.476  1.00  0.00    -0.246 OA
BRANCH  26  28
ATOM     28  C   UNL A   1      35.540  30.629  28.442  1.00  0.00     0.060 A 
ATOM     29  C   UNL A   1      35.620  29.947  29.663  1.00  0.00     0.016 A 
ATOM     30  C   UNL A   1      36.625  30.641  27.564  1.00  0.00     0.016 A 
ATOM     31  C   UNL A   1      36.804  29.312  30.031  1.00  0.00     0.010 A 
ATOM     32  C   UNL A   1      37.817  30.010  27.941  1.00  0.00     0.010 A 
ATOM     33  C   UNL A   1      37.923  29.374  29.191  1.00  0.00    -0.014 A 
BRANCH  33  34
ATOM     34  C   UNL A   1      39.237  28.900  29.691  1.00  0.00     0.031 A 
ATOM     35  C   UNL A   1      39.855  29.577  30.884  1.00  0.00     0.074 A 
ATOM     36  C   UNL A   1      39.858  27.856  29.116  1.00  0.00     0.049 A 
ATOM     37  N   UNL A   1      40.998  29.340  31.476  1.00  0.00    -0.248 NA
ATOM     38  C   UNL A   1      39.077  30.668  31.493  1.00  0.00     0.031 C 
ATOM     39  C   UNL A   1      39.347  27.091  27.981  1.00  0.00     0.029 A 
ATOM     40  N   UNL A   1      41.060  27.262  29.410  1.00  0.00    -0.354 N 
ATOM     41  C   UNL A   1      41.078  30.248  32.524  1.00  0.00     0.074 A 
ATOM     42  C   UNL A   1      39.883  31.063  32.468  1.00  0.00     0.031 C 
ATOM     43  C   UNL A   1      40.236  26.133  27.666  1.00  0.00     0.029 A 
ATOM     44  C   UNL A   1      41.389  26.236  28.560  1.00  0.00     0.049 A 
ATOM     45  H   UNL A   1      41.632  27.545  30.160  1.00  0.00     0.167 HD
ATOM     46  C   UNL A   1      42.053  30.386  33.454  1.00  0.00     0.037 A 
ATOM     47  C   UNL A   1      42.501  25.480  28.499  1.00  0.00     0.037 A 
ATOM     48  C   UNL A   1      43.243  29.579  33.509  1.00  0.00     0.049 A 
ATOM     49  C   UNL A   1      43.604  25.697  29.500  1.00  0.00     0.074 A 
ATOM     50  C   UNL A   1      44.282  29.636  34.420  1.00  0.00     0.029 A 
ATOM     51  N   UNL A   1      43.555  28.571  32.610  1.00  0.00    -0.354 N 
ATOM     52  N   UNL A   1      43.660  26.545  30.498  1.00  0.00    -0.248 NA
ATOM     53  C   UNL A   1      44.796  24.846  29.370  1.00  0.00     0.031 C 
ATOM     54  C   UNL A   1      45.244  28.690  34.048  1.00  0.00     0.029 A 
ATOM     55  C   UNL A   1      44.781  28.014  32.930  1.00  0.00     0.049 A 
ATOM     56  H   UNL A   1      42.987  28.292  31.855  1.00  0.00     0.167 HD
ATOM     57  C   UNL A   1      44.878  26.316  31.127  1.00  0.00     0.074 A 
ATOM     58  C   UNL A   1      45.525  25.240  30.405  1.00  0.00     0.031 C 
ATOM     59  C   UNL A   1      45.411  26.940  32.205  1.00  0.00     0.037 A 
BRANCH  46  60
ATOM     60  C   UNL A   1      41.878  31.467  34.478  1.00  0.00     0.057 A 
ATOM     61  C   UNL A   1      41.194  31.243  35.680  1.00  0.00     0.134 A 
ATOM     62  C   UNL A   1      42.420  32.741  34.271  1.00  0.00     0.134 A 
ATOM     63  F   UNL A   1      40.638  30.047  35.932  1.00  0.00    -0.206 F 
ATOM     64  C   UNL A   1      41.037  32.253  36.630  1.00  0.00     0.040 A 
ATOM     65  C   UNL A   1      42.291  33.754  35.224  1.00  0.00     0.040 A 
ATOM     66  F   UNL A   1      43.091  33.021  33.144  1.00  0.00    -0.206 F 
ATOM     67  C   UNL A   1      41.591  33.512  36.405  1.00  0.00     0.006 A 
ENDBRANCH  46  60
BRANCH  47  68
ATOM     68  C   UNL A   1      42.638  24.451  27.437  1.00  0.00     0.057 A 
ATOM     69  C   UNL A   1      43.139  24.776  26.171  1.00  0.00     0.134 A 
ATOM     70  C   UNL A   1      42.256  23.123  27.660  1.00  0.00     0.134 A 
ATOM     71  F   UNL A   1      43.497  26.037  25.890  1.00  0.00    -0.206 F 
ATOM     72  C   UNL A   1      43.243  23.819  25.160  1.00  0.00     0.040 A 
ATOM     73  C   UNL A   1      42.377  22.151  26.666  1.00  0.00     0.040 A 
ATOM     74  F   UNL A   1      41.768  22.750  28.852  1.00  0.00    -0.206 F 
ATOM     75  C   UNL A   1      42.866  22.500  25.409  1.00  0.00     0.006 A 
ENDBRANCH  47  68
BRANCH  59  76
ATOM     76  C   UNL A   1      46.746  26.456  32.690  1.00  0.00     0.057 A 
ATOM     77  C   UNL A   1      47.944  27.039  32.257  1.00  0.00     0.134 A 
ATOM     78  C   UNL A   1      46.832  25.424  33.632  1.00  0.00     0.134 A 
ATOM     79  F   UNL A   1      47.931  28.025  31.347  1.00  0.00    -0.206 F 
ATOM     80  C   UNL A   1      49.182  26.599  32.730  1.00  0.00     0.040 A 
ATOM     81  C   UNL A   1      48.062  24.990  34.131  1.00  0.00     0.040 A 
ATOM     82  F   UNL A   1      45.722  24.829  34.094  1.00  0.00    -0.206 F 
ATOM     83  C   UNL A   1      49.241  25.575  33.676  1.00  0.00     0.006 A 
ENDBRANCH  59  76
ENDBRANCH  33  34
ENDBRANCH  26  28
ENDBRANCH  25  26
ENDBRANCH  24  25
ENDBRANCH  23  24
ENDBRANCH  22  23
ENDBRANCH   1  22
TORSDOF 17
ENDMDL
MODEL 3
REMARK VINA RESULT:     -10.3      3.936      8.843
REMARK SMILES C[C@@H](C(=O)OCCOCCOC(=O)c1ccc(-c2c3nc(c(-c4c(F)cccc4F)c4ccc([nH]4)c(-c4c(F)cccc4F)c4nc(c(-c5c(F)cccc5F)c5ccc2[nH]5)C=C4)C=C3)cc1)c1ccc(O[C@H]2CCCC2=O)cc1F
REMARK SMILES IDX 7 1 6 2 5 3 3 4 4 5 2 6 1 7 68 8 69 9 80 10 70 11 79 12
REMARK SMILES IDX 81 13 71 14 72 15 73 16 74 17 77 18 75 19 76 20 78 21 8 22
REMARK SMILES IDX 9 23 10 24 11 25 12 26 13 27 14 28 15 29 67 30 16 31 66 32
REMARK SMILES IDX 17 33 18 34 19 35 60 36 20 37 65 38 59 39 61 40 21 41 64 42
REMARK SMILES IDX 58 43 57 44 22 46 48 47 31 48 47 49 32 50 35 51 46 52 62 53
REMARK SMILES IDX 33 54 34 55 45 57 63 58 36 59 23 60 24 61 29 62 25 63 26 64
REMARK SMILES IDX 28 65 30 66 27 67 49 68 50 69 55 70 51 71 52 72 54 73 56 74
REMARK SMILES IDX 53 75 37 76 38 77 43 78 39 79 40 80 42 81 44 82 41 83
REMARK H PARENT 61 45 35 56
REMARK Flexibility Score: inf
ROOT
ATOM      1  C   UNL A   1      33.380  35.280  30.797  1.00  0.00     0.202 C 
ENDROOT
BRANCH   1   2
ATOM      2  C   UNL A   1      34.226  34.785  31.974  1.00  0.00     0.261 C 
BRANCH   2   3
ATOM      3  O   UNL A   1      35.591  34.626  31.573  1.00  0.00    -0.463 OA
BRANCH   3   4
ATOM      4  C   UNL A   1      36.499  34.576  32.584  1.00  0.00     0.313 C 
ATOM      5  O   UNL A   1      36.289  34.974  33.722  1.00  0.00    -0.252 OA
BRANCH   4   6
ATOM      6  C   UNL A   1      37.807  33.926  32.128  1.00  0.00     0.129 C 
ATOM      7  C   UNL A   1      37.658  33.471  30.665  1.00  0.00     0.025 C 
BRANCH   6   8
ATOM      8  C   UNL A   1      38.365  32.852  33.065  1.00  0.00     0.002 A 
ATOM      9  C   UNL A   1      37.799  31.567  33.125  1.00  0.00     0.011 A 
ATOM     10  C   UNL A   1      39.523  33.054  33.831  1.00  0.00     0.130 A 
ATOM     11  C   UNL A   1      38.377  30.554  33.903  1.00  0.00     0.047 A 
ATOM     12  C   UNL A   1      40.097  32.045  34.614  1.00  0.00     0.086 A 
ATOM     13  F   UNL A   1      40.142  34.240  33.827  1.00  0.00    -0.207 F 
ATOM     14  C   UNL A   1      39.544  30.776  34.637  1.00  0.00     0.123 A 
BRANCH  14  15
ATOM     15  O   UNL A   1      40.009  29.679  35.293  1.00  0.00    -0.483 OA
BRANCH  15  16
ATOM     16  C   UNL A   1      41.267  29.106  35.022  1.00  0.00     0.239 C 
ATOM     17  C   UNL A   1      41.966  28.463  36.229  1.00  0.00     0.054 C 
ATOM     18  C   UNL A   1      41.488  28.106  33.894  1.00  0.00     0.173 C 
ATOM     19  C   UNL A   1      42.350  27.042  35.817  1.00  0.00     0.012 C 
ATOM     20  C   UNL A   1      42.455  27.028  34.299  1.00  0.00     0.080 C 
ATOM     21  O   UNL A   1      40.996  28.190  32.776  1.00  0.00    -0.296 OA
ENDBRANCH  15  16
ENDBRANCH  14  15
ENDBRANCH   6   8
ENDBRANCH   4   6
ENDBRANCH   3   4
ENDBRANCH   2   3
ENDBRANCH   1   2
BRANCH   1  22
ATOM     22  O   UNL A   1      33.062  34.316  29.793  1.00  0.00    -0.374 OA
BRANCH  22  23
ATOM     23  C   UNL A   1      33.793  34.362  28.564  1.00  0.00     0.202 C 
BRANCH  23  24
ATOM     24  C   UNL A   1      34.858  33.279  28.349  1.00  0.00     0.261 C 
BRANCH  24  25
ATOM     25  O   UNL A   1      34.594  32.076  29.098  1.00  0.00    -0.460 OA
BRANCH  25  26
ATOM     26  C   UNL A   1      34.612  30.938  28.364  1.00  0.00     0.338 C 
ATOM     27  O   UNL A   1      33.758  30.543  27.581  1.00  0.00    -0.246 OA
BRANCH  26  28
ATOM     28  C   UNL A   1      35.911  30.257  28.494  1.00  0.00     0.060 A 
ATOM     29  C   UNL A   1      36.289  29.818  29.770  1.00  0.00     0.016 A 
ATOM     30  C   UNL A   1      36.798  30.163  27.420  1.00  0.00     0.016 A 
ATOM     31  C   UNL A   1      37.574  29.324  29.986  1.00  0.00     0.010 A 
ATOM     32  C   UNL A   1      38.092  29.675  27.643  1.00  0.00     0.010 A 
ATOM     33  C   UNL A   1      38.497  29.288  28.933  1.00  0.00    -0.014 A 
BRANCH  33  34
ATOM     34  C   UNL A   1      39.920  28.984  29.222  1.00  0.00     0.031 A 
ATOM     35  C   UNL A   1      40.497  27.672  28.762  1.00  0.00     0.074 A 
ATOM     36  C   UNL A   1      40.702  29.877  29.852  1.00  0.00     0.049 A 
ATOM     37  N   UNL A   1      41.705  27.194  28.921  1.00  0.00    -0.248 NA
ATOM     38  C   UNL A   1      39.589  26.781  28.023  1.00  0.00     0.031 C 
ATOM     39  C   UNL A   1      40.275  31.196  30.312  1.00  0.00     0.029 A 
ATOM     40  N   UNL A   1      42.024  29.803  30.216  1.00  0.00    -0.354 N 
ATOM     41  C   UNL A   1      41.704  25.949  28.303  1.00  0.00     0.074 A 
ATOM     42  C   UNL A   1      40.366  25.732  27.794  1.00  0.00     0.031 C 
ATOM     43  C   UNL A   1      41.314  31.806  30.909  1.00  0.00     0.029 A 
ATOM     44  C   UNL A   1      42.469  30.909  30.896  1.00  0.00     0.049 A 
ATOM     45  H   UNL A   1      42.597  29.030  30.009  1.00  0.00     0.167 HD
ATOM     46  C   UNL A   1      42.725  25.071  28.164  1.00  0.00     0.037 A 
ATOM     47  C   UNL A   1      43.665  31.161  31.459  1.00  0.00     0.037 A 
ATOM     48  C   UNL A   1      44.055  25.284  28.672  1.00  0.00     0.049 A 
ATOM     49  C   UNL A   1      44.767  30.140  31.352  1.00  0.00     0.074 A 
ATOM     50  C   UNL A   1      45.160  24.457  28.571  1.00  0.00     0.029 A 
ATOM     51  N   UNL A   1      44.457  26.404  29.384  1.00  0.00    -0.354 N 
ATOM     52  N   UNL A   1      44.760  28.976  30.749  1.00  0.00    -0.248 NA
ATOM     53  C   UNL A   1      46.045  30.471  32.001  1.00  0.00     0.031 C 
ATOM     54  C   UNL A   1      46.221  25.058  29.258  1.00  0.00     0.029 A 
ATOM     55  C   UNL A   1      45.787  26.279  29.748  1.00  0.00     0.049 A 
ATOM     56  H   UNL A   1      43.882  27.174  29.598  1.00  0.00     0.167 HD
ATOM     57  C   UNL A   1      46.033  28.447  30.924  1.00  0.00     0.074 A 
ATOM     58  C   UNL A   1      46.791  29.423  31.680  1.00  0.00     0.031 C 
ATOM     59  C   UNL A   1      46.530  27.261  30.497  1.00  0.00     0.037 A 
BRANCH  46  60
ATOM     60  C   UNL A   1      42.434  23.787  27.447  1.00  0.00     0.057 A 
ATOM     61  C   UNL A   1      42.589  23.663  26.060  1.00  0.00     0.134 A 
ATOM     62  C   UNL A   1      42.018  22.652  28.154  1.00  0.00     0.134 A 
ATOM     63  F   UNL A   1      42.971  24.718  25.323  1.00  0.00    -0.206 F 
ATOM     64  C   UNL A   1      42.319  22.464  25.400  1.00  0.00     0.040 A 
ATOM     65  C   UNL A   1      41.767  21.440  27.508  1.00  0.00     0.040 A 
ATOM     66  F   UNL A   1      41.854  22.701  29.485  1.00  0.00    -0.206 F 
ATOM     67  C   UNL A   1      41.911  21.346  26.126  1.00  0.00     0.006 A 
ENDBRANCH  46  60
BRANCH  47  68
ATOM     68  C   UNL A   1      43.885  32.432  32.194  1.00  0.00     0.057 A 
ATOM     69  C   UNL A   1      44.309  33.590  31.532  1.00  0.00     0.134 A 
ATOM     70  C   UNL A   1      43.690  32.512  33.578  1.00  0.00     0.134 A 
ATOM     71  F   UNL A   1      44.537  33.568  30.212  1.00  0.00    -0.206 F 
ATOM     72  C   UNL A   1      44.544  34.780  32.224  1.00  0.00     0.040 A 
ATOM     73  C   UNL A   1      43.899  33.702  34.278  1.00  0.00     0.040 A 
ATOM     74  F   UNL A   1      43.285  31.436  34.268  1.00  0.00    -0.206 F 
ATOM     75  C   UNL A   1      44.333  34.839  33.600  1.00  0.00     0.006 A 
ENDBRANCH  47  68
BRANCH  59  76
ATOM     76  C   UNL A   1      47.967  26.964  30.809  1.00  0.00     0.057 A 
ATOM     77  C   UNL A   1      48.340  26.227  31.939  1.00  0.00     0.134 A 
ATOM     78  C   UNL A   1      48.986  27.384  29.945  1.00  0.00     0.134 A 
ATOM     79  F   UNL A   1      47.413  25.805  32.813  1.00  0.00    -0.206 F 
ATOM     80  C   UNL A   1      49.679  25.935  32.210  1.00  0.00     0.040 A 
ATOM     81  C   UNL A   1      50.326  27.079  30.192  1.00  0.00     0.040 A 
ATOM     82  F   UNL A   1      48.696  28.087  28.839  1.00  0.00    -0.206 F 
ATOM     83  C   UNL A   1      50.675  26.356  31.330  1.00  0.00     0.006 A 
ENDBRANCH  59  76
ENDBRANCH  33  34
ENDBRANCH  26  28
ENDBRANCH  25  26
ENDBRANCH  24  25
ENDBRANCH  23  24
ENDBRANCH  22  23
ENDBRANCH   1  22
TORSDOF 17
ENDMDL
