MODEL 1
REMARK VINA RESULT:     -11.5      0.000      0.000
REMARK SMILES Cc1cc2c(c(C)c1Br)C=C(C(=O)OCCOCCOC(=O)c1ccc(-c3c4nc(c(-c5c(F)cccc5F)c5ccc([nH]5)c(-c5c(F)cccc5F)c5nc(c(-c6c(F)cccc6F)c6ccc3[nH]6)C=C5)C=C4)cc1)[C@@H](C(F)(F)F)O2
REMARK SMILES IDX 18 1 17 2 16 3 15 4 14 5 12 6 13 7 11 8 1 9 2 10 3 11 8 12
REMARK SMILES IDX 4 13 6 14 9 15 5 16 82 17 7 18 10 19 77 20 78 21 79 22 80 23
REMARK SMILES IDX 81 24 19 25 20 26 21 27 22 28 23 29 24 30 76 31 25 32 75 33
REMARK SMILES IDX 26 34 27 35 28 36 69 37 29 38 74 39 68 40 70 41 30 42 73 43
REMARK SMILES IDX 67 44 66 45 31 47 57 48 40 49 56 50 41 51 44 52 55 53 71 54
REMARK SMILES IDX 42 55 43 56 54 58 72 59 45 60 32 61 33 62 38 63 34 64 35 65
REMARK SMILES IDX 37 66 39 67 36 68 58 69 59 70 64 71 60 72 61 73 63 74 65 75
REMARK SMILES IDX 62 76 46 77 47 78 52 79 48 80 49 81 51 82 53 83 50 84
REMARK H PARENT 70 46 44 57
REMARK Flexibility Score: inf
ROOT
ATOM      1  C   UNL A   1      35.689  21.084  25.447  1.00  0.00     0.202 C 
ENDROOT
BRANCH   1   2
ATOM      2  O   UNL A   1      34.521  20.886  24.646  1.00  0.00    -0.374 OA
BRANCH   2   3
ATOM      3  C   UNL A   1      33.570  21.948  24.586  1.00  0.00     0.202 C 
BRANCH   3   4
ATOM      4  C   UNL A   1      33.942  23.146  23.708  1.00  0.00     0.261 C 
BRANCH   4   5
ATOM      5  O   UNL A   1      34.522  24.203  24.487  1.00  0.00    -0.460 OA
BRANCH   5   6
ATOM      6  C   UNL A   1      33.815  24.541  25.590  1.00  0.00     0.338 C 
ATOM      7  O   UNL A   1      33.713  23.895  26.622  1.00  0.00    -0.246 OA
BRANCH   6   8
ATOM      8  C   UNL A   1      33.263  25.899  25.435  1.00  0.00     0.087 C 
ATOM      9  C   UNL A   1      31.261  31.955  26.463  1.00  0.00     0.046 C 
ATOM     10  C   UNL A   1      32.076  30.701  26.286  1.00  0.00    -0.033 A 
ATOM     11  C   UNL A   1      31.535  29.664  25.513  1.00  0.00     0.051 A 
ATOM     12  C   UNL A   1      33.324  30.504  26.913  1.00  0.00     0.024 A 
ATOM     13  C   UNL A   1      32.182  28.436  25.407  1.00  0.00     0.128 A 
ATOM     14  C   UNL A   1      34.021  29.280  26.775  1.00  0.00    -0.026 A 
ATOM     15  Br  UNL A   1      34.033  31.909  28.005  1.00  0.00    -0.050 Br
ATOM     16  C   UNL A   1      33.401  28.223  26.060  1.00  0.00     0.021 A 
ATOM     17  O   UNL A   1      31.540  27.503  24.642  1.00  0.00    -0.475 OA
ATOM     18  C   UNL A   1      35.386  29.052  27.384  1.00  0.00     0.046 C 
ATOM     19  C   UNL A   1      33.951  26.872  26.043  1.00  0.00     0.027 C 
ATOM     20  C   UNL A   1      31.996  26.124  24.668  1.00  0.00     0.316 C 
BRANCH  20  21
ATOM     21  C   UNL A   1      30.838  25.241  25.157  1.00  0.00     0.430 C 
ATOM     22  F   UNL A   1      29.638  25.791  24.848  1.00  0.00    -0.167 F 
ATOM     23  F   UNL A   1      30.860  24.017  24.578  1.00  0.00    -0.167 F 
ATOM     24  F   UNL A   1      30.870  25.057  26.496  1.00  0.00    -0.167 F 
ENDBRANCH  20  21
ENDBRANCH   6   8
ENDBRANCH   5   6
ENDBRANCH   4   5
ENDBRANCH   3   4
ENDBRANCH   2   3
ENDBRANCH   1   2
BRANCH   1  25
ATOM     25  C   UNL A   1      36.972  20.385  24.985  1.00  0.00     0.261 C 
BRANCH  25  26
ATOM     26  O   UNL A   1      38.097  21.284  24.966  1.00  0.00    -0.460 OA
BRANCH  26  27
ATOM     27  C   UNL A   1      39.071  20.989  25.858  1.00  0.00     0.338 C 
ATOM     28  O   UNL A   1      39.626  19.912  26.023  1.00  0.00    -0.246 OA
BRANCH  27  29
ATOM     29  C   UNL A   1      39.532  22.214  26.531  1.00  0.00     0.060 A 
ATOM     30  C   UNL A   1      38.962  23.428  26.124  1.00  0.00     0.016 A 
ATOM     31  C   UNL A   1      40.578  22.191  27.454  1.00  0.00     0.016 A 
ATOM     32  C   UNL A   1      39.478  24.632  26.596  1.00  0.00     0.010 A 
ATOM     33  C   UNL A   1      41.106  23.402  27.914  1.00  0.00     0.010 A 
ATOM     34  C   UNL A   1      40.585  24.624  27.452  1.00  0.00    -0.014 A 
BRANCH  34  35
ATOM     35  C   UNL A   1      41.318  25.888  27.701  1.00  0.00     0.031 A 
ATOM     36  C   UNL A   1      40.625  26.983  28.462  1.00  0.00     0.074 A 
ATOM     37  C   UNL A   1      42.591  26.043  27.299  1.00  0.00     0.049 A 
ATOM     38  N   UNL A   1      41.043  28.189  28.749  1.00  0.00    -0.248 NA
ATOM     39  C   UNL A   1      39.279  26.674  28.975  1.00  0.00     0.031 C 
ATOM     40  C   UNL A   1      43.392  25.030  26.616  1.00  0.00     0.029 A 
ATOM     41  N   UNL A   1      43.431  27.122  27.411  1.00  0.00    -0.354 N 
ATOM     42  C   UNL A   1      40.016  28.780  29.474  1.00  0.00     0.074 A 
ATOM     43  C   UNL A   1      38.944  27.813  29.561  1.00  0.00     0.031 C 
ATOM     44  C   UNL A   1      44.611  25.539  26.365  1.00  0.00     0.029 A 
ATOM     45  C   UNL A   1      44.661  26.922  26.836  1.00  0.00     0.049 A 
ATOM     46  H   UNL A   1      43.176  27.960  27.862  1.00  0.00     0.167 HD
ATOM     47  C   UNL A   1      39.974  30.015  30.026  1.00  0.00     0.037 A 
ATOM     48  C   UNL A   1      45.698  27.769  26.688  1.00  0.00     0.037 A 
ATOM     49  C   UNL A   1      41.037  30.980  29.932  1.00  0.00     0.049 A 
ATOM     50  C   UNL A   1      45.586  29.173  27.218  1.00  0.00     0.074 A 
ATOM     51  C   UNL A   1      41.083  32.265  30.444  1.00  0.00     0.029 A 
ATOM     52  N   UNL A   1      42.240  30.764  29.279  1.00  0.00    -0.354 N 
ATOM     53  N   UNL A   1      44.604  29.733  27.881  1.00  0.00    -0.248 NA
ATOM     54  C   UNL A   1      46.728  30.067  26.969  1.00  0.00     0.031 C 
ATOM     55  C   UNL A   1      42.301  32.841  30.066  1.00  0.00     0.029 A 
ATOM     56  C   UNL A   1      43.029  31.899  29.356  1.00  0.00     0.049 A 
ATOM     57  H   UNL A   1      42.496  29.927  28.828  1.00  0.00     0.167 HD
ATOM     58  C   UNL A   1      45.011  31.036  28.141  1.00  0.00     0.074 A 
ATOM     59  C   UNL A   1      46.339  31.179  27.580  1.00  0.00     0.031 C 
ATOM     60  C   UNL A   1      44.345  32.026  28.784  1.00  0.00     0.037 A 
BRANCH  47  61
ATOM     61  C   UNL A   1      38.727  30.399  30.763  1.00  0.00     0.057 A 
ATOM     62  C   UNL A   1      37.643  31.001  30.111  1.00  0.00     0.134 A 
ATOM     63  C   UNL A   1      38.593  30.131  32.130  1.00  0.00     0.134 A 
ATOM     64  F   UNL A   1      37.716  31.300  28.806  1.00  0.00    -0.206 F 
ATOM     65  C   UNL A   1      36.475  31.336  30.799  1.00  0.00     0.040 A 
ATOM     66  C   UNL A   1      37.422  30.441  32.824  1.00  0.00     0.040 A 
ATOM     67  F   UNL A   1      39.595  29.556  32.813  1.00  0.00    -0.206 F 
ATOM     68  C   UNL A   1      36.360  31.048  32.157  1.00  0.00     0.006 A 
ENDBRANCH  47  61
BRANCH  48  69
ATOM     69  C   UNL A   1      46.928  27.319  25.991  1.00  0.00     0.057 A 
ATOM     70  C   UNL A   1      47.988  26.739  26.697  1.00  0.00     0.134 A 
ATOM     71  C   UNL A   1      47.077  27.466  24.607  1.00  0.00     0.134 A 
ATOM     72  F   UNL A   1      47.913  26.596  28.029  1.00  0.00    -0.206 F 
ATOM     73  C   UNL A   1      49.155  26.327  26.053  1.00  0.00     0.040 A 
ATOM     74  C   UNL A   1      48.230  27.038  23.946  1.00  0.00     0.040 A 
ATOM     75  F   UNL A   1      46.099  28.018  23.875  1.00  0.00    -0.206 F 
ATOM     76  C   UNL A   1      49.275  26.470  24.671  1.00  0.00     0.006 A 
ENDBRANCH  48  69
BRANCH  60  77
ATOM     77  C   UNL A   1      45.042  33.347  28.922  1.00  0.00     0.057 A 
ATOM     78  C   UNL A   1      45.910  33.612  29.988  1.00  0.00     0.134 A 
ATOM     79  C   UNL A   1      44.883  34.346  27.953  1.00  0.00     0.134 A 
ATOM     80  F   UNL A   1      46.097  32.701  30.955  1.00  0.00    -0.206 F 
ATOM     81  C   UNL A   1      46.582  34.830  30.095  1.00  0.00     0.040 A 
ATOM     82  C   UNL A   1      45.568  35.559  28.036  1.00  0.00     0.040 A 
ATOM     83  F   UNL A   1      44.074  34.151  26.900  1.00  0.00    -0.206 F 
ATOM     84  C   UNL A   1      46.417  35.805  29.113  1.00  0.00     0.006 A 
ENDBRANCH  60  77
ENDBRANCH  34  35
ENDBRANCH  27  29
ENDBRANCH  26  27
ENDBRANCH  25  26
ENDBRANCH   1  25
TORSDOF 15
ENDMDL
MODEL 2
REMARK VINA RESULT:     -11.5      3.930      9.298
REMARK SMILES Cc1cc2c(c(C)c1Br)C=C(C(=O)OCCOCCOC(=O)c1ccc(-c3c4nc(c(-c5c(F)cccc5F)c5ccc([nH]5)c(-c5c(F)cccc5F)c5nc(c(-c6c(F)cccc6F)c6ccc3[nH]6)C=C5)C=C4)cc1)[C@@H](C(F)(F)F)O2
REMARK SMILES IDX 18 1 17 2 16 3 15 4 14 5 12 6 13 7 11 8 1 9 2 10 3 11 8 12
REMARK SMILES IDX 4 13 6 14 9 15 5 16 82 17 7 18 10 19 77 20 78 21 79 22 80 23
REMARK SMILES IDX 81 24 19 25 20 26 21 27 22 28 23 29 24 30 76 31 25 32 75 33
REMARK SMILES IDX 26 34 27 35 28 36 69 37 29 38 74 39 68 40 70 41 30 42 73 43
REMARK SMILES IDX 67 44 66 45 31 47 57 48 40 49 56 50 41 51 44 52 55 53 71 54
REMARK SMILES IDX 42 55 43 56 54 58 72 59 45 60 32 61 33 62 38 63 34 64 35 65
REMARK SMILES IDX 37 66 39 67 36 68 58 69 59 70 64 71 60 72 61 73 63 74 65 75
REMARK SMILES IDX 62 76 46 77 47 78 52 79 48 80 49 81 51 82 53 83 50 84
REMARK H PARENT 70 46 44 57
REMARK Flexibility Score: inf
ROOT
ATOM      1  C   UNL A   1      31.722  30.404  26.317  1.00  0.00     0.202 C 
ENDROOT
BRANCH   1   2
ATOM      2  O   UNL A   1      31.549  29.288  27.193  1.00  0.00    -0.374 OA
BRANCH   2   3
ATOM      3  C   UNL A   1      32.264  28.091  26.893  1.00  0.00     0.202 C 
BRANCH   3   4
ATOM      4  C   UNL A   1      31.850  27.351  25.619  1.00  0.00     0.261 C 
BRANCH   4   5
ATOM      5  O   UNL A   1      32.407  26.028  25.578  1.00  0.00    -0.460 OA
BRANCH   5   6
ATOM      6  C   UNL A   1      33.417  25.872  24.690  1.00  0.00     0.338 C 
ATOM      7  O   UNL A   1      33.872  26.722  23.941  1.00  0.00    -0.246 OA
BRANCH   6   8
ATOM      8  C   UNL A   1      34.006  24.529  24.834  1.00  0.00     0.087 C 
ATOM      9  C   UNL A   1      38.036  19.479  24.902  1.00  0.00     0.046 C 
ATOM     10  C   UNL A   1      37.325  20.779  25.175  1.00  0.00    -0.033 A 
ATOM     11  C   UNL A   1      35.975  20.883  24.808  1.00  0.00     0.051 A 
ATOM     12  C   UNL A   1      37.972  21.906  25.722  1.00  0.00     0.024 A 
ATOM     13  C   UNL A   1      35.292  22.091  24.924  1.00  0.00     0.128 A 
ATOM     14  C   UNL A   1      37.279  23.128  25.894  1.00  0.00    -0.026 A 
ATOM     15  Br  UNL A   1      39.827  21.766  26.176  1.00  0.00    -0.050 Br
ATOM     16  C   UNL A   1      35.942  23.222  25.429  1.00  0.00     0.021 A 
ATOM     17  O   UNL A   1      33.990  22.066  24.512  1.00  0.00    -0.475 OA
ATOM     18  C   UNL A   1      37.923  24.341  26.529  1.00  0.00     0.046 C 
ATOM     19  C   UNL A   1      35.227  24.493  25.379  1.00  0.00     0.027 C 
ATOM     20  C   UNL A   1      33.266  23.316  24.357  1.00  0.00     0.316 C 
BRANCH  20  21
ATOM     21  C   UNL A   1      32.810  23.433  22.895  1.00  0.00     0.430 C 
ATOM     22  F   UNL A   1      32.619  22.209  22.343  1.00  0.00    -0.167 F 
ATOM     23  F   UNL A   1      31.632  24.091  22.788  1.00  0.00    -0.167 F 
ATOM     24  F   UNL A   1      33.713  24.087  22.132  1.00  0.00    -0.167 F 
ENDBRANCH  20  21
ENDBRANCH   6   8
ENDBRANCH   5   6
ENDBRANCH   4   5
ENDBRANCH   3   4
ENDBRANCH   2   3
ENDBRANCH   1   2
BRANCH   1  25
ATOM     25  C   UNL A   1      31.485  31.796  26.915  1.00  0.00     0.261 C 
BRANCH  25  26
ATOM     26  O   UNL A   1      32.556  32.706  26.598  1.00  0.00    -0.460 OA
BRANCH  26  27
ATOM     27  C   UNL A   1      33.090  33.342  27.666  1.00  0.00     0.338 C 
ATOM     28  O   UNL A   1      32.561  34.195  28.365  1.00  0.00    -0.246 OA
BRANCH  27  29
ATOM     29  C   UNL A   1      34.387  32.741  28.018  1.00  0.00     0.060 A 
ATOM     30  C   UNL A   1      34.399  31.382  28.357  1.00  0.00     0.016 A 
ATOM     31  C   UNL A   1      35.545  33.514  28.125  1.00  0.00     0.016 A 
ATOM     32  C   UNL A   1      35.558  30.801  28.865  1.00  0.00     0.010 A 
ATOM     33  C   UNL A   1      36.704  32.933  28.651  1.00  0.00     0.010 A 
ATOM     34  C   UNL A   1      36.699  31.588  29.062  1.00  0.00    -0.014 A 
BRANCH  34  35
ATOM     35  C   UNL A   1      37.815  31.055  29.879  1.00  0.00     0.031 A 
ATOM     36  C   UNL A   1      38.771  30.083  29.244  1.00  0.00     0.074 A 
ATOM     37  C   UNL A   1      38.003  31.461  31.146  1.00  0.00     0.049 A 
ATOM     38  N   UNL A   1      39.781  29.445  29.775  1.00  0.00    -0.248 NA
ATOM     39  C   UNL A   1      38.561  29.797  27.814  1.00  0.00     0.031 C 
ATOM     40  C   UNL A   1      37.187  32.450  31.847  1.00  0.00     0.029 A 
ATOM     41  N   UNL A   1      38.947  31.085  32.066  1.00  0.00    -0.354 N 
ATOM     42  C   UNL A   1      40.328  28.686  28.748  1.00  0.00     0.074 A 
ATOM     43  C   UNL A   1      39.522  28.920  27.570  1.00  0.00     0.031 C 
ATOM     44  C   UNL A   1      37.666  32.599  33.095  1.00  0.00     0.029 A 
ATOM     45  C   UNL A   1      38.795  31.691  33.288  1.00  0.00     0.049 A 
ATOM     46  H   UNL A   1      39.667  30.441  31.870  1.00  0.00     0.167 HD
ATOM     47  C   UNL A   1      41.410  27.873  28.782  1.00  0.00     0.037 A 
ATOM     48  C   UNL A   1      39.477  31.513  34.436  1.00  0.00     0.037 A 
ATOM     49  C   UNL A   1      42.206  27.634  29.957  1.00  0.00     0.049 A 
ATOM     50  C   UNL A   1      40.611  30.523  34.477  1.00  0.00     0.074 A 
ATOM     51  C   UNL A   1      43.313  26.815  30.096  1.00  0.00     0.029 A 
ATOM     52  N   UNL A   1      41.976  28.214  31.194  1.00  0.00    -0.354 N 
ATOM     53  N   UNL A   1      41.106  29.792  33.509  1.00  0.00    -0.248 NA
ATOM     54  C   UNL A   1      41.274  30.330  35.776  1.00  0.00     0.031 C 
ATOM     55  C   UNL A   1      43.728  26.869  31.431  1.00  0.00     0.029 A 
ATOM     56  C   UNL A   1      42.906  27.755  32.110  1.00  0.00     0.049 A 
ATOM     57  H   UNL A   1      41.257  28.856  31.393  1.00  0.00     0.167 HD
ATOM     58  C   UNL A   1      42.145  29.063  34.075  1.00  0.00     0.074 A 
ATOM     59  C   UNL A   1      42.221  29.454  35.467  1.00  0.00     0.031 C 
ATOM     60  C   UNL A   1      42.962  28.149  33.495  1.00  0.00     0.037 A 
BRANCH  47  61
ATOM     61  C   UNL A   1      41.781  27.167  27.514  1.00  0.00     0.057 A 
ATOM     62  C   UNL A   1      42.555  27.788  26.525  1.00  0.00     0.134 A 
ATOM     63  C   UNL A   1      41.394  25.839  27.295  1.00  0.00     0.134 A 
ATOM     64  F   UNL A   1      42.942  29.064  26.668  1.00  0.00    -0.206 F 
ATOM     65  C   UNL A   1      42.917  27.117  25.356  1.00  0.00     0.040 A 
ATOM     66  C   UNL A   1      41.768  25.151  26.140  1.00  0.00     0.040 A 
ATOM     67  F   UNL A   1      40.652  25.187  28.203  1.00  0.00    -0.206 F 
ATOM     68  C   UNL A   1      42.531  25.792  25.165  1.00  0.00     0.006 A 
ENDBRANCH  47  61
BRANCH  48  69
ATOM     69  C   UNL A   1      39.095  32.276  35.650  1.00  0.00     0.057 A 
ATOM     70  C   UNL A   1      39.577  33.571  35.871  1.00  0.00     0.134 A 
ATOM     71  C   UNL A   1      38.249  31.727  36.621  1.00  0.00     0.134 A 
ATOM     72  F   UNL A   1      40.413  34.140  34.989  1.00  0.00    -0.206 F 
ATOM     73  C   UNL A   1      39.236  34.291  37.017  1.00  0.00     0.040 A 
ATOM     74  C   UNL A   1      37.883  32.444  37.761  1.00  0.00     0.040 A 
ATOM     75  F   UNL A   1      37.758  30.489  36.469  1.00  0.00    -0.206 F 
ATOM     76  C   UNL A   1      38.380  33.729  37.963  1.00  0.00     0.006 A 
ENDBRANCH  48  69
BRANCH  60  77
ATOM     77  C   UNL A   1      44.011  27.515  34.360  1.00  0.00     0.057 A 
ATOM     78  C   UNL A   1      45.263  28.111  34.552  1.00  0.00     0.134 A 
ATOM     79  C   UNL A   1      43.748  26.325  35.049  1.00  0.00     0.134 A 
ATOM     80  F   UNL A   1      45.580  29.247  33.911  1.00  0.00    -0.206 F 
ATOM     81  C   UNL A   1      46.224  27.535  35.383  1.00  0.00     0.040 A 
ATOM     82  C   UNL A   1      44.692  25.752  35.902  1.00  0.00     0.040 A 
ATOM     83  F   UNL A   1      42.563  25.709  34.918  1.00  0.00    -0.206 F 
ATOM     84  C   UNL A   1      45.936  26.356  36.068  1.00  0.00     0.006 A 
ENDBRANCH  60  77
ENDBRANCH  34  35
ENDBRANCH  27  29
ENDBRANCH  26  27
ENDBRANCH  25  26
ENDBRANCH   1  25
TORSDOF 15
ENDMDL
MODEL 3
REMARK VINA RESULT:     -11.4      4.031      7.705
REMARK SMILES Cc1cc2c(c(C)c1Br)C=C(C(=O)OCCOCCOC(=O)c1ccc(-c3c4nc(c(-c5c(F)cccc5F)c5ccc([nH]5)c(-c5c(F)cccc5F)c5nc(c(-c6c(F)cccc6F)c6ccc3[nH]6)C=C5)C=C4)cc1)[C@@H](C(F)(F)F)O2
REMARK SMILES IDX 18 1 17 2 16 3 15 4 14 5 12 6 13 7 11 8 1 9 2 10 3 11 8 12
REMARK SMILES IDX 4 13 6 14 9 15 5 16 82 17 7 18 10 19 77 20 78 21 79 22 80 23
REMARK SMILES IDX 81 24 19 25 20 26 21 27 22 28 23 29 24 30 76 31 25 32 75 33
REMARK SMILES IDX 26 34 27 35 28 36 69 37 29 38 74 39 68 40 70 41 30 42 73 43
REMARK SMILES IDX 67 44 66 45 31 47 57 48 40 49 56 50 41 51 44 52 55 53 71 54
REMARK SMILES IDX 42 55 43 56 54 58 72 59 45 60 32 61 33 62 38 63 34 64 35 65
REMARK SMILES IDX 37 66 39 67 36 68 58 69 59 70 64 71 60 72 61 73 63 74 65 75
REMARK SMILES IDX 62 76 46 77 47 78 52 79 48 80 49 81 51 82 53 83 50 84
REMARK H PARENT 70 46 44 57
REMARK Flexibility Score: inf
ROOT
ATOM      1  C   UNL A   1      31.424  31.902  26.464  1.00  0.00     0.202 C 
ENDROOT
BRANCH   1   2
ATOM      2  O   UNL A   1      32.463  30.921  26.489  1.00  0.00    -0.374 OA
BRANCH   2   3
ATOM      3  C   UNL A   1      32.177  29.666  27.102  1.00  0.00     0.202 C 
BRANCH   3   4
ATOM      4  C   UNL A   1      31.687  28.551  26.174  1.00  0.00     0.261 C 
BRANCH   4   5
ATOM      5  O   UNL A   1      32.347  27.307  26.458  1.00  0.00    -0.460 OA
BRANCH   5   6
ATOM      6  C   UNL A   1      33.103  26.828  25.443  1.00  0.00     0.338 C 
ATOM      7  O   UNL A   1      33.754  27.482  24.642  1.00  0.00    -0.246 OA
BRANCH   6   8
ATOM      8  C   UNL A   1      33.146  25.357  25.503  1.00  0.00     0.087 C 
ATOM      9  C   UNL A   1      34.674  19.138  24.640  1.00  0.00     0.046 C 
ATOM     10  C   UNL A   1      34.664  20.597  25.015  1.00  0.00    -0.033 A 
ATOM     11  C   UNL A   1      33.423  21.237  25.146  1.00  0.00     0.051 A 
ATOM     12  C   UNL A   1      35.843  21.354  25.178  1.00  0.00     0.024 A 
ATOM     13  C   UNL A   1      33.345  22.609  25.374  1.00  0.00     0.128 A 
ATOM     14  C   UNL A   1      35.783  22.740  25.461  1.00  0.00    -0.026 A 
ATOM     15  Br  UNL A   1      37.532  20.479  24.952  1.00  0.00    -0.050 Br
ATOM     16  C   UNL A   1      34.512  23.370  25.497  1.00  0.00     0.021 A 
ATOM     17  O   UNL A   1      32.079  23.114  25.460  1.00  0.00    -0.475 OA
ATOM     18  C   UNL A   1      37.023  23.572  25.699  1.00  0.00     0.046 C 
ATOM     19  C   UNL A   1      34.370  24.820  25.576  1.00  0.00     0.027 C 
ATOM     20  C   UNL A   1      31.882  24.553  25.447  1.00  0.00     0.316 C 
BRANCH  20  21
ATOM     21  C   UNL A   1      31.002  24.911  24.240  1.00  0.00     0.430 C 
ATOM     22  F   UNL A   1      31.751  25.363  23.204  1.00  0.00    -0.167 F 
ATOM     23  F   UNL A   1      30.319  23.836  23.780  1.00  0.00    -0.167 F 
ATOM     24  F   UNL A   1      30.097  25.870  24.537  1.00  0.00    -0.167 F 
ENDBRANCH  20  21
ENDBRANCH   6   8
ENDBRANCH   5   6
ENDBRANCH   4   5
ENDBRANCH   3   4
ENDBRANCH   2   3
ENDBRANCH   1   2
BRANCH   1  25
ATOM     25  C   UNL A   1      31.821  33.341  26.811  1.00  0.00     0.261 C 
BRANCH  25  26
ATOM     26  O   UNL A   1      32.365  33.442  28.141  1.00  0.00    -0.460 OA
BRANCH  26  27
ATOM     27  C   UNL A   1      33.474  34.213  28.240  1.00  0.00     0.338 C 
ATOM     28  O   UNL A   1      33.528  35.433  28.300  1.00  0.00    -0.246 OA
BRANCH  27  29
ATOM     29  C   UNL A   1      34.661  33.368  28.449  1.00  0.00     0.060 A 
ATOM     30  C   UNL A   1      34.452  32.059  28.901  1.00  0.00     0.016 A 
ATOM     31  C   UNL A   1      35.953  33.880  28.317  1.00  0.00     0.016 A 
ATOM     32  C   UNL A   1      35.536  31.272  29.282  1.00  0.00     0.010 A 
ATOM     33  C   UNL A   1      37.040  33.095  28.716  1.00  0.00     0.010 A 
ATOM     34  C   UNL A   1      36.829  31.806  29.240  1.00  0.00    -0.014 A 
BRANCH  34  35
ATOM     35  C   UNL A   1      37.931  31.093  29.929  1.00  0.00     0.031 A 
ATOM     36  C   UNL A   1      38.187  31.395  31.379  1.00  0.00     0.074 A 
ATOM     37  C   UNL A   1      38.661  30.162  29.291  1.00  0.00     0.049 A 
ATOM     38  N   UNL A   1      39.125  30.940  32.169  1.00  0.00    -0.248 NA
ATOM     39  C   UNL A   1      37.254  32.333  32.028  1.00  0.00     0.031 C 
ATOM     40  C   UNL A   1      38.462  29.733  27.909  1.00  0.00     0.029 A 
ATOM     41  N   UNL A   1      39.720  29.411  29.732  1.00  0.00    -0.354 N 
ATOM     42  C   UNL A   1      38.896  31.532  33.405  1.00  0.00     0.074 A 
ATOM     43  C   UNL A   1      37.748  32.401  33.255  1.00  0.00     0.031 C 
ATOM     44  C   UNL A   1      39.377  28.793  27.612  1.00  0.00     0.029 A 
ATOM     45  C   UNL A   1      40.245  28.585  28.770  1.00  0.00     0.049 A 
ATOM     46  H   UNL A   1      40.070  29.459  30.651  1.00  0.00     0.167 HD
ATOM     47  C   UNL A   1      39.575  31.362  34.563  1.00  0.00     0.037 A 
ATOM     48  C   UNL A   1      41.317  27.771  28.816  1.00  0.00     0.037 A 
ATOM     49  C   UNL A   1      40.722  30.505  34.710  1.00  0.00     0.049 A 
ATOM     50  C   UNL A   1      42.121  27.679  30.085  1.00  0.00     0.074 A 
ATOM     51  C   UNL A   1      41.489  30.276  35.838  1.00  0.00     0.029 A 
ATOM     52  N   UNL A   1      41.266  29.737  33.692  1.00  0.00    -0.354 N 
ATOM     53  N   UNL A   1      41.913  28.260  31.241  1.00  0.00    -0.248 NA
ATOM     54  C   UNL A   1      43.317  26.822  30.051  1.00  0.00     0.031 C 
ATOM     55  C   UNL A   1      42.523  29.400  35.492  1.00  0.00     0.029 A 
ATOM     56  C   UNL A   1      42.372  29.050  34.159  1.00  0.00     0.049 A 
ATOM     57  H   UNL A   1      40.917  29.688  32.772  1.00  0.00     0.167 HD
ATOM     58  C   UNL A   1      42.939  27.831  32.075  1.00  0.00     0.074 A 
ATOM     59  C   UNL A   1      43.759  26.925  31.297  1.00  0.00     0.031 C 
ATOM     60  C   UNL A   1      43.182  28.159  33.368  1.00  0.00     0.037 A 
BRANCH  47  61
ATOM     61  C   UNL A   1      39.107  32.135  35.758  1.00  0.00     0.057 A 
ATOM     62  C   UNL A   1      38.244  31.572  36.707  1.00  0.00     0.134 A 
ATOM     63  C   UNL A   1      39.551  33.443  35.982  1.00  0.00     0.134 A 
ATOM     64  F   UNL A   1      37.769  30.329  36.540  1.00  0.00    -0.206 F 
ATOM     65  C   UNL A   1      37.829  32.289  37.830  1.00  0.00     0.040 A 
ATOM     66  C   UNL A   1      39.161  34.163  37.112  1.00  0.00     0.040 A 
ATOM     67  F   UNL A   1      40.379  34.041  35.111  1.00  0.00    -0.206 F 
ATOM     68  C   UNL A   1      38.295  33.586  38.039  1.00  0.00     0.006 A 
ENDBRANCH  47  61
BRANCH  48  69
ATOM     69  C   UNL A   1      41.707  26.991  27.615  1.00  0.00     0.057 A 
ATOM     70  C   UNL A   1      42.518  27.550  26.622  1.00  0.00     0.134 A 
ATOM     71  C   UNL A   1      41.272  25.674  27.429  1.00  0.00     0.134 A 
ATOM     72  F   UNL A   1      42.944  28.818  26.733  1.00  0.00    -0.206 F 
ATOM     73  C   UNL A   1      42.878  26.830  25.482  1.00  0.00     0.040 A 
ATOM     74  C   UNL A   1      41.642  24.934  26.304  1.00  0.00     0.040 A 
ATOM     75  F   UNL A   1      40.490  25.082  28.344  1.00  0.00    -0.206 F 
ATOM     76  C   UNL A   1      42.445  25.515  25.325  1.00  0.00     0.006 A 
ENDBRANCH  48  69
BRANCH  60  77
ATOM     77  C   UNL A   1      44.376  27.532  34.024  1.00  0.00     0.057 A 
ATOM     78  C   UNL A   1      45.618  28.177  34.061  1.00  0.00     0.134 A 
ATOM     79  C   UNL A   1      44.270  26.294  34.671  1.00  0.00     0.134 A 
ATOM     80  F   UNL A   1      45.787  29.360  33.450  1.00  0.00    -0.206 F 
ATOM     81  C   UNL A   1      46.718  27.605  34.701  1.00  0.00     0.040 A 
ATOM     82  C   UNL A   1      45.356  25.723  35.336  1.00  0.00     0.040 A 
ATOM     83  F   UNL A   1      43.105  25.629  34.683  1.00  0.00    -0.206 F 
ATOM     84  C   UNL A   1      46.586  26.377  35.348  1.00  0.00     0.006 A 
ENDBRANCH  60  77
ENDBRANCH  34  35
ENDBRANCH  27  29
ENDBRANCH  26  27
ENDBRANCH  25  26
ENDBRANCH   1  25
TORSDOF 15
ENDMDL
