MODEL 1
REMARK VINA RESULT:     -11.4      0.000      0.000
REMARK SMILES Cc1ccc(S(=O)(=O)N(c2ccccc2)[C@H](C)C(=O)OCCOCCOC(=O)c2ccc(-c3c4nc(c(-c5c(F)cccc5F)c5ccc([nH]5)c(-c5c(F)cccc5F)c5nc(c(-c6c(F)cccc6F)c6ccc3[nH]6)C=C5)C=C4)cc2)cc1
REMARK SMILES IDX 22 1 21 2 20 3 18 4 19 5 16 6 17 7 9 8 6 9 7 10 8 11 5 12
REMARK SMILES IDX 1 13 2 14 3 15 84 16 4 17 83 18 10 19 11 20 15 21 12 22
REMARK SMILES IDX 14 23 13 24 23 25 24 26 25 27 26 28 27 29 28 30 29 31 30 32
REMARK SMILES IDX 82 33 31 34 81 35 32 36 33 37 34 38 75 39 35 40 80 41 74 42
REMARK SMILES IDX 76 43 36 44 79 45 73 46 72 47 37 49 63 50 46 51 62 52 47 53
REMARK SMILES IDX 50 54 61 55 77 56 48 57 49 58 60 60 78 61 51 62 38 63 39 64
REMARK SMILES IDX 44 65 40 66 41 67 43 68 45 69 42 70 64 71 65 72 70 73 66 74
REMARK SMILES IDX 67 75 69 76 71 77 68 78 52 79 53 80 58 81 54 82 55 83 57 84
REMARK SMILES IDX 59 85 56 86
REMARK H PARENT 76 48 50 59
REMARK Flexibility Score: inf
ROOT
ATOM      1  C   UNL A   1      32.555  28.958  24.817  1.00  0.00     0.202 C 
ENDROOT
BRANCH   1   2
ATOM      2  C   UNL A   1      33.429  28.891  23.606  1.00  0.00     0.261 C 
BRANCH   2   3
ATOM      3  O   UNL A   1      34.009  27.597  23.632  1.00  0.00    -0.462 OA
BRANCH   3   4
ATOM      4  C   UNL A   1      33.543  26.643  22.780  1.00  0.00     0.329 C 
ATOM      5  O   UNL A   1      33.803  26.540  21.598  1.00  0.00    -0.250 OA
BRANCH   4   6
ATOM      6  C   UNL A   1      32.610  25.753  23.591  1.00  0.00     0.206 C 
ATOM      7  C   UNL A   1      31.174  25.980  23.094  1.00  0.00     0.045 C 
BRANCH   6   8
ATOM      8  N   UNL A   1      32.987  24.276  23.580  1.00  0.00    -0.252 N 
BRANCH   8   9
ATOM      9  S   UNL A   1      31.699  23.331  24.239  1.00  0.00     0.265 S 
ATOM     10  O   UNL A   1      30.641  23.378  23.236  1.00  0.00    -0.201 OA
ATOM     11  O   UNL A   1      31.442  23.754  25.590  1.00  0.00    -0.201 OA
BRANCH   9  12
ATOM     12  C   UNL A   1      32.271  21.656  24.331  1.00  0.00     0.088 A 
ATOM     13  C   UNL A   1      33.870  17.690  24.626  1.00  0.00     0.044 C 
ATOM     14  C   UNL A   1      33.274  19.061  24.532  1.00  0.00    -0.051 A 
ATOM     15  C   UNL A   1      32.637  19.488  23.356  1.00  0.00     0.005 A 
ATOM     16  C   UNL A   1      33.305  19.907  25.640  1.00  0.00     0.005 A 
ATOM     17  C   UNL A   1      32.153  20.794  23.245  1.00  0.00     0.022 A 
ATOM     18  C   UNL A   1      32.758  21.179  25.549  1.00  0.00     0.022 A 
ENDBRANCH   9  12
ENDBRANCH   8   9
BRANCH   8  19
ATOM     19  C   UNL A   1      34.344  23.932  23.955  1.00  0.00     0.053 A 
ATOM     20  C   UNL A   1      35.227  23.245  23.125  1.00  0.00     0.027 A 
ATOM     21  C   UNL A   1      34.794  24.308  25.220  1.00  0.00     0.027 A 
ATOM     22  C   UNL A   1      36.462  22.799  23.596  1.00  0.00     0.002 A 
ATOM     23  C   UNL A   1      36.070  23.934  25.666  1.00  0.00     0.002 A 
ATOM     24  C   UNL A   1      36.889  23.142  24.868  1.00  0.00     0.000 A 
ENDBRANCH   8  19
ENDBRANCH   6   8
ENDBRANCH   4   6
ENDBRANCH   3   4
ENDBRANCH   2   3
ENDBRANCH   1   2
BRANCH   1  25
ATOM     25  O   UNL A   1      32.997  30.085  25.559  1.00  0.00    -0.374 OA
BRANCH  25  26
ATOM     26  C   UNL A   1      33.263  29.840  26.927  1.00  0.00     0.202 C 
BRANCH  26  27
ATOM     27  C   UNL A   1      33.679  31.104  27.694  1.00  0.00     0.261 C 
BRANCH  27  28
ATOM     28  O   UNL A   1      35.059  31.415  27.399  1.00  0.00    -0.460 OA
BRANCH  28  29
ATOM     29  C   UNL A   1      35.916  31.393  28.459  1.00  0.00     0.338 C 
ATOM     30  O   UNL A   1      36.317  32.374  29.065  1.00  0.00    -0.246 OA
BRANCH  29  31
ATOM     31  C   UNL A   1      36.588  30.055  28.546  1.00  0.00     0.060 A 
ATOM     32  C   UNL A   1      36.683  29.415  29.798  1.00  0.00     0.016 A 
ATOM     33  C   UNL A   1      37.481  29.720  27.535  1.00  0.00     0.016 A 
ATOM     34  C   UNL A   1      37.791  28.605  30.094  1.00  0.00     0.010 A 
ATOM     35  C   UNL A   1      38.642  29.065  27.890  1.00  0.00     0.010 A 
ATOM     36  C   UNL A   1      38.829  28.530  29.174  1.00  0.00    -0.014 A 
BRANCH  36  37
ATOM     37  C   UNL A   1      40.173  27.989  29.407  1.00  0.00     0.031 A 
ATOM     38  C   UNL A   1      40.455  26.603  28.946  1.00  0.00     0.074 A 
ATOM     39  C   UNL A   1      41.209  28.760  29.824  1.00  0.00     0.049 A 
ATOM     40  N   UNL A   1      41.557  25.975  29.160  1.00  0.00    -0.248 NA
ATOM     41  C   UNL A   1      39.484  25.779  28.234  1.00  0.00     0.031 C 
ATOM     42  C   UNL A   1      42.635  28.495  29.613  1.00  0.00     0.029 A 
ATOM     43  N   UNL A   1      41.250  29.948  30.535  1.00  0.00    -0.354 N 
ATOM     44  C   UNL A   1      41.571  24.833  28.396  1.00  0.00     0.074 A 
ATOM     45  C   UNL A   1      40.225  24.720  27.899  1.00  0.00     0.031 C 
ATOM     46  C   UNL A   1      43.360  29.286  30.417  1.00  0.00     0.029 A 
ATOM     47  C   UNL A   1      42.432  29.987  31.277  1.00  0.00     0.049 A 
ATOM     48  H   UNL A   1      40.559  30.649  30.519  1.00  0.00     0.167 HD
ATOM     49  C   UNL A   1      42.761  24.184  28.233  1.00  0.00     0.037 A 
ATOM     50  C   UNL A   1      42.488  30.022  32.643  1.00  0.00     0.037 A 
ATOM     51  C   UNL A   1      43.799  24.803  29.077  1.00  0.00     0.049 A 
ATOM     52  C   UNL A   1      43.146  28.772  33.201  1.00  0.00     0.074 A 
ATOM     53  C   UNL A   1      44.873  25.652  28.864  1.00  0.00     0.029 A 
ATOM     54  N   UNL A   1      43.605  24.796  30.448  1.00  0.00    -0.354 N 
ATOM     55  N   UNL A   1      43.555  27.797  32.434  1.00  0.00    -0.248 NA
ATOM     56  C   UNL A   1      43.355  28.463  34.612  1.00  0.00     0.031 C 
ATOM     57  C   UNL A   1      45.319  26.134  30.139  1.00  0.00     0.029 A 
ATOM     58  C   UNL A   1      44.533  25.559  31.125  1.00  0.00     0.049 A 
ATOM     59  H   UNL A   1      42.881  24.298  30.893  1.00  0.00     0.167 HD
ATOM     60  C   UNL A   1      44.022  26.756  33.173  1.00  0.00     0.074 A 
ATOM     61  C   UNL A   1      43.852  27.212  34.544  1.00  0.00     0.031 C 
ATOM     62  C   UNL A   1      44.474  25.607  32.585  1.00  0.00     0.037 A 
BRANCH  49  63
ATOM     63  C   UNL A   1      43.056  23.060  27.253  1.00  0.00     0.057 A 
ATOM     64  C   UNL A   1      42.388  21.824  27.374  1.00  0.00     0.134 A 
ATOM     65  C   UNL A   1      43.983  23.090  26.192  1.00  0.00     0.134 A 
ATOM     66  F   UNL A   1      41.438  21.624  28.298  1.00  0.00    -0.206 F 
ATOM     67  C   UNL A   1      42.654  20.717  26.551  1.00  0.00     0.040 A 
ATOM     68  C   UNL A   1      44.267  21.991  25.368  1.00  0.00     0.040 A 
ATOM     69  F   UNL A   1      44.663  24.183  25.850  1.00  0.00    -0.206 F 
ATOM     70  C   UNL A   1      43.605  20.793  25.547  1.00  0.00     0.006 A 
ENDBRANCH  49  63
BRANCH  50  71
ATOM     71  C   UNL A   1      41.386  30.839  33.231  1.00  0.00     0.057 A 
ATOM     72  C   UNL A   1      40.320  30.109  33.790  1.00  0.00     0.134 A 
ATOM     73  C   UNL A   1      41.680  32.075  33.816  1.00  0.00     0.134 A 
ATOM     74  F   UNL A   1      39.938  28.946  33.239  1.00  0.00    -0.206 F 
ATOM     75  C   UNL A   1      39.772  30.448  35.032  1.00  0.00     0.040 A 
ATOM     76  C   UNL A   1      41.120  32.433  35.051  1.00  0.00     0.040 A 
ATOM     77  F   UNL A   1      42.670  32.837  33.331  1.00  0.00    -0.206 F 
ATOM     78  C   UNL A   1      40.224  31.582  35.697  1.00  0.00     0.006 A 
ENDBRANCH  50  71
BRANCH  62  79
ATOM     79  C   UNL A   1      44.845  24.391  33.380  1.00  0.00     0.057 A 
ATOM     80  C   UNL A   1      43.892  23.517  33.910  1.00  0.00     0.134 A 
ATOM     81  C   UNL A   1      46.190  24.073  33.668  1.00  0.00     0.134 A 
ATOM     82  F   UNL A   1      42.580  23.785  33.818  1.00  0.00    -0.206 F 
ATOM     83  C   UNL A   1      44.253  22.334  34.563  1.00  0.00     0.040 A 
ATOM     84  C   UNL A   1      46.560  22.932  34.376  1.00  0.00     0.040 A 
ATOM     85  F   UNL A   1      47.213  24.826  33.243  1.00  0.00    -0.206 F 
ATOM     86  C   UNL A   1      45.592  22.036  34.792  1.00  0.00     0.006 A 
ENDBRANCH  62  79
ENDBRANCH  36  37
ENDBRANCH  29  31
ENDBRANCH  28  29
ENDBRANCH  27  28
ENDBRANCH  26  27
ENDBRANCH  25  26
ENDBRANCH   1  25
TORSDOF 18
ENDMDL
MODEL 2
REMARK VINA RESULT:     -11.2      0.833      1.696
REMARK SMILES Cc1ccc(S(=O)(=O)N(c2ccccc2)[C@H](C)C(=O)OCCOCCOC(=O)c2ccc(-c3c4nc(c(-c5c(F)cccc5F)c5ccc([nH]5)c(-c5c(F)cccc5F)c5nc(c(-c6c(F)cccc6F)c6ccc3[nH]6)C=C5)C=C4)cc2)cc1
REMARK SMILES IDX 22 1 21 2 20 3 18 4 19 5 16 6 17 7 9 8 6 9 7 10 8 11 5 12
REMARK SMILES IDX 1 13 2 14 3 15 84 16 4 17 83 18 10 19 11 20 15 21 12 22
REMARK SMILES IDX 14 23 13 24 23 25 24 26 25 27 26 28 27 29 28 30 29 31 30 32
REMARK SMILES IDX 82 33 31 34 81 35 32 36 33 37 34 38 75 39 35 40 80 41 74 42
REMARK SMILES IDX 76 43 36 44 79 45 73 46 72 47 37 49 63 50 46 51 62 52 47 53
REMARK SMILES IDX 50 54 61 55 77 56 48 57 49 58 60 60 78 61 51 62 38 63 39 64
REMARK SMILES IDX 44 65 40 66 41 67 43 68 45 69 42 70 64 71 65 72 70 73 66 74
REMARK SMILES IDX 67 75 69 76 71 77 68 78 52 79 53 80 58 81 54 82 55 83 57 84
REMARK SMILES IDX 59 85 56 86
REMARK H PARENT 76 48 50 59
REMARK Flexibility Score: inf
ROOT
ATOM      1  C   UNL A   1      32.690  28.832  24.772  1.00  0.00     0.202 C 
ENDROOT
BRANCH   1   2
ATOM      2  C   UNL A   1      33.729  28.608  23.720  1.00  0.00     0.261 C 
BRANCH   2   3
ATOM      3  O   UNL A   1      34.043  27.226  23.791  1.00  0.00    -0.462 OA
BRANCH   3   4
ATOM      4  C   UNL A   1      33.504  26.375  22.876  1.00  0.00     0.329 C 
ATOM      5  O   UNL A   1      33.703  26.380  21.678  1.00  0.00    -0.250 OA
BRANCH   4   6
ATOM      6  C   UNL A   1      32.582  25.437  23.644  1.00  0.00     0.206 C 
ATOM      7  C   UNL A   1      31.158  25.600  23.090  1.00  0.00     0.045 C 
BRANCH   6   8
ATOM      8  N   UNL A   1      33.028  23.979  23.642  1.00  0.00    -0.252 N 
BRANCH   8   9
ATOM      9  S   UNL A   1      31.757  22.971  24.239  1.00  0.00     0.265 S 
ATOM     10  O   UNL A   1      30.655  23.153  23.301  1.00  0.00    -0.201 OA
ATOM     11  O   UNL A   1      31.569  23.222  25.643  1.00  0.00    -0.201 OA
BRANCH   9  12
ATOM     12  C   UNL A   1      32.308  21.292  24.092  1.00  0.00     0.088 A 
ATOM     13  C   UNL A   1      33.411  17.171  23.677  1.00  0.00     0.044 C 
ATOM     14  C   UNL A   1      33.064  18.622  23.811  1.00  0.00    -0.051 A 
ATOM     15  C   UNL A   1      33.381  19.331  24.980  1.00  0.00     0.005 A 
ATOM     16  C   UNL A   1      32.464  19.292  22.745  1.00  0.00     0.005 A 
ATOM     17  C   UNL A   1      32.985  20.662  25.133  1.00  0.00     0.022 A 
ATOM     18  C   UNL A   1      32.137  20.634  22.873  1.00  0.00     0.022 A 
ENDBRANCH   9  12
ENDBRANCH   8   9
BRANCH   8  19
ATOM     19  C   UNL A   1      34.381  23.696  24.075  1.00  0.00     0.053 A 
ATOM     20  C   UNL A   1      34.865  23.990  25.348  1.00  0.00     0.027 A 
ATOM     21  C   UNL A   1      35.253  23.097  23.166  1.00  0.00     0.027 A 
ATOM     22  C   UNL A   1      36.218  23.846  25.657  1.00  0.00     0.002 A 
ATOM     23  C   UNL A   1      36.595  22.873  23.505  1.00  0.00     0.002 A 
ATOM     24  C   UNL A   1      37.088  23.287  24.737  1.00  0.00     0.000 A 
ENDBRANCH   8  19
ENDBRANCH   6   8
ENDBRANCH   4   6
ENDBRANCH   3   4
ENDBRANCH   2   3
ENDBRANCH   1   2
BRANCH   1  25
ATOM     25  O   UNL A   1      33.057  30.031  25.437  1.00  0.00    -0.374 OA
BRANCH  25  26
ATOM     26  C   UNL A   1      32.924  30.004  26.846  1.00  0.00     0.202 C 
BRANCH  26  27
ATOM     27  C   UNL A   1      33.248  31.351  27.506  1.00  0.00     0.261 C 
BRANCH  27  28
ATOM     28  O   UNL A   1      34.660  31.630  27.367  1.00  0.00    -0.460 OA
BRANCH  28  29
ATOM     29  C   UNL A   1      35.390  31.608  28.518  1.00  0.00     0.338 C 
ATOM     30  O   UNL A   1      35.655  32.581  29.206  1.00  0.00    -0.246 OA
BRANCH  29  31
ATOM     31  C   UNL A   1      36.133  30.310  28.628  1.00  0.00     0.060 A 
ATOM     32  C   UNL A   1      36.265  29.699  29.892  1.00  0.00     0.016 A 
ATOM     33  C   UNL A   1      37.042  30.005  27.622  1.00  0.00     0.016 A 
ATOM     34  C   UNL A   1      37.415  28.956  30.201  1.00  0.00     0.010 A 
ATOM     35  C   UNL A   1      38.237  29.420  27.986  1.00  0.00     0.010 A 
ATOM     36  C   UNL A   1      38.454  28.920  29.279  1.00  0.00    -0.014 A 
BRANCH  36  37
ATOM     37  C   UNL A   1      39.825  28.457  29.519  1.00  0.00     0.031 A 
ATOM     38  C   UNL A   1      40.210  27.118  28.997  1.00  0.00     0.074 A 
ATOM     39  C   UNL A   1      40.799  29.271  30.000  1.00  0.00     0.049 A 
ATOM     40  N   UNL A   1      41.345  26.553  29.208  1.00  0.00    -0.248 NA
ATOM     41  C   UNL A   1      39.311  26.270  28.220  1.00  0.00     0.031 C 
ATOM     42  C   UNL A   1      42.243  29.112  29.812  1.00  0.00     0.029 A 
ATOM     43  N   UNL A   1      40.744  30.422  30.770  1.00  0.00    -0.354 N 
ATOM     44  C   UNL A   1      41.453  25.455  28.388  1.00  0.00     0.074 A 
ATOM     45  C   UNL A   1      40.128  25.280  27.853  1.00  0.00     0.031 C 
ATOM     46  C   UNL A   1      42.897  29.906  30.673  1.00  0.00     0.029 A 
ATOM     47  C   UNL A   1      41.906  30.499  31.543  1.00  0.00     0.049 A 
ATOM     48  H   UNL A   1      40.009  31.076  30.772  1.00  0.00     0.167 HD
ATOM     49  C   UNL A   1      42.686  24.895  28.223  1.00  0.00     0.037 A 
ATOM     50  C   UNL A   1      41.928  30.468  32.909  1.00  0.00     0.037 A 
ATOM     51  C   UNL A   1      43.662  25.536  29.123  1.00  0.00     0.049 A 
ATOM     52  C   UNL A   1      42.656  29.236  33.421  1.00  0.00     0.074 A 
ATOM     53  C   UNL A   1      44.682  26.463  28.979  1.00  0.00     0.029 A 
ATOM     54  N   UNL A   1      43.438  25.445  30.487  1.00  0.00    -0.354 N 
ATOM     55  N   UNL A   1      43.146  28.331  32.617  1.00  0.00    -0.248 NA
ATOM     56  C   UNL A   1      42.854  28.870  34.820  1.00  0.00     0.031 C 
ATOM     57  C   UNL A   1      45.066  26.907  30.288  1.00  0.00     0.029 A 
ATOM     58  C   UNL A   1      44.299  26.232  31.224  1.00  0.00     0.049 A 
ATOM     59  H   UNL A   1      42.740  24.879  30.888  1.00  0.00     0.167 HD
ATOM     60  C   UNL A   1      43.664  27.286  33.315  1.00  0.00     0.074 A 
ATOM     61  C   UNL A   1      43.434  27.659  34.703  1.00  0.00     0.031 C 
ATOM     62  C   UNL A   1      44.204  26.201  32.682  1.00  0.00     0.037 A 
BRANCH  49  63
ATOM     63  C   UNL A   1      43.077  23.844  27.196  1.00  0.00     0.057 A 
ATOM     64  C   UNL A   1      43.755  24.225  26.019  1.00  0.00     0.134 A 
ATOM     65  C   UNL A   1      42.811  22.462  27.263  1.00  0.00     0.134 A 
ATOM     66  F   UNL A   1      44.132  25.492  25.801  1.00  0.00    -0.206 F 
ATOM     67  C   UNL A   1      44.090  23.325  24.994  1.00  0.00     0.040 A 
ATOM     68  C   UNL A   1      43.131  21.552  26.243  1.00  0.00     0.040 A 
ATOM     69  F   UNL A   1      42.253  21.878  28.322  1.00  0.00    -0.206 F 
ATOM     70  C   UNL A   1      43.769  21.982  25.098  1.00  0.00     0.006 A 
ENDBRANCH  49  63
BRANCH  50  71
ATOM     71  C   UNL A   1      40.762  31.180  33.510  1.00  0.00     0.057 A 
ATOM     72  C   UNL A   1      40.797  32.584  33.424  1.00  0.00     0.134 A 
ATOM     73  C   UNL A   1      39.501  30.576  33.490  1.00  0.00     0.134 A 
ATOM     74  F   UNL A   1      41.967  33.235  33.505  1.00  0.00    -0.206 F 
ATOM     75  C   UNL A   1      39.670  33.322  33.046  1.00  0.00     0.040 A 
ATOM     76  C   UNL A   1      38.362  31.313  33.132  1.00  0.00     0.040 A 
ATOM     77  F   UNL A   1      39.383  29.244  33.584  1.00  0.00    -0.206 F 
ATOM     78  C   UNL A   1      38.460  32.672  32.834  1.00  0.00     0.006 A 
ENDBRANCH  50  71
BRANCH  62  79
ATOM     79  C   UNL A   1      44.638  24.972  33.425  1.00  0.00     0.057 A 
ATOM     80  C   UNL A   1      43.744  24.164  34.133  1.00  0.00     0.134 A 
ATOM     81  C   UNL A   1      45.992  24.575  33.479  1.00  0.00     0.134 A 
ATOM     82  F   UNL A   1      42.454  24.512  34.266  1.00  0.00    -0.206 F 
ATOM     83  C   UNL A   1      44.145  22.968  34.737  1.00  0.00     0.040 A 
ATOM     84  C   UNL A   1      46.414  23.421  34.135  1.00  0.00     0.040 A 
ATOM     85  F   UNL A   1      46.966  25.260  32.866  1.00  0.00    -0.206 F 
ATOM     86  C   UNL A   1      45.483  22.591  34.733  1.00  0.00     0.006 A 
ENDBRANCH  62  79
ENDBRANCH  36  37
ENDBRANCH  29  31
ENDBRANCH  28  29
ENDBRANCH  27  28
ENDBRANCH  26  27
ENDBRANCH  25  26
ENDBRANCH   1  25
TORSDOF 18
ENDMDL
MODEL 3
REMARK VINA RESULT:     -11.1      1.064      2.280
REMARK SMILES Cc1ccc(S(=O)(=O)N(c2ccccc2)[C@H](C)C(=O)OCCOCCOC(=O)c2ccc(-c3c4nc(c(-c5c(F)cccc5F)c5ccc([nH]5)c(-c5c(F)cccc5F)c5nc(c(-c6c(F)cccc6F)c6ccc3[nH]6)C=C5)C=C4)cc2)cc1
REMARK SMILES IDX 22 1 21 2 20 3 18 4 19 5 16 6 17 7 9 8 6 9 7 10 8 11 5 12
REMARK SMILES IDX 1 13 2 14 3 15 84 16 4 17 83 18 10 19 11 20 15 21 12 22
REMARK SMILES IDX 14 23 13 24 23 25 24 26 25 27 26 28 27 29 28 30 29 31 30 32
REMARK SMILES IDX 82 33 31 34 81 35 32 36 33 37 34 38 75 39 35 40 80 41 74 42
REMARK SMILES IDX 76 43 36 44 79 45 73 46 72 47 37 49 63 50 46 51 62 52 47 53
REMARK SMILES IDX 50 54 61 55 77 56 48 57 49 58 60 60 78 61 51 62 38 63 39 64
REMARK SMILES IDX 44 65 40 66 41 67 43 68 45 69 42 70 64 71 65 72 70 73 66 74
REMARK SMILES IDX 67 75 69 76 71 77 68 78 52 79 53 80 58 81 54 82 55 83 57 84
REMARK SMILES IDX 59 85 56 86
REMARK H PARENT 76 48 50 59
REMARK Flexibility Score: inf
ROOT
ATOM      1  C   UNL A   1      32.155  29.126  25.348  1.00  0.00     0.202 C 
ENDROOT
BRANCH   1   2
ATOM      2  C   UNL A   1      30.939  28.456  24.794  1.00  0.00     0.261 C 
BRANCH   2   3
ATOM      3  O   UNL A   1      31.405  27.247  24.218  1.00  0.00    -0.462 OA
BRANCH   3   4
ATOM      4  C   UNL A   1      30.778  26.079  24.526  1.00  0.00     0.329 C 
ATOM      5  O   UNL A   1      29.951  25.912  25.400  1.00  0.00    -0.250 OA
BRANCH   4   6
ATOM      6  C   UNL A   1      31.340  25.022  23.586  1.00  0.00     0.206 C 
ATOM      7  C   UNL A   1      31.679  25.697  22.248  1.00  0.00     0.045 C 
BRANCH   6   8
ATOM      8  N   UNL A   1      32.529  24.250  24.148  1.00  0.00    -0.252 N 
BRANCH   8   9
ATOM      9  S   UNL A   1      34.007  24.985  23.637  1.00  0.00     0.265 S 
ATOM     10  O   UNL A   1      34.067  26.254  24.354  1.00  0.00    -0.201 OA
ATOM     11  O   UNL A   1      34.083  24.954  22.202  1.00  0.00    -0.201 OA
BRANCH   9  12
ATOM     12  C   UNL A   1      35.332  23.972  24.239  1.00  0.00     0.088 A 
ATOM     13  C   UNL A   1      38.656  21.725  25.745  1.00  0.00     0.044 C 
ATOM     14  C   UNL A   1      37.469  22.480  25.231  1.00  0.00    -0.051 A 
ATOM     15  C   UNL A   1      36.940  22.206  23.960  1.00  0.00     0.005 A 
ATOM     16  C   UNL A   1      36.848  23.430  26.040  1.00  0.00     0.005 A 
ATOM     17  C   UNL A   1      35.884  22.966  23.451  1.00  0.00     0.022 A 
ATOM     18  C   UNL A   1      35.753  24.133  25.560  1.00  0.00     0.022 A 
ENDBRANCH   9  12
ENDBRANCH   8   9
BRANCH   8  19
ATOM     19  C   UNL A   1      32.449  22.803  24.136  1.00  0.00     0.053 A 
ATOM     20  C   UNL A   1      32.623  22.008  25.267  1.00  0.00     0.027 A 
ATOM     21  C   UNL A   1      32.184  22.167  22.924  1.00  0.00     0.027 A 
ATOM     22  C   UNL A   1      32.697  20.619  25.169  1.00  0.00     0.002 A 
ATOM     23  C   UNL A   1      32.173  20.767  22.839  1.00  0.00     0.002 A 
ATOM     24  C   UNL A   1      32.472  19.992  23.954  1.00  0.00     0.000 A 
ENDBRANCH   8  19
ENDBRANCH   6   8
ENDBRANCH   4   6
ENDBRANCH   3   4
ENDBRANCH   2   3
ENDBRANCH   1   2
BRANCH   1  25
ATOM     25  O   UNL A   1      31.780  30.470  25.608  1.00  0.00    -0.374 OA
BRANCH  25  26
ATOM     26  C   UNL A   1      32.175  30.974  26.871  1.00  0.00     0.202 C 
BRANCH  26  27
ATOM     27  C   UNL A   1      33.502  30.381  27.365  1.00  0.00     0.261 C 
BRANCH  27  28
ATOM     28  O   UNL A   1      34.524  31.403  27.349  1.00  0.00    -0.460 OA
BRANCH  28  29
ATOM     29  C   UNL A   1      35.331  31.459  28.446  1.00  0.00     0.338 C 
ATOM     30  O   UNL A   1      35.625  32.475  29.057  1.00  0.00    -0.246 OA
BRANCH  29  31
ATOM     31  C   UNL A   1      36.102  30.180  28.581  1.00  0.00     0.060 A 
ATOM     32  C   UNL A   1      36.266  29.608  29.859  1.00  0.00     0.016 A 
ATOM     33  C   UNL A   1      37.000  29.864  27.568  1.00  0.00     0.016 A 
ATOM     34  C   UNL A   1      37.437  28.897  30.169  1.00  0.00     0.010 A 
ATOM     35  C   UNL A   1      38.213  29.314  27.928  1.00  0.00     0.010 A 
ATOM     36  C   UNL A   1      38.461  28.856  29.231  1.00  0.00    -0.014 A 
BRANCH  36  37
ATOM     37  C   UNL A   1      39.845  28.427  29.461  1.00  0.00     0.031 A 
ATOM     38  C   UNL A   1      40.252  27.086  28.959  1.00  0.00     0.074 A 
ATOM     39  C   UNL A   1      40.807  29.271  29.913  1.00  0.00     0.049 A 
ATOM     40  N   UNL A   1      41.402  26.551  29.166  1.00  0.00    -0.248 NA
ATOM     41  C   UNL A   1      39.362  26.204  28.212  1.00  0.00     0.031 C 
ATOM     42  C   UNL A   1      42.252  29.139  29.708  1.00  0.00     0.029 A 
ATOM     43  N   UNL A   1      40.738  30.435  30.661  1.00  0.00    -0.354 N 
ATOM     44  C   UNL A   1      41.522  25.440  28.365  1.00  0.00     0.074 A 
ATOM     45  C   UNL A   1      40.194  25.225  27.852  1.00  0.00     0.031 C 
ATOM     46  C   UNL A   1      42.899  29.964  30.544  1.00  0.00     0.029 A 
ATOM     47  C   UNL A   1      41.907  30.553  31.416  1.00  0.00     0.049 A 
ATOM     48  H   UNL A   1      39.989  31.074  30.660  1.00  0.00     0.167 HD
ATOM     49  C   UNL A   1      42.765  24.902  28.195  1.00  0.00     0.037 A 
ATOM     50  C   UNL A   1      41.949  30.550  32.782  1.00  0.00     0.037 A 
ATOM     51  C   UNL A   1      43.739  25.582  29.068  1.00  0.00     0.049 A 
ATOM     52  C   UNL A   1      42.711  29.344  33.307  1.00  0.00     0.074 A 
ATOM     53  C   UNL A   1      44.736  26.528  28.893  1.00  0.00     0.029 A 
ATOM     54  N   UNL A   1      43.536  25.513  30.436  1.00  0.00    -0.354 N 
ATOM     55  N   UNL A   1      43.209  28.433  32.514  1.00  0.00    -0.248 NA
ATOM     56  C   UNL A   1      42.935  29.010  34.710  1.00  0.00     0.031 C 
ATOM     57  C   UNL A   1      45.128  27.006  30.187  1.00  0.00     0.029 A 
ATOM     58  C   UNL A   1      44.389  26.332  31.146  1.00  0.00     0.049 A 
ATOM     59  H   UNL A   1      42.855  24.940  30.858  1.00  0.00     0.167 HD
ATOM     60  C   UNL A   1      43.759  27.414  33.225  1.00  0.00     0.074 A 
ATOM     61  C   UNL A   1      43.540  27.809  34.609  1.00  0.00     0.031 C 
ATOM     62  C   UNL A   1      44.315  26.328  32.606  1.00  0.00     0.037 A 
BRANCH  49  63
ATOM     63  C   UNL A   1      43.165  23.840  27.183  1.00  0.00     0.057 A 
ATOM     64  C   UNL A   1      42.633  22.537  27.279  1.00  0.00     0.134 A 
ATOM     65  C   UNL A   1      44.069  23.995  26.114  1.00  0.00     0.134 A 
ATOM     66  F   UNL A   1      41.722  22.214  28.207  1.00  0.00    -0.206 F 
ATOM     67  C   UNL A   1      43.004  21.486  26.425  1.00  0.00     0.040 A 
ATOM     68  C   UNL A   1      44.457  22.952  25.258  1.00  0.00     0.040 A 
ATOM     69  F   UNL A   1      44.624  25.162  25.792  1.00  0.00    -0.206 F 
ATOM     70  C   UNL A   1      43.928  21.687  25.414  1.00  0.00     0.006 A 
ENDBRANCH  49  63
BRANCH  50  71
ATOM     71  C   UNL A   1      40.776  31.247  33.385  1.00  0.00     0.057 A 
ATOM     72  C   UNL A   1      39.775  30.409  33.911  1.00  0.00     0.134 A 
ATOM     73  C   UNL A   1      40.956  32.486  34.010  1.00  0.00     0.134 A 
ATOM     74  F   UNL A   1      39.501  29.236  33.321  1.00  0.00    -0.206 F 
ATOM     75  C   UNL A   1      39.191  30.660  35.157  1.00  0.00     0.040 A 
ATOM     76  C   UNL A   1      40.358  32.755  35.250  1.00  0.00     0.040 A 
ATOM     77  F   UNL A   1      41.879  33.347  33.558  1.00  0.00    -0.206 F 
ATOM     78  C   UNL A   1      39.536  31.808  35.861  1.00  0.00     0.006 A 
ENDBRANCH  50  71
BRANCH  62  79
ATOM     79  C   UNL A   1      44.785  25.124  33.367  1.00  0.00     0.057 A 
ATOM     80  C   UNL A   1      43.911  24.280  34.057  1.00  0.00     0.134 A 
ATOM     81  C   UNL A   1      46.153  24.789  33.456  1.00  0.00     0.134 A 
ATOM     82  F   UNL A   1      42.605  24.569  34.157  1.00  0.00    -0.206 F 
ATOM     83  C   UNL A   1      44.351  23.106  34.678  1.00  0.00     0.040 A 
ATOM     84  C   UNL A   1      46.611  23.659  34.128  1.00  0.00     0.040 A 
ATOM     85  F   UNL A   1      47.111  25.515  32.862  1.00  0.00    -0.206 F 
ATOM     86  C   UNL A   1      45.704  22.790  34.709  1.00  0.00     0.006 A 
ENDBRANCH  62  79
ENDBRANCH  36  37
ENDBRANCH  29  31
ENDBRANCH  28  29
ENDBRANCH  27  28
ENDBRANCH  26  27
ENDBRANCH  25  26
ENDBRANCH   1  25
TORSDOF 18
ENDMDL
