MODEL 1
REMARK VINA RESULT:     -10.6      0.000      0.000
REMARK SMILES CC[C@](C)(NC(=O)NC[C@H]1COCCO1)C(=O)OCCOCCOC(=O)c1ccc(-c2c3nc(c(-c4c(F)cccc4F)c4ccc([nH]4)c(-c4c(F)cccc4F)c4nc(c(-c5c(F)cccc5F)c5ccc2[nH]5)C=C4)C=C3)cc1
REMARK SMILES IDX 20 1 19 2 18 3 16 4 17 5 3 6 4 7 2 8 1 9 5 10 6 11 7 13 8 14
REMARK SMILES IDX 9 16 10 17 11 18 15 19 12 20 14 21 13 22 21 23 22 24 23 25
REMARK SMILES IDX 24 26 25 27 26 28 27 29 28 30 80 31 29 32 79 33 30 34 31 35
REMARK SMILES IDX 32 36 73 37 33 38 78 39 72 40 74 41 34 42 77 43 71 44 70 45
REMARK SMILES IDX 35 47 61 48 44 49 60 50 45 51 48 52 59 53 75 54 46 55 47 56
REMARK SMILES IDX 58 58 76 59 49 60 36 61 37 62 42 63 38 64 39 65 41 66 43 67
REMARK SMILES IDX 40 68 62 69 63 70 68 71 64 72 65 73 67 74 69 75 66 76 50 77
REMARK SMILES IDX 51 78 56 79 52 80 53 81 55 82 57 83 54 84
REMARK H PARENT 5 12 8 15 74 46 48 57
REMARK Flexibility Score: inf
ROOT
ATOM      1  C   UNL A   1      33.026  29.965  27.075  1.00  0.00     0.202 C 
ENDROOT
BRANCH   1   2
ATOM      2  C   UNL A   1      32.594  28.514  27.321  1.00  0.00     0.261 C 
BRANCH   2   3
ATOM      3  O   UNL A   1      31.482  28.255  26.454  1.00  0.00    -0.462 OA
BRANCH   3   4
ATOM      4  C   UNL A   1      31.209  26.994  26.072  1.00  0.00     0.331 C 
ATOM      5  O   UNL A   1      30.312  26.324  26.568  1.00  0.00    -0.249 OA
BRANCH   4   6
ATOM      6  C   UNL A   1      32.166  26.513  24.922  1.00  0.00     0.136 C 
ATOM      7  C   UNL A   1      31.224  25.696  23.998  1.00  0.00     0.047 C 
BRANCH   6   8
ATOM      8  C   UNL A   1      33.290  25.602  25.482  1.00  0.00     0.037 C 
ATOM      9  C   UNL A   1      34.032  24.735  24.470  1.00  0.00     0.007 C 
ENDBRANCH   6   8
BRANCH   6  10
ATOM     10  N   UNL A   1      32.796  27.534  23.992  1.00  0.00    -0.322 N 
ATOM     11  C   UNL A   1      32.631  28.791  23.562  1.00  0.00     0.315 C 
ATOM     12  H   UNL A   1      33.590  27.142  23.563  1.00  0.00     0.166 HD
ATOM     13  O   UNL A   1      33.624  29.345  23.080  1.00  0.00    -0.249 OA
ATOM     14  N   UNL A   1      31.489  29.478  23.594  1.00  0.00    -0.335 N 
ATOM     15  H   UNL A   1      31.579  30.453  23.484  1.00  0.00     0.165 HD
BRANCH  14  16
ATOM     16  C   UNL A   1      30.149  29.002  23.766  1.00  0.00     0.152 C 
BRANCH  16  17
ATOM     17  C   UNL A   1      29.288  28.699  22.532  1.00  0.00     0.163 C 
ATOM     18  C   UNL A   1      27.811  28.691  22.959  1.00  0.00     0.194 C 
ATOM     19  O   UNL A   1      29.501  29.582  21.427  1.00  0.00    -0.372 OA
ATOM     20  O   UNL A   1      27.398  30.017  23.317  1.00  0.00    -0.376 OA
ATOM     21  C   UNL A   1      29.001  30.901  21.675  1.00  0.00     0.189 C 
ATOM     22  C   UNL A   1      27.564  30.896  22.197  1.00  0.00     0.188 C 
ENDBRANCH  16  17
ENDBRANCH  14  16
ENDBRANCH   6  10
ENDBRANCH   4   6
ENDBRANCH   3   4
ENDBRANCH   2   3
ENDBRANCH   1   2
BRANCH   1  23
ATOM     23  O   UNL A   1      32.087  30.728  26.312  1.00  0.00    -0.374 OA
BRANCH  23  24
ATOM     24  C   UNL A   1      31.621  31.958  26.872  1.00  0.00     0.202 C 
BRANCH  24  25
ATOM     25  C   UNL A   1      32.683  33.029  27.135  1.00  0.00     0.261 C 
BRANCH  25  26
ATOM     26  O   UNL A   1      32.258  34.061  28.049  1.00  0.00    -0.460 OA
BRANCH  26  27
ATOM     27  C   UNL A   1      33.250  34.691  28.710  1.00  0.00     0.338 C 
ATOM     28  O   UNL A   1      33.208  35.817  29.194  1.00  0.00    -0.246 OA
BRANCH  27  29
ATOM     29  C   UNL A   1      34.429  33.814  28.883  1.00  0.00     0.060 A 
ATOM     30  C   UNL A   1      34.246  32.623  29.595  1.00  0.00     0.016 A 
ATOM     31  C   UNL A   1      35.713  34.193  28.479  1.00  0.00     0.016 A 
ATOM     32  C   UNL A   1      35.345  31.844  29.962  1.00  0.00     0.010 A 
ATOM     33  C   UNL A   1      36.817  33.403  28.843  1.00  0.00     0.010 A 
ATOM     34  C   UNL A   1      36.646  32.247  29.628  1.00  0.00    -0.014 A 
BRANCH  34  35
ATOM     35  C   UNL A   1      37.808  31.531  30.232  1.00  0.00     0.031 A 
ATOM     36  C   UNL A   1      38.163  31.772  31.678  1.00  0.00     0.074 A 
ATOM     37  C   UNL A   1      38.506  30.615  29.533  1.00  0.00     0.049 A 
ATOM     38  N   UNL A   1      39.098  31.215  32.410  1.00  0.00    -0.248 NA
ATOM     39  C   UNL A   1      37.359  32.773  32.395  1.00  0.00     0.031 C 
ATOM     40  C   UNL A   1      38.269  30.256  28.137  1.00  0.00     0.029 A 
ATOM     41  N   UNL A   1      39.556  29.813  29.913  1.00  0.00    -0.354 N 
ATOM     42  C   UNL A   1      38.995  31.797  33.669  1.00  0.00     0.074 A 
ATOM     43  C   UNL A   1      37.933  32.780  33.590  1.00  0.00     0.031 C 
ATOM     44  C   UNL A   1      39.143  29.298  27.780  1.00  0.00     0.029 A 
ATOM     45  C   UNL A   1      40.022  28.998  28.910  1.00  0.00     0.049 A 
ATOM     46  H   UNL A   1      39.940  29.822  30.821  1.00  0.00     0.167 HD
ATOM     47  C   UNL A   1      39.703  31.533  34.794  1.00  0.00     0.037 A 
ATOM     48  C   UNL A   1      41.047  28.121  28.896  1.00  0.00     0.037 A 
ATOM     49  C   UNL A   1      40.758  30.558  34.892  1.00  0.00     0.049 A 
ATOM     50  C   UNL A   1      41.866  27.894  30.142  1.00  0.00     0.074 A 
ATOM     51  C   UNL A   1      41.506  30.208  36.004  1.00  0.00     0.029 A 
ATOM     52  N   UNL A   1      41.226  29.786  33.840  1.00  0.00    -0.354 N 
ATOM     53  N   UNL A   1      41.726  28.418  31.335  1.00  0.00    -0.248 NA
ATOM     54  C   UNL A   1      42.987  26.945  30.037  1.00  0.00     0.031 C 
ATOM     55  C   UNL A   1      42.465  29.269  35.611  1.00  0.00     0.029 A 
ATOM     56  C   UNL A   1      42.273  28.985  34.271  1.00  0.00     0.049 A 
ATOM     57  H   UNL A   1      40.868  29.805  32.923  1.00  0.00     0.167 HD
ATOM     58  C   UNL A   1      42.713  27.839  32.126  1.00  0.00     0.074 A 
ATOM     59  C   UNL A   1      43.437  26.914  31.283  1.00  0.00     0.031 C 
ATOM     60  C   UNL A   1      42.990  28.055  33.435  1.00  0.00     0.037 A 
BRANCH  47  61
ATOM     61  C   UNL A   1      39.371  32.330  36.024  1.00  0.00     0.057 A 
ATOM     62  C   UNL A   1      39.981  33.563  36.297  1.00  0.00     0.134 A 
ATOM     63  C   UNL A   1      38.394  31.882  36.923  1.00  0.00     0.134 A 
ATOM     64  F   UNL A   1      40.930  34.046  35.482  1.00  0.00    -0.206 F 
ATOM     65  C   UNL A   1      39.648  34.306  37.430  1.00  0.00     0.040 A 
ATOM     66  C   UNL A   1      38.032  32.630  38.042  1.00  0.00     0.040 A 
ATOM     67  F   UNL A   1      37.762  30.717  36.716  1.00  0.00    -0.206 F 
ATOM     68  C   UNL A   1      38.666  33.844  38.303  1.00  0.00     0.006 A 
ENDBRANCH  47  61
BRANCH  48  69
ATOM     69  C   UNL A   1      41.380  27.385  27.647  1.00  0.00     0.057 A 
ATOM     70  C   UNL A   1      40.902  26.090  27.415  1.00  0.00     0.134 A 
ATOM     71  C   UNL A   1      42.223  27.943  26.678  1.00  0.00     0.134 A 
ATOM     72  F   UNL A   1      40.114  25.489  28.319  1.00  0.00    -0.206 F 
ATOM     73  C   UNL A   1      41.268  25.368  26.277  1.00  0.00     0.040 A 
ATOM     74  C   UNL A   1      42.572  27.245  25.522  1.00  0.00     0.040 A 
ATOM     75  F   UNL A   1      42.716  29.179  26.841  1.00  0.00    -0.206 F 
ATOM     76  C   UNL A   1      42.102  25.948  25.324  1.00  0.00     0.006 A 
ENDBRANCH  48  69
BRANCH  60  77
ATOM     77  C   UNL A   1      44.095  27.248  34.060  1.00  0.00     0.057 A 
ATOM     78  C   UNL A   1      43.868  25.987  34.629  1.00  0.00     0.134 A 
ATOM     79  C   UNL A   1      45.414  27.723  34.057  1.00  0.00     0.134 A 
ATOM     80  F   UNL A   1      42.629  25.476  34.677  1.00  0.00    -0.206 F 
ATOM     81  C   UNL A   1      44.906  25.243  35.196  1.00  0.00     0.040 A 
ATOM     82  C   UNL A   1      46.465  26.974  34.591  1.00  0.00     0.040 A 
ATOM     83  F   UNL A   1      45.708  28.916  33.519  1.00  0.00    -0.206 F 
ATOM     84  C   UNL A   1      46.210  25.733  35.170  1.00  0.00     0.006 A 
ENDBRANCH  60  77
ENDBRANCH  34  35
ENDBRANCH  27  29
ENDBRANCH  26  27
ENDBRANCH  25  26
ENDBRANCH  24  25
ENDBRANCH  23  24
ENDBRANCH   1  23
TORSDOF 18
ENDMDL
MODEL 2
REMARK VINA RESULT:     -10.6      0.921      2.126
REMARK SMILES CC[C@](C)(NC(=O)NC[C@H]1COCCO1)C(=O)OCCOCCOC(=O)c1ccc(-c2c3nc(c(-c4c(F)cccc4F)c4ccc([nH]4)c(-c4c(F)cccc4F)c4nc(c(-c5c(F)cccc5F)c5ccc2[nH]5)C=C4)C=C3)cc1
REMARK SMILES IDX 20 1 19 2 18 3 16 4 17 5 3 6 4 7 2 8 1 9 5 10 6 11 7 13 8 14
REMARK SMILES IDX 9 16 10 17 11 18 15 19 12 20 14 21 13 22 21 23 22 24 23 25
REMARK SMILES IDX 24 26 25 27 26 28 27 29 28 30 80 31 29 32 79 33 30 34 31 35
REMARK SMILES IDX 32 36 73 37 33 38 78 39 72 40 74 41 34 42 77 43 71 44 70 45
REMARK SMILES IDX 35 47 61 48 44 49 60 50 45 51 48 52 59 53 75 54 46 55 47 56
REMARK SMILES IDX 58 58 76 59 49 60 36 61 37 62 42 63 38 64 39 65 41 66 43 67
REMARK SMILES IDX 40 68 62 69 63 70 68 71 64 72 65 73 67 74 69 75 66 76 50 77
REMARK SMILES IDX 51 78 56 79 52 80 53 81 55 82 57 83 54 84
REMARK H PARENT 5 12 8 15 74 46 48 57
REMARK Flexibility Score: inf
ROOT
ATOM      1  C   UNL A   1      32.285  29.362  26.756  1.00  0.00     0.202 C 
ENDROOT
BRANCH   1   2
ATOM      2  C   UNL A   1      33.769  29.427  26.374  1.00  0.00     0.261 C 
BRANCH   2   3
ATOM      3  O   UNL A   1      33.984  28.437  25.359  1.00  0.00    -0.462 OA
BRANCH   3   4
ATOM      4  C   UNL A   1      33.256  28.468  24.227  1.00  0.00     0.331 C 
ATOM      5  O   UNL A   1      33.138  29.472  23.536  1.00  0.00    -0.249 OA
BRANCH   4   6
ATOM      6  C   UNL A   1      32.606  27.073  23.914  1.00  0.00     0.136 C 
ATOM      7  C   UNL A   1      33.515  26.079  24.684  1.00  0.00     0.047 C 
BRANCH   6   8
ATOM      8  C   UNL A   1      32.649  26.770  22.393  1.00  0.00     0.037 C 
ATOM      9  C   UNL A   1      32.559  25.303  21.987  1.00  0.00     0.007 C 
ENDBRANCH   6   8
BRANCH   6  10
ATOM     10  N   UNL A   1      31.210  26.763  24.424  1.00  0.00    -0.322 N 
ATOM     11  C   UNL A   1      29.923  26.944  24.108  1.00  0.00     0.315 C 
ATOM     12  H   UNL A   1      31.273  26.260  25.268  1.00  0.00     0.166 HD
ATOM     13  O   UNL A   1      29.111  26.176  24.633  1.00  0.00    -0.249 OA
ATOM     14  N   UNL A   1      29.449  27.890  23.296  1.00  0.00    -0.335 N 
ATOM     15  H   UNL A   1      28.533  27.743  22.964  1.00  0.00     0.165 HD
BRANCH  14  16
ATOM     16  C   UNL A   1      30.082  29.089  22.837  1.00  0.00     0.152 C 
BRANCH  16  17
ATOM     17  C   UNL A   1      29.296  30.074  21.960  1.00  0.00     0.163 C 
ATOM     18  C   UNL A   1      27.809  29.688  22.005  1.00  0.00     0.194 C 
ATOM     19  O   UNL A   1      29.483  31.451  22.299  1.00  0.00    -0.372 OA
ATOM     20  O   UNL A   1      27.279  29.936  23.314  1.00  0.00    -0.376 OA
ATOM     21  C   UNL A   1      28.870  31.796  23.547  1.00  0.00     0.189 C 
ATOM     22  C   UNL A   1      27.418  31.325  23.639  1.00  0.00     0.188 C 
ENDBRANCH  16  17
ENDBRANCH  14  16
ENDBRANCH   6  10
ENDBRANCH   4   6
ENDBRANCH   3   4
ENDBRANCH   2   3
ENDBRANCH   1   2
BRANCH   1  23
ATOM     23  O   UNL A   1      31.759  30.597  27.249  1.00  0.00    -0.374 OA
BRANCH  23  24
ATOM     24  C   UNL A   1      31.412  31.599  26.290  1.00  0.00     0.202 C 
BRANCH  24  25
ATOM     25  C   UNL A   1      31.971  33.002  26.542  1.00  0.00     0.261 C 
BRANCH  25  26
ATOM     26  O   UNL A   1      32.200  33.298  27.935  1.00  0.00    -0.460 OA
BRANCH  26  27
ATOM     27  C   UNL A   1      33.242  34.117  28.187  1.00  0.00     0.338 C 
ATOM     28  O   UNL A   1      33.202  35.337  28.301  1.00  0.00    -0.246 OA
BRANCH  27  29
ATOM     29  C   UNL A   1      34.489  33.354  28.414  1.00  0.00     0.060 A 
ATOM     30  C   UNL A   1      34.367  32.060  28.932  1.00  0.00     0.016 A 
ATOM     31  C   UNL A   1      35.756  33.923  28.251  1.00  0.00     0.016 A 
ATOM     32  C   UNL A   1      35.499  31.358  29.350  1.00  0.00     0.010 A 
ATOM     33  C   UNL A   1      36.895  33.211  28.666  1.00  0.00     0.010 A 
ATOM     34  C   UNL A   1      36.771  31.941  29.262  1.00  0.00    -0.014 A 
BRANCH  34  35
ATOM     35  C   UNL A   1      37.927  31.273  29.930  1.00  0.00     0.031 A 
ATOM     36  C   UNL A   1      38.213  31.555  31.384  1.00  0.00     0.074 A 
ATOM     37  C   UNL A   1      38.680  30.365  29.282  1.00  0.00     0.049 A 
ATOM     38  N   UNL A   1      39.132  31.042  32.167  1.00  0.00    -0.248 NA
ATOM     39  C   UNL A   1      37.350  32.546  32.045  1.00  0.00     0.031 C 
ATOM     40  C   UNL A   1      38.514  29.970  27.885  1.00  0.00     0.029 A 
ATOM     41  N   UNL A   1      39.737  29.602  29.723  1.00  0.00    -0.354 N 
ATOM     42  C   UNL A   1      38.958  31.646  33.407  1.00  0.00     0.074 A 
ATOM     43  C   UNL A   1      37.873  32.594  33.262  1.00  0.00     0.031 C 
ATOM     44  C   UNL A   1      39.430  29.031  27.586  1.00  0.00     0.029 A 
ATOM     45  C   UNL A   1      40.268  28.781  28.759  1.00  0.00     0.049 A 
ATOM     46  H   UNL A   1      40.081  29.641  30.645  1.00  0.00     0.167 HD
ATOM     47  C   UNL A   1      39.625  31.427  34.567  1.00  0.00     0.037 A 
ATOM     48  C   UNL A   1      41.317  27.935  28.806  1.00  0.00     0.037 A 
ATOM     49  C   UNL A   1      40.703  30.486  34.730  1.00  0.00     0.049 A 
ATOM     50  C   UNL A   1      42.089  27.759  30.090  1.00  0.00     0.074 A 
ATOM     51  C   UNL A   1      41.412  30.181  35.880  1.00  0.00     0.029 A 
ATOM     52  N   UNL A   1      41.238  29.707  33.716  1.00  0.00    -0.354 N 
ATOM     53  N   UNL A   1      41.883  28.302  31.265  1.00  0.00    -0.248 NA
ATOM     54  C   UNL A   1      43.240  26.841  30.053  1.00  0.00     0.031 C 
ATOM     55  C   UNL A   1      42.415  29.264  35.549  1.00  0.00     0.029 A 
ATOM     56  C   UNL A   1      42.288  28.947  34.207  1.00  0.00     0.049 A 
ATOM     57  H   UNL A   1      40.918  29.696  32.784  1.00  0.00     0.167 HD
ATOM     58  C   UNL A   1      42.852  27.770  32.109  1.00  0.00     0.074 A 
ATOM     59  C   UNL A   1      43.638  26.850  31.317  1.00  0.00     0.031 C 
ATOM     60  C   UNL A   1      43.067  28.022  33.424  1.00  0.00     0.037 A 
BRANCH  47  61
ATOM     61  C   UNL A   1      39.218  32.239  35.764  1.00  0.00     0.057 A 
ATOM     62  C   UNL A   1      38.327  31.746  36.727  1.00  0.00     0.134 A 
ATOM     63  C   UNL A   1      39.762  33.511  35.981  1.00  0.00     0.134 A 
ATOM     64  F   UNL A   1      37.763  30.538  36.576  1.00  0.00    -0.206 F 
ATOM     65  C   UNL A   1      37.974  32.499  37.848  1.00  0.00     0.040 A 
ATOM     66  C   UNL A   1      39.439  34.261  37.112  1.00  0.00     0.040 A 
ATOM     67  F   UNL A   1      40.630  34.039  35.105  1.00  0.00    -0.206 F 
ATOM     68  C   UNL A   1      38.536  33.758  38.046  1.00  0.00     0.006 A 
ENDBRANCH  47  61
BRANCH  48  69
ATOM     69  C   UNL A   1      41.725  27.184  27.589  1.00  0.00     0.057 A 
ATOM     70  C   UNL A   1      42.551  27.762  26.618  1.00  0.00     0.134 A 
ATOM     71  C   UNL A   1      41.257  25.886  27.346  1.00  0.00     0.134 A 
ATOM     72  F   UNL A   1      43.008  29.013  26.777  1.00  0.00    -0.206 F 
ATOM     73  C   UNL A   1      42.879  27.087  25.440  1.00  0.00     0.040 A 
ATOM     74  C   UNL A   1      41.602  25.189  26.189  1.00  0.00     0.040 A 
ATOM     75  F   UNL A   1      40.460  25.277  28.236  1.00  0.00    -0.206 F 
ATOM     76  C   UNL A   1      42.408  25.793  25.225  1.00  0.00     0.006 A 
ENDBRANCH  48  69
BRANCH  60  77
ATOM     77  C   UNL A   1      44.167  27.261  34.112  1.00  0.00     0.057 A 
ATOM     78  C   UNL A   1      45.467  27.770  34.229  1.00  0.00     0.134 A 
ATOM     79  C   UNL A   1      43.910  26.016  34.704  1.00  0.00     0.134 A 
ATOM     80  F   UNL A   1      45.787  28.951  33.678  1.00  0.00    -0.206 F 
ATOM     81  C   UNL A   1      46.476  27.059  34.882  1.00  0.00     0.040 A 
ATOM     82  C   UNL A   1      44.902  25.309  35.386  1.00  0.00     0.040 A 
ATOM     83  F   UNL A   1      42.686  25.472  34.642  1.00  0.00    -0.206 F 
ATOM     84  C   UNL A   1      46.192  25.827  35.470  1.00  0.00     0.006 A 
ENDBRANCH  60  77
ENDBRANCH  34  35
ENDBRANCH  27  29
ENDBRANCH  26  27
ENDBRANCH  25  26
ENDBRANCH  24  25
ENDBRANCH  23  24
ENDBRANCH   1  23
TORSDOF 18
ENDMDL
MODEL 3
REMARK VINA RESULT:     -10.3      5.224      9.883
REMARK SMILES CC[C@](C)(NC(=O)NC[C@H]1COCCO1)C(=O)OCCOCCOC(=O)c1ccc(-c2c3nc(c(-c4c(F)cccc4F)c4ccc([nH]4)c(-c4c(F)cccc4F)c4nc(c(-c5c(F)cccc5F)c5ccc2[nH]5)C=C4)C=C3)cc1
REMARK SMILES IDX 20 1 19 2 18 3 16 4 17 5 3 6 4 7 2 8 1 9 5 10 6 11 7 13 8 14
REMARK SMILES IDX 9 16 10 17 11 18 15 19 12 20 14 21 13 22 21 23 22 24 23 25
REMARK SMILES IDX 24 26 25 27 26 28 27 29 28 30 80 31 29 32 79 33 30 34 31 35
REMARK SMILES IDX 32 36 73 37 33 38 78 39 72 40 74 41 34 42 77 43 71 44 70 45
REMARK SMILES IDX 35 47 61 48 44 49 60 50 45 51 48 52 59 53 75 54 46 55 47 56
REMARK SMILES IDX 58 58 76 59 49 60 36 61 37 62 42 63 38 64 39 65 41 66 43 67
REMARK SMILES IDX 40 68 62 69 63 70 68 71 64 72 65 73 67 74 69 75 66 76 50 77
REMARK SMILES IDX 51 78 56 79 52 80 53 81 55 82 57 83 54 84
REMARK H PARENT 5 12 8 15 74 46 48 57
REMARK Flexibility Score: inf
ROOT
ATOM      1  C   UNL A   1      37.262  21.728  24.519  1.00  0.00     0.202 C 
ENDROOT
BRANCH   1   2
ATOM      2  C   UNL A   1      36.532  22.594  23.485  1.00  0.00     0.261 C 
BRANCH   2   3
ATOM      3  O   UNL A   1      35.410  23.187  24.153  1.00  0.00    -0.462 OA
BRANCH   3   4
ATOM      4  C   UNL A   1      34.202  23.193  23.559  1.00  0.00     0.331 C 
ATOM      5  O   UNL A   1      34.054  23.144  22.344  1.00  0.00    -0.249 OA
BRANCH   4   6
ATOM      6  C   UNL A   1      33.036  23.256  24.609  1.00  0.00     0.136 C 
ATOM      7  C   UNL A   1      31.879  22.508  23.897  1.00  0.00     0.047 C 
BRANCH   6   8
ATOM      8  C   UNL A   1      32.628  24.725  24.897  1.00  0.00     0.037 C 
ATOM      9  C   UNL A   1      33.516  25.503  25.863  1.00  0.00     0.007 C 
ENDBRANCH   6   8
BRANCH   6  10
ATOM     10  N   UNL A   1      33.179  22.531  25.936  1.00  0.00    -0.322 N 
ATOM     11  C   UNL A   1      33.734  21.436  26.468  1.00  0.00     0.315 C 
ATOM     12  H   UNL A   1      32.708  23.034  26.638  1.00  0.00     0.166 HD
ATOM     13  O   UNL A   1      33.913  21.444  27.690  1.00  0.00    -0.249 OA
ATOM     14  N   UNL A   1      34.086  20.339  25.795  1.00  0.00    -0.335 N 
ATOM     15  H   UNL A   1      34.702  19.733  26.267  1.00  0.00     0.165 HD
BRANCH  14  16
ATOM     16  C   UNL A   1      33.698  19.918  24.483  1.00  0.00     0.152 C 
BRANCH  16  17
ATOM     17  C   UNL A   1      32.438  19.061  24.303  1.00  0.00     0.163 C 
ATOM     18  C   UNL A   1      32.515  18.361  22.937  1.00  0.00     0.194 C 
ATOM     19  O   UNL A   1      32.206  18.118  25.354  1.00  0.00    -0.372 OA
ATOM     20  O   UNL A   1      33.565  17.383  22.947  1.00  0.00    -0.376 OA
ATOM     21  C   UNL A   1      33.154  17.045  25.347  1.00  0.00     0.189 C 
ATOM     22  C   UNL A   1      33.310  16.408  23.966  1.00  0.00     0.188 C 
ENDBRANCH  16  17
ENDBRANCH  14  16
ENDBRANCH   6  10
ENDBRANCH   4   6
ENDBRANCH   3   4
ENDBRANCH   2   3
ENDBRANCH   1   2
BRANCH   1  23
ATOM     23  O   UNL A   1      38.058  22.475  25.442  1.00  0.00    -0.374 OA
BRANCH  23  24
ATOM     24  C   UNL A   1      39.106  21.783  26.125  1.00  0.00     0.202 C 
BRANCH  24  25
ATOM     25  C   UNL A   1      39.484  20.406  25.572  1.00  0.00     0.261 C 
BRANCH  25  26
ATOM     26  O   UNL A   1      40.444  19.695  26.379  1.00  0.00    -0.460 OA
BRANCH  26  27
ATOM     27  C   UNL A   1      41.731  19.831  26.000  1.00  0.00     0.338 C 
ATOM     28  O   UNL A   1      42.355  19.090  25.248  1.00  0.00    -0.246 OA
BRANCH  27  29
ATOM     29  C   UNL A   1      42.326  21.075  26.535  1.00  0.00     0.060 A 
ATOM     30  C   UNL A   1      42.227  21.294  27.914  1.00  0.00     0.016 A 
ATOM     31  C   UNL A   1      42.856  22.070  25.708  1.00  0.00     0.016 A 
ATOM     32  C   UNL A   1      42.592  22.526  28.460  1.00  0.00     0.010 A 
ATOM     33  C   UNL A   1      43.229  23.307  26.262  1.00  0.00     0.010 A 
ATOM     34  C   UNL A   1      43.056  23.561  27.635  1.00  0.00    -0.014 A 
BRANCH  34  35
ATOM     35  C   UNL A   1      43.210  24.933  28.204  1.00  0.00     0.031 A 
ATOM     36  C   UNL A   1      44.582  25.436  28.579  1.00  0.00     0.074 A 
ATOM     37  C   UNL A   1      42.156  25.763  28.324  1.00  0.00     0.049 A 
ATOM     38  N   UNL A   1      44.942  26.611  29.037  1.00  0.00    -0.248 NA
ATOM     39  C   UNL A   1      45.697  24.491  28.415  1.00  0.00     0.031 C 
ATOM     40  C   UNL A   1      40.775  25.431  27.984  1.00  0.00     0.029 A 
ATOM     41  N   UNL A   1      42.091  27.065  28.761  1.00  0.00    -0.354 N 
ATOM     42  C   UNL A   1      46.319  26.545  29.217  1.00  0.00     0.074 A 
ATOM     43  C   UNL A   1      46.725  25.202  28.856  1.00  0.00     0.031 C 
ATOM     44  C   UNL A   1      39.999  26.505  28.216  1.00  0.00     0.029 A 
ATOM     45  C   UNL A   1      40.822  27.590  28.751  1.00  0.00     0.049 A 
ATOM     46  H   UNL A   1      42.881  27.575  29.054  1.00  0.00     0.167 HD
ATOM     47  C   UNL A   1      47.175  27.512  29.628  1.00  0.00     0.037 A 
ATOM     48  C   UNL A   1      40.367  28.798  29.141  1.00  0.00     0.037 A 
ATOM     49  C   UNL A   1      46.790  28.853  29.986  1.00  0.00     0.049 A 
ATOM     50  C   UNL A   1      41.331  29.837  29.661  1.00  0.00     0.074 A 
ATOM     51  C   UNL A   1      47.601  29.903  30.384  1.00  0.00     0.029 A 
ATOM     52  N   UNL A   1      45.488  29.328  30.004  1.00  0.00    -0.354 N 
ATOM     53  N   UNL A   1      42.634  29.775  29.780  1.00  0.00    -0.248 NA
ATOM     54  C   UNL A   1      40.753  31.120  30.095  1.00  0.00     0.031 C 
ATOM     55  C   UNL A   1      46.784  30.994  30.700  1.00  0.00     0.029 A 
ATOM     56  C   UNL A   1      45.471  30.645  30.436  1.00  0.00     0.049 A 
ATOM     57  H   UNL A   1      44.694  28.806  29.746  1.00  0.00     0.167 HD
ATOM     58  C   UNL A   1      43.033  31.014  30.269  1.00  0.00     0.074 A 
ATOM     59  C   UNL A   1      41.838  31.814  30.411  1.00  0.00     0.031 C 
ATOM     60  C   UNL A   1      44.282  31.448  30.569  1.00  0.00     0.037 A 
BRANCH  47  61
ATOM     61  C   UNL A   1      48.630  27.150  29.732  1.00  0.00     0.057 A 
ATOM     62  C   UNL A   1      49.522  27.348  28.669  1.00  0.00     0.134 A 
ATOM     63  C   UNL A   1      49.155  26.643  30.928  1.00  0.00     0.134 A 
ATOM     64  F   UNL A   1      49.084  27.823  27.494  1.00  0.00    -0.206 F 
ATOM     65  C   UNL A   1      50.876  27.031  28.784  1.00  0.00     0.040 A 
ATOM     66  C   UNL A   1      50.512  26.350  31.065  1.00  0.00     0.040 A 
ATOM     67  F   UNL A   1      48.359  26.441  31.989  1.00  0.00    -0.206 F 
ATOM     68  C   UNL A   1      51.376  26.537  29.988  1.00  0.00     0.006 A 
ENDBRANCH  47  61
BRANCH  48  69
ATOM     69  C   UNL A   1      38.914  29.106  29.071  1.00  0.00     0.057 A 
ATOM     70  C   UNL A   1      38.323  29.570  27.889  1.00  0.00     0.134 A 
ATOM     71  C   UNL A   1      38.092  28.989  30.198  1.00  0.00     0.134 A 
ATOM     72  F   UNL A   1      39.063  29.731  26.782  1.00  0.00    -0.206 F 
ATOM     73  C   UNL A   1      36.974  29.927  27.837  1.00  0.00     0.040 A 
ATOM     74  C   UNL A   1      36.736  29.314  30.153  1.00  0.00     0.040 A 
ATOM     75  F   UNL A   1      38.596  28.554  31.362  1.00  0.00    -0.206 F 
ATOM     76  C   UNL A   1      36.175  29.794  28.971  1.00  0.00     0.006 A 
ENDBRANCH  48  69
BRANCH  60  77
ATOM     77  C   UNL A   1      44.436  32.869  31.040  1.00  0.00     0.057 A 
ATOM     78  C   UNL A   1      44.442  33.209  32.399  1.00  0.00     0.134 A 
ATOM     79  C   UNL A   1      44.623  33.908  30.118  1.00  0.00     0.134 A 
ATOM     80  F   UNL A   1      44.258  32.266  33.337  1.00  0.00    -0.206 F 
ATOM     81  C   UNL A   1      44.598  34.531  32.823  1.00  0.00     0.040 A 
ATOM     82  C   UNL A   1      44.811  35.229  30.530  1.00  0.00     0.040 A 
ATOM     83  F   UNL A   1      44.640  33.656  28.801  1.00  0.00    -0.206 F 
ATOM     84  C   UNL A   1      44.791  35.544  31.886  1.00  0.00     0.006 A 
ENDBRANCH  60  77
ENDBRANCH  34  35
ENDBRANCH  27  29
ENDBRANCH  26  27
ENDBRANCH  25  26
ENDBRANCH  24  25
ENDBRANCH  23  24
ENDBRANCH   1  23
TORSDOF 18
ENDMDL
