MODEL 1
REMARK VINA RESULT:     -12.6      0.000      0.000
REMARK SMILES NS(=O)(=O)c1ccc(-c2coc(=O)n2-c2ccc(C(=O)OCCOCCOC(=O)c3ccc(-c4c5nc(c(-c6c(F)cccc6F)c6ccc([nH]6)c(-c6c(F)cccc6F)c6nc(c(-c7c(F)cccc7F)c7ccc4[nH]7)C=C6)C=C5)cc3)cc2)cc1
REMARK SMILES IDX 23 1 22 2 21 3 19 4 20 5 18 6 15 7 16 8 85 9 17 10 84 11
REMARK SMILES IDX 14 12 9 13 10 14 11 15 12 16 13 17 8 18 5 19 6 20 87 21 7 22
REMARK SMILES IDX 86 23 2 24 3 25 4 26 1 27 24 30 25 31 26 32 27 33 28 34
REMARK SMILES IDX 29 35 30 36 31 37 83 38 32 39 82 40 33 41 34 42 35 43 76 44
REMARK SMILES IDX 36 45 81 46 75 47 77 48 37 49 80 50 74 51 73 52 38 54 64 55
REMARK SMILES IDX 47 56 63 57 48 58 51 59 62 60 78 61 49 62 50 63 61 65 79 66
REMARK SMILES IDX 52 67 39 68 40 69 45 70 41 71 42 72 44 73 46 74 43 75 65 76
REMARK SMILES IDX 66 77 71 78 67 79 68 80 70 81 72 82 69 83 53 84 54 85 59 86
REMARK SMILES IDX 55 87 56 88 58 89 60 90 57 91
REMARK H PARENT 1 28 1 29 77 53 51 64
REMARK Flexibility Score: inf
ROOT
ATOM      1  C   UNL A   1      34.192  32.967  29.069  1.00  0.00     0.202 C 
ENDROOT
BRANCH   1   2
ATOM      2  C   UNL A   1      34.468  32.243  27.750  1.00  0.00     0.261 C 
BRANCH   2   3
ATOM      3  O   UNL A   1      34.076  30.863  27.784  1.00  0.00    -0.460 OA
BRANCH   3   4
ATOM      4  C   UNL A   1      32.872  30.618  27.213  1.00  0.00     0.338 C 
ATOM      5  O   UNL A   1      32.048  31.440  26.846  1.00  0.00    -0.246 OA
BRANCH   4   6
ATOM      6  C   UNL A   1      32.731  29.180  26.921  1.00  0.00     0.060 A 
ATOM      7  C   UNL A   1      32.348  26.589  25.972  1.00  0.00     0.053 A 
ATOM      8  C   UNL A   1      33.517  27.276  25.640  1.00  0.00     0.028 A 
ATOM      9  C   UNL A   1      31.446  27.156  26.891  1.00  0.00     0.028 A 
ATOM     10  C   UNL A   1      33.690  28.585  26.088  1.00  0.00     0.018 A 
ATOM     11  C   UNL A   1      31.640  28.446  27.380  1.00  0.00     0.018 A 
BRANCH   7  12
ATOM     12  N   UNL A   1      31.986  25.430  25.249  1.00  0.00    -0.242 N 
ATOM     13  C   UNL A   1      31.067  25.342  24.239  1.00  0.00     0.095 A 
ATOM     14  C   UNL A   1      31.095  24.083  23.822  1.00  0.00     0.228 A 
ATOM     15  O   UNL A   1      32.009  23.277  24.499  1.00  0.00    -0.415 OA
ATOM     16  C   UNL A   1      32.593  24.184  25.385  1.00  0.00     0.424 A 
ATOM     17  O   UNL A   1      33.485  23.864  26.160  1.00  0.00    -0.223 OA
BRANCH  13  18
ATOM     18  C   UNL A   1      30.361  26.475  23.643  1.00  0.00     0.002 A 
ATOM     19  C   UNL A   1      29.104  28.788  22.702  1.00  0.00     0.082 A 
ATOM     20  C   UNL A   1      30.447  28.569  22.400  1.00  0.00     0.022 A 
ATOM     21  C   UNL A   1      28.377  27.854  23.449  1.00  0.00     0.022 A 
ATOM     22  C   UNL A   1      31.069  27.409  22.864  1.00  0.00     0.012 A 
ATOM     23  C   UNL A   1      29.005  26.693  23.910  1.00  0.00     0.012 A 
BRANCH  19  24
ATOM     24  S   UNL A   1      28.315  30.283  22.182  1.00  0.00     0.238 S 
ATOM     25  O   UNL A   1      27.315  30.662  23.157  1.00  0.00    -0.207 OA
ATOM     26  O   UNL A   1      28.032  30.187  20.773  1.00  0.00    -0.207 OA
BRANCH  24  27
ATOM     27  N   UNL A   1      29.549  31.409  22.348  1.00  0.00    -0.225 NA
ATOM     28  H   UNL A   1      29.922  31.643  21.428  1.00  0.00     0.137 HD
ATOM     29  H   UNL A   1      30.291  31.017  22.927  1.00  0.00     0.137 HD
ENDBRANCH  24  27
ENDBRANCH  19  24
ENDBRANCH  13  18
ENDBRANCH   7  12
ENDBRANCH   4   6
ENDBRANCH   3   4
ENDBRANCH   2   3
ENDBRANCH   1   2
BRANCH   1  30
ATOM     30  O   UNL A   1      33.123  33.910  29.138  1.00  0.00    -0.374 OA
BRANCH  30  31
ATOM     31  C   UNL A   1      33.360  35.303  28.965  1.00  0.00     0.202 C 
BRANCH  31  32
ATOM     32  C   UNL A   1      33.037  36.255  30.108  1.00  0.00     0.261 C 
BRANCH  32  33
ATOM     33  O   UNL A   1      33.827  35.985  31.252  1.00  0.00    -0.460 OA
BRANCH  33  34
ATOM     34  C   UNL A   1      33.194  35.231  32.178  1.00  0.00     0.338 C 
ATOM     35  O   UNL A   1      32.000  35.204  32.425  1.00  0.00    -0.246 OA
BRANCH  34  36
ATOM     36  C   UNL A   1      34.207  34.528  32.972  1.00  0.00     0.060 A 
ATOM     37  C   UNL A   1      35.333  35.289  33.289  1.00  0.00     0.016 A 
ATOM     38  C   UNL A   1      34.229  33.128  32.927  1.00  0.00     0.016 A 
ATOM     39  C   UNL A   1      36.555  34.675  33.197  1.00  0.00     0.010 A 
ATOM     40  C   UNL A   1      35.448  32.522  32.807  1.00  0.00     0.010 A 
ATOM     41  C   UNL A   1      36.583  33.329  32.824  1.00  0.00    -0.014 A 
BRANCH  41  42
ATOM     42  C   UNL A   1      37.858  32.732  32.521  1.00  0.00     0.031 A 
ATOM     43  C   UNL A   1      38.727  32.708  33.711  1.00  0.00     0.074 A 
ATOM     44  C   UNL A   1      38.118  32.174  31.326  1.00  0.00     0.049 A 
ATOM     45  N   UNL A   1      39.714  33.498  33.974  1.00  0.00    -0.248 NA
ATOM     46  C   UNL A   1      38.270  31.907  34.859  1.00  0.00     0.031 C 
ATOM     47  C   UNL A   1      37.202  31.930  30.208  1.00  0.00     0.029 A 
ATOM     48  N   UNL A   1      39.279  31.607  30.901  1.00  0.00    -0.354 N 
ATOM     49  C   UNL A   1      40.152  33.104  35.232  1.00  0.00     0.074 A 
ATOM     50  C   UNL A   1      39.065  32.377  35.820  1.00  0.00     0.031 C 
ATOM     51  C   UNL A   1      37.779  31.068  29.339  1.00  0.00     0.029 A 
ATOM     52  C   UNL A   1      39.139  30.804  29.772  1.00  0.00     0.049 A 
ATOM     53  H   UNL A   1      40.143  31.751  31.352  1.00  0.00     0.167 HD
ATOM     54  C   UNL A   1      41.480  33.086  35.524  1.00  0.00     0.037 A 
ATOM     55  C   UNL A   1      40.073  29.924  29.330  1.00  0.00     0.037 A 
ATOM     56  C   UNL A   1      42.216  33.886  34.571  1.00  0.00     0.049 A 
ATOM     57  C   UNL A   1      41.369  30.310  29.954  1.00  0.00     0.074 A 
ATOM     58  C   UNL A   1      42.197  35.214  34.191  1.00  0.00     0.029 A 
ATOM     59  N   UNL A   1      42.872  33.214  33.567  1.00  0.00    -0.354 N 
ATOM     60  N   UNL A   1      42.001  31.418  29.668  1.00  0.00    -0.248 NA
ATOM     61  C   UNL A   1      41.685  29.733  31.254  1.00  0.00     0.031 C 
ATOM     62  C   UNL A   1      42.435  35.203  32.785  1.00  0.00     0.029 A 
ATOM     63  C   UNL A   1      42.658  33.883  32.392  1.00  0.00     0.049 A 
ATOM     64  H   UNL A   1      43.403  32.392  33.675  1.00  0.00     0.167 HD
ATOM     65  C   UNL A   1      42.448  31.899  30.892  1.00  0.00     0.074 A 
ATOM     66  C   UNL A   1      42.278  30.787  31.825  1.00  0.00     0.031 C 
ATOM     67  C   UNL A   1      42.626  33.237  31.099  1.00  0.00     0.037 A 
BRANCH  54  68
ATOM     68  C   UNL A   1      42.148  31.994  36.337  1.00  0.00     0.057 A 
ATOM     69  C   UNL A   1      43.005  32.386  37.381  1.00  0.00     0.134 A 
ATOM     70  C   UNL A   1      42.250  30.633  35.973  1.00  0.00     0.134 A 
ATOM     71  F   UNL A   1      42.988  33.643  37.850  1.00  0.00    -0.206 F 
ATOM     72  C   UNL A   1      43.978  31.536  37.916  1.00  0.00     0.040 A 
ATOM     73  C   UNL A   1      43.188  29.763  36.533  1.00  0.00     0.040 A 
ATOM     74  F   UNL A   1      41.522  30.067  35.008  1.00  0.00    -0.206 F 
ATOM     75  C   UNL A   1      44.087  30.224  37.476  1.00  0.00     0.006 A 
ENDBRANCH  54  68
BRANCH  55  76
ATOM     76  C   UNL A   1      39.848  28.593  28.717  1.00  0.00     0.057 A 
ATOM     77  C   UNL A   1      40.339  28.277  27.442  1.00  0.00     0.134 A 
ATOM     78  C   UNL A   1      39.370  27.510  29.477  1.00  0.00     0.134 A 
ATOM     79  F   UNL A   1      40.868  29.230  26.662  1.00  0.00    -0.206 F 
ATOM     80  C   UNL A   1      40.354  26.961  26.954  1.00  0.00     0.040 A 
ATOM     81  C   UNL A   1      39.376  26.195  29.001  1.00  0.00     0.040 A 
ATOM     82  F   UNL A   1      38.966  27.680  30.744  1.00  0.00    -0.206 F 
ATOM     83  C   UNL A   1      39.877  25.914  27.737  1.00  0.00     0.006 A 
ENDBRANCH  55  76
BRANCH  67  84
ATOM     84  C   UNL A   1      42.555  34.148  29.906  1.00  0.00     0.057 A 
ATOM     85  C   UNL A   1      41.374  34.760  29.456  1.00  0.00     0.134 A 
ATOM     86  C   UNL A   1      43.750  34.563  29.311  1.00  0.00     0.134 A 
ATOM     87  F   UNL A   1      40.196  34.494  30.033  1.00  0.00    -0.206 F 
ATOM     88  C   UNL A   1      41.385  35.723  28.441  1.00  0.00     0.040 A 
ATOM     89  C   UNL A   1      43.778  35.545  28.320  1.00  0.00     0.040 A 
ATOM     90  F   UNL A   1      44.922  34.060  29.732  1.00  0.00    -0.206 F 
ATOM     91  C   UNL A   1      42.592  36.124  27.877  1.00  0.00     0.006 A 
ENDBRANCH  67  84
ENDBRANCH  41  42
ENDBRANCH  34  36
ENDBRANCH  33  34
ENDBRANCH  32  33
ENDBRANCH  31  32
ENDBRANCH  30  31
ENDBRANCH   1  30
TORSDOF 18
ENDMDL
MODEL 2
REMARK VINA RESULT:     -12.4      5.778     11.048
REMARK SMILES NS(=O)(=O)c1ccc(-c2coc(=O)n2-c2ccc(C(=O)OCCOCCOC(=O)c3ccc(-c4c5nc(c(-c6c(F)cccc6F)c6ccc([nH]6)c(-c6c(F)cccc6F)c6nc(c(-c7c(F)cccc7F)c7ccc4[nH]7)C=C6)C=C5)cc3)cc2)cc1
REMARK SMILES IDX 23 1 22 2 21 3 19 4 20 5 18 6 15 7 16 8 85 9 17 10 84 11
REMARK SMILES IDX 14 12 9 13 10 14 11 15 12 16 13 17 8 18 5 19 6 20 87 21 7 22
REMARK SMILES IDX 86 23 2 24 3 25 4 26 1 27 24 30 25 31 26 32 27 33 28 34
REMARK SMILES IDX 29 35 30 36 31 37 83 38 32 39 82 40 33 41 34 42 35 43 76 44
REMARK SMILES IDX 36 45 81 46 75 47 77 48 37 49 80 50 74 51 73 52 38 54 64 55
REMARK SMILES IDX 47 56 63 57 48 58 51 59 62 60 78 61 49 62 50 63 61 65 79 66
REMARK SMILES IDX 52 67 39 68 40 69 45 70 41 71 42 72 44 73 46 74 43 75 65 76
REMARK SMILES IDX 66 77 71 78 67 79 68 80 70 81 72 82 69 83 53 84 54 85 59 86
REMARK SMILES IDX 55 87 56 88 58 89 60 90 57 91
REMARK H PARENT 1 28 1 29 77 53 51 64
REMARK Flexibility Score: inf
ROOT
ATOM      1  C   UNL A   1      41.372  21.054  26.100  1.00  0.00     0.202 C 
ENDROOT
BRANCH   1   2
ATOM      2  C   UNL A   1      40.074  21.436  26.813  1.00  0.00     0.261 C 
BRANCH   2   3
ATOM      3  O   UNL A   1      39.197  22.214  25.985  1.00  0.00    -0.460 OA
BRANCH   3   4
ATOM      4  C   UNL A   1      38.282  21.478  25.308  1.00  0.00     0.338 C 
ATOM      5  O   UNL A   1      38.296  20.272  25.121  1.00  0.00    -0.246 OA
BRANCH   4   6
ATOM      6  C   UNL A   1      37.126  22.315  24.943  1.00  0.00     0.060 A 
ATOM      7  C   UNL A   1      34.697  23.573  24.408  1.00  0.00     0.053 A 
ATOM      8  C   UNL A   1      35.195  23.566  25.713  1.00  0.00     0.028 A 
ATOM      9  C   UNL A   1      35.490  23.070  23.361  1.00  0.00     0.028 A 
ATOM     10  C   UNL A   1      36.393  22.907  25.983  1.00  0.00     0.018 A 
ATOM     11  C   UNL A   1      36.712  22.452  23.620  1.00  0.00     0.018 A 
BRANCH   7  12
ATOM     12  N   UNL A   1      33.344  23.904  24.175  1.00  0.00    -0.242 N 
ATOM     13  C   UNL A   1      32.303  23.035  23.990  1.00  0.00     0.095 A 
ATOM     14  C   UNL A   1      31.215  23.783  23.861  1.00  0.00     0.228 A 
ATOM     15  O   UNL A   1      31.450  25.155  23.956  1.00  0.00    -0.415 OA
ATOM     16  C   UNL A   1      32.825  25.196  24.196  1.00  0.00     0.424 A 
ATOM     17  O   UNL A   1      33.430  26.246  24.367  1.00  0.00    -0.223 OA
BRANCH  13  18
ATOM     18  C   UNL A   1      32.389  21.581  24.111  1.00  0.00     0.002 A 
ATOM     19  C   UNL A   1      32.816  18.826  24.316  1.00  0.00     0.082 A 
ATOM     20  C   UNL A   1      32.972  19.628  25.446  1.00  0.00     0.022 A 
ATOM     21  C   UNL A   1      32.428  19.382  23.092  1.00  0.00     0.022 A 
ATOM     22  C   UNL A   1      32.750  21.002  25.341  1.00  0.00     0.012 A 
ATOM     23  C   UNL A   1      32.205  20.759  22.994  1.00  0.00     0.012 A 
BRANCH  19  24
ATOM     24  S   UNL A   1      33.158  17.094  24.410  1.00  0.00     0.238 S 
ATOM     25  O   UNL A   1      33.545  16.609  23.103  1.00  0.00    -0.207 OA
ATOM     26  O   UNL A   1      32.133  16.465  25.202  1.00  0.00    -0.207 OA
BRANCH  24  27
ATOM     27  N   UNL A   1      34.562  17.061  25.330  1.00  0.00    -0.225 NA
ATOM     28  H   UNL A   1      35.321  17.497  24.808  1.00  0.00     0.137 HD
ATOM     29  H   UNL A   1      34.807  16.094  25.543  1.00  0.00     0.137 HD
ENDBRANCH  24  27
ENDBRANCH  19  24
ENDBRANCH  13  18
ENDBRANCH   7  12
ENDBRANCH   4   6
ENDBRANCH   3   4
ENDBRANCH   2   3
ENDBRANCH   1   2
BRANCH   1  30
ATOM     30  O   UNL A   1      41.526  19.730  25.590  1.00  0.00    -0.374 OA
BRANCH  30  31
ATOM     31  C   UNL A   1      42.422  18.807  26.200  1.00  0.00     0.202 C 
BRANCH  31  32
ATOM     32  C   UNL A   1      43.799  18.599  25.587  1.00  0.00     0.261 C 
BRANCH  32  33
ATOM     33  O   UNL A   1      44.518  19.816  25.492  1.00  0.00    -0.460 OA
BRANCH  33  34
ATOM     34  C   UNL A   1      44.639  20.273  24.226  1.00  0.00     0.338 C 
ATOM     35  O   UNL A   1      44.528  19.636  23.192  1.00  0.00    -0.246 OA
BRANCH  34  36
ATOM     36  C   UNL A   1      45.081  21.670  24.280  1.00  0.00     0.060 A 
ATOM     37  C   UNL A   1      46.111  21.922  25.187  1.00  0.00     0.016 A 
ATOM     38  C   UNL A   1      44.191  22.664  23.851  1.00  0.00     0.016 A 
ATOM     39  C   UNL A   1      46.022  23.064  25.939  1.00  0.00     0.010 A 
ATOM     40  C   UNL A   1      44.086  23.788  24.621  1.00  0.00     0.010 A 
ATOM     41  C   UNL A   1      44.928  23.905  25.723  1.00  0.00    -0.014 A 
BRANCH  41  42
ATOM     42  C   UNL A   1      44.711  24.991  26.644  1.00  0.00     0.031 A 
ATOM     43  C   UNL A   1      45.843  25.934  26.627  1.00  0.00     0.074 A 
ATOM     44  C   UNL A   1      43.553  25.140  27.312  1.00  0.00     0.049 A 
ATOM     45  N   UNL A   1      46.789  26.035  27.499  1.00  0.00    -0.248 NA
ATOM     46  C   UNL A   1      46.107  26.642  25.363  1.00  0.00     0.031 C 
ATOM     47  C   UNL A   1      42.304  24.388  27.160  1.00  0.00     0.029 A 
ATOM     48  N   UNL A   1      43.229  26.094  28.225  1.00  0.00    -0.354 N 
ATOM     49  C   UNL A   1      47.632  27.015  26.990  1.00  0.00     0.074 A 
ATOM     50  C   UNL A   1      47.336  27.102  25.589  1.00  0.00     0.031 C 
ATOM     51  C   UNL A   1      41.302  25.058  27.778  1.00  0.00     0.029 A 
ATOM     52  C   UNL A   1      41.862  26.206  28.469  1.00  0.00     0.049 A 
ATOM     53  H   UNL A   1      43.901  26.657  28.674  1.00  0.00     0.167 HD
ATOM     54  C   UNL A   1      48.220  27.917  27.821  1.00  0.00     0.037 A 
ATOM     55  C   UNL A   1      41.275  27.248  29.111  1.00  0.00     0.037 A 
ATOM     56  C   UNL A   1      48.184  27.442  29.185  1.00  0.00     0.049 A 
ATOM     57  C   UNL A   1      42.345  27.950  29.874  1.00  0.00     0.074 A 
ATOM     58  C   UNL A   1      48.675  26.333  29.847  1.00  0.00     0.029 A 
ATOM     59  N   UNL A   1      47.216  27.973  30.005  1.00  0.00    -0.354 N 
ATOM     60  N   UNL A   1      42.963  27.420  30.897  1.00  0.00    -0.248 NA
ATOM     61  C   UNL A   1      43.076  29.006  29.185  1.00  0.00     0.031 C 
ATOM     62  C   UNL A   1      47.675  25.998  30.807  1.00  0.00     0.029 A 
ATOM     63  C   UNL A   1      46.662  26.955  30.733  1.00  0.00     0.049 A 
ATOM     64  H   UNL A   1      46.964  28.924  30.058  1.00  0.00     0.167 HD
ATOM     65  C   UNL A   1      44.299  27.757  30.718  1.00  0.00     0.074 A 
ATOM     66  C   UNL A   1      44.298  28.787  29.681  1.00  0.00     0.031 C 
ATOM     67  C   UNL A   1      45.296  26.960  31.204  1.00  0.00     0.037 A 
BRANCH  54  68
ATOM     68  C   UNL A   1      48.381  29.388  27.489  1.00  0.00     0.057 A 
ATOM     69  C   UNL A   1      49.639  29.975  27.709  1.00  0.00     0.134 A 
ATOM     70  C   UNL A   1      47.331  30.308  27.274  1.00  0.00     0.134 A 
ATOM     71  F   UNL A   1      50.730  29.216  27.893  1.00  0.00    -0.206 F 
ATOM     72  C   UNL A   1      49.812  31.357  27.847  1.00  0.00     0.040 A 
ATOM     73  C   UNL A   1      47.501  31.692  27.365  1.00  0.00     0.040 A 
ATOM     74  F   UNL A   1      46.066  29.951  27.046  1.00  0.00    -0.206 F 
ATOM     75  C   UNL A   1      48.735  32.219  27.696  1.00  0.00     0.006 A 
ENDBRANCH  54  68
BRANCH  55  76
ATOM     76  C   UNL A   1      39.963  27.872  28.819  1.00  0.00     0.057 A 
ATOM     77  C   UNL A   1      38.950  27.943  29.785  1.00  0.00     0.134 A 
ATOM     78  C   UNL A   1      39.765  28.649  27.663  1.00  0.00     0.134 A 
ATOM     79  F   UNL A   1      39.071  27.282  30.946  1.00  0.00    -0.206 F 
ATOM     80  C   UNL A   1      37.808  28.739  29.611  1.00  0.00     0.040 A 
ATOM     81  C   UNL A   1      38.630  29.444  27.476  1.00  0.00     0.040 A 
ATOM     82  F   UNL A   1      40.710  28.733  26.716  1.00  0.00    -0.206 F 
ATOM     83  C   UNL A   1      37.648  29.499  28.457  1.00  0.00     0.006 A 
ENDBRANCH  55  76
BRANCH  67  84
ATOM     84  C   UNL A   1      44.912  25.844  32.134  1.00  0.00     0.057 A 
ATOM     85  C   UNL A   1      44.569  24.551  31.708  1.00  0.00     0.134 A 
ATOM     86  C   UNL A   1      45.078  26.035  33.509  1.00  0.00     0.134 A 
ATOM     87  F   UNL A   1      44.482  24.254  30.405  1.00  0.00    -0.206 F 
ATOM     88  C   UNL A   1      44.374  23.504  32.615  1.00  0.00     0.040 A 
ATOM     89  C   UNL A   1      44.918  24.991  34.422  1.00  0.00     0.040 A 
ATOM     90  F   UNL A   1      45.461  27.231  33.982  1.00  0.00    -0.206 F 
ATOM     91  C   UNL A   1      44.559  23.722  33.976  1.00  0.00     0.006 A 
ENDBRANCH  67  84
ENDBRANCH  41  42
ENDBRANCH  34  36
ENDBRANCH  33  34
ENDBRANCH  32  33
ENDBRANCH  31  32
ENDBRANCH  30  31
ENDBRANCH   1  30
TORSDOF 18
ENDMDL
MODEL 3
REMARK VINA RESULT:     -11.8      4.004      8.163
REMARK SMILES NS(=O)(=O)c1ccc(-c2coc(=O)n2-c2ccc(C(=O)OCCOCCOC(=O)c3ccc(-c4c5nc(c(-c6c(F)cccc6F)c6ccc([nH]6)c(-c6c(F)cccc6F)c6nc(c(-c7c(F)cccc7F)c7ccc4[nH]7)C=C6)C=C5)cc3)cc2)cc1
REMARK SMILES IDX 23 1 22 2 21 3 19 4 20 5 18 6 15 7 16 8 85 9 17 10 84 11
REMARK SMILES IDX 14 12 9 13 10 14 11 15 12 16 13 17 8 18 5 19 6 20 87 21 7 22
REMARK SMILES IDX 86 23 2 24 3 25 4 26 1 27 24 30 25 31 26 32 27 33 28 34
REMARK SMILES IDX 29 35 30 36 31 37 83 38 32 39 82 40 33 41 34 42 35 43 76 44
REMARK SMILES IDX 36 45 81 46 75 47 77 48 37 49 80 50 74 51 73 52 38 54 64 55
REMARK SMILES IDX 47 56 63 57 48 58 51 59 62 60 78 61 49 62 50 63 61 65 79 66
REMARK SMILES IDX 52 67 39 68 40 69 45 70 41 71 42 72 44 73 46 74 43 75 65 76
REMARK SMILES IDX 66 77 71 78 67 79 68 80 70 81 72 82 69 83 53 84 54 85 59 86
REMARK SMILES IDX 55 87 56 88 58 89 60 90 57 91
REMARK H PARENT 1 28 1 29 77 53 51 64
REMARK Flexibility Score: inf
ROOT
ATOM      1  C   UNL A   1      35.380  33.076  27.949  1.00  0.00     0.202 C 
ENDROOT
BRANCH   1   2
ATOM      2  C   UNL A   1      34.298  32.145  28.499  1.00  0.00     0.261 C 
BRANCH   2   3
ATOM      3  O   UNL A   1      34.217  30.906  27.781  1.00  0.00    -0.460 OA
BRANCH   3   4
ATOM      4  C   UNL A   1      33.010  30.679  27.209  1.00  0.00     0.338 C 
ATOM      5  O   UNL A   1      32.208  31.514  26.821  1.00  0.00    -0.246 OA
BRANCH   4   6
ATOM      6  C   UNL A   1      32.834  29.240  26.945  1.00  0.00     0.060 A 
ATOM      7  C   UNL A   1      32.413  26.639  26.039  1.00  0.00     0.053 A 
ATOM      8  C   UNL A   1      33.623  27.277  25.757  1.00  0.00     0.028 A 
ATOM      9  C   UNL A   1      31.482  27.260  26.892  1.00  0.00     0.028 A 
ATOM     10  C   UNL A   1      33.817  28.591  26.183  1.00  0.00     0.018 A 
ATOM     11  C   UNL A   1      31.694  28.556  27.359  1.00  0.00     0.018 A 
BRANCH   7  12
ATOM     12  N   UNL A   1      32.052  25.474  25.326  1.00  0.00    -0.242 N 
ATOM     13  C   UNL A   1      31.132  25.378  24.317  1.00  0.00     0.095 A 
ATOM     14  C   UNL A   1      31.161  24.116  23.910  1.00  0.00     0.228 A 
ATOM     15  O   UNL A   1      32.075  23.315  24.593  1.00  0.00    -0.415 OA
ATOM     16  C   UNL A   1      32.659  24.229  25.472  1.00  0.00     0.424 A 
ATOM     17  O   UNL A   1      33.551  23.915  26.249  1.00  0.00    -0.223 OA
BRANCH  13  18
ATOM     18  C   UNL A   1      30.426  26.506  23.711  1.00  0.00     0.002 A 
ATOM     19  C   UNL A   1      29.149  28.805  22.764  1.00  0.00     0.082 A 
ATOM     20  C   UNL A   1      30.517  28.646  22.550  1.00  0.00     0.022 A 
ATOM     21  C   UNL A   1      28.409  27.819  23.426  1.00  0.00     0.022 A 
ATOM     22  C   UNL A   1      31.150  27.492  23.017  1.00  0.00     0.012 A 
ATOM     23  C   UNL A   1      29.048  26.665  23.891  1.00  0.00     0.012 A 
BRANCH  19  24
ATOM     24  S   UNL A   1      28.341  30.289  22.242  1.00  0.00     0.238 S 
ATOM     25  O   UNL A   1      27.414  30.717  23.267  1.00  0.00    -0.207 OA
ATOM     26  O   UNL A   1      27.962  30.143  20.860  1.00  0.00    -0.207 OA
BRANCH  24  27
ATOM     27  N   UNL A   1      29.594  31.405  22.280  1.00  0.00    -0.225 NA
ATOM     28  H   UNL A   1      29.304  32.259  21.804  1.00  0.00     0.137 HD
ATOM     29  H   UNL A   1      30.411  31.015  21.810  1.00  0.00     0.137 HD
ENDBRANCH  24  27
ENDBRANCH  19  24
ENDBRANCH  13  18
ENDBRANCH   7  12
ENDBRANCH   4   6
ENDBRANCH   3   4
ENDBRANCH   2   3
ENDBRANCH   1   2
BRANCH   1  30
ATOM     30  O   UNL A   1      36.467  33.458  28.790  1.00  0.00    -0.374 OA
BRANCH  30  31
ATOM     31  C   UNL A   1      36.434  33.210  30.191  1.00  0.00     0.202 C 
BRANCH  31  32
ATOM     32  C   UNL A   1      37.263  32.067  30.760  1.00  0.00     0.261 C 
BRANCH  32  33
ATOM     33  O   UNL A   1      37.636  31.143  29.754  1.00  0.00    -0.460 OA
BRANCH  33  34
ATOM     34  C   UNL A   1      37.086  29.919  29.916  1.00  0.00     0.338 C 
ATOM     35  O   UNL A   1      36.162  29.610  30.648  1.00  0.00    -0.246 OA
BRANCH  34  36
ATOM     36  C   UNL A   1      37.886  28.950  29.159  1.00  0.00     0.060 A 
ATOM     37  C   UNL A   1      38.357  27.870  29.908  1.00  0.00     0.016 A 
ATOM     38  C   UNL A   1      38.506  29.380  27.979  1.00  0.00     0.016 A 
ATOM     39  C   UNL A   1      39.646  27.462  29.682  1.00  0.00     0.010 A 
ATOM     40  C   UNL A   1      39.801  28.992  27.773  1.00  0.00     0.010 A 
ATOM     41  C   UNL A   1      40.381  28.132  28.701  1.00  0.00    -0.014 A 
BRANCH  41  42
ATOM     42  C   UNL A   1      41.791  27.857  28.599  1.00  0.00     0.031 A 
ATOM     43  C   UNL A   1      42.033  26.595  27.878  1.00  0.00     0.074 A 
ATOM     44  C   UNL A   1      42.721  28.734  29.016  1.00  0.00     0.049 A 
ATOM     45  N   UNL A   1      42.348  25.452  28.388  1.00  0.00    -0.248 NA
ATOM     46  C   UNL A   1      41.598  26.532  26.473  1.00  0.00     0.031 C 
ATOM     47  C   UNL A   1      42.538  30.110  29.487  1.00  0.00     0.029 A 
ATOM     48  N   UNL A   1      44.073  28.590  29.005  1.00  0.00    -0.354 N 
ATOM     49  C   UNL A   1      42.393  24.585  27.303  1.00  0.00     0.074 A 
ATOM     50  C   UNL A   1      41.639  25.218  26.260  1.00  0.00     0.031 C 
ATOM     51  C   UNL A   1      43.735  30.742  29.495  1.00  0.00     0.029 A 
ATOM     52  C   UNL A   1      44.773  29.785  29.155  1.00  0.00     0.049 A 
ATOM     53  H   UNL A   1      44.518  27.718  28.900  1.00  0.00     0.167 HD
ATOM     54  C   UNL A   1      43.345  23.617  27.234  1.00  0.00     0.037 A 
ATOM     55  C   UNL A   1      46.097  29.941  28.901  1.00  0.00     0.037 A 
ATOM     56  C   UNL A   1      43.926  23.389  28.538  1.00  0.00     0.049 A 
ATOM     57  C   UNL A   1      46.707  28.581  28.905  1.00  0.00     0.074 A 
ATOM     58  C   UNL A   1      43.440  22.990  29.768  1.00  0.00     0.029 A 
ATOM     59  N   UNL A   1      45.150  23.966  28.785  1.00  0.00    -0.354 N 
ATOM     60  N   UNL A   1      46.804  27.842  29.978  1.00  0.00    -0.248 NA
ATOM     61  C   UNL A   1      46.723  27.851  27.644  1.00  0.00     0.031 C 
ATOM     62  C   UNL A   1      44.179  23.745  30.725  1.00  0.00     0.029 A 
ATOM     63  C   UNL A   1      45.123  24.510  30.040  1.00  0.00     0.049 A 
ATOM     64  H   UNL A   1      45.914  23.983  28.164  1.00  0.00     0.167 HD
ATOM     65  C   UNL A   1      46.462  26.562  29.561  1.00  0.00     0.074 A 
ATOM     66  C   UNL A   1      46.483  26.618  28.100  1.00  0.00     0.031 C 
ATOM     67  C   UNL A   1      45.899  25.667  30.426  1.00  0.00     0.037 A 
BRANCH  54  68
ATOM     68  C   UNL A   1      44.071  23.238  25.957  1.00  0.00     0.057 A 
ATOM     69  C   UNL A   1      44.141  21.874  25.624  1.00  0.00     0.134 A 
ATOM     70  C   UNL A   1      44.947  24.069  25.224  1.00  0.00     0.134 A 
ATOM     71  F   UNL A   1      43.339  20.978  26.220  1.00  0.00    -0.206 F 
ATOM     72  C   UNL A   1      45.100  21.362  24.743  1.00  0.00     0.040 A 
ATOM     73  C   UNL A   1      45.878  23.573  24.309  1.00  0.00     0.040 A 
ATOM     74  F   UNL A   1      45.030  25.390  25.391  1.00  0.00    -0.206 F 
ATOM     75  C   UNL A   1      45.988  22.211  24.098  1.00  0.00     0.006 A 
ENDBRANCH  54  68
BRANCH  55  76
ATOM     76  C   UNL A   1      46.776  31.117  28.308  1.00  0.00     0.057 A 
ATOM     77  C   UNL A   1      46.432  31.605  27.040  1.00  0.00     0.134 A 
ATOM     78  C   UNL A   1      47.600  31.953  29.084  1.00  0.00     0.134 A 
ATOM     79  F   UNL A   1      45.605  30.909  26.246  1.00  0.00    -0.206 F 
ATOM     80  C   UNL A   1      46.881  32.849  26.572  1.00  0.00     0.040 A 
ATOM     81  C   UNL A   1      48.058  33.193  28.628  1.00  0.00     0.040 A 
ATOM     82  F   UNL A   1      47.916  31.633  30.347  1.00  0.00    -0.206 F 
ATOM     83  C   UNL A   1      47.691  33.651  27.369  1.00  0.00     0.006 A 
ENDBRANCH  55  76
BRANCH  67  84
ATOM     84  C   UNL A   1      45.881  26.019  31.887  1.00  0.00     0.057 A 
ATOM     85  C   UNL A   1      46.976  25.846  32.749  1.00  0.00     0.134 A 
ATOM     86  C   UNL A   1      44.785  26.727  32.389  1.00  0.00     0.134 A 
ATOM     87  F   UNL A   1      48.104  25.264  32.323  1.00  0.00    -0.206 F 
ATOM     88  C   UNL A   1      46.965  26.334  34.059  1.00  0.00     0.040 A 
ATOM     89  C   UNL A   1      44.774  27.247  33.684  1.00  0.00     0.040 A 
ATOM     90  F   UNL A   1      43.727  26.978  31.601  1.00  0.00    -0.206 F 
ATOM     91  C   UNL A   1      45.865  27.045  34.527  1.00  0.00     0.006 A 
ENDBRANCH  67  84
ENDBRANCH  41  42
ENDBRANCH  34  36
ENDBRANCH  33  34
ENDBRANCH  32  33
ENDBRANCH  31  32
ENDBRANCH  30  31
ENDBRANCH   1  30
TORSDOF 18
ENDMDL
