MODEL 1
REMARK VINA RESULT:     -11.3      0.000      0.000
REMARK SMILES CC(=O)Nc1nc(C[N@@H+]2CCO[C@@H](CC(=O)OCCOCCOC(=O)c3ccc(-c4c5nc(c(-c6c(F)cccc6F)c6ccc([nH]6)c(-c6c(F)cccc6F)c6nc(c(-c7c(F)cccc7F)c7ccc4[nH]7)C=C6)C=C5)cc3)C2)cs1
REMARK SMILES IDX 19 1 18 2 17 3 15 4 16 5 14 6 13 7 9 8 10 9 80 10 11 12
REMARK SMILES IDX 12 13 8 14 7 15 5 16 6 17 82 18 81 19 4 20 1 21 2 22 3 23
REMARK SMILES IDX 20 25 21 26 22 27 23 28 24 29 25 30 26 31 27 32 79 33 28 34
REMARK SMILES IDX 78 35 29 36 30 37 31 38 72 39 32 40 77 41 71 42 73 43 33 44
REMARK SMILES IDX 76 45 70 46 69 47 34 49 60 50 43 51 59 52 44 53 47 54 58 55
REMARK SMILES IDX 74 56 45 57 46 58 57 60 75 61 48 62 35 63 36 64 41 65 37 66
REMARK SMILES IDX 38 67 40 68 42 69 39 70 61 71 62 72 67 73 63 74 64 75 66 76
REMARK SMILES IDX 68 77 65 78 49 79 50 80 55 81 51 82 52 83 54 84 56 85 53 86
REMARK H PARENT 9 11 4 24 73 48 47 59
REMARK Flexibility Score: inf
ROOT
ATOM      1  C   UNL A   1      40.625  20.741  26.622  1.00  0.00     0.202 C 
ENDROOT
BRANCH   1   2
ATOM      2  C   UNL A   1      39.569  21.727  26.116  1.00  0.00     0.261 C 
BRANCH   2   3
ATOM      3  O   UNL A   1      38.428  21.120  25.474  1.00  0.00    -0.463 OA
BRANCH   3   4
ATOM      4  C   UNL A   1      37.502  21.994  24.994  1.00  0.00     0.308 C 
ATOM      5  O   UNL A   1      37.515  22.475  23.867  1.00  0.00    -0.252 OA
BRANCH   4   6
ATOM      6  C   UNL A   1      36.519  22.432  26.041  1.00  0.00     0.160 C 
BRANCH   6   7
ATOM      7  C   UNL A   1      35.028  22.502  25.714  1.00  0.00     0.184 C 
ATOM      8  N   UNL A   1      32.765  21.414  26.212  1.00  0.00    -0.326 N 
ATOM      9  C   UNL A   1      32.395  22.664  26.874  1.00  0.00     0.291 C 
ATOM     10  C   UNL A   1      34.223  21.239  26.113  1.00  0.00     0.295 C 
ATOM     11  H   UNL A   1      32.485  20.675  26.857  1.00  0.00     0.348 HD
ATOM     12  C   UNL A   1      33.197  23.882  26.401  1.00  0.00     0.222 C 
ATOM     13  O   UNL A   1      34.596  23.647  26.491  1.00  0.00    -0.366 OA
BRANCH   8  14
ATOM     14  C   UNL A   1      31.924  20.968  25.100  1.00  0.00     0.320 C 
BRANCH  14  15
ATOM     15  C   UNL A   1      32.211  19.593  24.567  1.00  0.00     0.108 A 
ATOM     16  C   UNL A   1      32.425  17.408  24.797  1.00  0.00     0.189 A 
ATOM     17  N   UNL A   1      32.030  18.496  25.403  1.00  0.00    -0.219 NA
ATOM     18  S   UNL A   1      32.974  17.583  23.198  1.00  0.00    -0.105 S 
ATOM     19  C   UNL A   1      32.541  19.243  23.267  1.00  0.00     0.098 A 
BRANCH  16  20
ATOM     20  N   UNL A   1      32.510  16.146  25.300  1.00  0.00    -0.302 N 
ATOM     21  C   UNL A   1      34.983  16.042  25.247  1.00  0.00     0.114 C 
ATOM     22  C   UNL A   1      33.631  15.374  25.295  1.00  0.00     0.223 C 
ATOM     23  O   UNL A   1      33.526  14.154  25.439  1.00  0.00    -0.275 OA
ATOM     24  H   UNL A   1      31.695  15.760  25.697  1.00  0.00     0.172 HD
ENDBRANCH  16  20
ENDBRANCH  14  15
ENDBRANCH   8  14
ENDBRANCH   6   7
ENDBRANCH   4   6
ENDBRANCH   3   4
ENDBRANCH   2   3
ENDBRANCH   1   2
BRANCH   1  25
ATOM     25  O   UNL A   1      41.699  20.437  25.739  1.00  0.00    -0.374 OA
BRANCH  25  26
ATOM     26  C   UNL A   1      43.015  20.774  26.163  1.00  0.00     0.202 C 
BRANCH  26  27
ATOM     27  C   UNL A   1      43.802  21.696  25.237  1.00  0.00     0.261 C 
BRANCH  27  28
ATOM     28  O   UNL A   1      43.084  22.889  24.886  1.00  0.00    -0.460 OA
BRANCH  28  29
ATOM     29  C   UNL A   1      43.807  24.025  24.974  1.00  0.00     0.338 C 
ATOM     30  O   UNL A   1      44.811  24.329  24.338  1.00  0.00    -0.246 OA
BRANCH  29  31
ATOM     31  C   UNL A   1      43.151  24.958  25.898  1.00  0.00     0.060 A 
ATOM     32  C   UNL A   1      43.720  26.221  26.089  1.00  0.00     0.016 A 
ATOM     33  C   UNL A   1      42.059  24.544  26.663  1.00  0.00     0.016 A 
ATOM     34  C   UNL A   1      43.212  27.070  27.072  1.00  0.00     0.010 A 
ATOM     35  C   UNL A   1      41.551  25.397  27.649  1.00  0.00     0.010 A 
ATOM     36  C   UNL A   1      42.142  26.651  27.879  1.00  0.00    -0.014 A 
BRANCH  36  37
ATOM     37  C   UNL A   1      41.708  27.489  29.023  1.00  0.00     0.031 A 
ATOM     38  C   UNL A   1      42.427  27.383  30.340  1.00  0.00     0.074 A 
ATOM     39  C   UNL A   1      40.681  28.347  28.885  1.00  0.00     0.049 A 
ATOM     40  N   UNL A   1      42.199  28.017  31.462  1.00  0.00    -0.248 NA
ATOM     41  C   UNL A   1      43.550  26.433  30.403  1.00  0.00     0.031 C 
ATOM     42  C   UNL A   1      39.906  28.546  27.661  1.00  0.00     0.029 A 
ATOM     43  N   UNL A   1      40.107  29.205  29.790  1.00  0.00    -0.354 N 
ATOM     44  C   UNL A   1      43.143  27.542  32.364  1.00  0.00     0.074 A 
ATOM     45  C   UNL A   1      43.932  26.549  31.668  1.00  0.00     0.031 C 
ATOM     46  C   UNL A   1      38.947  29.459  27.896  1.00  0.00     0.029 A 
ATOM     47  C   UNL A   1      39.028  29.892  29.289  1.00  0.00     0.049 A 
ATOM     48  H   UNL A   1      40.437  29.317  30.711  1.00  0.00     0.167 HD
ATOM     49  C   UNL A   1      43.339  27.909  33.653  1.00  0.00     0.037 A 
ATOM     50  C   UNL A   1      38.190  30.757  29.892  1.00  0.00     0.037 A 
ATOM     51  C   UNL A   1      42.566  28.907  34.344  1.00  0.00     0.049 A 
ATOM     52  C   UNL A   1      38.413  31.123  31.335  1.00  0.00     0.074 A 
ATOM     53  C   UNL A   1      42.728  29.383  35.633  1.00  0.00     0.029 A 
ATOM     54  N   UNL A   1      41.479  29.577  33.804  1.00  0.00    -0.354 N 
ATOM     55  N   UNL A   1      39.348  30.713  32.157  1.00  0.00    -0.248 NA
ATOM     56  C   UNL A   1      37.466  32.077  31.932  1.00  0.00     0.031 C 
ATOM     57  C   UNL A   1      41.712  30.310  35.889  1.00  0.00     0.029 A 
ATOM     58  C   UNL A   1      40.944  30.440  34.744  1.00  0.00     0.049 A 
ATOM     59  H   UNL A   1      41.140  29.456  32.888  1.00  0.00     0.167 HD
ATOM     60  C   UNL A   1      39.117  31.374  33.357  1.00  0.00     0.074 A 
ATOM     61  C   UNL A   1      37.963  32.224  33.152  1.00  0.00     0.031 C 
ATOM     62  C   UNL A   1      39.799  31.285  34.524  1.00  0.00     0.037 A 
BRANCH  49  63
ATOM     63  C   UNL A   1      44.433  27.222  34.415  1.00  0.00     0.057 A 
ATOM     64  C   UNL A   1      45.739  27.725  34.446  1.00  0.00     0.134 A 
ATOM     65  C   UNL A   1      44.158  26.082  35.181  1.00  0.00     0.134 A 
ATOM     66  F   UNL A   1      46.066  28.809  33.728  1.00  0.00    -0.206 F 
ATOM     67  C   UNL A   1      46.736  27.112  35.206  1.00  0.00     0.040 A 
ATOM     68  C   UNL A   1      45.143  25.471  35.960  1.00  0.00     0.040 A 
ATOM     69  F   UNL A   1      42.925  25.553  35.197  1.00  0.00    -0.206 F 
ATOM     70  C   UNL A   1      46.437  25.986  35.972  1.00  0.00     0.006 A 
ENDBRANCH  49  63
BRANCH  50  71
ATOM     71  C   UNL A   1      37.047  31.332  29.140  1.00  0.00     0.057 A 
ATOM     72  C   UNL A   1      37.076  32.646  28.662  1.00  0.00     0.134 A 
ATOM     73  C   UNL A   1      35.883  30.587  28.914  1.00  0.00     0.134 A 
ATOM     74  F   UNL A   1      38.154  33.417  28.870  1.00  0.00    -0.206 F 
ATOM     75  C   UNL A   1      35.980  33.208  28.004  1.00  0.00     0.040 A 
ATOM     76  C   UNL A   1      34.789  31.129  28.237  1.00  0.00     0.040 A 
ATOM     77  F   UNL A   1      35.793  29.321  29.347  1.00  0.00    -0.206 F 
ATOM     78  C   UNL A   1      34.833  32.446  27.788  1.00  0.00     0.006 A 
ENDBRANCH  50  71
BRANCH  62  79
ATOM     79  C   UNL A   1      39.332  32.144  35.661  1.00  0.00     0.057 A 
ATOM     80  C   UNL A   1      39.775  33.463  35.819  1.00  0.00     0.134 A 
ATOM     81  C   UNL A   1      38.397  31.659  36.585  1.00  0.00     0.134 A 
ATOM     82  F   UNL A   1      40.680  33.981  34.974  1.00  0.00    -0.206 F 
ATOM     83  C   UNL A   1      39.318  34.265  36.866  1.00  0.00     0.040 A 
ATOM     84  C   UNL A   1      37.916  32.459  37.622  1.00  0.00     0.040 A 
ATOM     85  F   UNL A   1      37.926  30.407  36.485  1.00  0.00    -0.206 F 
ATOM     86  C   UNL A   1      38.380  33.764  37.767  1.00  0.00     0.006 A 
ENDBRANCH  62  79
ENDBRANCH  36  37
ENDBRANCH  29  31
ENDBRANCH  28  29
ENDBRANCH  27  28
ENDBRANCH  26  27
ENDBRANCH  25  26
ENDBRANCH   1  25
TORSDOF 18
ENDMDL
MODEL 2
REMARK VINA RESULT:     -10.9      1.958      3.519
REMARK SMILES CC(=O)Nc1nc(C[N@@H+]2CCO[C@@H](CC(=O)OCCOCCOC(=O)c3ccc(-c4c5nc(c(-c6c(F)cccc6F)c6ccc([nH]6)c(-c6c(F)cccc6F)c6nc(c(-c7c(F)cccc7F)c7ccc4[nH]7)C=C6)C=C5)cc3)C2)cs1
REMARK SMILES IDX 19 1 18 2 17 3 15 4 16 5 14 6 13 7 9 8 10 9 80 10 11 12
REMARK SMILES IDX 12 13 8 14 7 15 5 16 6 17 82 18 81 19 4 20 1 21 2 22 3 23
REMARK SMILES IDX 20 25 21 26 22 27 23 28 24 29 25 30 26 31 27 32 79 33 28 34
REMARK SMILES IDX 78 35 29 36 30 37 31 38 72 39 32 40 77 41 71 42 73 43 33 44
REMARK SMILES IDX 76 45 70 46 69 47 34 49 60 50 43 51 59 52 44 53 47 54 58 55
REMARK SMILES IDX 74 56 45 57 46 58 57 60 75 61 48 62 35 63 36 64 41 65 37 66
REMARK SMILES IDX 38 67 40 68 42 69 39 70 61 71 62 72 67 73 63 74 64 75 66 76
REMARK SMILES IDX 68 77 65 78 49 79 50 80 55 81 51 82 52 83 54 84 56 85 53 86
REMARK H PARENT 9 11 4 24 73 48 47 59
REMARK Flexibility Score: inf
ROOT
ATOM      1  C   UNL A   1      40.755  20.463  26.511  1.00  0.00     0.202 C 
ENDROOT
BRANCH   1   2
ATOM      2  C   UNL A   1      39.681  21.526  26.267  1.00  0.00     0.261 C 
BRANCH   2   3
ATOM      3  O   UNL A   1      38.614  21.121  25.385  1.00  0.00    -0.463 OA
BRANCH   3   4
ATOM      4  C   UNL A   1      37.531  21.946  25.373  1.00  0.00     0.308 C 
ATOM      5  O   UNL A   1      37.413  22.954  26.061  1.00  0.00    -0.252 OA
BRANCH   4   6
ATOM      6  C   UNL A   1      36.410  21.421  24.523  1.00  0.00     0.160 C 
BRANCH   6   7
ATOM      7  C   UNL A   1      35.008  21.265  25.109  1.00  0.00     0.184 C 
ATOM      8  N   UNL A   1      32.555  21.910  24.761  1.00  0.00    -0.326 N 
ATOM      9  C   UNL A   1      32.300  20.495  24.496  1.00  0.00     0.291 C 
ATOM     10  C   UNL A   1      33.967  22.275  24.563  1.00  0.00     0.295 C 
ATOM     11  H   UNL A   1      32.077  22.415  24.016  1.00  0.00     0.348 HD
ATOM     12  C   UNL A   1      33.340  19.548  25.103  1.00  0.00     0.222 C 
ATOM     13  O   UNL A   1      34.659  19.913  24.719  1.00  0.00    -0.366 OA
BRANCH   8  14
ATOM     14  C   UNL A   1      31.815  22.532  25.861  1.00  0.00     0.320 C 
BRANCH  14  15
ATOM     15  C   UNL A   1      31.394  23.958  25.650  1.00  0.00     0.108 A 
ATOM     16  C   UNL A   1      30.583  25.599  24.415  1.00  0.00     0.189 A 
ATOM     17  N   UNL A   1      30.781  24.307  24.451  1.00  0.00    -0.219 NA
ATOM     18  S   UNL A   1      31.042  26.478  25.795  1.00  0.00    -0.105 S 
ATOM     19  C   UNL A   1      31.436  24.996  26.567  1.00  0.00     0.098 A 
BRANCH  16  20
ATOM     20  N   UNL A   1      30.104  26.350  23.385  1.00  0.00    -0.302 N 
ATOM     21  C   UNL A   1      32.330  26.904  22.451  1.00  0.00     0.114 C 
ATOM     22  C   UNL A   1      30.853  27.175  22.603  1.00  0.00     0.223 C 
ATOM     23  O   UNL A   1      30.296  28.061  21.952  1.00  0.00    -0.275 OA
ATOM     24  H   UNL A   1      29.141  26.293  23.192  1.00  0.00     0.172 HD
ENDBRANCH  16  20
ENDBRANCH  14  15
ENDBRANCH   8  14
ENDBRANCH   6   7
ENDBRANCH   4   6
ENDBRANCH   3   4
ENDBRANCH   2   3
ENDBRANCH   1   2
BRANCH   1  25
ATOM     25  O   UNL A   1      41.798  20.366  25.548  1.00  0.00    -0.374 OA
BRANCH  25  26
ATOM     26  C   UNL A   1      43.127  20.608  25.992  1.00  0.00     0.202 C 
BRANCH  26  27
ATOM     27  C   UNL A   1      43.903  21.680  25.231  1.00  0.00     0.261 C 
BRANCH  27  28
ATOM     28  O   UNL A   1      43.112  22.839  24.927  1.00  0.00    -0.460 OA
BRANCH  28  29
ATOM     29  C   UNL A   1      43.793  24.004  24.951  1.00  0.00     0.338 C 
ATOM     30  O   UNL A   1      44.758  24.326  24.264  1.00  0.00    -0.246 OA
BRANCH  29  31
ATOM     31  C   UNL A   1      43.139  24.939  25.873  1.00  0.00     0.060 A 
ATOM     32  C   UNL A   1      43.702  26.208  26.049  1.00  0.00     0.016 A 
ATOM     33  C   UNL A   1      42.056  24.526  26.649  1.00  0.00     0.016 A 
ATOM     34  C   UNL A   1      43.197  27.061  27.030  1.00  0.00     0.010 A 
ATOM     35  C   UNL A   1      41.550  25.383  27.632  1.00  0.00     0.010 A 
ATOM     36  C   UNL A   1      42.136  26.642  27.848  1.00  0.00    -0.014 A 
BRANCH  36  37
ATOM     37  C   UNL A   1      41.706  27.487  28.990  1.00  0.00     0.031 A 
ATOM     38  C   UNL A   1      42.432  27.390  30.303  1.00  0.00     0.074 A 
ATOM     39  C   UNL A   1      40.677  28.342  28.852  1.00  0.00     0.049 A 
ATOM     40  N   UNL A   1      42.209  28.030  31.423  1.00  0.00    -0.248 NA
ATOM     41  C   UNL A   1      43.557  26.442  30.366  1.00  0.00     0.031 C 
ATOM     42  C   UNL A   1      39.895  28.531  27.630  1.00  0.00     0.029 A 
ATOM     43  N   UNL A   1      40.106  29.204  29.754  1.00  0.00    -0.354 N 
ATOM     44  C   UNL A   1      43.159  27.563  32.323  1.00  0.00     0.074 A 
ATOM     45  C   UNL A   1      43.946  26.567  31.628  1.00  0.00     0.031 C 
ATOM     46  C   UNL A   1      38.935  29.443  27.864  1.00  0.00     0.029 A 
ATOM     47  C   UNL A   1      39.022  29.885  29.255  1.00  0.00     0.049 A 
ATOM     48  H   UNL A   1      40.441  29.322  30.672  1.00  0.00     0.167 HD
ATOM     49  C   UNL A   1      43.361  27.938  33.608  1.00  0.00     0.037 A 
ATOM     50  C   UNL A   1      38.186  30.753  29.856  1.00  0.00     0.037 A 
ATOM     51  C   UNL A   1      42.589  28.939  34.297  1.00  0.00     0.049 A 
ATOM     52  C   UNL A   1      38.415  31.128  31.296  1.00  0.00     0.074 A 
ATOM     53  C   UNL A   1      42.756  29.423  35.582  1.00  0.00     0.029 A 
ATOM     54  N   UNL A   1      41.498  29.603  33.758  1.00  0.00    -0.354 N 
ATOM     55  N   UNL A   1      39.355  30.724  32.116  1.00  0.00    -0.248 NA
ATOM     56  C   UNL A   1      37.470  32.084  31.892  1.00  0.00     0.031 C 
ATOM     57  C   UNL A   1      41.740  30.349  35.837  1.00  0.00     0.029 A 
ATOM     58  C   UNL A   1      40.966  30.471  34.696  1.00  0.00     0.049 A 
ATOM     59  H   UNL A   1      41.154  29.476  32.845  1.00  0.00     0.167 HD
ATOM     60  C   UNL A   1      39.130  31.392  33.313  1.00  0.00     0.074 A 
ATOM     61  C   UNL A   1      37.973  32.239  33.109  1.00  0.00     0.031 C 
ATOM     62  C   UNL A   1      39.818  31.313  34.477  1.00  0.00     0.037 A 
BRANCH  49  63
ATOM     63  C   UNL A   1      44.459  27.258  34.369  1.00  0.00     0.057 A 
ATOM     64  C   UNL A   1      45.719  27.847  34.531  1.00  0.00     0.134 A 
ATOM     65  C   UNL A   1      44.231  26.030  35.003  1.00  0.00     0.134 A 
ATOM     66  F   UNL A   1      46.002  29.018  33.941  1.00  0.00    -0.206 F 
ATOM     67  C   UNL A   1      46.716  27.234  35.290  1.00  0.00     0.040 A 
ATOM     68  C   UNL A   1      45.214  25.417  35.781  1.00  0.00     0.040 A 
ATOM     69  F   UNL A   1      43.043  25.416  34.891  1.00  0.00    -0.206 F 
ATOM     70  C   UNL A   1      46.462  26.019  35.925  1.00  0.00     0.006 A 
ENDBRANCH  49  63
BRANCH  50  71
ATOM     71  C   UNL A   1      37.038  31.321  29.107  1.00  0.00     0.057 A 
ATOM     72  C   UNL A   1      37.053  32.639  28.639  1.00  0.00     0.134 A 
ATOM     73  C   UNL A   1      35.883  30.565  28.873  1.00  0.00     0.134 A 
ATOM     74  F   UNL A   1      38.122  33.420  28.855  1.00  0.00    -0.206 F 
ATOM     75  C   UNL A   1      35.952  33.194  27.984  1.00  0.00     0.040 A 
ATOM     76  C   UNL A   1      34.784  31.099  28.198  1.00  0.00     0.040 A 
ATOM     77  F   UNL A   1      35.807  29.294  29.296  1.00  0.00    -0.206 F 
ATOM     78  C   UNL A   1      34.814  32.420  27.759  1.00  0.00     0.006 A 
ENDBRANCH  50  71
BRANCH  62  79
ATOM     79  C   UNL A   1      39.355  32.177  35.611  1.00  0.00     0.057 A 
ATOM     80  C   UNL A   1      38.485  31.696  36.597  1.00  0.00     0.134 A 
ATOM     81  C   UNL A   1      39.818  33.492  35.741  1.00  0.00     0.134 A 
ATOM     82  F   UNL A   1      37.997  30.448  36.522  1.00  0.00    -0.206 F 
ATOM     83  C   UNL A   1      38.077  32.498  37.664  1.00  0.00     0.040 A 
ATOM     84  C   UNL A   1      39.436  34.297  36.816  1.00  0.00     0.040 A 
ATOM     85  F   UNL A   1      40.660  34.011  34.835  1.00  0.00    -0.206 F 
ATOM     86  C   UNL A   1      38.559  33.801  37.778  1.00  0.00     0.006 A 
ENDBRANCH  62  79
ENDBRANCH  36  37
ENDBRANCH  29  31
ENDBRANCH  28  29
ENDBRANCH  27  28
ENDBRANCH  26  27
ENDBRANCH  25  26
ENDBRANCH   1  25
TORSDOF 18
ENDMDL
MODEL 3
REMARK VINA RESULT:     -10.7      2.569      4.289
REMARK SMILES CC(=O)Nc1nc(C[N@@H+]2CCO[C@@H](CC(=O)OCCOCCOC(=O)c3ccc(-c4c5nc(c(-c6c(F)cccc6F)c6ccc([nH]6)c(-c6c(F)cccc6F)c6nc(c(-c7c(F)cccc7F)c7ccc4[nH]7)C=C6)C=C5)cc3)C2)cs1
REMARK SMILES IDX 19 1 18 2 17 3 15 4 16 5 14 6 13 7 9 8 10 9 80 10 11 12
REMARK SMILES IDX 12 13 8 14 7 15 5 16 6 17 82 18 81 19 4 20 1 21 2 22 3 23
REMARK SMILES IDX 20 25 21 26 22 27 23 28 24 29 25 30 26 31 27 32 79 33 28 34
REMARK SMILES IDX 78 35 29 36 30 37 31 38 72 39 32 40 77 41 71 42 73 43 33 44
REMARK SMILES IDX 76 45 70 46 69 47 34 49 60 50 43 51 59 52 44 53 47 54 58 55
REMARK SMILES IDX 74 56 45 57 46 58 57 60 75 61 48 62 35 63 36 64 41 65 37 66
REMARK SMILES IDX 38 67 40 68 42 69 39 70 61 71 62 72 67 73 63 74 64 75 66 76
REMARK SMILES IDX 68 77 65 78 49 79 50 80 55 81 51 82 52 83 54 84 56 85 53 86
REMARK H PARENT 9 11 4 24 73 48 47 59
REMARK Flexibility Score: inf
ROOT
ATOM      1  C   UNL A   1      40.534  20.476  26.371  1.00  0.00     0.202 C 
ENDROOT
BRANCH   1   2
ATOM      2  C   UNL A   1      39.724  21.775  26.338  1.00  0.00     0.261 C 
BRANCH   2   3
ATOM      3  O   UNL A   1      38.398  21.651  25.783  1.00  0.00    -0.463 OA
BRANCH   3   4
ATOM      4  C   UNL A   1      37.642  22.781  25.837  1.00  0.00     0.308 C 
ATOM      5  O   UNL A   1      38.042  23.871  26.230  1.00  0.00    -0.252 OA
BRANCH   4   6
ATOM      6  C   UNL A   1      36.202  22.533  25.494  1.00  0.00     0.160 C 
BRANCH   6   7
ATOM      7  C   UNL A   1      35.099  23.355  26.160  1.00  0.00     0.184 C 
ATOM      8  N   UNL A   1      33.056  24.818  25.678  1.00  0.00    -0.326 N 
ATOM      9  C   UNL A   1      32.250  23.761  26.285  1.00  0.00     0.291 C 
ATOM     10  C   UNL A   1      34.363  24.332  25.209  1.00  0.00     0.295 C 
ATOM     11  H   UNL A   1      32.573  25.062  24.813  1.00  0.00     0.348 HD
ATOM     12  C   UNL A   1      33.027  22.859  27.250  1.00  0.00     0.222 C 
ATOM     13  O   UNL A   1      34.194  22.328  26.635  1.00  0.00    -0.366 OA
BRANCH   8  14
ATOM     14  C   UNL A   1      32.973  26.153  26.275  1.00  0.00     0.320 C 
BRANCH  14  15
ATOM     15  C   UNL A   1      32.851  27.300  25.313  1.00  0.00     0.108 A 
ATOM     16  C   UNL A   1      31.723  28.929  24.339  1.00  0.00     0.189 A 
ATOM     17  N   UNL A   1      31.679  28.049  25.305  1.00  0.00    -0.219 NA
ATOM     18  S   UNL A   1      33.152  28.979  23.419  1.00  0.00    -0.105 S 
ATOM     19  C   UNL A   1      33.830  27.803  24.470  1.00  0.00     0.098 A 
BRANCH  16  20
ATOM     20  N   UNL A   1      30.744  29.781  23.930  1.00  0.00    -0.302 N 
ATOM     21  C   UNL A   1      29.178  28.004  23.207  1.00  0.00     0.114 C 
ATOM     22  C   UNL A   1      29.665  29.432  23.176  1.00  0.00     0.223 C 
ATOM     23  O   UNL A   1      29.043  30.306  22.569  1.00  0.00    -0.275 OA
ATOM     24  H   UNL A   1      30.823  30.725  24.198  1.00  0.00     0.172 HD
ENDBRANCH  16  20
ENDBRANCH  14  15
ENDBRANCH   8  14
ENDBRANCH   6   7
ENDBRANCH   4   6
ENDBRANCH   3   4
ENDBRANCH   2   3
ENDBRANCH   1   2
BRANCH   1  25
ATOM     25  O   UNL A   1      41.653  20.392  25.494  1.00  0.00    -0.374 OA
BRANCH  25  26
ATOM     26  C   UNL A   1      42.949  20.488  26.071  1.00  0.00     0.202 C 
BRANCH  26  27
ATOM     27  C   UNL A   1      43.852  21.584  25.512  1.00  0.00     0.261 C 
BRANCH  27  28
ATOM     28  O   UNL A   1      43.122  22.707  24.996  1.00  0.00    -0.460 OA
BRANCH  28  29
ATOM     29  C   UNL A   1      43.805  23.871  25.004  1.00  0.00     0.338 C 
ATOM     30  O   UNL A   1      44.766  24.184  24.307  1.00  0.00    -0.246 OA
BRANCH  29  31
ATOM     31  C   UNL A   1      43.160  24.817  25.921  1.00  0.00     0.060 A 
ATOM     32  C   UNL A   1      43.709  26.096  26.058  1.00  0.00     0.016 A 
ATOM     33  C   UNL A   1      42.100  24.405  26.730  1.00  0.00     0.016 A 
ATOM     34  C   UNL A   1      43.214  26.963  27.033  1.00  0.00     0.010 A 
ATOM     35  C   UNL A   1      41.605  25.276  27.706  1.00  0.00     0.010 A 
ATOM     36  C   UNL A   1      42.178  26.547  27.883  1.00  0.00    -0.014 A 
BRANCH  36  37
ATOM     37  C   UNL A   1      41.762  27.410  29.017  1.00  0.00     0.031 A 
ATOM     38  C   UNL A   1      42.502  27.330  30.323  1.00  0.00     0.074 A 
ATOM     39  C   UNL A   1      40.734  28.265  28.877  1.00  0.00     0.049 A 
ATOM     40  N   UNL A   1      42.292  27.988  31.436  1.00  0.00    -0.248 NA
ATOM     41  C   UNL A   1      43.625  26.380  30.389  1.00  0.00     0.031 C 
ATOM     42  C   UNL A   1      39.940  28.439  27.661  1.00  0.00     0.029 A 
ATOM     43  N   UNL A   1      40.175  29.142  29.773  1.00  0.00    -0.354 N 
ATOM     44  C   UNL A   1      43.250  27.531  32.333  1.00  0.00     0.074 A 
ATOM     45  C   UNL A   1      44.027  26.523  31.645  1.00  0.00     0.031 C 
ATOM     46  C   UNL A   1      38.985  29.357  27.892  1.00  0.00     0.029 A 
ATOM     47  C   UNL A   1      39.088  29.819  29.274  1.00  0.00     0.049 A 
ATOM     48  H   UNL A   1      40.519  29.273  30.685  1.00  0.00     0.167 HD
ATOM     49  C   UNL A   1      43.467  27.924  33.610  1.00  0.00     0.037 A 
ATOM     50  C   UNL A   1      38.260  30.697  29.872  1.00  0.00     0.037 A 
ATOM     51  C   UNL A   1      42.705  28.938  34.292  1.00  0.00     0.049 A 
ATOM     52  C   UNL A   1      38.506  31.093  31.304  1.00  0.00     0.074 A 
ATOM     53  C   UNL A   1      42.887  29.440  35.568  1.00  0.00     0.029 A 
ATOM     54  N   UNL A   1      41.610  29.596  33.755  1.00  0.00    -0.354 N 
ATOM     55  N   UNL A   1      39.453  30.699  32.119  1.00  0.00    -0.248 NA
ATOM     56  C   UNL A   1      37.569  32.060  31.895  1.00  0.00     0.031 C 
ATOM     57  C   UNL A   1      41.876  30.373  35.821  1.00  0.00     0.029 A 
ATOM     58  C   UNL A   1      41.090  30.480  34.686  1.00  0.00     0.049 A 
ATOM     59  H   UNL A   1      41.256  29.457  32.848  1.00  0.00     0.167 HD
ATOM     60  C   UNL A   1      39.242  31.386  33.308  1.00  0.00     0.074 A 
ATOM     61  C   UNL A   1      38.085  32.232  33.104  1.00  0.00     0.031 C 
ATOM     62  C   UNL A   1      39.942  31.321  34.466  1.00  0.00     0.037 A 
BRANCH  49  63
ATOM     63  C   UNL A   1      44.572  27.253  34.369  1.00  0.00     0.057 A 
ATOM     64  C   UNL A   1      44.359  26.073  35.091  1.00  0.00     0.134 A 
ATOM     65  C   UNL A   1      45.878  27.757  34.319  1.00  0.00     0.134 A 
ATOM     66  F   UNL A   1      43.129  25.545  35.184  1.00  0.00    -0.206 F 
ATOM     67  C   UNL A   1      45.406  25.422  35.746  1.00  0.00     0.040 A 
ATOM     68  C   UNL A   1      46.936  27.104  34.954  1.00  0.00     0.040 A 
ATOM     69  F   UNL A   1      46.148  28.881  33.639  1.00  0.00    -0.206 F 
ATOM     70  C   UNL A   1      46.701  25.934  35.671  1.00  0.00     0.006 A 
ENDBRANCH  49  63
BRANCH  50  71
ATOM     71  C   UNL A   1      37.105  31.257  29.127  1.00  0.00     0.057 A 
ATOM     72  C   UNL A   1      37.126  32.563  28.624  1.00  0.00     0.134 A 
ATOM     73  C   UNL A   1      35.939  30.507  28.931  1.00  0.00     0.134 A 
ATOM     74  F   UNL A   1      38.205  33.338  28.802  1.00  0.00    -0.206 F 
ATOM     75  C   UNL A   1      36.020  33.111  27.972  1.00  0.00     0.040 A 
ATOM     76  C   UNL A   1      34.835  31.035  28.260  1.00  0.00     0.040 A 
ATOM     77  F   UNL A   1      35.858  29.249  29.388  1.00  0.00    -0.206 F 
ATOM     78  C   UNL A   1      34.871  32.344  27.786  1.00  0.00     0.006 A 
ENDBRANCH  50  71
BRANCH  62  79
ATOM     79  C   UNL A   1      39.494  32.203  35.592  1.00  0.00     0.057 A 
ATOM     80  C   UNL A   1      40.006  33.495  35.765  1.00  0.00     0.134 A 
ATOM     81  C   UNL A   1      38.508  31.772  36.489  1.00  0.00     0.134 A 
ATOM     82  F   UNL A   1      40.961  33.962  34.946  1.00  0.00    -0.206 F 
ATOM     83  C   UNL A   1      39.567  34.321  36.801  1.00  0.00     0.040 A 
ATOM     84  C   UNL A   1      38.044  32.597  37.515  1.00  0.00     0.040 A 
ATOM     85  F   UNL A   1      37.970  30.549  36.373  1.00  0.00    -0.206 F 
ATOM     86  C   UNL A   1      38.578  33.873  37.676  1.00  0.00     0.006 A 
ENDBRANCH  62  79
ENDBRANCH  36  37
ENDBRANCH  29  31
ENDBRANCH  28  29
ENDBRANCH  27  28
ENDBRANCH  26  27
ENDBRANCH  25  26
ENDBRANCH   1  25
TORSDOF 18
ENDMDL
