MODEL 1
REMARK VINA RESULT:     -12.0      0.000      0.000
REMARK SMILES COc1ccc(-c2ccc(C(=O)NCc3ccc(C(=O)OCCOCCOC(=O)c4ccc(-c5c6nc(c(-c7c(F)cccc7F)c7ccc([nH]7)c(-c7c(F)cccc7F)c7nc(c(-c8c(F)cccc8F)c8ccc5[nH]8)C=C7)C=C6)cc4)cc3)o2)c([N+](=O)[O-])c1
REMARK SMILES IDX 22 1 21 2 19 3 20 4 18 5 15 6 16 7 85 8 17 9 84 10 14 11
REMARK SMILES IDX 13 12 11 13 12 14 10 16 7 17 8 18 86 19 9 20 6 21 3 22 4 23
REMARK SMILES IDX 91 24 5 25 87 26 2 27 1 28 88 29 89 30 90 31 23 32 24 33
REMARK SMILES IDX 25 34 26 35 27 36 28 37 29 38 30 39 31 40 83 41 32 42 82 43
REMARK SMILES IDX 33 44 34 45 35 46 76 47 36 48 81 49 75 50 77 51 37 52 80 53
REMARK SMILES IDX 74 54 73 55 38 57 64 58 47 59 63 60 48 61 51 62 62 63 78 64
REMARK SMILES IDX 49 65 50 66 61 68 79 69 52 70 39 71 40 72 45 73 41 74 42 75
REMARK SMILES IDX 44 76 46 77 43 78 65 79 66 80 71 81 67 82 68 83 70 84 72 85
REMARK SMILES IDX 69 86 53 87 54 88 59 89 55 90 56 91 58 92 60 93 57 94
REMARK H PARENT 13 15 77 56 51 67
REMARK Flexibility Score: inf
ROOT
ATOM      1  C   UNL A   1      41.172  20.044  27.203  1.00  0.00     0.261 C 
ENDROOT
BRANCH   1   2
ATOM      2  O   UNL A   1      40.303  20.648  26.229  1.00  0.00    -0.460 OA
BRANCH   2   3
ATOM      3  C   UNL A   1      39.652  21.753  26.658  1.00  0.00     0.338 C 
ATOM      4  O   UNL A   1      40.038  22.550  27.502  1.00  0.00    -0.246 OA
BRANCH   3   5
ATOM      5  C   UNL A   1      38.436  21.985  25.845  1.00  0.00     0.060 A 
ATOM      6  C   UNL A   1      36.087  22.570  24.413  1.00  0.00    -0.029 A 
ATOM      7  C   UNL A   1      36.713  23.550  25.193  1.00  0.00     0.006 A 
ATOM      8  C   UNL A   1      36.673  21.294  24.338  1.00  0.00     0.006 A 
ATOM      9  C   UNL A   1      37.875  23.262  25.903  1.00  0.00     0.016 A 
ATOM     10  C   UNL A   1      37.848  21.002  25.043  1.00  0.00     0.016 A 
BRANCH   6  11
ATOM     11  C   UNL A   1      34.763  22.852  23.744  1.00  0.00     0.152 C 
BRANCH  11  12
ATOM     12  N   UNL A   1      33.749  21.953  24.246  1.00  0.00    -0.345 N 
ATOM     13  C   UNL A   1      32.578  22.139  24.938  1.00  0.00     0.287 C 
ATOM     14  O   UNL A   1      31.943  21.103  25.165  1.00  0.00    -0.266 OA
ATOM     15  H   UNL A   1      33.937  21.007  24.049  1.00  0.00     0.164 HD
BRANCH  13  16
ATOM     16  C   UNL A   1      32.114  23.446  25.370  1.00  0.00     0.192 A 
ATOM     17  C   UNL A   1      31.229  25.439  24.950  1.00  0.00     0.142 A 
ATOM     18  C   UNL A   1      31.453  25.401  26.304  1.00  0.00     0.052 A 
ATOM     19  O   UNL A   1      31.584  24.256  24.383  1.00  0.00    -0.451 OA
ATOM     20  C   UNL A   1      32.036  24.137  26.567  1.00  0.00     0.057 A 
BRANCH  17  21
ATOM     21  C   UNL A   1      30.729  26.458  24.047  1.00  0.00     0.095 A 
ATOM     22  C   UNL A   1      29.671  28.564  22.482  1.00  0.00     0.125 A 
ATOM     23  C   UNL A   1      28.828  27.745  23.236  1.00  0.00     0.047 A 
ATOM     24  C   UNL A   1      31.043  28.335  22.496  1.00  0.00     0.132 A 
ATOM     25  C   UNL A   1      29.348  26.694  24.000  1.00  0.00     0.023 A 
ATOM     26  C   UNL A   1      31.561  27.284  23.274  1.00  0.00     0.284 A 
BRANCH  22  27
ATOM     27  O   UNL A   1      29.044  29.578  21.811  1.00  0.00    -0.497 OA
ATOM     28  C   UNL A   1      28.030  30.273  22.530  1.00  0.00     0.278 C 
ENDBRANCH  22  27
BRANCH  26  29
ATOM     29  N   UNL A   1      33.010  27.092  23.251  1.00  0.00     0.063 N 
ATOM     30  O   UNL A   1      33.682  27.574  24.172  1.00  0.00    -0.258 OA
ATOM     31  O   UNL A   1      33.471  26.421  22.317  1.00  0.00    -0.258 OA
ENDBRANCH  26  29
ENDBRANCH  17  21
ENDBRANCH  13  16
ENDBRANCH  11  12
ENDBRANCH   6  11
ENDBRANCH   3   5
ENDBRANCH   2   3
ENDBRANCH   1   2
BRANCH   1  32
ATOM     32  C   UNL A   1      42.403  19.434  26.530  1.00  0.00     0.202 C 
BRANCH  32  33
ATOM     33  O   UNL A   1      42.814  20.054  25.311  1.00  0.00    -0.374 OA
BRANCH  33  34
ATOM     34  C   UNL A   1      44.179  20.469  25.226  1.00  0.00     0.202 C 
BRANCH  34  35
ATOM     35  C   UNL A   1      44.409  21.906  24.738  1.00  0.00     0.261 C 
BRANCH  35  36
ATOM     36  O   UNL A   1      43.852  22.870  25.651  1.00  0.00    -0.460 OA
BRANCH  36  37
ATOM     37  C   UNL A   1      44.301  24.136  25.490  1.00  0.00     0.338 C 
ATOM     38  O   UNL A   1      45.090  24.544  24.648  1.00  0.00    -0.246 OA
BRANCH  37  39
ATOM     39  C   UNL A   1      43.560  25.046  26.382  1.00  0.00     0.060 A 
ATOM     40  C   UNL A   1      44.051  26.349  26.530  1.00  0.00     0.016 A 
ATOM     41  C   UNL A   1      42.443  24.621  27.106  1.00  0.00     0.016 A 
ATOM     42  C   UNL A   1      43.456  27.221  27.439  1.00  0.00     0.010 A 
ATOM     43  C   UNL A   1      41.852  25.495  28.025  1.00  0.00     0.010 A 
ATOM     44  C   UNL A   1      42.377  26.786  28.219  1.00  0.00    -0.014 A 
BRANCH  44  45
ATOM     45  C   UNL A   1      41.891  27.636  29.333  1.00  0.00     0.031 A 
ATOM     46  C   UNL A   1      42.596  27.576  30.659  1.00  0.00     0.074 A 
ATOM     47  C   UNL A   1      40.849  28.469  29.159  1.00  0.00     0.049 A 
ATOM     48  N   UNL A   1      42.323  28.204  31.775  1.00  0.00    -0.248 NA
ATOM     49  C   UNL A   1      43.768  26.689  30.738  1.00  0.00     0.031 C 
ATOM     50  C   UNL A   1      40.107  28.645  27.912  1.00  0.00     0.029 A 
ATOM     51  N   UNL A   1      40.235  29.321  30.042  1.00  0.00    -0.354 N 
ATOM     52  C   UNL A   1      43.282  27.785  32.687  1.00  0.00     0.074 A 
ATOM     53  C   UNL A   1      44.127  26.828  32.006  1.00  0.00     0.031 C 
ATOM     54  C   UNL A   1      39.128  29.544  28.113  1.00  0.00     0.029 A 
ATOM     55  C   UNL A   1      39.157  29.982  29.507  1.00  0.00     0.049 A 
ATOM     56  H   UNL A   1      40.538  29.445  30.971  1.00  0.00     0.167 HD
ATOM     57  C   UNL A   1      43.451  28.171  33.974  1.00  0.00     0.037 A 
ATOM     58  C   UNL A   1      38.283  30.828  30.085  1.00  0.00     0.037 A 
ATOM     59  C   UNL A   1      42.613  29.125  34.652  1.00  0.00     0.049 A 
ATOM     60  C   UNL A   1      38.449  31.188  31.538  1.00  0.00     0.074 A 
ATOM     61  C   UNL A   1      42.715  29.594  35.950  1.00  0.00     0.029 A 
ATOM     62  N   UNL A   1      41.511  29.748  34.086  1.00  0.00    -0.354 N 
ATOM     63  N   UNL A   1      39.373  30.805  32.385  1.00  0.00    -0.248 NA
ATOM     64  C   UNL A   1      37.449  32.099  32.113  1.00  0.00     0.031 C 
ATOM     65  C   UNL A   1      41.647  30.468  36.184  1.00  0.00     0.029 A 
ATOM     66  C   UNL A   1      40.909  30.580  35.016  1.00  0.00     0.049 A 
ATOM     67  H   UNL A   1      41.202  29.619  33.160  1.00  0.00     0.167 HD
ATOM     68  C   UNL A   1      39.083  31.449  33.582  1.00  0.00     0.074 A 
ATOM     69  C   UNL A   1      37.904  32.255  33.349  1.00  0.00     0.031 C 
ATOM     70  C   UNL A   1      39.738  31.381  34.768  1.00  0.00     0.037 A 
BRANCH  57  71
ATOM     71  C   UNL A   1      44.577  27.541  34.742  1.00  0.00     0.057 A 
ATOM     72  C   UNL A   1      44.383  26.409  35.541  1.00  0.00     0.134 A 
ATOM     73  C   UNL A   1      45.875  28.059  34.657  1.00  0.00     0.134 A 
ATOM     74  F   UNL A   1      43.160  25.873  35.678  1.00  0.00    -0.206 F 
ATOM     75  C   UNL A   1      45.437  25.825  36.247  1.00  0.00     0.040 A 
ATOM     76  C   UNL A   1      46.942  27.470  35.338  1.00  0.00     0.040 A 
ATOM     77  F   UNL A   1      46.129  29.141  33.905  1.00  0.00    -0.206 F 
ATOM     78  C   UNL A   1      46.722  26.353  36.141  1.00  0.00     0.006 A 
ENDBRANCH  57  71
BRANCH  58  79
ATOM     79  C   UNL A   1      37.160  31.389  29.293  1.00  0.00     0.057 A 
ATOM     80  C   UNL A   1      37.203  32.698  28.799  1.00  0.00     0.134 A 
ATOM     81  C   UNL A   1      36.009  30.638  29.029  1.00  0.00     0.134 A 
ATOM     82  F   UNL A   1      38.268  33.475  29.041  1.00  0.00    -0.206 F 
ATOM     83  C   UNL A   1      36.135  33.245  28.085  1.00  0.00     0.040 A 
ATOM     84  C   UNL A   1      34.944  31.163  28.296  1.00  0.00     0.040 A 
ATOM     85  F   UNL A   1      35.907  29.376  29.475  1.00  0.00    -0.206 F 
ATOM     86  C   UNL A   1      35.003  32.474  27.827  1.00  0.00     0.006 A 
ENDBRANCH  58  79
BRANCH  70  87
ATOM     87  C   UNL A   1      39.215  32.226  35.893  1.00  0.00     0.057 A 
ATOM     88  C   UNL A   1      39.620  33.554  36.070  1.00  0.00     0.134 A 
ATOM     89  C   UNL A   1      38.262  31.715  36.783  1.00  0.00     0.134 A 
ATOM     90  F   UNL A   1      40.538  34.100  35.259  1.00  0.00    -0.206 F 
ATOM     91  C   UNL A   1      39.111  34.338  37.108  1.00  0.00     0.040 A 
ATOM     92  C   UNL A   1      37.729  32.496  37.808  1.00  0.00     0.040 A 
ATOM     93  F   UNL A   1      37.825  30.452  36.662  1.00  0.00    -0.206 F 
ATOM     94  C   UNL A   1      38.157  33.811  37.976  1.00  0.00     0.006 A 
ENDBRANCH  70  87
ENDBRANCH  44  45
ENDBRANCH  37  39
ENDBRANCH  36  37
ENDBRANCH  35  36
ENDBRANCH  34  35
ENDBRANCH  33  34
ENDBRANCH  32  33
ENDBRANCH   1  32
TORSDOF 20
ENDMDL
MODEL 2
REMARK VINA RESULT:     -11.6      1.048      5.946
REMARK SMILES COc1ccc(-c2ccc(C(=O)NCc3ccc(C(=O)OCCOCCOC(=O)c4ccc(-c5c6nc(c(-c7c(F)cccc7F)c7ccc([nH]7)c(-c7c(F)cccc7F)c7nc(c(-c8c(F)cccc8F)c8ccc5[nH]8)C=C7)C=C6)cc4)cc3)o2)c([N+](=O)[O-])c1
REMARK SMILES IDX 22 1 21 2 19 3 20 4 18 5 15 6 16 7 85 8 17 9 84 10 14 11
REMARK SMILES IDX 13 12 11 13 12 14 10 16 7 17 8 18 86 19 9 20 6 21 3 22 4 23
REMARK SMILES IDX 91 24 5 25 87 26 2 27 1 28 88 29 89 30 90 31 23 32 24 33
REMARK SMILES IDX 25 34 26 35 27 36 28 37 29 38 30 39 31 40 83 41 32 42 82 43
REMARK SMILES IDX 33 44 34 45 35 46 76 47 36 48 81 49 75 50 77 51 37 52 80 53
REMARK SMILES IDX 74 54 73 55 38 57 64 58 47 59 63 60 48 61 51 62 62 63 78 64
REMARK SMILES IDX 49 65 50 66 61 68 79 69 52 70 39 71 40 72 45 73 41 74 42 75
REMARK SMILES IDX 44 76 46 77 43 78 65 79 66 80 71 81 67 82 68 83 70 84 72 85
REMARK SMILES IDX 69 86 53 87 54 88 59 89 55 90 56 91 58 92 60 93 57 94
REMARK H PARENT 13 15 77 56 51 67
REMARK Flexibility Score: inf
ROOT
ATOM      1  C   UNL A   1      43.340  19.357  25.714  1.00  0.00     0.261 C 
ENDROOT
BRANCH   1   2
ATOM      2  O   UNL A   1      42.267  20.256  25.388  1.00  0.00    -0.460 OA
BRANCH   2   3
ATOM      3  C   UNL A   1      41.553  20.696  26.450  1.00  0.00     0.338 C 
ATOM      4  O   UNL A   1      41.993  21.024  27.543  1.00  0.00    -0.246 OA
BRANCH   3   5
ATOM      5  C   UNL A   1      40.135  20.892  26.073  1.00  0.00     0.060 A 
ATOM      6  C   UNL A   1      37.459  21.122  25.239  1.00  0.00    -0.029 A 
ATOM      7  C   UNL A   1      38.156  19.918  25.082  1.00  0.00     0.006 A 
ATOM      8  C   UNL A   1      38.114  22.205  25.848  1.00  0.00     0.006 A 
ATOM      9  C   UNL A   1      39.481  19.803  25.493  1.00  0.00     0.016 A 
ATOM     10  C   UNL A   1      39.444  22.091  26.274  1.00  0.00     0.016 A 
BRANCH   6  11
ATOM     11  C   UNL A   1      36.064  21.277  24.681  1.00  0.00     0.152 C 
BRANCH  11  12
ATOM     12  N   UNL A   1      35.101  21.343  25.757  1.00  0.00    -0.345 N 
ATOM     13  C   UNL A   1      33.759  21.630  25.808  1.00  0.00     0.287 C 
ATOM     14  O   UNL A   1      33.258  21.549  26.935  1.00  0.00    -0.266 OA
ATOM     15  H   UNL A   1      35.488  21.139  26.638  1.00  0.00     0.164 HD
BRANCH  13  16
ATOM     16  C   UNL A   1      32.982  21.996  24.636  1.00  0.00     0.192 A 
ATOM     17  C   UNL A   1      31.836  23.474  23.440  1.00  0.00     0.142 A 
ATOM     18  C   UNL A   1      31.818  22.306  22.719  1.00  0.00     0.052 A 
ATOM     19  O   UNL A   1      32.565  23.313  24.575  1.00  0.00    -0.451 OA
ATOM     20  C   UNL A   1      32.533  21.359  23.493  1.00  0.00     0.057 A 
BRANCH  17  21
ATOM     21  C   UNL A   1      31.236  24.780  23.243  1.00  0.00     0.095 A 
ATOM     22  C   UNL A   1      30.109  27.371  23.093  1.00  0.00     0.125 A 
ATOM     23  C   UNL A   1      29.524  26.385  23.890  1.00  0.00     0.047 A 
ATOM     24  C   UNL A   1      31.253  27.071  22.360  1.00  0.00     0.132 A 
ATOM     25  C   UNL A   1      30.071  25.099  23.955  1.00  0.00     0.023 A 
ATOM     26  C   UNL A   1      31.805  25.780  22.437  1.00  0.00     0.284 A 
BRANCH  22  27
ATOM     27  O   UNL A   1      29.501  28.595  23.147  1.00  0.00    -0.497 OA
ATOM     28  C   UNL A   1      30.257  29.693  22.645  1.00  0.00     0.278 C 
ENDBRANCH  22  27
BRANCH  26  29
ATOM     29  N   UNL A   1      33.008  25.524  21.647  1.00  0.00     0.063 N 
ATOM     30  O   UNL A   1      34.098  25.483  22.231  1.00  0.00    -0.258 OA
ATOM     31  O   UNL A   1      32.849  25.328  20.434  1.00  0.00    -0.258 OA
ENDBRANCH  26  29
ENDBRANCH  17  21
ENDBRANCH  13  16
ENDBRANCH  11  12
ENDBRANCH   6  11
ENDBRANCH   3   5
ENDBRANCH   2   3
ENDBRANCH   1   2
BRANCH   1  32
ATOM     32  C   UNL A   1      44.560  19.621  24.829  1.00  0.00     0.202 C 
BRANCH  32  33
ATOM     33  O   UNL A   1      45.626  20.345  25.444  1.00  0.00    -0.374 OA
BRANCH  33  34
ATOM     34  C   UNL A   1      45.423  21.745  25.647  1.00  0.00     0.202 C 
BRANCH  34  35
ATOM     35  C   UNL A   1      44.630  22.469  24.551  1.00  0.00     0.261 C 
BRANCH  35  36
ATOM     36  O   UNL A   1      43.766  23.480  25.103  1.00  0.00    -0.460 OA
BRANCH  36  37
ATOM     37  C   UNL A   1      44.343  24.691  25.279  1.00  0.00     0.338 C 
ATOM     38  O   UNL A   1      45.252  25.184  24.625  1.00  0.00    -0.246 OA
BRANCH  37  39
ATOM     39  C   UNL A   1      43.595  25.458  26.292  1.00  0.00     0.060 A 
ATOM     40  C   UNL A   1      43.910  26.814  26.440  1.00  0.00     0.016 A 
ATOM     41  C   UNL A   1      42.648  24.854  27.124  1.00  0.00     0.016 A 
ATOM     42  C   UNL A   1      43.313  27.565  27.451  1.00  0.00     0.010 A 
ATOM     43  C   UNL A   1      42.057  25.606  28.145  1.00  0.00     0.010 A 
ATOM     44  C   UNL A   1      42.411  26.955  28.333  1.00  0.00    -0.014 A 
BRANCH  44  45
ATOM     45  C   UNL A   1      41.950  27.693  29.533  1.00  0.00     0.031 A 
ATOM     46  C   UNL A   1      40.736  28.574  29.426  1.00  0.00     0.074 A 
ATOM     47  C   UNL A   1      42.589  27.563  30.709  1.00  0.00     0.049 A 
ATOM     48  N   UNL A   1      40.178  29.333  30.335  1.00  0.00    -0.248 NA
ATOM     49  C   UNL A   1      40.060  28.601  28.120  1.00  0.00     0.031 C 
ATOM     50  C   UNL A   1      43.753  26.713  30.949  1.00  0.00     0.029 A 
ATOM     51  N   UNL A   1      42.345  28.154  31.924  1.00  0.00    -0.354 N 
ATOM     52  C   UNL A   1      39.091  29.931  29.711  1.00  0.00     0.074 A 
ATOM     53  C   UNL A   1      39.085  29.471  28.339  1.00  0.00     0.031 C 
ATOM     54  C   UNL A   1      44.131  26.845  32.233  1.00  0.00     0.029 A 
ATOM     55  C   UNL A   1      43.253  27.809  32.893  1.00  0.00     0.049 A 
ATOM     56  H   UNL A   1      41.592  28.768  32.083  1.00  0.00     0.167 HD
ATOM     57  C   UNL A   1      38.175  30.778  30.235  1.00  0.00     0.037 A 
ATOM     58  C   UNL A   1      43.374  28.241  34.164  1.00  0.00     0.037 A 
ATOM     59  C   UNL A   1      38.180  31.235  31.600  1.00  0.00     0.049 A 
ATOM     60  C   UNL A   1      42.384  29.239  34.705  1.00  0.00     0.074 A 
ATOM     61  C   UNL A   1      37.284  32.080  32.231  1.00  0.00     0.029 A 
ATOM     62  N   UNL A   1      39.136  30.889  32.544  1.00  0.00    -0.354 N 
ATOM     63  N   UNL A   1      41.347  29.780  34.113  1.00  0.00    -0.248 NA
ATOM     64  C   UNL A   1      42.584  29.685  36.091  1.00  0.00     0.031 C 
ATOM     65  C   UNL A   1      37.724  32.282  33.544  1.00  0.00     0.029 A 
ATOM     66  C   UNL A   1      38.865  31.523  33.745  1.00  0.00     0.049 A 
ATOM     67  H   UNL A   1      39.895  30.282  32.384  1.00  0.00     0.167 HD
ATOM     68  C   UNL A   1      40.755  30.606  35.061  1.00  0.00     0.074 A 
ATOM     69  C   UNL A   1      41.543  30.487  36.270  1.00  0.00     0.031 C 
ATOM     70  C   UNL A   1      39.655  31.391  34.942  1.00  0.00     0.037 A 
BRANCH  57  71
ATOM     71  C   UNL A   1      37.101  31.287  29.319  1.00  0.00     0.057 A 
ATOM     72  C   UNL A   1      35.971  30.522  29.008  1.00  0.00     0.134 A 
ATOM     73  C   UNL A   1      37.185  32.570  28.765  1.00  0.00     0.134 A 
ATOM     74  F   UNL A   1      35.836  29.278  29.494  1.00  0.00    -0.206 F 
ATOM     75  C   UNL A   1      34.972  31.005  28.160  1.00  0.00     0.040 A 
ATOM     76  C   UNL A   1      36.182  33.075  27.935  1.00  0.00     0.040 A 
ATOM     77  F   UNL A   1      38.240  33.357  29.026  1.00  0.00    -0.206 F 
ATOM     78  C   UNL A   1      35.075  32.288  27.627  1.00  0.00     0.006 A 
ENDBRANCH  57  71
BRANCH  58  79
ATOM     79  C   UNL A   1      44.481  27.740  35.015  1.00  0.00     0.057 A 
ATOM     80  C   UNL A   1      45.730  28.373  35.029  1.00  0.00     0.134 A 
ATOM     81  C   UNL A   1      44.325  26.605  35.820  1.00  0.00     0.134 A 
ATOM     82  F   UNL A   1      45.948  29.450  34.260  1.00  0.00    -0.206 F 
ATOM     83  C   UNL A   1      46.788  27.887  35.799  1.00  0.00     0.040 A 
ATOM     84  C   UNL A   1      45.366  26.122  36.614  1.00  0.00     0.040 A 
ATOM     85  F   UNL A   1      43.153  25.954  35.851  1.00  0.00    -0.206 F 
ATOM     86  C   UNL A   1      46.605  26.760  36.599  1.00  0.00     0.006 A 
ENDBRANCH  58  79
BRANCH  70  87
ATOM     87  C   UNL A   1      39.219  32.154  36.159  1.00  0.00     0.057 A 
ATOM     88  C   UNL A   1      39.726  33.425  36.455  1.00  0.00     0.134 A 
ATOM     89  C   UNL A   1      38.248  31.627  37.020  1.00  0.00     0.134 A 
ATOM     90  F   UNL A   1      40.667  33.981  35.677  1.00  0.00    -0.206 F 
ATOM     91  C   UNL A   1      39.298  34.136  37.578  1.00  0.00     0.040 A 
ATOM     92  C   UNL A   1      37.795  32.338  38.131  1.00  0.00     0.040 A 
ATOM     93  F   UNL A   1      37.715  30.418  36.787  1.00  0.00    -0.206 F 
ATOM     94  C   UNL A   1      38.324  33.595  38.416  1.00  0.00     0.006 A 
ENDBRANCH  70  87
ENDBRANCH  44  45
ENDBRANCH  37  39
ENDBRANCH  36  37
ENDBRANCH  35  36
ENDBRANCH  34  35
ENDBRANCH  33  34
ENDBRANCH  32  33
ENDBRANCH   1  32
TORSDOF 20
ENDMDL
MODEL 3
REMARK VINA RESULT:     -11.4      1.423      6.183
REMARK SMILES COc1ccc(-c2ccc(C(=O)NCc3ccc(C(=O)OCCOCCOC(=O)c4ccc(-c5c6nc(c(-c7c(F)cccc7F)c7ccc([nH]7)c(-c7c(F)cccc7F)c7nc(c(-c8c(F)cccc8F)c8ccc5[nH]8)C=C7)C=C6)cc4)cc3)o2)c([N+](=O)[O-])c1
REMARK SMILES IDX 22 1 21 2 19 3 20 4 18 5 15 6 16 7 85 8 17 9 84 10 14 11
REMARK SMILES IDX 13 12 11 13 12 14 10 16 7 17 8 18 86 19 9 20 6 21 3 22 4 23
REMARK SMILES IDX 91 24 5 25 87 26 2 27 1 28 88 29 89 30 90 31 23 32 24 33
REMARK SMILES IDX 25 34 26 35 27 36 28 37 29 38 30 39 31 40 83 41 32 42 82 43
REMARK SMILES IDX 33 44 34 45 35 46 76 47 36 48 81 49 75 50 77 51 37 52 80 53
REMARK SMILES IDX 74 54 73 55 38 57 64 58 47 59 63 60 48 61 51 62 62 63 78 64
REMARK SMILES IDX 49 65 50 66 61 68 79 69 52 70 39 71 40 72 45 73 41 74 42 75
REMARK SMILES IDX 44 76 46 77 43 78 65 79 66 80 71 81 67 82 68 83 70 84 72 85
REMARK SMILES IDX 69 86 53 87 54 88 59 89 55 90 56 91 58 92 60 93 57 94
REMARK H PARENT 13 15 77 56 51 67
REMARK Flexibility Score: inf
ROOT
ATOM      1  C   UNL A   1      40.354  21.009  26.837  1.00  0.00     0.261 C 
ENDROOT
BRANCH   1   2
ATOM      2  O   UNL A   1      39.639  21.692  25.793  1.00  0.00    -0.460 OA
BRANCH   2   3
ATOM      3  C   UNL A   1      38.849  22.705  26.217  1.00  0.00     0.338 C 
ATOM      4  O   UNL A   1      39.176  23.637  26.938  1.00  0.00    -0.246 OA
BRANCH   3   5
ATOM      5  C   UNL A   1      37.526  22.639  25.555  1.00  0.00     0.060 A 
ATOM      6  C   UNL A   1      35.024  22.328  24.310  1.00  0.00    -0.029 A 
ATOM      7  C   UNL A   1      35.546  21.320  25.129  1.00  0.00     0.006 A 
ATOM      8  C   UNL A   1      35.763  23.511  24.144  1.00  0.00     0.006 A 
ATOM      9  C   UNL A   1      36.784  21.471  25.745  1.00  0.00     0.016 A 
ATOM     10  C   UNL A   1      37.006  23.673  24.771  1.00  0.00     0.016 A 
BRANCH   6  11
ATOM     11  C   UNL A   1      33.738  22.108  23.548  1.00  0.00     0.152 C 
BRANCH  11  12
ATOM     12  N   UNL A   1      33.711  22.937  22.365  1.00  0.00    -0.345 N 
ATOM     13  C   UNL A   1      32.973  24.035  21.996  1.00  0.00     0.287 C 
ATOM     14  O   UNL A   1      33.266  24.505  20.891  1.00  0.00    -0.266 OA
ATOM     15  H   UNL A   1      34.357  22.655  21.677  1.00  0.00     0.164 HD
BRANCH  13  16
ATOM     16  C   UNL A   1      31.934  24.608  22.834  1.00  0.00     0.192 A 
ATOM     17  C   UNL A   1      31.128  26.248  24.095  1.00  0.00     0.142 A 
ATOM     18  C   UNL A   1      30.166  25.268  24.085  1.00  0.00     0.052 A 
ATOM     19  O   UNL A   1      32.178  25.880  23.315  1.00  0.00    -0.451 OA
ATOM     20  C   UNL A   1      30.690  24.215  23.297  1.00  0.00     0.057 A 
BRANCH  17  21
ATOM     21  C   UNL A   1      31.243  27.530  24.763  1.00  0.00     0.095 A 
ATOM     22  C   UNL A   1      31.706  30.016  26.034  1.00  0.00     0.125 A 
ATOM     23  C   UNL A   1      32.201  28.832  26.583  1.00  0.00     0.047 A 
ATOM     24  C   UNL A   1      30.970  29.969  24.853  1.00  0.00     0.132 A 
ATOM     25  C   UNL A   1      31.962  27.599  25.965  1.00  0.00     0.023 A 
ATOM     26  C   UNL A   1      30.741  28.729  24.230  1.00  0.00     0.284 A 
BRANCH  22  27
ATOM     27  O   UNL A   1      32.041  31.154  26.712  1.00  0.00    -0.497 OA
ATOM     28  C   UNL A   1      31.221  32.293  26.471  1.00  0.00     0.278 C 
ENDBRANCH  22  27
BRANCH  26  29
ATOM     29  N   UNL A   1      29.964  28.741  22.993  1.00  0.00     0.063 N 
ATOM     30  O   UNL A   1      30.509  28.355  21.951  1.00  0.00    -0.258 OA
ATOM     31  O   UNL A   1      28.783  29.111  23.076  1.00  0.00    -0.258 OA
ENDBRANCH  26  29
ENDBRANCH  17  21
ENDBRANCH  13  16
ENDBRANCH  11  12
ENDBRANCH   6  11
ENDBRANCH   3   5
ENDBRANCH   2   3
ENDBRANCH   1   2
BRANCH   1  32
ATOM     32  C   UNL A   1      41.857  21.274  26.731  1.00  0.00     0.202 C 
BRANCH  32  33
ATOM     33  O   UNL A   1      42.394  21.277  25.408  1.00  0.00    -0.374 OA
BRANCH  33  34
ATOM     34  C   UNL A   1      43.011  22.487  24.964  1.00  0.00     0.202 C 
BRANCH  34  35
ATOM     35  C   UNL A   1      44.518  22.603  25.229  1.00  0.00     0.261 C 
BRANCH  35  36
ATOM     36  O   UNL A   1      44.806  23.613  26.213  1.00  0.00    -0.460 OA
BRANCH  36  37
ATOM     37  C   UNL A   1      44.684  24.888  25.778  1.00  0.00     0.338 C 
ATOM     38  O   UNL A   1      45.026  25.339  24.693  1.00  0.00    -0.246 OA
BRANCH  37  39
ATOM     39  C   UNL A   1      43.894  25.672  26.745  1.00  0.00     0.060 A 
ATOM     40  C   UNL A   1      44.224  27.024  26.903  1.00  0.00     0.016 A 
ATOM     41  C   UNL A   1      42.894  25.089  27.526  1.00  0.00     0.016 A 
ATOM     42  C   UNL A   1      43.585  27.790  27.876  1.00  0.00     0.010 A 
ATOM     43  C   UNL A   1      42.260  25.856  28.509  1.00  0.00     0.010 A 
ATOM     44  C   UNL A   1      42.626  27.200  28.710  1.00  0.00    -0.014 A 
BRANCH  44  45
ATOM     45  C   UNL A   1      42.112  27.953  29.880  1.00  0.00     0.031 A 
ATOM     46  C   UNL A   1      40.871  28.787  29.722  1.00  0.00     0.074 A 
ATOM     47  C   UNL A   1      42.727  27.875  31.073  1.00  0.00     0.049 A 
ATOM     48  N   UNL A   1      40.267  29.550  30.598  1.00  0.00    -0.248 NA
ATOM     49  C   UNL A   1      40.225  28.757  28.401  1.00  0.00     0.031 C 
ATOM     50  C   UNL A   1      43.914  27.072  31.361  1.00  0.00     0.029 A 
ATOM     51  N   UNL A   1      42.435  28.489  32.265  1.00  0.00    -0.354 N 
ATOM     52  C   UNL A   1      39.175  30.093  29.934  1.00  0.00     0.074 A 
ATOM     53  C   UNL A   1      39.216  29.598  28.575  1.00  0.00     0.031 C 
ATOM     54  C   UNL A   1      44.257  27.251  32.649  1.00  0.00     0.029 A 
ATOM     55  C   UNL A   1      43.332  28.201  33.264  1.00  0.00     0.049 A 
ATOM     56  H   UNL A   1      41.658  29.080  32.391  1.00  0.00     0.167 HD
ATOM     57  C   UNL A   1      38.218  30.922  30.415  1.00  0.00     0.037 A 
ATOM     58  C   UNL A   1      43.408  28.669  34.525  1.00  0.00     0.037 A 
ATOM     59  C   UNL A   1      38.176  31.413  31.767  1.00  0.00     0.049 A 
ATOM     60  C   UNL A   1      42.373  29.645  35.017  1.00  0.00     0.074 A 
ATOM     61  C   UNL A   1      37.237  32.243  32.354  1.00  0.00     0.029 A 
ATOM     62  N   UNL A   1      39.121  31.125  32.740  1.00  0.00    -0.354 N 
ATOM     63  N   UNL A   1      41.332  30.135  34.388  1.00  0.00    -0.248 NA
ATOM     64  C   UNL A   1      42.524  30.134  36.394  1.00  0.00     0.031 C 
ATOM     65  C   UNL A   1      37.639  32.494  33.671  1.00  0.00     0.029 A 
ATOM     66  C   UNL A   1      38.801  31.781  33.918  1.00  0.00     0.049 A 
ATOM     67  H   UNL A   1      39.903  30.541  32.614  1.00  0.00     0.167 HD
ATOM     68  C   UNL A   1      40.690  30.964  35.300  1.00  0.00     0.074 A 
ATOM     69  C   UNL A   1      41.453  30.904  36.529  1.00  0.00     0.031 C 
ATOM     70  C   UNL A   1      39.567  31.707  35.136  1.00  0.00     0.037 A 
BRANCH  57  71
ATOM     71  C   UNL A   1      37.149  31.369  29.462  1.00  0.00     0.057 A 
ATOM     72  C   UNL A   1      36.065  30.547  29.127  1.00  0.00     0.134 A 
ATOM     73  C   UNL A   1      37.189  32.648  28.894  1.00  0.00     0.134 A 
ATOM     74  F   UNL A   1      35.975  29.304  29.625  1.00  0.00    -0.206 F 
ATOM     75  C   UNL A   1      35.071  30.974  28.245  1.00  0.00     0.040 A 
ATOM     76  C   UNL A   1      36.189  33.096  28.030  1.00  0.00     0.040 A 
ATOM     77  F   UNL A   1      38.198  33.487  29.175  1.00  0.00    -0.206 F 
ATOM     78  C   UNL A   1      35.129  32.254  27.699  1.00  0.00     0.006 A 
ENDBRANCH  57  71
BRANCH  58  79
ATOM     79  C   UNL A   1      44.512  28.230  35.414  1.00  0.00     0.057 A 
ATOM     80  C   UNL A   1      44.360  27.135  36.273  1.00  0.00     0.134 A 
ATOM     81  C   UNL A   1      45.737  28.906  35.441  1.00  0.00     0.134 A 
ATOM     82  F   UNL A   1      43.201  26.462  36.310  1.00  0.00    -0.206 F 
ATOM     83  C   UNL A   1      45.382  26.738  37.138  1.00  0.00     0.040 A 
ATOM     84  C   UNL A   1      46.776  28.506  36.284  1.00  0.00     0.040 A 
ATOM     85  F   UNL A   1      45.944  29.964  34.642  1.00  0.00    -0.206 F 
ATOM     86  C   UNL A   1      46.596  27.422  37.141  1.00  0.00     0.006 A 
ENDBRANCH  58  79
BRANCH  70  87
ATOM     87  C   UNL A   1      39.077  32.486  36.321  1.00  0.00     0.057 A 
ATOM     88  C   UNL A   1      38.227  31.918  37.279  1.00  0.00     0.134 A 
ATOM     89  C   UNL A   1      39.495  33.806  36.528  1.00  0.00     0.134 A 
ATOM     90  F   UNL A   1      37.781  30.662  37.133  1.00  0.00    -0.206 F 
ATOM     91  C   UNL A   1      37.793  32.645  38.389  1.00  0.00     0.040 A 
ATOM     92  C   UNL A   1      39.088  34.534  37.647  1.00  0.00     0.040 A 
ATOM     93  F   UNL A   1      40.317  34.405  35.653  1.00  0.00    -0.206 F 
ATOM     94  C   UNL A   1      38.230  33.955  38.579  1.00  0.00     0.006 A 
ENDBRANCH  70  87
ENDBRANCH  44  45
ENDBRANCH  37  39
ENDBRANCH  36  37
ENDBRANCH  35  36
ENDBRANCH  34  35
ENDBRANCH  33  34
ENDBRANCH  32  33
ENDBRANCH   1  32
TORSDOF 20
ENDMDL
