MODEL 1
REMARK VINA RESULT:      -9.4      0.000      0.000
REMARK SMILES C[C@@H](C(=O)OCCOCCOC(=O)c1ccc(-c2c3nc(c(-c4c(F)cccc4F)c4ccc([nH]4)c(-c4c(F)cccc4F)c4nc(c(-c5c(F)cccc5F)c5ccc2[nH]5)C=C4)C=C3)cc1)c1ccc2c(c1)[nH]c1ccc(Cl)cc12
REMARK SMILES IDX 9 1 8 2 7 3 6 4 5 5 3 6 4 7 2 8 1 9 68 10 69 11 73 12 70 13
REMARK SMILES IDX 72 14 71 15 74 16 81 17 75 18 80 20 76 21 78 22 77 23 79 24
REMARK SMILES IDX 10 25 11 26 12 27 13 28 14 29 15 30 67 31 16 32 66 33 17 34
REMARK SMILES IDX 18 35 19 36 60 37 20 38 65 39 59 40 61 41 21 42 64 43 58 44
REMARK SMILES IDX 57 45 22 47 48 48 31 49 47 50 32 51 35 52 46 53 62 54 33 55
REMARK SMILES IDX 34 56 45 58 63 59 36 60 23 61 24 62 29 63 25 64 26 65 28 66
REMARK SMILES IDX 30 67 27 68 49 69 50 70 55 71 51 72 52 73 54 74 56 75 53 76
REMARK SMILES IDX 37 77 38 78 43 79 39 80 40 81 42 82 44 83 41 84
REMARK H PARENT 74 19 61 46 35 57
REMARK Flexibility Score: inf
ROOT
ATOM      1  C   UNL A   1      33.359  36.259  32.609  1.00  0.00     0.202 C 
ENDROOT
BRANCH   1   2
ATOM      2  O   UNL A   1      34.718  36.422  33.012  1.00  0.00    -0.374 OA
BRANCH   2   3
ATOM      3  C   UNL A   1      35.514  35.244  33.137  1.00  0.00     0.202 C 
BRANCH   3   4
ATOM      4  C   UNL A   1      34.931  34.121  33.999  1.00  0.00     0.261 C 
BRANCH   4   5
ATOM      5  O   UNL A   1      35.865  33.733  35.022  1.00  0.00    -0.463 OA
BRANCH   5   6
ATOM      6  C   UNL A   1      36.818  32.834  34.651  1.00  0.00     0.313 C 
ATOM      7  O   UNL A   1      36.598  31.856  33.945  1.00  0.00    -0.252 OA
BRANCH   6   8
ATOM      8  C   UNL A   1      38.191  33.169  35.245  1.00  0.00     0.126 C 
ATOM      9  C   UNL A   1      38.726  34.573  34.943  1.00  0.00     0.025 C 
BRANCH   8  10
ATOM     10  C   UNL A   1      39.264  32.132  34.915  1.00  0.00    -0.032 A 
ATOM     11  C   UNL A   1      40.001  32.148  33.718  1.00  0.00     0.005 A 
ATOM     12  C   UNL A   1      39.509  31.118  35.855  1.00  0.00     0.031 A 
ATOM     13  C   UNL A   1      40.925  31.137  33.412  1.00  0.00     0.011 A 
ATOM     14  C   UNL A   1      40.404  30.099  35.516  1.00  0.00     0.047 A 
ATOM     15  C   UNL A   1      41.108  30.071  34.315  1.00  0.00     0.007 A 
ATOM     16  N   UNL A   1      40.739  28.964  36.211  1.00  0.00    -0.355 N 
ATOM     17  C   UNL A   1      41.853  28.846  34.287  1.00  0.00     0.009 A 
ATOM     18  C   UNL A   1      41.549  28.150  35.458  1.00  0.00     0.047 A 
ATOM     19  H   UNL A   1      40.438  28.760  37.126  1.00  0.00     0.167 HD
ATOM     20  C   UNL A   1      42.714  28.238  33.350  1.00  0.00     0.031 A 
ATOM     21  C   UNL A   1      42.015  26.860  35.725  1.00  0.00     0.028 A 
ATOM     22  C   UNL A   1      43.192  26.948  33.607  1.00  0.00     0.041 A 
ATOM     23  C   UNL A   1      42.837  26.262  34.767  1.00  0.00     0.022 A 
ATOM     24  Cl  UNL A   1      44.224  26.183  32.459  1.00  0.00    -0.084 Cl
ENDBRANCH   8  10
ENDBRANCH   6   8
ENDBRANCH   5   6
ENDBRANCH   4   5
ENDBRANCH   3   4
ENDBRANCH   2   3
ENDBRANCH   1   2
BRANCH   1  25
ATOM     25  C   UNL A   1      33.094  36.138  31.104  1.00  0.00     0.261 C 
BRANCH  25  26
ATOM     26  O   UNL A   1      32.857  34.780  30.695  1.00  0.00    -0.460 OA
BRANCH  26  27
ATOM     27  C   UNL A   1      33.173  34.519  29.405  1.00  0.00     0.338 C 
ATOM     28  O   UNL A   1      32.599  34.928  28.403  1.00  0.00    -0.246 OA
BRANCH  27  29
ATOM     29  C   UNL A   1      34.448  33.785  29.325  1.00  0.00     0.060 A 
ATOM     30  C   UNL A   1      34.794  32.980  30.418  1.00  0.00     0.016 A 
ATOM     31  C   UNL A   1      35.331  33.946  28.255  1.00  0.00     0.016 A 
ATOM     32  C   UNL A   1      36.049  32.380  30.474  1.00  0.00     0.010 A 
ATOM     33  C   UNL A   1      36.595  33.349  28.316  1.00  0.00     0.010 A 
ATOM     34  C   UNL A   1      36.973  32.597  29.444  1.00  0.00    -0.014 A 
BRANCH  34  35
ATOM     35  C   UNL A   1      38.379  32.164  29.631  1.00  0.00     0.031 A 
ATOM     36  C   UNL A   1      38.788  30.792  29.167  1.00  0.00     0.074 A 
ATOM     37  C   UNL A   1      39.291  32.996  30.164  1.00  0.00     0.049 A 
ATOM     38  N   UNL A   1      39.955  30.206  29.238  1.00  0.00    -0.248 NA
ATOM     39  C   UNL A   1      37.739  29.974  28.536  1.00  0.00     0.031 C 
ATOM     40  C   UNL A   1      39.029  34.363  30.610  1.00  0.00     0.029 A 
ATOM     41  N   UNL A   1      40.626  32.808  30.418  1.00  0.00    -0.354 N 
ATOM     42  C   UNL A   1      39.780  28.950  28.670  1.00  0.00     0.074 A 
ATOM     43  C   UNL A   1      38.389  28.849  28.283  1.00  0.00     0.031 C 
ATOM     44  C   UNL A   1      40.169  34.890  31.091  1.00  0.00     0.029 A 
ATOM     45  C   UNL A   1      41.230  33.888  31.011  1.00  0.00     0.049 A 
ATOM     46  H   UNL A   1      41.105  31.977  30.196  1.00  0.00     0.167 HD
ATOM     47  C   UNL A   1      40.698  27.973  28.478  1.00  0.00     0.037 A 
ATOM     48  C   UNL A   1      42.492  34.043  31.455  1.00  0.00     0.037 A 
ATOM     49  C   UNL A   1      42.083  28.076  28.855  1.00  0.00     0.049 A 
ATOM     50  C   UNL A   1      43.477  32.915  31.292  1.00  0.00     0.074 A 
ATOM     51  C   UNL A   1      43.097  27.150  28.681  1.00  0.00     0.029 A 
ATOM     52  N   UNL A   1      42.648  29.172  29.489  1.00  0.00    -0.354 N 
ATOM     53  N   UNL A   1      43.308  31.743  30.732  1.00  0.00    -0.248 NA
ATOM     54  C   UNL A   1      44.830  33.135  31.826  1.00  0.00     0.031 C 
ATOM     55  C   UNL A   1      44.264  27.667  29.251  1.00  0.00     0.029 A 
ATOM     56  C   UNL A   1      43.989  28.935  29.737  1.00  0.00     0.049 A 
ATOM     57  H   UNL A   1      42.167  29.998  29.727  1.00  0.00     0.167 HD
ATOM     58  C   UNL A   1      44.536  31.098  30.817  1.00  0.00     0.074 A 
ATOM     59  C   UNL A   1      45.444  32.013  31.475  1.00  0.00     0.031 C 
ATOM     60  C   UNL A   1      44.882  29.860  30.387  1.00  0.00     0.037 A 
BRANCH  47  61
ATOM     61  C   UNL A   1      40.228  26.694  27.851  1.00  0.00     0.057 A 
ATOM     62  C   UNL A   1      40.556  26.350  26.534  1.00  0.00     0.134 A 
ATOM     63  C   UNL A   1      39.466  25.779  28.588  1.00  0.00     0.134 A 
ATOM     64  F   UNL A   1      41.271  27.189  25.771  1.00  0.00    -0.206 F 
ATOM     65  C   UNL A   1      40.128  25.148  25.966  1.00  0.00     0.040 A 
ATOM     66  C   UNL A   1      39.052  24.564  28.039  1.00  0.00     0.040 A 
ATOM     67  F   UNL A   1      39.120  26.046  29.857  1.00  0.00    -0.206 F 
ATOM     68  C   UNL A   1      39.378  24.249  26.722  1.00  0.00     0.006 A 
ENDBRANCH  47  61
BRANCH  48  69
ATOM     69  C   UNL A   1      42.902  35.311  32.109  1.00  0.00     0.057 A 
ATOM     70  C   UNL A   1      43.550  36.322  31.391  1.00  0.00     0.134 A 
ATOM     71  C   UNL A   1      42.677  35.531  33.474  1.00  0.00     0.134 A 
ATOM     72  F   UNL A   1      43.816  36.159  30.086  1.00  0.00    -0.206 F 
ATOM     73  C   UNL A   1      43.977  37.498  32.008  1.00  0.00     0.040 A 
ATOM     74  C   UNL A   1      43.077  36.712  34.098  1.00  0.00     0.040 A 
ATOM     75  F   UNL A   1      42.061  34.600  34.217  1.00  0.00    -0.206 F 
ATOM     76  C   UNL A   1      43.737  37.698  33.367  1.00  0.00     0.006 A 
ENDBRANCH  48  69
BRANCH  60  77
ATOM     77  C   UNL A   1      46.309  29.437  30.580  1.00  0.00     0.057 A 
ATOM     78  C   UNL A   1      46.768  28.919  31.798  1.00  0.00     0.134 A 
ATOM     79  C   UNL A   1      47.223  29.509  29.522  1.00  0.00     0.134 A 
ATOM     80  F   UNL A   1      45.946  28.835  32.855  1.00  0.00    -0.206 F 
ATOM     81  C   UNL A   1      48.092  28.510  31.962  1.00  0.00     0.040 A 
ATOM     82  C   UNL A   1      48.542  29.078  29.666  1.00  0.00     0.040 A 
ATOM     83  F   UNL A   1      46.845  29.985  28.326  1.00  0.00    -0.206 F 
ATOM     84  C   UNL A   1      48.982  28.582  30.891  1.00  0.00     0.006 A 
ENDBRANCH  60  77
ENDBRANCH  34  35
ENDBRANCH  27  29
ENDBRANCH  26  27
ENDBRANCH  25  26
ENDBRANCH   1  25
TORSDOF 15
ENDMDL
MODEL 2
REMARK VINA RESULT:      -9.4      0.277      6.235
REMARK SMILES C[C@@H](C(=O)OCCOCCOC(=O)c1ccc(-c2c3nc(c(-c4c(F)cccc4F)c4ccc([nH]4)c(-c4c(F)cccc4F)c4nc(c(-c5c(F)cccc5F)c5ccc2[nH]5)C=C4)C=C3)cc1)c1ccc2c(c1)[nH]c1ccc(Cl)cc12
REMARK SMILES IDX 9 1 8 2 7 3 6 4 5 5 3 6 4 7 2 8 1 9 68 10 69 11 73 12 70 13
REMARK SMILES IDX 72 14 71 15 74 16 81 17 75 18 80 20 76 21 78 22 77 23 79 24
REMARK SMILES IDX 10 25 11 26 12 27 13 28 14 29 15 30 67 31 16 32 66 33 17 34
REMARK SMILES IDX 18 35 19 36 60 37 20 38 65 39 59 40 61 41 21 42 64 43 58 44
REMARK SMILES IDX 57 45 22 47 48 48 31 49 47 50 32 51 35 52 46 53 62 54 33 55
REMARK SMILES IDX 34 56 45 58 63 59 36 60 23 61 24 62 29 63 25 64 26 65 28 66
REMARK SMILES IDX 30 67 27 68 49 69 50 70 55 71 51 72 52 73 54 74 56 75 53 76
REMARK SMILES IDX 37 77 38 78 43 79 39 80 40 81 42 82 44 83 41 84
REMARK H PARENT 74 19 61 46 35 57
REMARK Flexibility Score: inf
ROOT
ATOM      1  C   UNL A   1      33.389  36.349  32.915  1.00  0.00     0.202 C 
ENDROOT
BRANCH   1   2
ATOM      2  O   UNL A   1      34.769  36.457  33.258  1.00  0.00    -0.374 OA
BRANCH   2   3
ATOM      3  C   UNL A   1      35.533  35.251  33.301  1.00  0.00     0.202 C 
BRANCH   3   4
ATOM      4  C   UNL A   1      34.893  34.071  34.038  1.00  0.00     0.261 C 
BRANCH   4   5
ATOM      5  O   UNL A   1      35.793  33.547  35.030  1.00  0.00    -0.463 OA
BRANCH   5   6
ATOM      6  C   UNL A   1      36.778  32.726  34.570  1.00  0.00     0.313 C 
ATOM      7  O   UNL A   1      36.604  31.860  33.720  1.00  0.00    -0.252 OA
BRANCH   6   8
ATOM      8  C   UNL A   1      38.120  32.990  35.262  1.00  0.00     0.126 C 
ATOM      9  C   UNL A   1      38.695  34.401  35.092  1.00  0.00     0.025 C 
BRANCH   8  10
ATOM     10  C   UNL A   1      39.193  31.957  34.916  1.00  0.00    -0.032 A 
ATOM     11  C   UNL A   1      39.871  31.941  33.686  1.00  0.00     0.005 A 
ATOM     12  C   UNL A   1      39.499  30.982  35.879  1.00  0.00     0.031 A 
ATOM     13  C   UNL A   1      40.796  30.932  33.371  1.00  0.00     0.011 A 
ATOM     14  C   UNL A   1      40.393  29.964  35.534  1.00  0.00     0.047 A 
ATOM     15  C   UNL A   1      41.039  29.903  34.301  1.00  0.00     0.007 A 
ATOM     16  N   UNL A   1      40.780  28.860  36.251  1.00  0.00    -0.355 N 
ATOM     17  C   UNL A   1      41.802  28.689  34.281  1.00  0.00     0.009 A 
ATOM     18  C   UNL A   1      41.566  28.032  35.489  1.00  0.00     0.047 A 
ATOM     19  H   UNL A   1      40.527  28.685  37.186  1.00  0.00     0.167 HD
ATOM     20  C   UNL A   1      42.627  28.060  33.325  1.00  0.00     0.031 A 
ATOM     21  C   UNL A   1      42.066  26.758  35.779  1.00  0.00     0.028 A 
ATOM     22  C   UNL A   1      43.138  26.787  33.604  1.00  0.00     0.041 A 
ATOM     23  C   UNL A   1      42.850  26.138  34.804  1.00  0.00     0.022 A 
ATOM     24  Cl  UNL A   1      44.126  25.996  32.436  1.00  0.00    -0.084 Cl
ENDBRANCH   8  10
ENDBRANCH   6   8
ENDBRANCH   5   6
ENDBRANCH   4   5
ENDBRANCH   3   4
ENDBRANCH   2   3
ENDBRANCH   1   2
BRANCH   1  25
ATOM     25  C   UNL A   1      33.048  36.307  31.421  1.00  0.00     0.261 C 
BRANCH  25  26
ATOM     26  O   UNL A   1      32.960  34.964  30.915  1.00  0.00    -0.460 OA
BRANCH  26  27
ATOM     27  C   UNL A   1      33.281  34.835  29.606  1.00  0.00     0.338 C 
ATOM     28  O   UNL A   1      32.771  35.416  28.656  1.00  0.00    -0.246 OA
BRANCH  27  29
ATOM     29  C   UNL A   1      34.485  34.000  29.451  1.00  0.00     0.060 A 
ATOM     30  C   UNL A   1      34.790  33.116  30.494  1.00  0.00     0.016 A 
ATOM     31  C   UNL A   1      35.347  34.138  28.361  1.00  0.00     0.016 A 
ATOM     32  C   UNL A   1      35.989  32.409  30.481  1.00  0.00     0.010 A 
ATOM     33  C   UNL A   1      36.556  33.433  28.354  1.00  0.00     0.010 A 
ATOM     34  C   UNL A   1      36.900  32.597  29.432  1.00  0.00    -0.014 A 
BRANCH  34  35
ATOM     35  C   UNL A   1      38.267  32.037  29.554  1.00  0.00     0.031 A 
ATOM     36  C   UNL A   1      39.342  32.872  30.196  1.00  0.00     0.074 A 
ATOM     37  C   UNL A   1      38.540  30.788  29.140  1.00  0.00     0.049 A 
ATOM     38  N   UNL A   1      40.604  32.589  30.397  1.00  0.00    -0.248 NA
ATOM     39  C   UNL A   1      38.939  34.204  30.677  1.00  0.00     0.031 C 
ATOM     40  C   UNL A   1      37.575  29.866  28.544  1.00  0.00     0.029 A 
ATOM     41  N   UNL A   1      39.715  30.079  29.162  1.00  0.00    -0.354 N 
ATOM     42  C   UNL A   1      41.145  33.706  31.020  1.00  0.00     0.074 A 
ATOM     43  C   UNL A   1      40.084  34.682  31.140  1.00  0.00     0.031 C 
ATOM     44  C   UNL A   1      38.199  28.712  28.250  1.00  0.00     0.029 A 
ATOM     45  C   UNL A   1      39.611  28.826  28.612  1.00  0.00     0.049 A 
ATOM     46  H   UNL A   1      40.552  30.436  29.538  1.00  0.00     0.167 HD
ATOM     47  C   UNL A   1      42.411  33.898  31.462  1.00  0.00     0.037 A 
ATOM     48  C   UNL A   1      40.554  27.886  28.406  1.00  0.00     0.037 A 
ATOM     49  C   UNL A   1      43.465  32.925  31.350  1.00  0.00     0.049 A 
ATOM     50  C   UNL A   1      41.970  28.151  28.845  1.00  0.00     0.074 A 
ATOM     51  C   UNL A   1      44.775  33.017  31.789  1.00  0.00     0.029 A 
ATOM     52  N   UNL A   1      43.330  31.682  30.751  1.00  0.00    -0.354 N 
ATOM     53  N   UNL A   1      42.465  29.200  29.455  1.00  0.00    -0.248 NA
ATOM     54  C   UNL A   1      42.958  27.099  28.564  1.00  0.00     0.031 C 
ATOM     55  C   UNL A   1      45.445  31.848  31.413  1.00  0.00     0.029 A 
ATOM     56  C   UNL A   1      44.540  31.009  30.784  1.00  0.00     0.049 A 
ATOM     57  H   UNL A   1      42.499  31.330  30.359  1.00  0.00     0.167 HD
ATOM     58  C   UNL A   1      43.812  28.923  29.659  1.00  0.00     0.074 A 
ATOM     59  C   UNL A   1      44.054  27.603  29.115  1.00  0.00     0.031 C 
ATOM     60  C   UNL A   1      44.763  29.691  30.245  1.00  0.00     0.037 A 
BRANCH  47  61
ATOM     61  C   UNL A   1      42.733  35.223  32.087  1.00  0.00     0.057 A 
ATOM     62  C   UNL A   1      42.419  35.507  33.423  1.00  0.00     0.134 A 
ATOM     63  C   UNL A   1      43.397  36.213  31.354  1.00  0.00     0.134 A 
ATOM     64  F   UNL A   1      41.771  34.606  34.175  1.00  0.00    -0.206 F 
ATOM     65  C   UNL A   1      42.739  36.738  34.000  1.00  0.00     0.040 A 
ATOM     66  C   UNL A   1      43.743  37.438  31.927  1.00  0.00     0.040 A 
ATOM     67  F   UNL A   1      43.729  36.003  30.071  1.00  0.00    -0.206 F 
ATOM     68  C   UNL A   1      43.409  37.705  33.252  1.00  0.00     0.006 A 
ENDBRANCH  47  61
BRANCH  48  69
ATOM     69  C   UNL A   1      40.198  26.606  27.744  1.00  0.00     0.057 A 
ATOM     70  C   UNL A   1      39.466  25.621  28.414  1.00  0.00     0.134 A 
ATOM     71  C   UNL A   1      40.606  26.329  26.433  1.00  0.00     0.134 A 
ATOM     72  F   UNL A   1      39.069  25.818  29.680  1.00  0.00    -0.206 F 
ATOM     73  C   UNL A   1      39.166  24.398  27.813  1.00  0.00     0.040 A 
ATOM     74  C   UNL A   1      40.292  25.120  25.811  1.00  0.00     0.040 A 
ATOM     75  F   UNL A   1      41.311  27.233  25.738  1.00  0.00    -0.206 F 
ATOM     76  C   UNL A   1      39.576  24.146  26.504  1.00  0.00     0.006 A 
ENDBRANCH  48  69
BRANCH  60  77
ATOM     77  C   UNL A   1      46.142  29.110  30.363  1.00  0.00     0.057 A 
ATOM     78  C   UNL A   1      46.603  28.538  31.555  1.00  0.00     0.134 A 
ATOM     79  C   UNL A   1      47.001  29.085  29.258  1.00  0.00     0.134 A 
ATOM     80  F   UNL A   1      45.833  28.541  32.654  1.00  0.00    -0.206 F 
ATOM     81  C   UNL A   1      47.880  27.982  31.649  1.00  0.00     0.040 A 
ATOM     82  C   UNL A   1      48.269  28.509  29.332  1.00  0.00     0.040 A 
ATOM     83  F   UNL A   1      46.616  29.608  28.083  1.00  0.00    -0.206 F 
ATOM     84  C   UNL A   1      48.714  27.961  30.532  1.00  0.00     0.006 A 
ENDBRANCH  60  77
ENDBRANCH  34  35
ENDBRANCH  27  29
ENDBRANCH  26  27
ENDBRANCH  25  26
ENDBRANCH   1  25
TORSDOF 15
ENDMDL
MODEL 3
REMARK VINA RESULT:      -9.3      4.173      9.319
REMARK SMILES C[C@@H](C(=O)OCCOCCOC(=O)c1ccc(-c2c3nc(c(-c4c(F)cccc4F)c4ccc([nH]4)c(-c4c(F)cccc4F)c4nc(c(-c5c(F)cccc5F)c5ccc2[nH]5)C=C4)C=C3)cc1)c1ccc2c(c1)[nH]c1ccc(Cl)cc12
REMARK SMILES IDX 9 1 8 2 7 3 6 4 5 5 3 6 4 7 2 8 1 9 68 10 69 11 73 12 70 13
REMARK SMILES IDX 72 14 71 15 74 16 81 17 75 18 80 20 76 21 78 22 77 23 79 24
REMARK SMILES IDX 10 25 11 26 12 27 13 28 14 29 15 30 67 31 16 32 66 33 17 34
REMARK SMILES IDX 18 35 19 36 60 37 20 38 65 39 59 40 61 41 21 42 64 43 58 44
REMARK SMILES IDX 57 45 22 47 48 48 31 49 47 50 32 51 35 52 46 53 62 54 33 55
REMARK SMILES IDX 34 56 45 58 63 59 36 60 23 61 24 62 29 63 25 64 26 65 28 66
REMARK SMILES IDX 30 67 27 68 49 69 50 70 55 71 51 72 52 73 54 74 56 75 53 76
REMARK SMILES IDX 37 77 38 78 43 79 39 80 40 81 42 82 44 83 41 84
REMARK H PARENT 74 19 61 46 35 57
REMARK Flexibility Score: inf
ROOT
ATOM      1  C   UNL A   1      34.409  34.621  31.396  1.00  0.00     0.202 C 
ENDROOT
BRANCH   1   2
ATOM      2  O   UNL A   1      35.054  34.186  30.201  1.00  0.00    -0.374 OA
BRANCH   2   3
ATOM      3  C   UNL A   1      34.227  33.895  29.075  1.00  0.00     0.202 C 
BRANCH   3   4
ATOM      4  C   UNL A   1      34.687  32.745  28.175  1.00  0.00     0.261 C 
BRANCH   4   5
ATOM      5  O   UNL A   1      33.656  31.749  28.060  1.00  0.00    -0.463 OA
BRANCH   5   6
ATOM      6  C   UNL A   1      33.998  30.610  27.396  1.00  0.00     0.313 C 
ATOM      7  O   UNL A   1      34.994  29.942  27.650  1.00  0.00    -0.252 OA
BRANCH   6   8
ATOM      8  C   UNL A   1      33.010  30.280  26.271  1.00  0.00     0.126 C 
ATOM      9  C   UNL A   1      31.624  30.925  26.387  1.00  0.00     0.025 C 
BRANCH   8  10
ATOM     10  C   UNL A   1      32.855  28.779  26.021  1.00  0.00    -0.032 A 
ATOM     11  C   UNL A   1      32.088  27.942  26.848  1.00  0.00     0.005 A 
ATOM     12  C   UNL A   1      33.521  28.226  24.916  1.00  0.00     0.031 A 
ATOM     13  C   UNL A   1      32.030  26.555  26.635  1.00  0.00     0.011 A 
ATOM     14  C   UNL A   1      33.483  26.840  24.743  1.00  0.00     0.047 A 
ATOM     15  C   UNL A   1      32.768  25.986  25.580  1.00  0.00     0.007 A 
ATOM     16  N   UNL A   1      34.119  26.058  23.811  1.00  0.00    -0.355 N 
ATOM     17  C   UNL A   1      33.032  24.645  25.145  1.00  0.00     0.009 A 
ATOM     18  C   UNL A   1      33.929  24.724  24.080  1.00  0.00     0.047 A 
ATOM     19  H   UNL A   1      34.641  26.406  23.053  1.00  0.00     0.167 HD
ATOM     20  C   UNL A   1      32.636  23.368  25.595  1.00  0.00     0.031 A 
ATOM     21  C   UNL A   1      34.494  23.601  23.468  1.00  0.00     0.028 A 
ATOM     22  C   UNL A   1      33.190  22.235  24.988  1.00  0.00     0.041 A 
ATOM     23  C   UNL A   1      34.115  22.347  23.953  1.00  0.00     0.022 A 
ATOM     24  Cl  UNL A   1      32.734  20.669  25.544  1.00  0.00    -0.084 Cl
ENDBRANCH   8  10
ENDBRANCH   6   8
ENDBRANCH   5   6
ENDBRANCH   4   5
ENDBRANCH   3   4
ENDBRANCH   2   3
ENDBRANCH   1   2
BRANCH   1  25
ATOM     25  C   UNL A   1      34.100  33.548  32.446  1.00  0.00     0.261 C 
BRANCH  25  26
ATOM     26  O   UNL A   1      34.792  32.314  32.190  1.00  0.00    -0.460 OA
BRANCH  26  27
ATOM     27  C   UNL A   1      35.958  32.173  32.864  1.00  0.00     0.338 C 
ATOM     28  O   UNL A   1      36.195  32.517  34.015  1.00  0.00    -0.246 OA
BRANCH  27  29
ATOM     29  C   UNL A   1      36.913  31.371  32.080  1.00  0.00     0.060 A 
ATOM     30  C   UNL A   1      37.957  30.753  32.779  1.00  0.00     0.016 A 
ATOM     31  C   UNL A   1      36.850  31.297  30.686  1.00  0.00     0.016 A 
ATOM     32  C   UNL A   1      38.976  30.108  32.085  1.00  0.00     0.010 A 
ATOM     33  C   UNL A   1      37.879  30.655  29.990  1.00  0.00     0.010 A 
ATOM     34  C   UNL A   1      38.967  30.093  30.684  1.00  0.00    -0.014 A 
BRANCH  34  35
ATOM     35  C   UNL A   1      40.172  29.627  29.957  1.00  0.00     0.031 A 
ATOM     36  C   UNL A   1      41.316  30.584  29.753  1.00  0.00     0.074 A 
ATOM     37  C   UNL A   1      40.269  28.358  29.525  1.00  0.00     0.049 A 
ATOM     38  N   UNL A   1      42.457  30.395  29.142  1.00  0.00    -0.248 NA
ATOM     39  C   UNL A   1      41.150  31.934  30.317  1.00  0.00     0.031 C 
ATOM     40  C   UNL A   1      39.249  27.326  29.700  1.00  0.00     0.029 A 
ATOM     41  N   UNL A   1      41.279  27.723  28.848  1.00  0.00    -0.354 N 
ATOM     42  C   UNL A   1      43.141  31.601  29.240  1.00  0.00     0.074 A 
ATOM     43  C   UNL A   1      42.277  32.522  29.946  1.00  0.00     0.031 C 
ATOM     44  C   UNL A   1      39.684  26.184  29.139  1.00  0.00     0.029 A 
ATOM     45  C   UNL A   1      40.997  26.415  28.541  1.00  0.00     0.049 A 
ATOM     46  H   UNL A   1      42.126  28.164  28.606  1.00  0.00     0.167 HD
ATOM     47  C   UNL A   1      44.381  31.908  28.793  1.00  0.00     0.037 A 
ATOM     48  C   UNL A   1      41.713  25.514  27.841  1.00  0.00     0.037 A 
ATOM     49  C   UNL A   1      45.244  30.990  28.098  1.00  0.00     0.049 A 
ATOM     50  C   UNL A   1      43.060  25.902  27.293  1.00  0.00     0.074 A 
ATOM     51  C   UNL A   1      46.528  31.201  27.625  1.00  0.00     0.029 A 
ATOM     52  N   UNL A   1      44.907  29.685  27.772  1.00  0.00    -0.354 N 
ATOM     53  N   UNL A   1      43.707  27.036  27.413  1.00  0.00    -0.248 NA
ATOM     54  C   UNL A   1      43.777  24.883  26.511  1.00  0.00     0.031 C 
ATOM     55  C   UNL A   1      46.949  30.039  26.972  1.00  0.00     0.029 A 
ATOM     56  C   UNL A   1      45.947  29.088  27.080  1.00  0.00     0.049 A 
ATOM     57  H   UNL A   1      44.054  29.248  27.998  1.00  0.00     0.167 HD
ATOM     58  C   UNL A   1      44.916  26.858  26.751  1.00  0.00     0.074 A 
ATOM     59  C   UNL A   1      44.917  25.504  26.239  1.00  0.00     0.031 C 
ATOM     60  C   UNL A   1      45.935  27.736  26.584  1.00  0.00     0.037 A 
BRANCH  47  61
ATOM     61  C   UNL A   1      44.871  33.308  29.019  1.00  0.00     0.057 A 
ATOM     62  C   UNL A   1      45.660  33.647  30.126  1.00  0.00     0.134 A 
ATOM     63  C   UNL A   1      44.579  34.322  28.098  1.00  0.00     0.134 A 
ATOM     64  F   UNL A   1      45.964  32.725  31.051  1.00  0.00    -0.206 F 
ATOM     65  C   UNL A   1      46.126  34.949  30.318  1.00  0.00     0.040 A 
ATOM     66  C   UNL A   1      45.058  35.622  28.267  1.00  0.00     0.040 A 
ATOM     67  F   UNL A   1      43.831  34.063  27.015  1.00  0.00    -0.206 F 
ATOM     68  C   UNL A   1      45.830  35.940  29.383  1.00  0.00     0.006 A 
ENDBRANCH  47  61
BRANCH  48  69
ATOM     69  C   UNL A   1      41.168  24.153  27.604  1.00  0.00     0.057 A 
ATOM     70  C   UNL A   1      41.655  23.044  28.303  1.00  0.00     0.134 A 
ATOM     71  C   UNL A   1      40.165  23.927  26.653  1.00  0.00     0.134 A 
ATOM     72  F   UNL A   1      42.634  23.193  29.210  1.00  0.00    -0.206 F 
ATOM     73  C   UNL A   1      41.179  21.756  28.055  1.00  0.00     0.040 A 
ATOM     74  C   UNL A   1      39.663  22.648  26.411  1.00  0.00     0.040 A 
ATOM     75  F   UNL A   1      39.657  24.948  25.949  1.00  0.00    -0.206 F 
ATOM     76  C   UNL A   1      40.175  21.556  27.108  1.00  0.00     0.006 A 
ENDBRANCH  48  69
BRANCH  60  77
ATOM     77  C   UNL A   1      47.150  27.249  25.849  1.00  0.00     0.057 A 
ATOM     78  C   UNL A   1      47.306  27.440  24.470  1.00  0.00     0.134 A 
ATOM     79  C   UNL A   1      48.195  26.620  26.538  1.00  0.00     0.134 A 
ATOM     80  F   UNL A   1      46.337  28.025  23.750  1.00  0.00    -0.206 F 
ATOM     81  C   UNL A   1      48.449  27.002  23.800  1.00  0.00     0.040 A 
ATOM     82  C   UNL A   1      49.353  26.202  25.883  1.00  0.00     0.040 A 
ATOM     83  F   UNL A   1      48.113  26.416  27.861  1.00  0.00    -0.206 F 
ATOM     84  C   UNL A   1      49.480  26.387  24.508  1.00  0.00     0.006 A 
ENDBRANCH  60  77
ENDBRANCH  34  35
ENDBRANCH  27  29
ENDBRANCH  26  27
ENDBRANCH  25  26
ENDBRANCH   1  25
TORSDOF 15
ENDMDL
