MODEL 1
REMARK VINA RESULT:     -11.9      0.000      0.000
REMARK SMILES C[C@@H](C(=O)OCCOCCOC(=O)c1ccc(-c2c3nc(c(-c4c(F)cccc4F)c4ccc([nH]4)c(-c4c(F)cccc4F)c4nc(c(-c5c(F)cccc5F)c5ccc2[nH]5)C=C4)C=C3)cc1)N1C(=O)/C(=C/c2ccc(-c3ccc([N+](=O)[O-])cc3Cl)o2)SC1=S
REMARK SMILES IDX 7 1 6 2 5 3 3 4 4 5 2 6 1 7 68 8 69 9 89 10 70 11 71 12
REMARK SMILES IDX 88 13 90 14 72 15 73 16 74 17 87 18 75 19 76 20 77 21 78 22
REMARK SMILES IDX 85 23 79 24 84 25 86 26 80 27 81 28 82 29 83 30 8 31 9 32
REMARK SMILES IDX 10 33 11 34 12 35 13 36 14 37 15 38 67 39 16 40 66 41 17 42
REMARK SMILES IDX 18 43 19 44 60 45 20 46 65 47 59 48 61 49 21 50 64 51 58 52
REMARK SMILES IDX 57 53 22 55 48 56 31 57 47 58 32 59 35 60 46 61 62 62 33 63
REMARK SMILES IDX 34 64 45 66 63 67 36 68 23 69 24 70 29 71 25 72 26 73 28 74
REMARK SMILES IDX 30 75 27 76 49 77 50 78 55 79 51 80 52 81 54 82 56 83 53 84
REMARK SMILES IDX 37 85 38 86 43 87 39 88 40 89 42 90 44 91 41 92
REMARK H PARENT 61 54 35 65
REMARK Flexibility Score: inf
ROOT
ATOM      1  C   UNL A   1      38.995  19.208  25.716  1.00  0.00     0.202 C 
ENDROOT
BRANCH   1   2
ATOM      2  C   UNL A   1      38.021  20.013  24.851  1.00  0.00     0.261 C 
BRANCH   2   3
ATOM      3  O   UNL A   1      37.011  20.677  25.635  1.00  0.00    -0.462 OA
BRANCH   3   4
ATOM      4  C   UNL A   1      35.932  21.122  24.935  1.00  0.00     0.329 C 
ATOM      5  O   UNL A   1      34.976  20.419  24.620  1.00  0.00    -0.250 OA
BRANCH   4   6
ATOM      6  C   UNL A   1      36.058  22.599  24.522  1.00  0.00     0.199 C 
ATOM      7  C   UNL A   1      37.105  23.399  25.299  1.00  0.00     0.044 C 
BRANCH   6   8
ATOM      8  N   UNL A   1      34.682  23.154  24.580  1.00  0.00    -0.279 N 
ATOM      9  C   UNL A   1      34.077  23.688  23.452  1.00  0.00     0.267 C 
ATOM     10  C   UNL A   1      34.029  23.389  25.781  1.00  0.00     0.149 C 
ATOM     11  O   UNL A   1      34.517  23.665  22.310  1.00  0.00    -0.268 OA
ATOM     12  C   UNL A   1      32.809  24.378  23.807  1.00  0.00     0.084 C 
ATOM     13  S   UNL A   1      32.581  24.345  25.507  1.00  0.00    -0.054 SA
ATOM     14  S   UNL A   1      34.458  22.883  27.315  1.00  0.00    -0.052 S 
ATOM     15  C   UNL A   1      32.019  24.935  22.878  1.00  0.00     0.068 C 
BRANCH  15  16
ATOM     16  C   UNL A   1      30.878  25.710  23.213  1.00  0.00     0.128 A 
ATOM     17  C   UNL A   1      29.682  25.285  23.780  1.00  0.00     0.051 A 
ATOM     18  O   UNL A   1      30.791  27.073  23.028  1.00  0.00    -0.457 OA
ATOM     19  C   UNL A   1      28.837  26.408  23.903  1.00  0.00     0.051 A 
ATOM     20  C   UNL A   1      29.544  27.477  23.399  1.00  0.00     0.136 A 
BRANCH  20  21
ATOM     21  C   UNL A   1      29.211  28.884  23.222  1.00  0.00     0.036 A 
ATOM     22  C   UNL A   1      28.188  29.213  22.312  1.00  0.00     0.020 A 
ATOM     23  C   UNL A   1      29.920  29.930  23.842  1.00  0.00     0.058 A 
ATOM     24  C   UNL A   1      27.889  30.544  22.009  1.00  0.00     0.086 A 
ATOM     25  C   UNL A   1      29.627  31.268  23.544  1.00  0.00     0.106 A 
ATOM     26  Cl  UNL A   1      31.231  29.646  24.936  1.00  0.00    -0.083 Cl
ATOM     27  C   UNL A   1      28.620  31.568  22.620  1.00  0.00     0.270 A 
BRANCH  27  28
ATOM     28  N   UNL A   1      28.349  32.967  22.266  1.00  0.00     0.062 N 
ATOM     29  O   UNL A   1      27.751  33.185  21.202  1.00  0.00    -0.258 OA
ATOM     30  O   UNL A   1      28.741  33.845  23.045  1.00  0.00    -0.258 OA
ENDBRANCH  27  28
ENDBRANCH  20  21
ENDBRANCH  15  16
ENDBRANCH   6   8
ENDBRANCH   4   6
ENDBRANCH   3   4
ENDBRANCH   2   3
ENDBRANCH   1   2
BRANCH   1  31
ATOM     31  O   UNL A   1      40.376  19.550  25.613  1.00  0.00    -0.374 OA
BRANCH  31  32
ATOM     32  C   UNL A   1      40.928  20.346  26.663  1.00  0.00     0.202 C 
BRANCH  32  33
ATOM     33  C   UNL A   1      42.244  21.068  26.357  1.00  0.00     0.261 C 
BRANCH  33  34
ATOM     34  O   UNL A   1      42.071  22.088  25.355  1.00  0.00    -0.460 OA
BRANCH  34  35
ATOM     35  C   UNL A   1      42.915  23.138  25.465  1.00  0.00     0.338 C 
ATOM     36  O   UNL A   1      43.954  23.325  24.842  1.00  0.00    -0.246 OA
BRANCH  35  37
ATOM     37  C   UNL A   1      42.333  24.173  26.338  1.00  0.00     0.060 A 
ATOM     38  C   UNL A   1      42.549  25.510  25.978  1.00  0.00     0.016 A 
ATOM     39  C   UNL A   1      41.656  23.857  27.520  1.00  0.00     0.016 A 
ATOM     40  C   UNL A   1      42.147  26.536  26.829  1.00  0.00     0.010 A 
ATOM     41  C   UNL A   1      41.260  24.890  28.376  1.00  0.00     0.010 A 
ATOM     42  C   UNL A   1      41.540  26.231  28.054  1.00  0.00    -0.014 A 
BRANCH  42  43
ATOM     43  C   UNL A   1      41.356  27.307  29.057  1.00  0.00     0.031 A 
ATOM     44  C   UNL A   1      42.328  27.412  30.200  1.00  0.00     0.074 A 
ATOM     45  C   UNL A   1      40.367  28.209  28.927  1.00  0.00     0.049 A 
ATOM     46  N   UNL A   1      42.356  28.266  31.191  1.00  0.00    -0.248 NA
ATOM     47  C   UNL A   1      43.416  26.421  30.227  1.00  0.00     0.031 C 
ATOM     48  C   UNL A   1      39.387  28.239  27.843  1.00  0.00     0.029 A 
ATOM     49  N   UNL A   1      40.026  29.275  29.721  1.00  0.00    -0.354 N 
ATOM     50  C   UNL A   1      43.460  27.916  31.959  1.00  0.00     0.074 A 
ATOM     51  C   UNL A   1      44.057  26.754  31.338  1.00  0.00     0.031 C 
ATOM     52  C   UNL A   1      38.548  29.269  28.045  1.00  0.00     0.029 A 
ATOM     53  C   UNL A   1      38.916  29.953  29.284  1.00  0.00     0.049 A 
ATOM     54  H   UNL A   1      40.531  29.531  30.526  1.00  0.00     0.167 HD
ATOM     55  C   UNL A   1      43.940  28.516  33.074  1.00  0.00     0.037 A 
ATOM     56  C   UNL A   1      38.262  30.995  29.831  1.00  0.00     0.037 A 
ATOM     57  C   UNL A   1      43.347  29.673  33.692  1.00  0.00     0.049 A 
ATOM     58  C   UNL A   1      38.774  31.603  31.110  1.00  0.00     0.074 A 
ATOM     59  C   UNL A   1      43.769  30.362  34.816  1.00  0.00     0.029 A 
ATOM     60  N   UNL A   1      42.203  30.308  33.237  1.00  0.00    -0.354 N 
ATOM     61  N   UNL A   1      39.830  31.276  31.816  1.00  0.00    -0.248 NA
ATOM     62  C   UNL A   1      38.005  32.726  31.667  1.00  0.00     0.031 C 
ATOM     63  C   UNL A   1      42.853  31.388  35.068  1.00  0.00     0.029 A 
ATOM     64  C   UNL A   1      41.888  31.368  34.073  1.00  0.00     0.049 A 
ATOM     65  H   UNL A   1      41.689  30.047  32.440  1.00  0.00     0.167 HD
ATOM     66  C   UNL A   1      39.867  32.167  32.881  1.00  0.00     0.074 A 
ATOM     67  C   UNL A   1      38.733  33.055  32.724  1.00  0.00     0.031 C 
ATOM     68  C   UNL A   1      40.760  32.245  33.899  1.00  0.00     0.037 A 
BRANCH  55  69
ATOM     69  C   UNL A   1      45.157  27.913  33.711  1.00  0.00     0.057 A 
ATOM     70  C   UNL A   1      45.063  26.898  34.672  1.00  0.00     0.134 A 
ATOM     71  C   UNL A   1      46.440  28.335  33.339  1.00  0.00     0.134 A 
ATOM     72  F   UNL A   1      43.864  26.461  35.083  1.00  0.00    -0.206 F 
ATOM     73  C   UNL A   1      46.202  26.338  35.255  1.00  0.00     0.040 A 
ATOM     74  C   UNL A   1      47.585  27.766  33.896  1.00  0.00     0.040 A 
ATOM     75  F   UNL A   1      46.598  29.301  32.421  1.00  0.00    -0.206 F 
ATOM     76  C   UNL A   1      47.467  26.768  34.862  1.00  0.00     0.006 A 
ENDBRANCH  55  69
BRANCH  56  77
ATOM     77  C   UNL A   1      37.037  31.526  29.181  1.00  0.00     0.057 A 
ATOM     78  C   UNL A   1      35.842  30.799  29.178  1.00  0.00     0.134 A 
ATOM     79  C   UNL A   1      37.041  32.766  28.531  1.00  0.00     0.134 A 
ATOM     80  F   UNL A   1      35.783  29.595  29.764  1.00  0.00    -0.206 F 
ATOM     81  C   UNL A   1      34.698  31.279  28.539  1.00  0.00     0.040 A 
ATOM     82  C   UNL A   1      35.897  33.268  27.908  1.00  0.00     0.040 A 
ATOM     83  F   UNL A   1      38.157  33.511  28.499  1.00  0.00    -0.206 F 
ATOM     84  C   UNL A   1      34.722  32.519  27.905  1.00  0.00     0.006 A 
ENDBRANCH  56  77
BRANCH  68  85
ATOM     85  C   UNL A   1      40.567  33.344  34.902  1.00  0.00     0.057 A 
ATOM     86  C   UNL A   1      39.799  33.162  36.059  1.00  0.00     0.134 A 
ATOM     87  C   UNL A   1      41.191  34.586  34.729  1.00  0.00     0.134 A 
ATOM     88  F   UNL A   1      39.164  32.000  36.279  1.00  0.00    -0.206 F 
ATOM     89  C   UNL A   1      39.643  34.183  36.998  1.00  0.00     0.040 A 
ATOM     90  C   UNL A   1      41.063  35.605  35.672  1.00  0.00     0.040 A 
ATOM     91  F   UNL A   1      41.948  34.822  33.646  1.00  0.00    -0.206 F 
ATOM     92  C   UNL A   1      40.282  35.407  36.809  1.00  0.00     0.006 A 
ENDBRANCH  68  85
ENDBRANCH  42  43
ENDBRANCH  35  37
ENDBRANCH  34  35
ENDBRANCH  33  34
ENDBRANCH  32  33
ENDBRANCH  31  32
ENDBRANCH   1  31
TORSDOF 18
ENDMDL
MODEL 2
REMARK VINA RESULT:     -11.9      4.698     10.237
REMARK SMILES C[C@@H](C(=O)OCCOCCOC(=O)c1ccc(-c2c3nc(c(-c4c(F)cccc4F)c4ccc([nH]4)c(-c4c(F)cccc4F)c4nc(c(-c5c(F)cccc5F)c5ccc2[nH]5)C=C4)C=C3)cc1)N1C(=O)/C(=C/c2ccc(-c3ccc([N+](=O)[O-])cc3Cl)o2)SC1=S
REMARK SMILES IDX 7 1 6 2 5 3 3 4 4 5 2 6 1 7 68 8 69 9 89 10 70 11 71 12
REMARK SMILES IDX 88 13 90 14 72 15 73 16 74 17 87 18 75 19 76 20 77 21 78 22
REMARK SMILES IDX 85 23 79 24 84 25 86 26 80 27 81 28 82 29 83 30 8 31 9 32
REMARK SMILES IDX 10 33 11 34 12 35 13 36 14 37 15 38 67 39 16 40 66 41 17 42
REMARK SMILES IDX 18 43 19 44 60 45 20 46 65 47 59 48 61 49 21 50 64 51 58 52
REMARK SMILES IDX 57 53 22 55 48 56 31 57 47 58 32 59 35 60 46 61 62 62 33 63
REMARK SMILES IDX 34 64 45 66 63 67 36 68 23 69 24 70 29 71 25 72 26 73 28 74
REMARK SMILES IDX 30 75 27 76 49 77 50 78 55 79 51 80 52 81 54 82 56 83 53 84
REMARK SMILES IDX 37 85 38 86 43 87 39 88 40 89 42 90 44 91 41 92
REMARK H PARENT 61 54 35 65
REMARK Flexibility Score: inf
ROOT
ATOM      1  C   UNL A   1      31.778  29.201  26.544  1.00  0.00     0.202 C 
ENDROOT
BRANCH   1   2
ATOM      2  C   UNL A   1      31.511  30.210  25.423  1.00  0.00     0.261 C 
BRANCH   2   3
ATOM      3  O   UNL A   1      30.676  29.667  24.383  1.00  0.00    -0.462 OA
BRANCH   3   4
ATOM      4  C   UNL A   1      31.319  28.890  23.469  1.00  0.00     0.329 C 
ATOM      5  O   UNL A   1      32.494  29.035  23.146  1.00  0.00    -0.250 OA
BRANCH   4   6
ATOM      6  C   UNL A   1      30.398  27.835  22.831  1.00  0.00     0.199 C 
ATOM      7  C   UNL A   1      28.902  28.065  23.053  1.00  0.00     0.044 C 
BRANCH   6   8
ATOM      8  N   UNL A   1      30.902  26.520  23.304  1.00  0.00    -0.279 N 
ATOM      9  C   UNL A   1      30.666  26.087  24.600  1.00  0.00     0.267 C 
ATOM     10  C   UNL A   1      31.818  25.774  22.578  1.00  0.00     0.149 C 
ATOM     11  O   UNL A   1      29.958  26.636  25.435  1.00  0.00    -0.268 OA
ATOM     12  C   UNL A   1      31.454  24.863  24.902  1.00  0.00     0.084 C 
ATOM     13  S   UNL A   1      32.447  24.462  23.562  1.00  0.00    -0.054 SA
ATOM     14  S   UNL A   1      32.322  25.994  21.000  1.00  0.00    -0.052 S 
ATOM     15  C   UNL A   1      31.359  24.229  26.080  1.00  0.00     0.068 C 
BRANCH  15  16
ATOM     16  C   UNL A   1      32.201  23.141  26.430  1.00  0.00     0.128 A 
ATOM     17  C   UNL A   1      33.033  23.014  27.536  1.00  0.00     0.051 A 
ATOM     18  O   UNL A   1      32.308  21.982  25.691  1.00  0.00    -0.457 OA
ATOM     19  C   UNL A   1      33.690  21.769  27.444  1.00  0.00     0.051 A 
ATOM     20  C   UNL A   1      33.241  21.184  26.281  1.00  0.00     0.136 A 
BRANCH  20  21
ATOM     21  C   UNL A   1      33.564  19.925  25.622  1.00  0.00     0.036 A 
ATOM     22  C   UNL A   1      32.613  18.886  25.679  1.00  0.00     0.020 A 
ATOM     23  C   UNL A   1      34.807  19.665  25.015  1.00  0.00     0.058 A 
ATOM     24  C   UNL A   1      32.897  17.618  25.165  1.00  0.00     0.086 A 
ATOM     25  C   UNL A   1      35.100  18.396  24.498  1.00  0.00     0.106 A 
ATOM     26  Cl  UNL A   1      36.068  20.848  24.935  1.00  0.00    -0.083 Cl
ATOM     27  C   UNL A   1      34.147  17.375  24.586  1.00  0.00     0.270 A 
BRANCH  27  28
ATOM     28  N   UNL A   1      34.471  16.030  24.094  1.00  0.00     0.062 N 
ATOM     29  O   UNL A   1      34.792  15.174  24.931  1.00  0.00    -0.258 OA
ATOM     30  O   UNL A   1      34.416  15.835  22.872  1.00  0.00    -0.258 OA
ENDBRANCH  27  28
ENDBRANCH  20  21
ENDBRANCH  15  16
ENDBRANCH   6   8
ENDBRANCH   4   6
ENDBRANCH   3   4
ENDBRANCH   2   3
ENDBRANCH   1   2
BRANCH   1  31
ATOM     31  O   UNL A   1      33.118  29.120  27.025  1.00  0.00    -0.374 OA
BRANCH  31  32
ATOM     32  C   UNL A   1      33.939  30.278  26.860  1.00  0.00     0.202 C 
BRANCH  32  33
ATOM     33  C   UNL A   1      34.118  31.173  28.091  1.00  0.00     0.261 C 
BRANCH  33  34
ATOM     34  O   UNL A   1      35.495  31.556  28.274  1.00  0.00    -0.460 OA
BRANCH  34  35
ATOM     35  C   UNL A   1      36.055  31.123  29.425  1.00  0.00     0.338 C 
ATOM     36  O   UNL A   1      35.600  31.231  30.558  1.00  0.00    -0.246 OA
BRANCH  35  37
ATOM     37  C   UNL A   1      37.253  30.313  29.139  1.00  0.00     0.060 A 
ATOM     38  C   UNL A   1      38.054  29.949  30.229  1.00  0.00     0.016 A 
ATOM     39  C   UNL A   1      37.631  29.975  27.836  1.00  0.00     0.016 A 
ATOM     40  C   UNL A   1      39.270  29.304  30.017  1.00  0.00     0.010 A 
ATOM     41  C   UNL A   1      38.856  29.334  27.626  1.00  0.00     0.010 A 
ATOM     42  C   UNL A   1      39.699  29.033  28.711  1.00  0.00    -0.014 A 
BRANCH  42  43
ATOM     43  C   UNL A   1      41.095  28.587  28.488  1.00  0.00     0.031 A 
ATOM     44  C   UNL A   1      42.209  29.590  28.613  1.00  0.00     0.074 A 
ATOM     45  C   UNL A   1      41.374  27.298  28.226  1.00  0.00     0.049 A 
ATOM     46  N   UNL A   1      43.497  29.426  28.456  1.00  0.00    -0.248 NA
ATOM     47  C   UNL A   1      41.815  30.965  28.966  1.00  0.00     0.031 C 
ATOM     48  C   UNL A   1      40.389  26.224  28.120  1.00  0.00     0.029 A 
ATOM     49  N   UNL A   1      42.577  26.677  27.999  1.00  0.00    -0.354 N 
ATOM     50  C   UNL A   1      44.067  30.671  28.688  1.00  0.00     0.074 A 
ATOM     51  C   UNL A   1      42.984  31.589  28.965  1.00  0.00     0.031 C 
ATOM     52  C   UNL A   1      41.028  25.075  27.840  1.00  0.00     0.029 A 
ATOM     53  C   UNL A   1      42.461  25.338  27.721  1.00  0.00     0.049 A 
ATOM     54  H   UNL A   1      43.441  27.147  28.034  1.00  0.00     0.167 HD
ATOM     55  C   UNL A   1      45.377  31.017  28.682  1.00  0.00     0.037 A 
ATOM     56  C   UNL A   1      43.402  24.434  27.392  1.00  0.00     0.037 A 
ATOM     57  C   UNL A   1      46.455  30.105  28.407  1.00  0.00     0.049 A 
ATOM     58  C   UNL A   1      44.845  24.857  27.323  1.00  0.00     0.074 A 
ATOM     59  C   UNL A   1      47.816  30.358  28.392  1.00  0.00     0.029 A 
ATOM     60  N   UNL A   1      46.293  28.764  28.097  1.00  0.00    -0.354 N 
ATOM     61  N   UNL A   1      45.375  26.033  27.565  1.00  0.00    -0.248 NA
ATOM     62  C   UNL A   1      45.822  23.827  26.940  1.00  0.00     0.031 C 
ATOM     63  C   UNL A   1      48.475  29.179  28.027  1.00  0.00     0.029 A 
ATOM     64  C   UNL A   1      47.527  28.181  27.862  1.00  0.00     0.049 A 
ATOM     65  H   UNL A   1      45.429  28.295  28.048  1.00  0.00     0.167 HD
ATOM     66  C   UNL A   1      46.744  25.878  27.389  1.00  0.00     0.074 A 
ATOM     67  C   UNL A   1      46.966  24.491  27.031  1.00  0.00     0.031 C 
ATOM     68  C   UNL A   1      47.732  26.799  27.513  1.00  0.00     0.037 A 
BRANCH  55  69
ATOM     69  C   UNL A   1      45.711  32.452  28.960  1.00  0.00     0.057 A 
ATOM     70  C   UNL A   1      45.874  32.934  30.266  1.00  0.00     0.134 A 
ATOM     71  C   UNL A   1      45.899  33.359  27.909  1.00  0.00     0.134 A 
ATOM     72  F   UNL A   1      45.693  32.121  31.317  1.00  0.00    -0.206 F 
ATOM     73  C   UNL A   1      46.192  34.270  30.516  1.00  0.00     0.040 A 
ATOM     74  C   UNL A   1      46.241  34.690  28.146  1.00  0.00     0.040 A 
ATOM     75  F   UNL A   1      45.761  32.960  26.635  1.00  0.00    -0.206 F 
ATOM     76  C   UNL A   1      46.382  35.151  29.454  1.00  0.00     0.006 A 
ENDBRANCH  55  69
BRANCH  56  77
ATOM     77  C   UNL A   1      43.012  23.035  27.085  1.00  0.00     0.057 A 
ATOM     78  C   UNL A   1      42.990  22.557  25.770  1.00  0.00     0.134 A 
ATOM     79  C   UNL A   1      42.631  22.149  28.100  1.00  0.00     0.134 A 
ATOM     80  F   UNL A   1      43.321  23.366  24.753  1.00  0.00    -0.206 F 
ATOM     81  C   UNL A   1      42.590  21.254  25.473  1.00  0.00     0.040 A 
ATOM     82  C   UNL A   1      42.252  20.835  27.820  1.00  0.00     0.040 A 
ATOM     83  F   UNL A   1      42.630  22.547  29.381  1.00  0.00    -0.206 F 
ATOM     84  C   UNL A   1      42.224  20.387  26.500  1.00  0.00     0.006 A 
ENDBRANCH  56  77
BRANCH  68  85
ATOM     85  C   UNL A   1      49.140  26.333  27.293  1.00  0.00     0.057 A 
ATOM     86  C   UNL A   1      49.931  25.846  28.342  1.00  0.00     0.134 A 
ATOM     87  C   UNL A   1      49.698  26.333  26.008  1.00  0.00     0.134 A 
ATOM     88  F   UNL A   1      49.460  25.831  29.598  1.00  0.00    -0.206 F 
ATOM     89  C   UNL A   1      51.233  25.394  28.123  1.00  0.00     0.040 A 
ATOM     90  C   UNL A   1      50.990  25.861  25.773  1.00  0.00     0.040 A 
ATOM     91  F   UNL A   1      48.991  26.778  24.958  1.00  0.00    -0.206 F 
ATOM     92  C   UNL A   1      51.764  25.394  26.834  1.00  0.00     0.006 A 
ENDBRANCH  68  85
ENDBRANCH  42  43
ENDBRANCH  35  37
ENDBRANCH  34  35
ENDBRANCH  33  34
ENDBRANCH  32  33
ENDBRANCH  31  32
ENDBRANCH   1  31
TORSDOF 18
ENDMDL
MODEL 3
REMARK VINA RESULT:     -11.8      3.582     10.241
REMARK SMILES C[C@@H](C(=O)OCCOCCOC(=O)c1ccc(-c2c3nc(c(-c4c(F)cccc4F)c4ccc([nH]4)c(-c4c(F)cccc4F)c4nc(c(-c5c(F)cccc5F)c5ccc2[nH]5)C=C4)C=C3)cc1)N1C(=O)/C(=C/c2ccc(-c3ccc([N+](=O)[O-])cc3Cl)o2)SC1=S
REMARK SMILES IDX 7 1 6 2 5 3 3 4 4 5 2 6 1 7 68 8 69 9 89 10 70 11 71 12
REMARK SMILES IDX 88 13 90 14 72 15 73 16 74 17 87 18 75 19 76 20 77 21 78 22
REMARK SMILES IDX 85 23 79 24 84 25 86 26 80 27 81 28 82 29 83 30 8 31 9 32
REMARK SMILES IDX 10 33 11 34 12 35 13 36 14 37 15 38 67 39 16 40 66 41 17 42
REMARK SMILES IDX 18 43 19 44 60 45 20 46 65 47 59 48 61 49 21 50 64 51 58 52
REMARK SMILES IDX 57 53 22 55 48 56 31 57 47 58 32 59 35 60 46 61 62 62 33 63
REMARK SMILES IDX 34 64 45 66 63 67 36 68 23 69 24 70 29 71 25 72 26 73 28 74
REMARK SMILES IDX 30 75 27 76 49 77 50 78 55 79 51 80 52 81 54 82 56 83 53 84
REMARK SMILES IDX 37 85 38 86 43 87 39 88 40 89 42 90 44 91 41 92
REMARK H PARENT 61 54 35 65
REMARK Flexibility Score: inf
ROOT
ATOM      1  C   UNL A   1      33.242  26.072  22.534  1.00  0.00     0.202 C 
ENDROOT
BRANCH   1   2
ATOM      2  C   UNL A   1      33.073  24.801  21.697  1.00  0.00     0.261 C 
BRANCH   2   3
ATOM      3  O   UNL A   1      32.806  23.641  22.509  1.00  0.00    -0.462 OA
BRANCH   3   4
ATOM      4  C   UNL A   1      33.901  23.068  23.080  1.00  0.00     0.329 C 
ATOM      5  O   UNL A   1      34.990  22.959  22.525  1.00  0.00    -0.250 OA
BRANCH   4   6
ATOM      6  C   UNL A   1      33.617  22.513  24.487  1.00  0.00     0.199 C 
ATOM      7  C   UNL A   1      32.565  23.286  25.285  1.00  0.00     0.044 C 
BRANCH   6   8
ATOM      8  N   UNL A   1      34.941  22.398  25.151  1.00  0.00    -0.279 N 
ATOM      9  C   UNL A   1      35.651  23.527  25.531  1.00  0.00     0.267 C 
ATOM     10  C   UNL A   1      35.637  21.201  25.209  1.00  0.00     0.149 C 
ATOM     11  O   UNL A   1      35.258  24.685  25.485  1.00  0.00    -0.268 OA
ATOM     12  C   UNL A   1      37.029  23.166  25.960  1.00  0.00     0.084 C 
ATOM     13  S   UNL A   1      37.284  21.483  25.752  1.00  0.00    -0.054 SA
ATOM     14  S   UNL A   1      35.094  19.662  24.847  1.00  0.00    -0.052 S 
ATOM     15  C   UNL A   1      37.893  24.084  26.416  1.00  0.00     0.068 C 
BRANCH  15  16
ATOM     16  C   UNL A   1      39.250  23.777  26.703  1.00  0.00     0.128 A 
ATOM     17  C   UNL A   1      40.113  24.419  27.584  1.00  0.00     0.051 A 
ATOM     18  O   UNL A   1      39.940  22.731  26.129  1.00  0.00    -0.457 OA
ATOM     19  C   UNL A   1      41.365  23.774  27.511  1.00  0.00     0.051 A 
ATOM     20  C   UNL A   1      41.224  22.767  26.583  1.00  0.00     0.136 A 
BRANCH  20  21
ATOM     21  C   UNL A   1      42.155  21.781  26.048  1.00  0.00     0.036 A 
ATOM     22  C   UNL A   1      41.883  20.418  26.283  1.00  0.00     0.020 A 
ATOM     23  C   UNL A   1      43.352  22.124  25.393  1.00  0.00     0.058 A 
ATOM     24  C   UNL A   1      42.785  19.424  25.896  1.00  0.00     0.086 A 
ATOM     25  C   UNL A   1      44.263  21.133  25.001  1.00  0.00     0.106 A 
ATOM     26  Cl  UNL A   1      43.815  23.766  25.098  1.00  0.00    -0.083 Cl
ATOM     27  C   UNL A   1      43.979  19.788  25.265  1.00  0.00     0.270 A 
BRANCH  27  28
ATOM     28  N   UNL A   1      44.956  18.753  24.905  1.00  0.00     0.062 N 
ATOM     29  O   UNL A   1      45.489  18.828  23.788  1.00  0.00    -0.258 OA
ATOM     30  O   UNL A   1      45.183  17.861  25.735  1.00  0.00    -0.258 OA
ENDBRANCH  27  28
ENDBRANCH  20  21
ENDBRANCH  15  16
ENDBRANCH   6   8
ENDBRANCH   4   6
ENDBRANCH   3   4
ENDBRANCH   2   3
ENDBRANCH   1   2
BRANCH   1  31
ATOM     31  O   UNL A   1      32.589  27.246  22.054  1.00  0.00    -0.374 OA
BRANCH  31  32
ATOM     32  C   UNL A   1      31.175  27.170  21.863  1.00  0.00     0.202 C 
BRANCH  32  33
ATOM     33  C   UNL A   1      30.304  27.892  22.895  1.00  0.00     0.261 C 
BRANCH  33  34
ATOM     34  O   UNL A   1      31.102  28.577  23.880  1.00  0.00    -0.460 OA
BRANCH  34  35
ATOM     35  C   UNL A   1      31.330  27.873  25.010  1.00  0.00     0.338 C 
ATOM     36  O   UNL A   1      30.693  26.914  25.430  1.00  0.00    -0.246 OA
BRANCH  35  37
ATOM     37  C   UNL A   1      32.600  28.296  25.630  1.00  0.00     0.060 A 
ATOM     38  C   UNL A   1      32.899  27.775  26.895  1.00  0.00     0.016 A 
ATOM     39  C   UNL A   1      33.445  29.234  25.031  1.00  0.00     0.016 A 
ATOM     40  C   UNL A   1      34.010  28.238  27.596  1.00  0.00     0.010 A 
ATOM     41  C   UNL A   1      34.556  29.703  25.740  1.00  0.00     0.010 A 
ATOM     42  C   UNL A   1      34.820  29.237  27.041  1.00  0.00    -0.014 A 
BRANCH  42  43
ATOM     43  C   UNL A   1      35.835  29.901  27.893  1.00  0.00     0.031 A 
ATOM     44  C   UNL A   1      35.428  31.092  28.717  1.00  0.00     0.074 A 
ATOM     45  C   UNL A   1      37.089  29.422  27.973  1.00  0.00     0.049 A 
ATOM     46  N   UNL A   1      36.147  31.828  29.525  1.00  0.00    -0.248 NA
ATOM     47  C   UNL A   1      34.020  31.508  28.616  1.00  0.00     0.031 C 
ATOM     48  C   UNL A   1      37.594  28.252  27.258  1.00  0.00     0.029 A 
ATOM     49  N   UNL A   1      38.167  29.868  28.696  1.00  0.00    -0.354 N 
ATOM     50  C   UNL A   1      35.282  32.792  30.027  1.00  0.00     0.074 A 
ATOM     51  C   UNL A   1      33.993  32.569  29.409  1.00  0.00     0.031 C 
ATOM     52  C   UNL A   1      38.889  28.077  27.571  1.00  0.00     0.029 A 
ATOM     53  C   UNL A   1      39.309  29.137  28.487  1.00  0.00     0.049 A 
ATOM     54  H   UNL A   1      38.124  30.638  29.307  1.00  0.00     0.167 HD
ATOM     55  C   UNL A   1      35.535  33.769  30.931  1.00  0.00     0.037 A 
ATOM     56  C   UNL A   1      40.554  29.313  28.967  1.00  0.00     0.037 A 
ATOM     57  C   UNL A   1      36.816  33.991  31.547  1.00  0.00     0.049 A 
ATOM     58  C   UNL A   1      40.829  30.449  29.917  1.00  0.00     0.074 A 
ATOM     59  C   UNL A   1      37.168  34.946  32.485  1.00  0.00     0.029 A 
ATOM     60  N   UNL A   1      37.957  33.249  31.282  1.00  0.00    -0.354 N 
ATOM     61  N   UNL A   1      39.998  31.341  30.400  1.00  0.00    -0.248 NA
ATOM     62  C   UNL A   1      42.213  30.599  30.391  1.00  0.00     0.031 C 
ATOM     63  C   UNL A   1      38.534  34.810  32.755  1.00  0.00     0.029 A 
ATOM     64  C   UNL A   1      39.021  33.741  32.021  1.00  0.00     0.049 A 
ATOM     65  H   UNL A   1      38.004  32.487  30.662  1.00  0.00     0.167 HD
ATOM     66  C   UNL A   1      40.751  32.140  31.252  1.00  0.00     0.074 A 
ATOM     67  C   UNL A   1      42.103  31.620  31.229  1.00  0.00     0.031 C 
ATOM     68  C   UNL A   1      40.359  33.208  31.990  1.00  0.00     0.037 A 
BRANCH  55  69
ATOM     69  C   UNL A   1      34.404  34.686  31.289  1.00  0.00     0.057 A 
ATOM     70  C   UNL A   1      33.791  34.646  32.548  1.00  0.00     0.134 A 
ATOM     71  C   UNL A   1      33.939  35.638  30.373  1.00  0.00     0.134 A 
ATOM     72  F   UNL A   1      34.178  33.747  33.465  1.00  0.00    -0.206 F 
ATOM     73  C   UNL A   1      32.742  35.508  32.876  1.00  0.00     0.040 A 
ATOM     74  C   UNL A   1      32.909  36.521  30.698  1.00  0.00     0.040 A 
ATOM     75  F   UNL A   1      34.486  35.730  29.151  1.00  0.00    -0.206 F 
ATOM     76  C   UNL A   1      32.303  36.453  31.951  1.00  0.00     0.006 A 
ENDBRANCH  55  69
BRANCH  56  77
ATOM     77  C   UNL A   1      41.648  28.401  28.547  1.00  0.00     0.057 A 
ATOM     78  C   UNL A   1      42.108  27.382  29.389  1.00  0.00     0.134 A 
ATOM     79  C   UNL A   1      42.272  28.541  27.302  1.00  0.00     0.134 A 
ATOM     80  F   UNL A   1      41.567  27.214  30.603  1.00  0.00    -0.206 F 
ATOM     81  C   UNL A   1      43.159  26.544  29.013  1.00  0.00     0.040 A 
ATOM     82  C   UNL A   1      43.308  27.694  26.903  1.00  0.00     0.040 A 
ATOM     83  F   UNL A   1      41.876  29.499  26.450  1.00  0.00    -0.206 F 
ATOM     84  C   UNL A   1      43.759  26.696  27.765  1.00  0.00     0.006 A 
ENDBRANCH  56  77
BRANCH  68  85
ATOM     85  C   UNL A   1      41.393  33.865  32.855  1.00  0.00     0.057 A 
ATOM     86  C   UNL A   1      41.564  33.515  34.200  1.00  0.00     0.134 A 
ATOM     87  C   UNL A   1      42.258  34.831  32.324  1.00  0.00     0.134 A 
ATOM     88  F   UNL A   1      40.760  32.605  34.773  1.00  0.00    -0.206 F 
ATOM     89  C   UNL A   1      42.545  34.116  34.991  1.00  0.00     0.040 A 
ATOM     90  C   UNL A   1      43.258  35.421  33.098  1.00  0.00     0.040 A 
ATOM     91  F   UNL A   1      42.154  35.205  31.039  1.00  0.00    -0.206 F 
ATOM     92  C   UNL A   1      43.400  35.067  34.438  1.00  0.00     0.006 A 
ENDBRANCH  68  85
ENDBRANCH  42  43
ENDBRANCH  35  37
ENDBRANCH  34  35
ENDBRANCH  33  34
ENDBRANCH  32  33
ENDBRANCH  31  32
ENDBRANCH   1  31
TORSDOF 18
ENDMDL
