MODEL 1
REMARK VINA RESULT:     -11.4      0.000      0.000
REMARK SMILES Cc1ccc(C(=O)OCCOCCOC(=O)c2ccc(-c3c4nc(c(-c5c(F)cccc5F)c5ccc([nH]5)c(-c5c(F)cccc5F)c5nc(c(-c6c(F)cccc6F)c6ccc3[nH]6)C=C5)C=C4)cc2)cc1S(=O)(=O)N(C)[C@H]1CCSC1
REMARK SMILES IDX 10 1 9 2 8 3 6 4 7 5 5 6 1 7 2 8 3 9 72 10 4 11 71 12 73 13
REMARK SMILES IDX 74 14 75 15 76 16 77 17 78 18 79 19 82 20 80 21 81 22 11 23
REMARK SMILES IDX 12 24 13 25 14 26 15 27 16 28 17 29 18 30 70 31 19 32 69 33
REMARK SMILES IDX 20 34 21 35 22 36 63 37 23 38 68 39 62 40 64 41 24 42 67 43
REMARK SMILES IDX 61 44 60 45 25 47 51 48 34 49 50 50 35 51 38 52 49 53 65 54
REMARK SMILES IDX 36 55 37 56 48 58 66 59 39 60 26 61 27 62 32 63 28 64 29 65
REMARK SMILES IDX 31 66 33 67 30 68 52 69 53 70 58 71 54 72 55 73 57 74 59 75
REMARK SMILES IDX 56 76 40 77 41 78 46 79 42 80 43 81 45 82 47 83 44 84
REMARK H PARENT 64 46 38 57
REMARK Flexibility Score: inf
ROOT
ATOM      1  C   UNL A   1      33.301  33.214  28.345  1.00  0.00     0.202 C 
ENDROOT
BRANCH   1   2
ATOM      2  C   UNL A   1      34.083  32.078  27.771  1.00  0.00     0.261 C 
BRANCH   2   3
ATOM      3  O   UNL A   1      33.275  30.898  27.662  1.00  0.00    -0.460 OA
BRANCH   3   4
ATOM      4  C   UNL A   1      32.160  30.868  26.877  1.00  0.00     0.338 C 
ATOM      5  O   UNL A   1      31.487  31.781  26.459  1.00  0.00    -0.246 OA
BRANCH   4   6
ATOM      6  C   UNL A   1      32.036  29.469  26.421  1.00  0.00     0.061 A 
ATOM      7  C   UNL A   1      30.395  25.706  25.180  1.00  0.00     0.046 C 
ATOM      8  C   UNL A   1      31.036  27.022  25.492  1.00  0.00    -0.031 A 
ATOM      9  C   UNL A   1      31.263  27.249  26.870  1.00  0.00     0.006 A 
ATOM     10  C   UNL A   1      31.361  28.049  24.587  1.00  0.00     0.086 A 
ATOM     11  C   UNL A   1      31.731  28.474  27.339  1.00  0.00     0.016 A 
ATOM     12  C   UNL A   1      31.955  29.216  25.055  1.00  0.00     0.037 A 
BRANCH  10  13
ATOM     13  S   UNL A   1      30.951  28.160  22.849  1.00  0.00     0.243 S 
ATOM     14  O   UNL A   1      31.906  29.065  22.254  1.00  0.00    -0.207 OA
ATOM     15  O   UNL A   1      30.795  26.805  22.354  1.00  0.00    -0.207 OA
BRANCH  13  16
ATOM     16  N   UNL A   1      29.423  28.832  22.820  1.00  0.00    -0.197 NA
ATOM     17  C   UNL A   1      28.310  28.009  23.289  1.00  0.00     0.125 C 
BRANCH  16  18
ATOM     18  C   UNL A   1      29.307  30.243  22.422  1.00  0.00     0.083 C 
ATOM     19  C   UNL A   1      28.204  30.516  21.411  1.00  0.00     0.032 C 
ATOM     20  C   UNL A   1      29.089  31.209  23.580  1.00  0.00     0.089 C 
ATOM     21  C   UNL A   1      28.317  32.000  21.119  1.00  0.00     0.071 C 
ATOM     22  S   UNL A   1      28.556  32.753  22.758  1.00  0.00    -0.160 SA
ENDBRANCH  16  18
ENDBRANCH  13  16
ENDBRANCH  10  13
ENDBRANCH   4   6
ENDBRANCH   3   4
ENDBRANCH   2   3
ENDBRANCH   1   2
BRANCH   1  23
ATOM     23  O   UNL A   1      34.019  34.382  27.984  1.00  0.00    -0.374 OA
BRANCH  23  24
ATOM     24  C   UNL A   1      33.630  35.563  28.652  1.00  0.00     0.202 C 
BRANCH  24  25
ATOM     25  C   UNL A   1      33.099  35.290  30.066  1.00  0.00     0.261 C 
BRANCH  25  26
ATOM     26  O   UNL A   1      34.115  35.628  31.037  1.00  0.00    -0.460 OA
BRANCH  26  27
ATOM     27  C   UNL A   1      34.310  34.742  32.054  1.00  0.00     0.338 C 
ATOM     28  O   UNL A   1      34.110  34.965  33.237  1.00  0.00    -0.246 OA
BRANCH  27  29
ATOM     29  C   UNL A   1      35.081  33.562  31.556  1.00  0.00     0.060 A 
ATOM     30  C   UNL A   1      34.927  32.301  32.169  1.00  0.00     0.016 A 
ATOM     31  C   UNL A   1      36.184  33.799  30.743  1.00  0.00     0.016 A 
ATOM     32  C   UNL A   1      35.963  31.351  32.112  1.00  0.00     0.010 A 
ATOM     33  C   UNL A   1      37.234  32.908  30.779  1.00  0.00     0.010 A 
ATOM     34  C   UNL A   1      37.163  31.699  31.497  1.00  0.00    -0.014 A 
BRANCH  34  35
ATOM     35  C   UNL A   1      38.454  31.004  31.640  1.00  0.00     0.031 A 
ATOM     36  C   UNL A   1      38.716  29.830  30.775  1.00  0.00     0.074 A 
ATOM     37  C   UNL A   1      39.504  31.613  32.251  1.00  0.00     0.049 A 
ATOM     38  N   UNL A   1      39.766  29.089  30.859  1.00  0.00    -0.248 NA
ATOM     39  C   UNL A   1      37.789  29.353  29.752  1.00  0.00     0.031 C 
ATOM     40  C   UNL A   1      40.935  31.448  31.967  1.00  0.00     0.029 A 
ATOM     41  N   UNL A   1      39.515  32.584  33.256  1.00  0.00    -0.354 N 
ATOM     42  C   UNL A   1      39.851  28.360  29.695  1.00  0.00     0.074 A 
ATOM     43  C   UNL A   1      38.527  28.425  29.137  1.00  0.00     0.031 C 
ATOM     44  C   UNL A   1      41.666  32.040  32.930  1.00  0.00     0.029 A 
ATOM     45  C   UNL A   1      40.736  32.500  33.944  1.00  0.00     0.049 A 
ATOM     46  H   UNL A   1      38.788  33.219  33.449  1.00  0.00     0.167 HD
ATOM     47  C   UNL A   1      41.087  27.941  29.291  1.00  0.00     0.037 A 
ATOM     48  C   UNL A   1      40.760  32.257  35.281  1.00  0.00     0.037 A 
ATOM     49  C   UNL A   1      42.089  28.231  30.339  1.00  0.00     0.049 A 
ATOM     50  C   UNL A   1      41.402  30.917  35.475  1.00  0.00     0.074 A 
ATOM     51  C   UNL A   1      43.146  29.124  30.426  1.00  0.00     0.029 A 
ATOM     52  N   UNL A   1      41.877  27.762  31.640  1.00  0.00    -0.354 N 
ATOM     53  N   UNL A   1      41.423  30.021  34.523  1.00  0.00    -0.248 NA
ATOM     54  C   UNL A   1      42.179  30.515  36.640  1.00  0.00     0.031 C 
ATOM     55  C   UNL A   1      43.504  29.249  31.801  1.00  0.00     0.029 A 
ATOM     56  C   UNL A   1      42.686  28.415  32.551  1.00  0.00     0.049 A 
ATOM     57  H   UNL A   1      41.233  27.055  31.877  1.00  0.00     0.167 HD
ATOM     58  C   UNL A   1      42.291  29.034  34.854  1.00  0.00     0.074 A 
ATOM     59  C   UNL A   1      42.685  29.339  36.219  1.00  0.00     0.031 C 
ATOM     60  C   UNL A   1      42.661  28.066  33.971  1.00  0.00     0.037 A 
BRANCH  47  61
ATOM     61  C   UNL A   1      41.462  27.489  27.879  1.00  0.00     0.057 A 
ATOM     62  C   UNL A   1      41.982  28.418  26.952  1.00  0.00     0.134 A 
ATOM     63  C   UNL A   1      41.285  26.201  27.329  1.00  0.00     0.134 A 
ATOM     64  F   UNL A   1      42.252  29.684  27.300  1.00  0.00    -0.206 F 
ATOM     65  C   UNL A   1      42.254  28.108  25.608  1.00  0.00     0.040 A 
ATOM     66  C   UNL A   1      41.569  25.872  25.992  1.00  0.00     0.040 A 
ATOM     67  F   UNL A   1      40.823  25.166  28.028  1.00  0.00    -0.206 F 
ATOM     68  C   UNL A   1      42.045  26.829  25.120  1.00  0.00     0.006 A 
ENDBRANCH  47  61
BRANCH  48  69
ATOM     69  C   UNL A   1      39.585  32.887  35.957  1.00  0.00     0.057 A 
ATOM     70  C   UNL A   1      38.596  32.004  36.447  1.00  0.00     0.134 A 
ATOM     71  C   UNL A   1      39.678  34.130  36.592  1.00  0.00     0.134 A 
ATOM     72  F   UNL A   1      38.456  30.784  35.902  1.00  0.00    -0.206 F 
ATOM     73  C   UNL A   1      37.854  32.278  37.603  1.00  0.00     0.040 A 
ATOM     74  C   UNL A   1      38.938  34.413  37.753  1.00  0.00     0.040 A 
ATOM     75  F   UNL A   1      40.598  35.025  36.205  1.00  0.00    -0.206 F 
ATOM     76  C   UNL A   1      38.062  33.467  38.290  1.00  0.00     0.006 A 
ENDBRANCH  48  69
BRANCH  60  77
ATOM     77  C   UNL A   1      43.108  26.706  34.408  1.00  0.00     0.057 A 
ATOM     78  C   UNL A   1      42.234  25.765  34.974  1.00  0.00     0.134 A 
ATOM     79  C   UNL A   1      44.388  26.225  34.071  1.00  0.00     0.134 A 
ATOM     80  F   UNL A   1      40.952  26.058  35.236  1.00  0.00    -0.206 F 
ATOM     81  C   UNL A   1      42.624  24.452  35.241  1.00  0.00     0.040 A 
ATOM     82  C   UNL A   1      44.766  24.898  34.274  1.00  0.00     0.040 A 
ATOM     83  F   UNL A   1      45.310  27.006  33.490  1.00  0.00    -0.206 F 
ATOM     84  C   UNL A   1      43.888  24.011  34.876  1.00  0.00     0.006 A 
ENDBRANCH  60  77
ENDBRANCH  34  35
ENDBRANCH  27  29
ENDBRANCH  26  27
ENDBRANCH  25  26
ENDBRANCH  24  25
ENDBRANCH  23  24
ENDBRANCH   1  23
TORSDOF 17
ENDMDL
MODEL 2
REMARK VINA RESULT:     -11.3      5.641     10.802
REMARK SMILES Cc1ccc(C(=O)OCCOCCOC(=O)c2ccc(-c3c4nc(c(-c5c(F)cccc5F)c5ccc([nH]5)c(-c5c(F)cccc5F)c5nc(c(-c6c(F)cccc6F)c6ccc3[nH]6)C=C5)C=C4)cc2)cc1S(=O)(=O)N(C)[C@H]1CCSC1
REMARK SMILES IDX 10 1 9 2 8 3 6 4 7 5 5 6 1 7 2 8 3 9 72 10 4 11 71 12 73 13
REMARK SMILES IDX 74 14 75 15 76 16 77 17 78 18 79 19 82 20 80 21 81 22 11 23
REMARK SMILES IDX 12 24 13 25 14 26 15 27 16 28 17 29 18 30 70 31 19 32 69 33
REMARK SMILES IDX 20 34 21 35 22 36 63 37 23 38 68 39 62 40 64 41 24 42 67 43
REMARK SMILES IDX 61 44 60 45 25 47 51 48 34 49 50 50 35 51 38 52 49 53 65 54
REMARK SMILES IDX 36 55 37 56 48 58 66 59 39 60 26 61 27 62 32 63 28 64 29 65
REMARK SMILES IDX 31 66 33 67 30 68 52 69 53 70 58 71 54 72 55 73 57 74 59 75
REMARK SMILES IDX 56 76 40 77 41 78 46 79 42 80 43 81 45 82 47 83 44 84
REMARK H PARENT 64 46 38 57
REMARK Flexibility Score: inf
ROOT
ATOM      1  C   UNL A   1      40.782  20.023  26.540  1.00  0.00     0.202 C 
ENDROOT
BRANCH   1   2
ATOM      2  C   UNL A   1      40.209  21.249  25.907  1.00  0.00     0.261 C 
BRANCH   2   3
ATOM      3  O   UNL A   1      38.797  21.337  26.140  1.00  0.00    -0.460 OA
BRANCH   3   4
ATOM      4  C   UNL A   1      38.098  22.475  25.864  1.00  0.00     0.338 C 
ATOM      5  O   UNL A   1      38.456  23.630  25.914  1.00  0.00    -0.246 OA
BRANCH   4   6
ATOM      6  C   UNL A   1      36.834  22.024  25.249  1.00  0.00     0.061 A 
ATOM      7  C   UNL A   1      32.869  20.475  24.728  1.00  0.00     0.046 C 
ATOM      8  C   UNL A   1      34.210  21.130  24.844  1.00  0.00    -0.031 A 
ATOM      9  C   UNL A   1      35.301  20.231  24.847  1.00  0.00     0.006 A 
ATOM     10  C   UNL A   1      34.478  22.501  25.016  1.00  0.00     0.086 A 
ATOM     11  C   UNL A   1      36.604  20.666  25.077  1.00  0.00     0.016 A 
ATOM     12  C   UNL A   1      35.795  22.937  25.109  1.00  0.00     0.037 A 
BRANCH  10  13
ATOM     13  S   UNL A   1      33.313  23.824  25.318  1.00  0.00     0.243 S 
ATOM     14  O   UNL A   1      32.192  23.238  26.017  1.00  0.00    -0.207 OA
ATOM     15  O   UNL A   1      34.054  24.932  25.891  1.00  0.00    -0.207 OA
BRANCH  13  16
ATOM     16  N   UNL A   1      32.845  24.329  23.798  1.00  0.00    -0.197 NA
ATOM     17  C   UNL A   1      33.147  23.452  22.668  1.00  0.00     0.125 C 
BRANCH  16  18
ATOM     18  C   UNL A   1      32.069  25.575  23.702  1.00  0.00     0.083 C 
ATOM     19  C   UNL A   1      31.937  26.118  22.287  1.00  0.00     0.032 C 
ATOM     20  C   UNL A   1      30.658  25.483  24.269  1.00  0.00     0.089 C 
ATOM     21  C   UNL A   1      31.159  27.411  22.451  1.00  0.00     0.071 C 
ATOM     22  S   UNL A   1      29.835  26.983  23.622  1.00  0.00    -0.160 SA
ENDBRANCH  16  18
ENDBRANCH  13  16
ENDBRANCH  10  13
ENDBRANCH   4   6
ENDBRANCH   3   4
ENDBRANCH   2   3
ENDBRANCH   1   2
BRANCH   1  23
ATOM     23  O   UNL A   1      41.668  19.482  25.573  1.00  0.00    -0.374 OA
BRANCH  23  24
ATOM     24  C   UNL A   1      42.723  18.699  26.088  1.00  0.00     0.202 C 
BRANCH  24  25
ATOM     25  C   UNL A   1      44.015  18.847  25.273  1.00  0.00     0.261 C 
BRANCH  25  26
ATOM     26  O   UNL A   1      44.005  20.114  24.577  1.00  0.00    -0.460 OA
BRANCH  26  27
ATOM     27  C   UNL A   1      44.783  21.105  25.097  1.00  0.00     0.338 C 
ATOM     28  O   UNL A   1      45.944  20.982  25.453  1.00  0.00    -0.246 OA
BRANCH  27  29
ATOM     29  C   UNL A   1      43.934  22.285  25.445  1.00  0.00     0.060 A 
ATOM     30  C   UNL A   1      43.780  23.346  24.529  1.00  0.00     0.016 A 
ATOM     31  C   UNL A   1      43.606  22.480  26.782  1.00  0.00     0.016 A 
ATOM     32  C   UNL A   1      43.473  24.641  24.985  1.00  0.00     0.010 A 
ATOM     33  C   UNL A   1      43.408  23.768  27.232  1.00  0.00     0.010 A 
ATOM     34  C   UNL A   1      43.386  24.869  26.355  1.00  0.00    -0.014 A 
BRANCH  34  35
ATOM     35  C   UNL A   1      43.429  26.178  27.029  1.00  0.00     0.031 A 
ATOM     36  C   UNL A   1      42.144  26.858  27.322  1.00  0.00     0.074 A 
ATOM     37  C   UNL A   1      44.545  26.581  27.691  1.00  0.00     0.049 A 
ATOM     38  N   UNL A   1      42.048  28.036  27.831  1.00  0.00    -0.248 NA
ATOM     39  C   UNL A   1      40.835  26.278  27.027  1.00  0.00     0.031 C 
ATOM     40  C   UNL A   1      44.632  27.431  28.885  1.00  0.00     0.029 A 
ATOM     41  N   UNL A   1      45.886  26.261  27.462  1.00  0.00    -0.354 N 
ATOM     42  C   UNL A   1      40.763  28.179  28.302  1.00  0.00     0.074 A 
ATOM     43  C   UNL A   1      40.020  27.151  27.625  1.00  0.00     0.031 C 
ATOM     44  C   UNL A   1      45.911  27.790  29.101  1.00  0.00     0.029 A 
ATOM     45  C   UNL A   1      46.686  27.291  27.981  1.00  0.00     0.049 A 
ATOM     46  H   UNL A   1      46.214  25.449  27.010  1.00  0.00     0.167 HD
ATOM     47  C   UNL A   1      40.552  29.054  29.329  1.00  0.00     0.037 A 
ATOM     48  C   UNL A   1      47.539  27.977  27.175  1.00  0.00     0.037 A 
ATOM     49  C   UNL A   1      41.786  29.820  29.605  1.00  0.00     0.049 A 
ATOM     50  C   UNL A   1      47.045  29.391  27.112  1.00  0.00     0.074 A 
ATOM     51  C   UNL A   1      42.688  29.828  30.658  1.00  0.00     0.029 A 
ATOM     52  N   UNL A   1      42.408  30.518  28.565  1.00  0.00    -0.354 N 
ATOM     53  N   UNL A   1      45.798  29.695  27.362  1.00  0.00    -0.248 NA
ATOM     54  C   UNL A   1      47.883  30.569  26.923  1.00  0.00     0.031 C 
ATOM     55  C   UNL A   1      43.885  30.458  30.207  1.00  0.00     0.029 A 
ATOM     56  C   UNL A   1      43.707  30.859  28.890  1.00  0.00     0.049 A 
ATOM     57  H   UNL A   1      41.974  30.739  27.708  1.00  0.00     0.167 HD
ATOM     58  C   UNL A   1      45.684  31.038  27.512  1.00  0.00     0.074 A 
ATOM     59  C   UNL A   1      46.994  31.555  27.153  1.00  0.00     0.031 C 
ATOM     60  C   UNL A   1      44.542  31.624  27.965  1.00  0.00     0.037 A 
BRANCH  47  61
ATOM     61  C   UNL A   1      39.332  29.074  30.251  1.00  0.00     0.057 A 
ATOM     62  C   UNL A   1      38.118  29.645  29.808  1.00  0.00     0.134 A 
ATOM     63  C   UNL A   1      39.275  28.627  31.589  1.00  0.00     0.134 A 
ATOM     64  F   UNL A   1      37.967  30.092  28.554  1.00  0.00    -0.206 F 
ATOM     65  C   UNL A   1      36.984  29.795  30.627  1.00  0.00     0.040 A 
ATOM     66  C   UNL A   1      38.144  28.756  32.413  1.00  0.00     0.040 A 
ATOM     67  F   UNL A   1      40.300  28.042  32.206  1.00  0.00    -0.206 F 
ATOM     68  C   UNL A   1      36.994  29.353  31.939  1.00  0.00     0.006 A 
ENDBRANCH  47  61
BRANCH  48  69
ATOM     69  C   UNL A   1      48.096  27.087  26.112  1.00  0.00     0.057 A 
ATOM     70  C   UNL A   1      47.583  27.270  24.807  1.00  0.00     0.134 A 
ATOM     71  C   UNL A   1      49.384  26.547  26.203  1.00  0.00     0.134 A 
ATOM     72  F   UNL A   1      46.361  27.800  24.636  1.00  0.00    -0.206 F 
ATOM     73  C   UNL A   1      48.365  27.079  23.661  1.00  0.00     0.040 A 
ATOM     74  C   UNL A   1      50.176  26.353  25.058  1.00  0.00     0.040 A 
ATOM     75  F   UNL A   1      49.959  26.355  27.399  1.00  0.00    -0.206 F 
ATOM     76  C   UNL A   1      49.685  26.667  23.789  1.00  0.00     0.006 A 
ENDBRANCH  48  69
BRANCH  60  77
ATOM     77  C   UNL A   1      44.164  33.028  27.612  1.00  0.00     0.057 A 
ATOM     78  C   UNL A   1      44.253  34.092  28.522  1.00  0.00     0.134 A 
ATOM     79  C   UNL A   1      43.906  33.389  26.274  1.00  0.00     0.134 A 
ATOM     80  F   UNL A   1      44.606  33.900  29.801  1.00  0.00    -0.206 F 
ATOM     81  C   UNL A   1      44.040  35.418  28.143  1.00  0.00     0.040 A 
ATOM     82  C   UNL A   1      43.757  34.716  25.873  1.00  0.00     0.040 A 
ATOM     83  F   UNL A   1      43.831  32.477  25.294  1.00  0.00    -0.206 F 
ATOM     84  C   UNL A   1      43.807  35.735  26.812  1.00  0.00     0.006 A 
ENDBRANCH  60  77
ENDBRANCH  34  35
ENDBRANCH  27  29
ENDBRANCH  26  27
ENDBRANCH  25  26
ENDBRANCH  24  25
ENDBRANCH  23  24
ENDBRANCH   1  23
TORSDOF 17
ENDMDL
MODEL 3
REMARK VINA RESULT:     -11.0      1.863      3.219
REMARK SMILES Cc1ccc(C(=O)OCCOCCOC(=O)c2ccc(-c3c4nc(c(-c5c(F)cccc5F)c5ccc([nH]5)c(-c5c(F)cccc5F)c5nc(c(-c6c(F)cccc6F)c6ccc3[nH]6)C=C5)C=C4)cc2)cc1S(=O)(=O)N(C)[C@H]1CCSC1
REMARK SMILES IDX 10 1 9 2 8 3 6 4 7 5 5 6 1 7 2 8 3 9 72 10 4 11 71 12 73 13
REMARK SMILES IDX 74 14 75 15 76 16 77 17 78 18 79 19 82 20 80 21 81 22 11 23
REMARK SMILES IDX 12 24 13 25 14 26 15 27 16 28 17 29 18 30 70 31 19 32 69 33
REMARK SMILES IDX 20 34 21 35 22 36 63 37 23 38 68 39 62 40 64 41 24 42 67 43
REMARK SMILES IDX 61 44 60 45 25 47 51 48 34 49 50 50 35 51 38 52 49 53 65 54
REMARK SMILES IDX 36 55 37 56 48 58 66 59 39 60 26 61 27 62 32 63 28 64 29 65
REMARK SMILES IDX 31 66 33 67 30 68 52 69 53 70 58 71 54 72 55 73 57 74 59 75
REMARK SMILES IDX 56 76 40 77 41 78 46 79 42 80 43 81 45 82 47 83 44 84
REMARK H PARENT 64 46 38 57
REMARK Flexibility Score: inf
ROOT
ATOM      1  C   UNL A   1      33.362  32.959  27.981  1.00  0.00     0.202 C 
ENDROOT
BRANCH   1   2
ATOM      2  C   UNL A   1      34.186  31.718  27.872  1.00  0.00     0.261 C 
BRANCH   2   3
ATOM      3  O   UNL A   1      33.719  30.880  26.806  1.00  0.00    -0.460 OA
BRANCH   3   4
ATOM      4  C   UNL A   1      33.762  29.520  26.896  1.00  0.00     0.338 C 
ATOM      5  O   UNL A   1      34.506  28.814  27.537  1.00  0.00    -0.246 OA
BRANCH   4   6
ATOM      6  C   UNL A   1      32.543  29.041  26.217  1.00  0.00     0.061 A 
ATOM      7  C   UNL A   1      29.875  27.401  23.286  1.00  0.00     0.046 C 
ATOM      8  C   UNL A   1      30.762  27.874  24.395  1.00  0.00    -0.031 A 
ATOM      9  C   UNL A   1      31.021  29.264  24.383  1.00  0.00     0.006 A 
ATOM     10  C   UNL A   1      31.397  27.088  25.375  1.00  0.00     0.086 A 
ATOM     11  C   UNL A   1      31.928  29.845  25.266  1.00  0.00     0.016 A 
ATOM     12  C   UNL A   1      32.193  27.700  26.336  1.00  0.00     0.037 A 
BRANCH  10  13
ATOM     13  S   UNL A   1      31.475  25.304  25.479  1.00  0.00     0.243 S 
ATOM     14  O   UNL A   1      31.519  24.971  26.884  1.00  0.00    -0.207 OA
ATOM     15  O   UNL A   1      30.435  24.774  24.617  1.00  0.00    -0.207 OA
BRANCH  13  16
ATOM     16  N   UNL A   1      32.920  24.903  24.745  1.00  0.00    -0.197 NA
ATOM     17  C   UNL A   1      33.237  25.547  23.472  1.00  0.00     0.125 C 
BRANCH  16  18
ATOM     18  C   UNL A   1      33.830  24.007  25.475  1.00  0.00     0.083 C 
ATOM     19  C   UNL A   1      33.553  22.527  25.257  1.00  0.00     0.032 C 
ATOM     20  C   UNL A   1      35.307  24.226  25.174  1.00  0.00     0.089 C 
ATOM     21  C   UNL A   1      34.564  21.820  26.140  1.00  0.00     0.071 C 
ATOM     22  S   UNL A   1      36.112  22.732  25.855  1.00  0.00    -0.160 SA
ENDBRANCH  16  18
ENDBRANCH  13  16
ENDBRANCH  10  13
ENDBRANCH   4   6
ENDBRANCH   3   4
ENDBRANCH   2   3
ENDBRANCH   1   2
BRANCH   1  23
ATOM     23  O   UNL A   1      34.267  34.029  27.760  1.00  0.00    -0.374 OA
BRANCH  23  24
ATOM     24  C   UNL A   1      33.859  35.282  28.265  1.00  0.00     0.202 C 
BRANCH  24  25
ATOM     25  C   UNL A   1      33.244  35.178  29.667  1.00  0.00     0.261 C 
BRANCH  25  26
ATOM     26  O   UNL A   1      34.267  35.412  30.661  1.00  0.00    -0.460 OA
BRANCH  26  27
ATOM     27  C   UNL A   1      34.374  34.490  31.659  1.00  0.00     0.338 C 
ATOM     28  O   UNL A   1      34.070  34.670  32.827  1.00  0.00    -0.246 OA
BRANCH  27  29
ATOM     29  C   UNL A   1      35.187  33.327  31.188  1.00  0.00     0.060 A 
ATOM     30  C   UNL A   1      35.028  32.059  31.784  1.00  0.00     0.016 A 
ATOM     31  C   UNL A   1      36.322  33.589  30.429  1.00  0.00     0.016 A 
ATOM     32  C   UNL A   1      36.081  31.127  31.769  1.00  0.00     0.010 A 
ATOM     33  C   UNL A   1      37.384  32.715  30.507  1.00  0.00     0.010 A 
ATOM     34  C   UNL A   1      37.302  31.500  31.212  1.00  0.00    -0.014 A 
BRANCH  34  35
ATOM     35  C   UNL A   1      38.597  30.827  31.410  1.00  0.00     0.031 A 
ATOM     36  C   UNL A   1      38.899  29.635  30.582  1.00  0.00     0.074 A 
ATOM     37  C   UNL A   1      39.621  31.464  32.035  1.00  0.00     0.049 A 
ATOM     38  N   UNL A   1      39.956  28.911  30.714  1.00  0.00    -0.248 NA
ATOM     39  C   UNL A   1      38.008  29.120  29.544  1.00  0.00     0.031 C 
ATOM     40  C   UNL A   1      41.061  31.312  31.796  1.00  0.00     0.029 A 
ATOM     41  N   UNL A   1      39.590  32.459  33.015  1.00  0.00    -0.354 N 
ATOM     42  C   UNL A   1      40.084  28.154  29.572  1.00  0.00     0.074 A 
ATOM     43  C   UNL A   1      38.776  28.188  28.975  1.00  0.00     0.031 C 
ATOM     44  C   UNL A   1      41.756  31.936  32.765  1.00  0.00     0.029 A 
ATOM     45  C   UNL A   1      40.792  32.409  33.741  1.00  0.00     0.049 A 
ATOM     46  H   UNL A   1      38.850  33.089  33.171  1.00  0.00     0.167 HD
ATOM     47  C   UNL A   1      41.336  27.742  29.215  1.00  0.00     0.037 A 
ATOM     48  C   UNL A   1      40.780  32.199  35.083  1.00  0.00     0.037 A 
ATOM     49  C   UNL A   1      42.303  28.072  30.283  1.00  0.00     0.049 A 
ATOM     50  C   UNL A   1      41.433  30.873  35.329  1.00  0.00     0.074 A 
ATOM     51  C   UNL A   1      43.346  28.980  30.379  1.00  0.00     0.029 A 
ATOM     52  N   UNL A   1      42.060  27.632  31.589  1.00  0.00    -0.354 N 
ATOM     53  N   UNL A   1      41.493  29.955  34.400  1.00  0.00    -0.248 NA
ATOM     54  C   UNL A   1      42.181  30.510  36.526  1.00  0.00     0.031 C 
ATOM     55  C   UNL A   1      43.662  29.143  31.759  1.00  0.00     0.029 A 
ATOM     56  C   UNL A   1      42.833  28.318  32.506  1.00  0.00     0.049 A 
ATOM     57  H   UNL A   1      41.418  26.922  31.825  1.00  0.00     0.167 HD
ATOM     58  C   UNL A   1      42.363  28.987  34.780  1.00  0.00     0.074 A 
ATOM     59  C   UNL A   1      42.714  29.331  36.148  1.00  0.00     0.031 C 
ATOM     60  C   UNL A   1      42.772  28.003  33.933  1.00  0.00     0.037 A 
BRANCH  47  61
ATOM     61  C   UNL A   1      41.757  27.261  27.825  1.00  0.00     0.057 A 
ATOM     62  C   UNL A   1      42.403  26.014  27.673  1.00  0.00     0.134 A 
ATOM     63  C   UNL A   1      41.634  27.970  26.611  1.00  0.00     0.134 A 
ATOM     64  F   UNL A   1      42.579  25.181  28.708  1.00  0.00    -0.206 F 
ATOM     65  C   UNL A   1      42.913  25.546  26.449  1.00  0.00     0.040 A 
ATOM     66  C   UNL A   1      42.123  27.507  25.378  1.00  0.00     0.040 A 
ATOM     67  F   UNL A   1      41.043  29.160  26.519  1.00  0.00    -0.206 F 
ATOM     68  C   UNL A   1      42.778  26.295  25.292  1.00  0.00     0.006 A 
ENDBRANCH  47  61
BRANCH  48  69
ATOM     69  C   UNL A   1      39.578  32.829  35.709  1.00  0.00     0.057 A 
ATOM     70  C   UNL A   1      38.572  31.947  36.164  1.00  0.00     0.134 A 
ATOM     71  C   UNL A   1      39.643  34.076  36.341  1.00  0.00     0.134 A 
ATOM     72  F   UNL A   1      38.457  30.724  35.620  1.00  0.00    -0.206 F 
ATOM     73  C   UNL A   1      37.785  32.224  37.289  1.00  0.00     0.040 A 
ATOM     74  C   UNL A   1      38.857  34.363  37.470  1.00  0.00     0.040 A 
ATOM     75  F   UNL A   1      40.576  34.971  35.986  1.00  0.00    -0.206 F 
ATOM     76  C   UNL A   1      37.963  33.417  37.977  1.00  0.00     0.006 A 
ENDBRANCH  48  69
BRANCH  60  77
ATOM     77  C   UNL A   1      43.222  26.660  34.417  1.00  0.00     0.057 A 
ATOM     78  C   UNL A   1      42.331  25.683  34.886  1.00  0.00     0.134 A 
ATOM     79  C   UNL A   1      44.550  26.232  34.219  1.00  0.00     0.134 A 
ATOM     80  F   UNL A   1      41.018  25.924  35.008  1.00  0.00    -0.206 F 
ATOM     81  C   UNL A   1      42.743  24.386  35.194  1.00  0.00     0.040 A 
ATOM     82  C   UNL A   1      44.957  24.921  34.462  1.00  0.00     0.040 A 
ATOM     83  F   UNL A   1      45.497  27.051  33.740  1.00  0.00    -0.206 F 
ATOM     84  C   UNL A   1      44.055  23.997  34.968  1.00  0.00     0.006 A 
ENDBRANCH  60  77
ENDBRANCH  34  35
ENDBRANCH  27  29
ENDBRANCH  26  27
ENDBRANCH  25  26
ENDBRANCH  24  25
ENDBRANCH  23  24
ENDBRANCH   1  23
TORSDOF 17
ENDMDL
