MODEL 1
REMARK VINA RESULT:     -12.6      0.000      0.000
REMARK SMILES O=C(OCCOCCOC(=O)[C@H]1CCCCN1c1cc(-c2ccccc2)nc(-c2cccc(Cl)c2)n1)c1ccc(-c2c3nc(c(-c4c(F)cccc4F)c4ccc([nH]4)c(-c4c(F)cccc4F)c4nc(c(-c5c(F)cccc5F)c5ccc2[nH]5)C=C4)C=C3)cc1
REMARK SMILES IDX 6 1 5 2 4 3 3 4 2 5 1 6 37 7 38 8 90 9 39 10 89 11 40 12
REMARK SMILES IDX 41 13 42 14 83 15 43 16 88 17 82 18 84 19 44 20 87 21 81 22
REMARK SMILES IDX 80 23 45 25 71 26 54 27 70 28 55 29 58 30 69 31 85 32 56 33
REMARK SMILES IDX 57 34 68 36 86 37 59 38 46 39 47 40 52 41 48 42 49 43 51 44
REMARK SMILES IDX 53 45 50 46 72 47 73 48 78 49 74 50 75 51 77 52 79 53 76 54
REMARK SMILES IDX 60 55 61 56 66 57 62 58 63 59 65 60 67 61 64 62 7 63 8 64
REMARK SMILES IDX 9 65 10 66 11 67 12 68 13 69 17 70 14 71 16 72 15 73 18 74
REMARK SMILES IDX 19 75 36 76 20 77 28 78 27 79 21 80 22 81 26 82 23 83 25 84
REMARK SMILES IDX 24 85 29 86 30 87 35 88 31 89 33 90 32 91 34 92
REMARK H PARENT 84 24 58 35
REMARK Flexibility Score: inf
ROOT
ATOM      1  O   UNL A   1      34.691  21.753  26.146  1.00  0.00    -0.374 OA
ENDROOT
BRANCH   1   2
ATOM      2  C   UNL A   1      34.922  20.653  25.263  1.00  0.00     0.202 C 
BRANCH   2   3
ATOM      3  C   UNL A   1      36.412  20.395  25.024  1.00  0.00     0.261 C 
BRANCH   3   4
ATOM      4  O   UNL A   1      37.207  21.342  25.755  1.00  0.00    -0.460 OA
BRANCH   4   5
ATOM      5  C   UNL A   1      38.541  21.322  25.977  1.00  0.00     0.338 C 
ATOM      6  O   UNL A   1      39.155  20.283  25.737  1.00  0.00    -0.246 OA
BRANCH   5   7
ATOM      7  C   UNL A   1      39.336  22.494  26.463  1.00  0.00     0.060 A 
ATOM      8  C   UNL A   1      40.492  22.430  27.246  1.00  0.00     0.016 A 
ATOM      9  C   UNL A   1      38.933  23.757  25.993  1.00  0.00     0.016 A 
ATOM     10  C   UNL A   1      41.222  23.568  27.563  1.00  0.00     0.010 A 
ATOM     11  C   UNL A   1      39.665  24.907  26.296  1.00  0.00     0.010 A 
ATOM     12  C   UNL A   1      40.815  24.806  27.084  1.00  0.00    -0.014 A 
BRANCH  12  13
ATOM     13  C   UNL A   1      41.581  25.990  27.490  1.00  0.00     0.031 A 
ATOM     14  C   UNL A   1      40.930  26.974  28.405  1.00  0.00     0.074 A 
ATOM     15  C   UNL A   1      42.865  26.108  27.106  1.00  0.00     0.049 A 
ATOM     16  N   UNL A   1      41.370  28.126  28.826  1.00  0.00    -0.248 NA
ATOM     17  C   UNL A   1      39.605  26.601  28.931  1.00  0.00     0.031 C 
ATOM     18  C   UNL A   1      43.601  25.119  26.314  1.00  0.00     0.029 A 
ATOM     19  N   UNL A   1      43.778  27.099  27.338  1.00  0.00    -0.354 N 
ATOM     20  C   UNL A   1      40.363  28.634  29.635  1.00  0.00     0.074 A 
ATOM     21  C   UNL A   1      39.298  27.659  29.665  1.00  0.00     0.031 C 
ATOM     22  C   UNL A   1      44.854  25.562  26.118  1.00  0.00     0.029 A 
ATOM     23  C   UNL A   1      44.982  26.887  26.710  1.00  0.00     0.049 A 
ATOM     24  H   UNL A   1      43.592  27.887  27.899  1.00  0.00     0.167 HD
ATOM     25  C   UNL A   1      40.339  29.825  30.271  1.00  0.00     0.037 A 
ATOM     26  C   UNL A   1      46.041  27.710  26.589  1.00  0.00     0.037 A 
ATOM     27  C   UNL A   1      41.422  30.766  30.215  1.00  0.00     0.049 A 
ATOM     28  C   UNL A   1      45.946  29.069  27.229  1.00  0.00     0.074 A 
ATOM     29  C   UNL A   1      41.515  32.017  30.794  1.00  0.00     0.029 A 
ATOM     30  N   UNL A   1      42.606  30.551  29.520  1.00  0.00    -0.354 N 
ATOM     31  N   UNL A   1      44.983  29.567  27.970  1.00  0.00    -0.248 NA
ATOM     32  C   UNL A   1      47.064  29.991  26.998  1.00  0.00     0.031 C 
ATOM     33  C   UNL A   1      42.737  32.578  30.409  1.00  0.00     0.029 A 
ATOM     34  C   UNL A   1      43.422  31.660  29.625  1.00  0.00     0.049 A 
ATOM     35  H   UNL A   1      42.831  29.729  29.028  1.00  0.00     0.167 HD
ATOM     36  C   UNL A   1      45.374  30.857  28.293  1.00  0.00     0.074 A 
ATOM     37  C   UNL A   1      46.679  31.055  27.692  1.00  0.00     0.031 C 
ATOM     38  C   UNL A   1      44.718  31.803  29.008  1.00  0.00     0.037 A 
BRANCH  25  39
ATOM     39  C   UNL A   1      39.080  30.192  30.993  1.00  0.00     0.057 A 
ATOM     40  C   UNL A   1      38.804  29.752  32.294  1.00  0.00     0.134 A 
ATOM     41  C   UNL A   1      38.117  30.989  30.362  1.00  0.00     0.134 A 
ATOM     42  F   UNL A   1      39.672  28.960  32.943  1.00  0.00    -0.206 F 
ATOM     43  C   UNL A   1      37.608  30.083  32.935  1.00  0.00     0.040 A 
ATOM     44  C   UNL A   1      36.926  31.341  30.999  1.00  0.00     0.040 A 
ATOM     45  F   UNL A   1      38.315  31.432  29.111  1.00  0.00    -0.206 F 
ATOM     46  C   UNL A   1      36.667  30.883  32.289  1.00  0.00     0.006 A 
ENDBRANCH  25  39
BRANCH  26  47
ATOM     47  C   UNL A   1      47.216  27.317  25.769  1.00  0.00     0.057 A 
ATOM     48  C   UNL A   1      47.276  27.579  24.396  1.00  0.00     0.134 A 
ATOM     49  C   UNL A   1      48.304  26.638  26.337  1.00  0.00     0.134 A 
ATOM     50  F   UNL A   1      46.260  28.204  23.784  1.00  0.00    -0.206 F 
ATOM     51  C   UNL A   1      48.359  27.166  23.617  1.00  0.00     0.040 A 
ATOM     52  C   UNL A   1      49.407  26.246  25.577  1.00  0.00     0.040 A 
ATOM     53  F   UNL A   1      48.314  26.351  27.647  1.00  0.00    -0.206 F 
ATOM     54  C   UNL A   1      49.432  26.501  24.209  1.00  0.00     0.006 A 
ENDBRANCH  26  47
BRANCH  38  55
ATOM     55  C   UNL A   1      45.405  33.121  29.173  1.00  0.00     0.057 A 
ATOM     56  C   UNL A   1      46.285  33.354  30.236  1.00  0.00     0.134 A 
ATOM     57  C   UNL A   1      45.241  34.135  28.222  1.00  0.00     0.134 A 
ATOM     58  F   UNL A   1      46.470  32.423  31.184  1.00  0.00    -0.206 F 
ATOM     59  C   UNL A   1      46.975  34.560  30.353  1.00  0.00     0.040 A 
ATOM     60  C   UNL A   1      45.944  35.335  28.316  1.00  0.00     0.040 A 
ATOM     61  F   UNL A   1      44.417  33.963  27.178  1.00  0.00    -0.206 F 
ATOM     62  C   UNL A   1      46.813  35.550  29.385  1.00  0.00     0.006 A 
ENDBRANCH  38  55
ENDBRANCH  12  13
ENDBRANCH   5   7
ENDBRANCH   4   5
ENDBRANCH   3   4
ENDBRANCH   2   3
ENDBRANCH   1   2
BRANCH   1  63
ATOM     63  C   UNL A   1      34.034  21.437  27.378  1.00  0.00     0.202 C 
BRANCH  63  64
ATOM     64  C   UNL A   1      32.968  22.490  27.667  1.00  0.00     0.261 C 
BRANCH  64  65
ATOM     65  O   UNL A   1      32.228  22.715  26.458  1.00  0.00    -0.462 OA
BRANCH  65  66
ATOM     66  C   UNL A   1      31.479  23.865  26.469  1.00  0.00     0.328 C 
ATOM     67  O   UNL A   1      30.468  24.028  27.133  1.00  0.00    -0.250 OA
BRANCH  66  68
ATOM     68  C   UNL A   1      32.153  24.931  25.576  1.00  0.00     0.193 C 
ATOM     69  C   UNL A   1      33.096  24.273  24.573  1.00  0.00     0.037 C 
ATOM     70  N   UNL A   1      31.138  25.716  24.858  1.00  0.00    -0.343 N 
ATOM     71  C   UNL A   1      32.305  23.425  23.580  1.00  0.00     0.005 C 
ATOM     72  C   UNL A   1      30.340  25.053  23.835  1.00  0.00     0.119 C 
ATOM     73  C   UNL A   1      31.239  24.264  22.874  1.00  0.00     0.022 C 
BRANCH  70  74
ATOM     74  C   UNL A   1      31.170  27.091  24.923  1.00  0.00     0.134 A 
ATOM     75  C   UNL A   1      30.332  27.841  24.122  1.00  0.00     0.076 A 
ATOM     76  N   UNL A   1      32.034  27.672  25.767  1.00  0.00    -0.211 NA
ATOM     77  C   UNL A   1      30.417  29.217  24.223  1.00  0.00     0.076 A 
ATOM     78  C   UNL A   1      32.081  29.020  25.771  1.00  0.00     0.162 A 
ATOM     79  N   UNL A   1      31.291  29.825  25.044  1.00  0.00    -0.228 NA
BRANCH  77  80
ATOM     80  C   UNL A   1      29.597  30.106  23.395  1.00  0.00     0.000 A 
ATOM     81  C   UNL A   1      29.186  29.703  22.113  1.00  0.00     0.010 A 
ATOM     82  C   UNL A   1      29.196  31.371  23.854  1.00  0.00     0.010 A 
ATOM     83  C   UNL A   1      28.385  30.530  21.322  1.00  0.00     0.001 A 
ATOM     84  C   UNL A   1      28.401  32.203  23.059  1.00  0.00     0.001 A 
ATOM     85  C   UNL A   1      27.992  31.778  21.795  1.00  0.00     0.000 A 
ENDBRANCH  77  80
BRANCH  78  86
ATOM     86  C   UNL A   1      33.138  29.658  26.562  1.00  0.00     0.021 A 
ATOM     87  C   UNL A   1      34.314  28.955  26.889  1.00  0.00     0.012 A 
ATOM     88  C   UNL A   1      33.029  30.993  26.988  1.00  0.00     0.032 A 
ATOM     89  C   UNL A   1      35.347  29.562  27.608  1.00  0.00     0.002 A 
ATOM     90  C   UNL A   1      34.055  31.590  27.725  1.00  0.00     0.041 A 
ATOM     91  C   UNL A   1      35.214  30.882  28.032  1.00  0.00     0.020 A 
ATOM     92  Cl  UNL A   1      33.886  33.217  28.262  1.00  0.00    -0.084 Cl
ENDBRANCH  78  86
ENDBRANCH  70  74
ENDBRANCH  66  68
ENDBRANCH  65  66
ENDBRANCH  64  65
ENDBRANCH  63  64
ENDBRANCH   1  63
TORSDOF 17
ENDMDL
MODEL 2
REMARK VINA RESULT:     -12.5      4.037      9.473
REMARK SMILES O=C(OCCOCCOC(=O)[C@H]1CCCCN1c1cc(-c2ccccc2)nc(-c2cccc(Cl)c2)n1)c1ccc(-c2c3nc(c(-c4c(F)cccc4F)c4ccc([nH]4)c(-c4c(F)cccc4F)c4nc(c(-c5c(F)cccc5F)c5ccc2[nH]5)C=C4)C=C3)cc1
REMARK SMILES IDX 6 1 5 2 4 3 3 4 2 5 1 6 37 7 38 8 90 9 39 10 89 11 40 12
REMARK SMILES IDX 41 13 42 14 83 15 43 16 88 17 82 18 84 19 44 20 87 21 81 22
REMARK SMILES IDX 80 23 45 25 71 26 54 27 70 28 55 29 58 30 69 31 85 32 56 33
REMARK SMILES IDX 57 34 68 36 86 37 59 38 46 39 47 40 52 41 48 42 49 43 51 44
REMARK SMILES IDX 53 45 50 46 72 47 73 48 78 49 74 50 75 51 77 52 79 53 76 54
REMARK SMILES IDX 60 55 61 56 66 57 62 58 63 59 65 60 67 61 64 62 7 63 8 64
REMARK SMILES IDX 9 65 10 66 11 67 12 68 13 69 17 70 14 71 16 72 15 73 18 74
REMARK SMILES IDX 19 75 36 76 20 77 28 78 27 79 21 80 22 81 26 82 23 83 25 84
REMARK SMILES IDX 24 85 29 86 30 87 35 88 31 89 33 90 32 91 34 92
REMARK H PARENT 84 24 58 35
REMARK Flexibility Score: inf
ROOT
ATOM      1  O   UNL A   1      32.543  28.660  24.096  1.00  0.00    -0.374 OA
ENDROOT
BRANCH   1   2
ATOM      2  C   UNL A   1      31.299  29.343  24.271  1.00  0.00     0.202 C 
BRANCH   2   3
ATOM      3  C   UNL A   1      31.342  30.356  25.418  1.00  0.00     0.261 C 
BRANCH   3   4
ATOM      4  O   UNL A   1      32.666  30.432  25.969  1.00  0.00    -0.460 OA
BRANCH   4   5
ATOM      5  C   UNL A   1      33.119  31.239  26.955  1.00  0.00     0.338 C 
ATOM      6  O   UNL A   1      32.463  32.244  27.231  1.00  0.00    -0.246 OA
BRANCH   5   7
ATOM      7  C   UNL A   1      34.350  30.978  27.765  1.00  0.00     0.060 A 
ATOM      8  C   UNL A   1      34.761  29.733  28.250  1.00  0.00     0.016 A 
ATOM      9  C   UNL A   1      35.212  32.072  27.957  1.00  0.00     0.016 A 
ATOM     10  C   UNL A   1      35.974  29.570  28.906  1.00  0.00     0.010 A 
ATOM     11  C   UNL A   1      36.439  31.919  28.606  1.00  0.00     0.010 A 
ATOM     12  C   UNL A   1      36.818  30.659  29.079  1.00  0.00    -0.014 A 
BRANCH  12  13
ATOM     13  C   UNL A   1      38.063  30.457  29.830  1.00  0.00     0.031 A 
ATOM     14  C   UNL A   1      39.173  29.709  29.168  1.00  0.00     0.074 A 
ATOM     15  C   UNL A   1      38.203  31.025  31.040  1.00  0.00     0.049 A 
ATOM     16  N   UNL A   1      40.321  29.333  29.657  1.00  0.00    -0.248 NA
ATOM     17  C   UNL A   1      38.966  29.345  27.755  1.00  0.00     0.031 C 
ATOM     18  C   UNL A   1      37.203  31.875  31.692  1.00  0.00     0.029 A 
ATOM     19  N   UNL A   1      39.239  30.984  31.932  1.00  0.00    -0.354 N 
ATOM     20  C   UNL A   1      40.959  28.658  28.626  1.00  0.00     0.074 A 
ATOM     21  C   UNL A   1      40.083  28.691  27.478  1.00  0.00     0.031 C 
ATOM     22  C   UNL A   1      37.674  32.266  32.887  1.00  0.00     0.029 A 
ATOM     23  C   UNL A   1      38.973  31.642  33.108  1.00  0.00     0.049 A 
ATOM     24  H   UNL A   1      40.093  30.527  31.748  1.00  0.00     0.167 HD
ATOM     25  C   UNL A   1      42.164  28.048  28.661  1.00  0.00     0.037 A 
ATOM     26  C   UNL A   1      39.685  31.677  34.249  1.00  0.00     0.037 A 
ATOM     27  C   UNL A   1      43.005  28.040  29.826  1.00  0.00     0.049 A 
ATOM     28  C   UNL A   1      40.979  30.909  34.289  1.00  0.00     0.074 A 
ATOM     29  C   UNL A   1      44.237  27.441  30.001  1.00  0.00     0.029 A 
ATOM     30  N   UNL A   1      42.681  28.664  31.024  1.00  0.00    -0.354 N 
ATOM     31  N   UNL A   1      41.572  30.242  33.327  1.00  0.00    -0.248 NA
ATOM     32  C   UNL A   1      41.689  30.871  35.573  1.00  0.00     0.031 C 
ATOM     33  C   UNL A   1      44.636  27.662  31.324  1.00  0.00     0.029 A 
ATOM     34  C   UNL A   1      43.673  28.433  31.958  1.00  0.00     0.049 A 
ATOM     35  H   UNL A   1      41.867  29.193  31.184  1.00  0.00     0.167 HD
ATOM     36  C   UNL A   1      42.722  29.704  33.884  1.00  0.00     0.074 A 
ATOM     37  C   UNL A   1      42.759  30.150  35.264  1.00  0.00     0.031 C 
ATOM     38  C   UNL A   1      43.661  28.905  33.321  1.00  0.00     0.037 A 
BRANCH  25  39
ATOM     39  C   UNL A   1      42.583  27.284  27.444  1.00  0.00     0.057 A 
ATOM     40  C   UNL A   1      43.251  27.885  26.371  1.00  0.00     0.134 A 
ATOM     41  C   UNL A   1      42.292  25.917  27.342  1.00  0.00     0.134 A 
ATOM     42  F   UNL A   1      43.531  29.197  26.394  1.00  0.00    -0.206 F 
ATOM     43  C   UNL A   1      43.604  27.157  25.233  1.00  0.00     0.040 A 
ATOM     44  C   UNL A   1      42.655  25.174  26.217  1.00  0.00     0.040 A 
ATOM     45  F   UNL A   1      41.642  25.284  28.330  1.00  0.00    -0.206 F 
ATOM     46  C   UNL A   1      43.309  25.796  25.156  1.00  0.00     0.006 A 
ENDBRANCH  25  39
BRANCH  26  47
ATOM     47  C   UNL A   1      39.157  32.373  35.451  1.00  0.00     0.057 A 
ATOM     48  C   UNL A   1      39.455  33.714  35.716  1.00  0.00     0.134 A 
ATOM     49  C   UNL A   1      38.359  31.700  36.388  1.00  0.00     0.134 A 
ATOM     50  F   UNL A   1      40.232  34.411  34.874  1.00  0.00    -0.206 F 
ATOM     51  C   UNL A   1      38.998  34.354  36.871  1.00  0.00     0.040 A 
ATOM     52  C   UNL A   1      37.870  32.334  37.531  1.00  0.00     0.040 A 
ATOM     53  F   UNL A   1      38.035  30.412  36.202  1.00  0.00    -0.206 F 
ATOM     54  C   UNL A   1      38.198  33.663  37.781  1.00  0.00     0.006 A 
ENDBRANCH  26  47
BRANCH  38  55
ATOM     55  C   UNL A   1      44.793  28.473  34.197  1.00  0.00     0.057 A 
ATOM     56  C   UNL A   1      44.744  27.267  34.906  1.00  0.00     0.134 A 
ATOM     57  C   UNL A   1      45.966  29.233  34.274  1.00  0.00     0.134 A 
ATOM     58  F   UNL A   1      43.641  26.505  34.881  1.00  0.00    -0.206 F 
ATOM     59  C   UNL A   1      45.827  26.834  35.671  1.00  0.00     0.040 A 
ATOM     60  C   UNL A   1      47.063  28.798  35.016  1.00  0.00     0.040 A 
ATOM     61  F   UNL A   1      46.071  30.392  33.608  1.00  0.00    -0.206 F 
ATOM     62  C   UNL A   1      46.994  27.596  35.718  1.00  0.00     0.006 A 
ENDBRANCH  38  55
ENDBRANCH  12  13
ENDBRANCH   5   7
ENDBRANCH   4   5
ENDBRANCH   3   4
ENDBRANCH   2   3
ENDBRANCH   1   2
BRANCH   1  63
ATOM     63  C   UNL A   1      33.287  29.008  22.924  1.00  0.00     0.202 C 
BRANCH  63  64
ATOM     64  C   UNL A   1      33.628  27.740  22.147  1.00  0.00     0.261 C 
BRANCH  64  65
ATOM     65  O   UNL A   1      32.658  26.738  22.486  1.00  0.00    -0.462 OA
BRANCH  65  66
ATOM     66  C   UNL A   1      33.104  25.452  22.317  1.00  0.00     0.328 C 
ATOM     67  O   UNL A   1      33.356  24.940  21.237  1.00  0.00    -0.250 OA
BRANCH  66  68
ATOM     68  C   UNL A   1      33.305  24.787  23.697  1.00  0.00     0.193 C 
ATOM     69  C   UNL A   1      32.482  25.505  24.763  1.00  0.00     0.037 C 
ATOM     70  N   UNL A   1      32.918  23.369  23.647  1.00  0.00    -0.343 N 
ATOM     71  C   UNL A   1      30.990  25.322  24.494  1.00  0.00     0.005 C 
ATOM     72  C   UNL A   1      31.513  23.037  23.451  1.00  0.00     0.119 C 
ATOM     73  C   UNL A   1      30.629  23.837  24.416  1.00  0.00     0.022 C 
BRANCH  70  74
ATOM     74  C   UNL A   1      33.798  22.408  24.091  1.00  0.00     0.134 A 
ATOM     75  C   UNL A   1      33.400  21.088  24.169  1.00  0.00     0.076 A 
ATOM     76  N   UNL A   1      35.032  22.787  24.452  1.00  0.00    -0.211 NA
ATOM     77  C   UNL A   1      34.322  20.170  24.634  1.00  0.00     0.076 A 
ATOM     78  C   UNL A   1      35.854  21.833  24.934  1.00  0.00     0.162 A 
ATOM     79  N   UNL A   1      35.558  20.527  25.024  1.00  0.00    -0.228 NA
BRANCH  77  80
ATOM     80  C   UNL A   1      33.992  18.750  24.786  1.00  0.00     0.000 A 
ATOM     81  C   UNL A   1      34.871  17.763  24.310  1.00  0.00     0.010 A 
ATOM     82  C   UNL A   1      32.805  18.336  25.410  1.00  0.00     0.010 A 
ATOM     83  C   UNL A   1      34.582  16.406  24.467  1.00  0.00     0.001 A 
ATOM     84  C   UNL A   1      32.510  16.978  25.560  1.00  0.00     0.001 A 
ATOM     85  C   UNL A   1      33.403  16.014  25.093  1.00  0.00     0.000 A 
ENDBRANCH  77  80
BRANCH  78  86
ATOM     86  C   UNL A   1      37.141  22.266  25.489  1.00  0.00     0.021 A 
ATOM     87  C   UNL A   1      37.328  23.594  25.918  1.00  0.00     0.012 A 
ATOM     88  C   UNL A   1      38.211  21.368  25.643  1.00  0.00     0.032 A 
ATOM     89  C   UNL A   1      38.535  24.012  26.485  1.00  0.00     0.002 A 
ATOM     90  C   UNL A   1      39.423  21.793  26.192  1.00  0.00     0.041 A 
ATOM     91  C   UNL A   1      39.587  23.110  26.616  1.00  0.00     0.020 A 
ATOM     92  Cl  UNL A   1      40.730  20.683  26.342  1.00  0.00    -0.084 Cl
ENDBRANCH  78  86
ENDBRANCH  70  74
ENDBRANCH  66  68
ENDBRANCH  65  66
ENDBRANCH  64  65
ENDBRANCH  63  64
ENDBRANCH   1  63
TORSDOF 17
ENDMDL
MODEL 3
REMARK VINA RESULT:     -12.2      0.601      6.071
REMARK SMILES O=C(OCCOCCOC(=O)[C@H]1CCCCN1c1cc(-c2ccccc2)nc(-c2cccc(Cl)c2)n1)c1ccc(-c2c3nc(c(-c4c(F)cccc4F)c4ccc([nH]4)c(-c4c(F)cccc4F)c4nc(c(-c5c(F)cccc5F)c5ccc2[nH]5)C=C4)C=C3)cc1
REMARK SMILES IDX 6 1 5 2 4 3 3 4 2 5 1 6 37 7 38 8 90 9 39 10 89 11 40 12
REMARK SMILES IDX 41 13 42 14 83 15 43 16 88 17 82 18 84 19 44 20 87 21 81 22
REMARK SMILES IDX 80 23 45 25 71 26 54 27 70 28 55 29 58 30 69 31 85 32 56 33
REMARK SMILES IDX 57 34 68 36 86 37 59 38 46 39 47 40 52 41 48 42 49 43 51 44
REMARK SMILES IDX 53 45 50 46 72 47 73 48 78 49 74 50 75 51 77 52 79 53 76 54
REMARK SMILES IDX 60 55 61 56 66 57 62 58 63 59 65 60 67 61 64 62 7 63 8 64
REMARK SMILES IDX 9 65 10 66 11 67 12 68 13 69 17 70 14 71 16 72 15 73 18 74
REMARK SMILES IDX 19 75 36 76 20 77 28 78 27 79 21 80 22 81 26 82 23 83 25 84
REMARK SMILES IDX 24 85 29 86 30 87 35 88 31 89 33 90 32 91 34 92
REMARK H PARENT 84 24 58 35
REMARK Flexibility Score: inf
ROOT
ATOM      1  O   UNL A   1      35.297  22.075  26.856  1.00  0.00    -0.374 OA
ENDROOT
BRANCH   1   2
ATOM      2  C   UNL A   1      35.570  22.351  25.480  1.00  0.00     0.202 C 
BRANCH   2   3
ATOM      3  C   UNL A   1      36.714  21.498  24.926  1.00  0.00     0.261 C 
BRANCH   3   4
ATOM      4  O   UNL A   1      37.577  21.067  25.989  1.00  0.00    -0.460 OA
BRANCH   4   5
ATOM      5  C   UNL A   1      38.906  21.278  26.127  1.00  0.00     0.338 C 
ATOM      6  O   UNL A   1      39.665  20.319  25.984  1.00  0.00    -0.246 OA
BRANCH   5   7
ATOM      7  C   UNL A   1      39.528  22.611  26.406  1.00  0.00     0.060 A 
ATOM      8  C   UNL A   1      39.025  23.850  25.999  1.00  0.00     0.016 A 
ATOM      9  C   UNL A   1      40.659  22.606  27.243  1.00  0.00     0.016 A 
ATOM     10  C   UNL A   1      39.616  25.042  26.394  1.00  0.00     0.010 A 
ATOM     11  C   UNL A   1      41.255  23.799  27.656  1.00  0.00     0.010 A 
ATOM     12  C   UNL A   1      40.727  25.020  27.227  1.00  0.00    -0.014 A 
BRANCH  12  13
ATOM     13  C   UNL A   1      41.357  26.300  27.574  1.00  0.00     0.031 A 
ATOM     14  C   UNL A   1      42.746  26.557  27.091  1.00  0.00     0.074 A 
ATOM     15  C   UNL A   1      40.641  27.231  28.228  1.00  0.00     0.049 A 
ATOM     16  N   UNL A   1      43.533  27.566  27.342  1.00  0.00    -0.248 NA
ATOM     17  C   UNL A   1      43.324  25.546  26.189  1.00  0.00     0.031 C 
ATOM     18  C   UNL A   1      39.235  27.091  28.619  1.00  0.00     0.029 A 
ATOM     19  N   UNL A   1      40.988  28.478  28.669  1.00  0.00    -0.354 N 
ATOM     20  C   UNL A   1      44.711  27.294  26.661  1.00  0.00     0.074 A 
ATOM     21  C   UNL A   1      44.533  26.038  25.969  1.00  0.00     0.031 C 
ATOM     22  C   UNL A   1      38.845  28.209  29.253  1.00  0.00     0.029 A 
ATOM     23  C   UNL A   1      39.987  29.107  29.368  1.00  0.00     0.049 A 
ATOM     24  H   UNL A   1      41.869  28.885  28.501  1.00  0.00     0.167 HD
ATOM     25  C   UNL A   1      45.843  28.030  26.646  1.00  0.00     0.037 A 
ATOM     26  C   UNL A   1      40.023  30.256  30.068  1.00  0.00     0.037 A 
ATOM     27  C   UNL A   1      45.978  29.276  27.349  1.00  0.00     0.049 A 
ATOM     28  C   UNL A   1      41.327  31.007  30.111  1.00  0.00     0.074 A 
ATOM     29  C   UNL A   1      47.077  30.109  27.434  1.00  0.00     0.029 A 
ATOM     30  N   UNL A   1      44.966  29.859  28.100  1.00  0.00    -0.354 N 
ATOM     31  N   UNL A   1      42.455  30.738  29.494  1.00  0.00    -0.248 NA
ATOM     32  C   UNL A   1      41.379  32.200  30.964  1.00  0.00     0.031 C 
ATOM     33  C   UNL A   1      46.743  31.173  28.278  1.00  0.00     0.029 A 
ATOM     34  C   UNL A   1      45.425  31.024  28.684  1.00  0.00     0.049 A 
ATOM     35  H   UNL A   1      44.056  29.497  28.200  1.00  0.00     0.167 HD
ATOM     36  C   UNL A   1      43.349  31.724  29.882  1.00  0.00     0.074 A 
ATOM     37  C   UNL A   1      42.623  32.616  30.765  1.00  0.00     0.031 C 
ATOM     38  C   UNL A   1      44.655  31.879  29.555  1.00  0.00     0.037 A 
BRANCH  25  39
ATOM     39  C   UNL A   1      47.024  27.460  25.923  1.00  0.00     0.057 A 
ATOM     40  C   UNL A   1      47.255  27.691  24.562  1.00  0.00     0.134 A 
ATOM     41  C   UNL A   1      47.938  26.648  26.607  1.00  0.00     0.134 A 
ATOM     42  F   UNL A   1      46.401  28.435  23.843  1.00  0.00    -0.206 F 
ATOM     43  C   UNL A   1      48.347  27.122  23.902  1.00  0.00     0.040 A 
ATOM     44  C   UNL A   1      49.042  26.088  25.963  1.00  0.00     0.040 A 
ATOM     45  F   UNL A   1      47.766  26.377  27.909  1.00  0.00    -0.206 F 
ATOM     46  C   UNL A   1      49.247  26.321  24.605  1.00  0.00     0.006 A 
ENDBRANCH  25  39
BRANCH  26  47
ATOM     47  C   UNL A   1      38.840  30.708  30.846  1.00  0.00     0.057 A 
ATOM     48  C   UNL A   1      38.554  30.193  32.115  1.00  0.00     0.134 A 
ATOM     49  C   UNL A   1      37.943  31.650  30.323  1.00  0.00     0.134 A 
ATOM     50  F   UNL A   1      39.357  29.271  32.665  1.00  0.00    -0.206 F 
ATOM     51  C   UNL A   1      37.416  30.582  32.826  1.00  0.00     0.040 A 
ATOM     52  C   UNL A   1      36.818  32.071  31.033  1.00  0.00     0.040 A 
ATOM     53  F   UNL A   1      38.153  32.185  29.111  1.00  0.00    -0.206 F 
ATOM     54  C   UNL A   1      36.546  31.528  32.285  1.00  0.00     0.006 A 
ENDBRANCH  26  47
BRANCH  38  55
ATOM     55  C   UNL A   1      45.366  33.051  30.154  1.00  0.00     0.057 A 
ATOM     56  C   UNL A   1      45.345  34.307  29.537  1.00  0.00     0.134 A 
ATOM     57  C   UNL A   1      46.011  32.937  31.391  1.00  0.00     0.134 A 
ATOM     58  F   UNL A   1      44.754  34.470  28.344  1.00  0.00    -0.206 F 
ATOM     59  C   UNL A   1      45.953  35.413  30.129  1.00  0.00     0.040 A 
ATOM     60  C   UNL A   1      46.601  34.042  32.003  1.00  0.00     0.040 A 
ATOM     61  F   UNL A   1      46.054  31.760  32.032  1.00  0.00    -0.206 F 
ATOM     62  C   UNL A   1      46.573  35.284  31.371  1.00  0.00     0.006 A 
ENDBRANCH  38  55
ENDBRANCH  12  13
ENDBRANCH   5   7
ENDBRANCH   4   5
ENDBRANCH   3   4
ENDBRANCH   2   3
ENDBRANCH   1   2
BRANCH   1  63
ATOM     63  C   UNL A   1      34.030  21.467  27.132  1.00  0.00     0.202 C 
BRANCH  63  64
ATOM     64  C   UNL A   1      33.027  22.547  27.528  1.00  0.00     0.261 C 
BRANCH  64  65
ATOM     65  O   UNL A   1      32.090  22.698  26.451  1.00  0.00    -0.462 OA
BRANCH  65  66
ATOM     66  C   UNL A   1      31.375  23.868  26.496  1.00  0.00     0.328 C 
ATOM     67  O   UNL A   1      30.438  24.080  27.251  1.00  0.00    -0.250 OA
BRANCH  66  68
ATOM     68  C   UNL A   1      31.982  24.886  25.506  1.00  0.00     0.193 C 
ATOM     69  C   UNL A   1      32.730  24.165  24.387  1.00  0.00     0.037 C 
ATOM     70  N   UNL A   1      30.929  25.734  24.929  1.00  0.00    -0.343 N 
ATOM     71  C   UNL A   1      31.754  23.369  23.525  1.00  0.00     0.005 C 
ATOM     72  C   UNL A   1      29.953  25.122  24.036  1.00  0.00     0.119 C 
ATOM     73  C   UNL A   1      30.655  24.275  22.967  1.00  0.00     0.022 C 
BRANCH  70  74
ATOM     74  C   UNL A   1      31.057  27.104  24.973  1.00  0.00     0.134 A 
ATOM     75  C   UNL A   1      30.268  27.900  24.167  1.00  0.00     0.076 A 
ATOM     76  N   UNL A   1      31.966  27.635  25.804  1.00  0.00    -0.211 NA
ATOM     77  C   UNL A   1      30.451  29.267  24.246  1.00  0.00     0.076 A 
ATOM     78  C   UNL A   1      32.108  28.976  25.787  1.00  0.00     0.162 A 
ATOM     79  N   UNL A   1      31.371  29.824  25.053  1.00  0.00    -0.228 NA
BRANCH  77  80
ATOM     80  C   UNL A   1      29.690  30.200  23.411  1.00  0.00     0.000 A 
ATOM     81  C   UNL A   1      29.459  29.912  22.055  1.00  0.00     0.010 A 
ATOM     82  C   UNL A   1      29.168  31.394  23.933  1.00  0.00     0.010 A 
ATOM     83  C   UNL A   1      28.716  30.779  21.251  1.00  0.00     0.001 A 
ATOM     84  C   UNL A   1      28.431  32.267  23.128  1.00  0.00     0.001 A 
ATOM     85  C   UNL A   1      28.201  31.956  21.788  1.00  0.00     0.000 A 
ENDBRANCH  77  80
BRANCH  78  86
ATOM     86  C   UNL A   1      33.213  29.549  26.562  1.00  0.00     0.021 A 
ATOM     87  C   UNL A   1      34.387  28.808  26.795  1.00  0.00     0.012 A 
ATOM     88  C   UNL A   1      33.152  30.861  27.065  1.00  0.00     0.032 A 
ATOM     89  C   UNL A   1      35.465  29.355  27.498  1.00  0.00     0.002 A 
ATOM     90  C   UNL A   1      34.222  31.397  27.785  1.00  0.00     0.041 A 
ATOM     91  C   UNL A   1      35.378  30.651  27.999  1.00  0.00     0.020 A 
ATOM     92  Cl  UNL A   1      34.111  32.994  28.417  1.00  0.00    -0.084 Cl
ENDBRANCH  78  86
ENDBRANCH  70  74
ENDBRANCH  66  68
ENDBRANCH  65  66
ENDBRANCH  64  65
ENDBRANCH  63  64
ENDBRANCH   1  63
TORSDOF 17
ENDMDL
