MODEL 1
REMARK VINA RESULT:     -10.6      0.000      0.000
REMARK SMILES CCc1nc(C)c(C(=O)OCCOCCOC(=O)c2ccc(-c3c4nc(c(-c5c(F)cccc5F)c5ccc([nH]5)c(-c5c(F)cccc5F)c5nc(c(-c6c(F)cccc6F)c6ccc3[nH]6)C=C5)C=C4)cc2)c(SCc2cnc(Cl)s2)n1
REMARK SMILES IDX 12 1 11 2 10 3 8 4 9 5 7 6 3 7 4 8 82 9 5 10 73 11 6 12 2 13
REMARK SMILES IDX 1 14 74 15 75 16 76 17 77 18 81 19 78 20 79 21 80 22 13 23
REMARK SMILES IDX 14 24 15 25 16 26 17 27 18 28 19 29 20 30 72 31 21 32 71 33
REMARK SMILES IDX 22 34 23 35 24 36 65 37 25 38 70 39 64 40 66 41 26 42 69 43
REMARK SMILES IDX 63 44 62 45 27 47 53 48 36 49 52 50 37 51 40 52 51 53 67 54
REMARK SMILES IDX 38 55 39 56 50 58 68 59 41 60 28 61 29 62 34 63 30 64 31 65
REMARK SMILES IDX 33 66 35 67 32 68 54 69 55 70 60 71 56 72 57 73 59 74 61 75
REMARK SMILES IDX 58 76 42 77 43 78 48 79 44 80 45 81 47 82 49 83 46 84
REMARK H PARENT 66 46 40 57
REMARK Flexibility Score: inf
ROOT
ATOM      1  C   UNL A   1      32.765  20.939  24.537  1.00  0.00     0.202 C 
ENDROOT
BRANCH   1   2
ATOM      2  C   UNL A   1      32.226  22.376  24.559  1.00  0.00     0.261 C 
BRANCH   2   3
ATOM      3  O   UNL A   1      32.317  23.022  23.282  1.00  0.00    -0.460 OA
BRANCH   3   4
ATOM      4  C   UNL A   1      33.351  23.893  23.181  1.00  0.00     0.342 C 
ATOM      5  O   UNL A   1      34.313  23.710  22.466  1.00  0.00    -0.246 OA
BRANCH   4   6
ATOM      6  C   UNL A   1      33.196  25.078  24.030  1.00  0.00     0.113 A 
ATOM      7  C   UNL A   1      33.104  27.276  25.650  1.00  0.00     0.129 A 
ATOM      8  N   UNL A   1      34.018  26.346  25.921  1.00  0.00    -0.237 NA
ATOM      9  N   UNL A   1      32.235  27.171  24.643  1.00  0.00    -0.226 NA
ATOM     10  C   UNL A   1      34.076  25.266  25.107  1.00  0.00     0.057 A 
ATOM     11  C   UNL A   1      32.265  26.092  23.810  1.00  0.00     0.115 A 
ATOM     12  C   UNL A   1      35.254  24.382  25.415  1.00  0.00     0.068 C 
BRANCH   7  13
ATOM     13  C   UNL A   1      32.989  28.490  26.531  1.00  0.00     0.074 C 
ATOM     14  C   UNL A   1      31.808  28.449  27.490  1.00  0.00     0.012 C 
ENDBRANCH   7  13
BRANCH  11  15
ATOM     15  S   UNL A   1      30.929  26.394  22.666  1.00  0.00    -0.100 SA
BRANCH  15  16
ATOM     16  C   UNL A   1      29.407  26.986  23.438  1.00  0.00     0.125 C 
BRANCH  16  17
ATOM     17  C   UNL A   1      28.899  28.354  23.119  1.00  0.00     0.036 A 
ATOM     18  C   UNL A   1      27.566  28.745  23.135  1.00  0.00     0.129 A 
ATOM     19  S   UNL A   1      29.840  29.655  22.493  1.00  0.00    -0.107 S 
ATOM     20  N   UNL A   1      27.272  29.919  22.472  1.00  0.00    -0.233 NA
ATOM     21  C   UNL A   1      28.394  30.399  21.992  1.00  0.00     0.183 A 
ATOM     22  Cl  UNL A   1      28.435  31.691  20.865  1.00  0.00    -0.051 Cl
ENDBRANCH  16  17
ENDBRANCH  15  16
ENDBRANCH  11  15
ENDBRANCH   4   6
ENDBRANCH   3   4
ENDBRANCH   2   3
ENDBRANCH   1   2
BRANCH   1  23
ATOM     23  O   UNL A   1      34.142  20.752  24.230  1.00  0.00    -0.374 OA
BRANCH  23  24
ATOM     24  C   UNL A   1      35.102  20.823  25.289  1.00  0.00     0.202 C 
BRANCH  24  25
ATOM     25  C   UNL A   1      36.553  20.424  25.001  1.00  0.00     0.261 C 
BRANCH  25  26
ATOM     26  O   UNL A   1      37.467  21.506  25.260  1.00  0.00    -0.460 OA
BRANCH  26  27
ATOM     27  C   UNL A   1      38.640  21.139  25.831  1.00  0.00     0.338 C 
ATOM     28  O   UNL A   1      39.207  20.064  25.742  1.00  0.00    -0.246 OA
BRANCH  27  29
ATOM     29  C   UNL A   1      39.275  22.325  26.425  1.00  0.00     0.060 A 
ATOM     30  C   UNL A   1      38.775  23.587  26.069  1.00  0.00     0.016 A 
ATOM     31  C   UNL A   1      40.374  22.204  27.275  1.00  0.00     0.016 A 
ATOM     32  C   UNL A   1      39.386  24.739  26.556  1.00  0.00     0.010 A 
ATOM     33  C   UNL A   1      41.000  23.360  27.743  1.00  0.00     0.010 A 
ATOM     34  C   UNL A   1      40.520  24.629  27.370  1.00  0.00    -0.014 A 
BRANCH  34  35
ATOM     35  C   UNL A   1      41.290  25.837  27.736  1.00  0.00     0.031 A 
ATOM     36  C   UNL A   1      40.601  26.930  28.499  1.00  0.00     0.074 A 
ATOM     37  C   UNL A   1      42.577  25.959  27.371  1.00  0.00     0.049 A 
ATOM     38  N   UNL A   1      41.040  28.117  28.823  1.00  0.00    -0.248 NA
ATOM     39  C   UNL A   1      39.230  26.646  28.954  1.00  0.00     0.031 C 
ATOM     40  C   UNL A   1      43.355  24.940  26.671  1.00  0.00     0.029 A 
ATOM     41  N   UNL A   1      43.446  27.008  27.522  1.00  0.00    -0.354 N 
ATOM     42  C   UNL A   1      40.000  28.725  29.515  1.00  0.00     0.074 A 
ATOM     43  C   UNL A   1      38.902  27.784  29.547  1.00  0.00     0.031 C 
ATOM     44  C   UNL A   1      44.585  25.426  26.426  1.00  0.00     0.029 A 
ATOM     45  C   UNL A   1      44.662  26.799  26.919  1.00  0.00     0.049 A 
ATOM     46  H   UNL A   1      43.222  27.830  28.014  1.00  0.00     0.167 HD
ATOM     47  C   UNL A   1      39.971  29.958  30.073  1.00  0.00     0.037 A 
ATOM     48  C   UNL A   1      45.701  27.639  26.753  1.00  0.00     0.037 A 
ATOM     49  C   UNL A   1      41.066  30.889  30.027  1.00  0.00     0.049 A 
ATOM     50  C   UNL A   1      45.605  29.041  27.293  1.00  0.00     0.074 A 
ATOM     51  C   UNL A   1      41.150  32.152  30.586  1.00  0.00     0.029 A 
ATOM     52  N   UNL A   1      42.265  30.660  29.368  1.00  0.00    -0.354 N 
ATOM     53  N   UNL A   1      44.630  29.602  27.967  1.00  0.00    -0.248 NA
ATOM     54  C   UNL A   1      46.747  29.930  27.038  1.00  0.00     0.031 C 
ATOM     55  C   UNL A   1      42.382  32.707  30.222  1.00  0.00     0.029 A 
ATOM     56  C   UNL A   1      43.081  31.772  29.473  1.00  0.00     0.049 A 
ATOM     57  H   UNL A   1      42.500  29.829  28.895  1.00  0.00     0.167 HD
ATOM     58  C   UNL A   1      45.044  30.901  28.229  1.00  0.00     0.074 A 
ATOM     59  C   UNL A   1      46.367  31.041  27.655  1.00  0.00     0.031 C 
ATOM     60  C   UNL A   1      44.390  31.891  28.884  1.00  0.00     0.037 A 
BRANCH  47  61
ATOM     61  C   UNL A   1      38.702  30.377  30.753  1.00  0.00     0.057 A 
ATOM     62  C   UNL A   1      38.478  30.136  32.115  1.00  0.00     0.134 A 
ATOM     63  C   UNL A   1      37.702  31.050  30.041  1.00  0.00     0.134 A 
ATOM     64  F   UNL A   1      39.390  29.480  32.847  1.00  0.00    -0.206 F 
ATOM     65  C   UNL A   1      37.296  30.535  32.740  1.00  0.00     0.040 A 
ATOM     66  C   UNL A   1      36.524  31.473  30.661  1.00  0.00     0.040 A 
ATOM     67  F   UNL A   1      37.854  31.311  28.734  1.00  0.00    -0.206 F 
ATOM     68  C   UNL A   1      36.317  31.211  32.013  1.00  0.00     0.006 A 
ENDBRANCH  47  61
BRANCH  48  69
ATOM     69  C   UNL A   1      46.904  27.194  26.007  1.00  0.00     0.057 A 
ATOM     70  C   UNL A   1      47.008  27.379  24.624  1.00  0.00     0.134 A 
ATOM     71  C   UNL A   1      47.971  26.562  26.657  1.00  0.00     0.134 A 
ATOM     72  F   UNL A   1      46.007  27.955  23.944  1.00  0.00    -0.206 F 
ATOM     73  C   UNL A   1      48.128  26.942  23.912  1.00  0.00     0.040 A 
ATOM     74  C   UNL A   1      49.106  26.142  25.961  1.00  0.00     0.040 A 
ATOM     75  F   UNL A   1      47.931  26.355  27.982  1.00  0.00    -0.206 F 
ATOM     76  C   UNL A   1      49.182  26.327  24.582  1.00  0.00     0.006 A 
ENDBRANCH  48  69
BRANCH  60  77
ATOM     77  C   UNL A   1      45.096  33.207  29.019  1.00  0.00     0.057 A 
ATOM     78  C   UNL A   1      44.877  34.252  28.112  1.00  0.00     0.134 A 
ATOM     79  C   UNL A   1      45.962  33.451  30.091  1.00  0.00     0.134 A 
ATOM     80  F   UNL A   1      44.068  34.076  27.055  1.00  0.00    -0.206 F 
ATOM     81  C   UNL A   1      45.504  35.489  28.262  1.00  0.00     0.040 A 
ATOM     82  C   UNL A   1      46.577  34.691  30.265  1.00  0.00     0.040 A 
ATOM     83  F   UNL A   1      46.207  32.493  30.999  1.00  0.00    -0.206 F 
ATOM     84  C   UNL A   1      46.351  35.713  29.345  1.00  0.00     0.006 A 
ENDBRANCH  60  77
ENDBRANCH  34  35
ENDBRANCH  27  29
ENDBRANCH  26  27
ENDBRANCH  25  26
ENDBRANCH  24  25
ENDBRANCH  23  24
ENDBRANCH   1  23
TORSDOF 18
ENDMDL
MODEL 2
REMARK VINA RESULT:     -10.5      2.951      4.349
REMARK SMILES CCc1nc(C)c(C(=O)OCCOCCOC(=O)c2ccc(-c3c4nc(c(-c5c(F)cccc5F)c5ccc([nH]5)c(-c5c(F)cccc5F)c5nc(c(-c6c(F)cccc6F)c6ccc3[nH]6)C=C5)C=C4)cc2)c(SCc2cnc(Cl)s2)n1
REMARK SMILES IDX 12 1 11 2 10 3 8 4 9 5 7 6 3 7 4 8 82 9 5 10 73 11 6 12 2 13
REMARK SMILES IDX 1 14 74 15 75 16 76 17 77 18 81 19 78 20 79 21 80 22 13 23
REMARK SMILES IDX 14 24 15 25 16 26 17 27 18 28 19 29 20 30 72 31 21 32 71 33
REMARK SMILES IDX 22 34 23 35 24 36 65 37 25 38 70 39 64 40 66 41 26 42 69 43
REMARK SMILES IDX 63 44 62 45 27 47 53 48 36 49 52 50 37 51 40 52 51 53 67 54
REMARK SMILES IDX 38 55 39 56 50 58 68 59 41 60 28 61 29 62 34 63 30 64 31 65
REMARK SMILES IDX 33 66 35 67 32 68 54 69 55 70 60 71 56 72 57 73 59 74 61 75
REMARK SMILES IDX 58 76 42 77 43 78 48 79 44 80 45 81 47 82 49 83 46 84
REMARK H PARENT 66 46 40 57
REMARK Flexibility Score: inf
ROOT
ATOM      1  C   UNL A   1      36.941  22.888  24.997  1.00  0.00     0.202 C 
ENDROOT
BRANCH   1   2
ATOM      2  C   UNL A   1      35.986  22.524  23.852  1.00  0.00     0.261 C 
BRANCH   2   3
ATOM      3  O   UNL A   1      35.463  23.677  23.179  1.00  0.00    -0.460 OA
BRANCH   3   4
ATOM      4  C   UNL A   1      34.117  23.661  23.031  1.00  0.00     0.342 C 
ATOM      5  O   UNL A   1      33.545  23.024  22.171  1.00  0.00    -0.246 OA
BRANCH   4   6
ATOM      6  C   UNL A   1      33.415  24.497  24.010  1.00  0.00     0.113 A 
ATOM      7  C   UNL A   1      32.054  26.174  25.683  1.00  0.00     0.129 A 
ATOM      8  N   UNL A   1      32.599  26.701  24.588  1.00  0.00    -0.237 NA
ATOM      9  N   UNL A   1      32.158  24.881  25.998  1.00  0.00    -0.226 NA
ATOM     10  C   UNL A   1      33.257  25.867  23.749  1.00  0.00     0.057 A 
ATOM     11  C   UNL A   1      32.820  24.018  25.176  1.00  0.00     0.115 A 
ATOM     12  C   UNL A   1      33.672  26.550  22.475  1.00  0.00     0.068 C 
BRANCH   7  13
ATOM     13  C   UNL A   1      31.323  27.059  26.655  1.00  0.00     0.074 C 
ATOM     14  C   UNL A   1      31.786  28.509  26.642  1.00  0.00     0.012 C 
ENDBRANCH   7  13
BRANCH  11  15
ATOM     15  S   UNL A   1      32.706  22.449  26.018  1.00  0.00    -0.100 SA
BRANCH  15  16
ATOM     16  C   UNL A   1      32.119  21.090  24.983  1.00  0.00     0.125 C 
BRANCH  16  17
ATOM     17  C   UNL A   1      32.897  19.815  24.924  1.00  0.00     0.036 A 
ATOM     18  C   UNL A   1      34.278  19.705  25.026  1.00  0.00     0.129 A 
ATOM     19  S   UNL A   1      32.255  18.264  24.530  1.00  0.00    -0.107 S 
ATOM     20  N   UNL A   1      34.824  18.515  24.590  1.00  0.00    -0.233 NA
ATOM     21  C   UNL A   1      33.840  17.747  24.190  1.00  0.00     0.183 A 
ATOM     22  Cl  UNL A   1      34.103  16.296  23.313  1.00  0.00    -0.051 Cl
ENDBRANCH  16  17
ENDBRANCH  15  16
ENDBRANCH  11  15
ENDBRANCH   4   6
ENDBRANCH   3   4
ENDBRANCH   2   3
ENDBRANCH   1   2
BRANCH   1  23
ATOM     23  O   UNL A   1      37.759  21.853  25.533  1.00  0.00    -0.374 OA
BRANCH  23  24
ATOM     24  C   UNL A   1      37.659  20.537  24.980  1.00  0.00     0.202 C 
BRANCH  24  25
ATOM     25  C   UNL A   1      38.854  19.587  25.111  1.00  0.00     0.261 C 
BRANCH  25  26
ATOM     26  O   UNL A   1      39.620  19.849  26.300  1.00  0.00    -0.460 OA
BRANCH  26  27
ATOM     27  C   UNL A   1      40.946  19.593  26.195  1.00  0.00     0.338 C 
ATOM     28  O   UNL A   1      41.478  18.588  25.755  1.00  0.00    -0.246 OA
BRANCH  27  29
ATOM     29  C   UNL A   1      41.696  20.821  26.496  1.00  0.00     0.060 A 
ATOM     30  C   UNL A   1      41.978  21.108  27.840  1.00  0.00     0.016 A 
ATOM     31  C   UNL A   1      42.072  21.703  25.482  1.00  0.00     0.016 A 
ATOM     32  C   UNL A   1      42.629  22.291  28.177  1.00  0.00     0.010 A 
ATOM     33  C   UNL A   1      42.702  22.900  25.824  1.00  0.00     0.010 A 
ATOM     34  C   UNL A   1      42.965  23.206  27.171  1.00  0.00    -0.014 A 
BRANCH  34  35
ATOM     35  C   UNL A   1      43.480  24.545  27.530  1.00  0.00     0.031 A 
ATOM     36  C   UNL A   1      42.505  25.609  27.942  1.00  0.00     0.074 A 
ATOM     37  C   UNL A   1      44.796  24.806  27.464  1.00  0.00     0.049 A 
ATOM     38  N   UNL A   1      42.715  26.875  28.186  1.00  0.00    -0.248 NA
ATOM     39  C   UNL A   1      41.103  25.186  28.098  1.00  0.00     0.031 C 
ATOM     40  C   UNL A   1      45.833  23.835  27.123  1.00  0.00     0.029 A 
ATOM     41  N   UNL A   1      45.479  25.978  27.663  1.00  0.00    -0.354 N 
ATOM     42  C   UNL A   1      41.475  27.404  28.518  1.00  0.00     0.074 A 
ATOM     43  C   UNL A   1      40.514  26.327  28.425  1.00  0.00     0.031 C 
ATOM     44  C   UNL A   1      47.024  24.460  27.108  1.00  0.00     0.029 A 
ATOM     45  C   UNL A   1      46.823  25.877  27.400  1.00  0.00     0.049 A 
ATOM     46  H   UNL A   1      45.049  26.811  27.964  1.00  0.00     0.167 HD
ATOM     47  C   UNL A   1      41.170  28.675  28.869  1.00  0.00     0.037 A 
ATOM     48  C   UNL A   1      47.772  26.831  27.364  1.00  0.00     0.037 A 
ATOM     49  C   UNL A   1      42.133  29.741  28.947  1.00  0.00     0.049 A 
ATOM     50  C   UNL A   1      47.389  28.258  27.658  1.00  0.00     0.074 A 
ATOM     51  C   UNL A   1      41.934  31.058  29.322  1.00  0.00     0.029 A 
ATOM     52  N   UNL A   1      43.477  29.610  28.630  1.00  0.00    -0.354 N 
ATOM     53  N   UNL A   1      46.221  28.747  27.995  1.00  0.00    -0.248 NA
ATOM     54  C   UNL A   1      48.455  29.265  27.554  1.00  0.00     0.031 C 
ATOM     55  C   UNL A   1      43.150  31.737  29.183  1.00  0.00     0.029 A 
ATOM     56  C   UNL A   1      44.113  30.832  28.763  1.00  0.00     0.049 A 
ATOM     57  H   UNL A   1      43.914  28.774  28.352  1.00  0.00     0.167 HD
ATOM     58  C   UNL A   1      46.410  30.113  28.156  1.00  0.00     0.074 A 
ATOM     59  C   UNL A   1      47.811  30.373  27.896  1.00  0.00     0.031 C 
ATOM     60  C   UNL A   1      45.508  31.068  28.488  1.00  0.00     0.037 A 
BRANCH  47  61
ATOM     61  C   UNL A   1      39.733  28.984  29.162  1.00  0.00     0.057 A 
ATOM     62  C   UNL A   1      39.214  28.925  30.462  1.00  0.00     0.134 A 
ATOM     63  C   UNL A   1      38.863  29.368  28.135  1.00  0.00     0.134 A 
ATOM     64  F   UNL A   1      39.992  28.546  31.486  1.00  0.00    -0.206 F 
ATOM     65  C   UNL A   1      37.876  29.220  30.726  1.00  0.00     0.040 A 
ATOM     66  C   UNL A   1      37.528  29.687  28.390  1.00  0.00     0.040 A 
ATOM     67  F   UNL A   1      39.298  29.445  26.867  1.00  0.00    -0.206 F 
ATOM     68  C   UNL A   1      37.030  29.608  29.688  1.00  0.00     0.006 A 
ENDBRANCH  47  61
BRANCH  48  69
ATOM     69  C   UNL A   1      49.165  26.480  26.995  1.00  0.00     0.057 A 
ATOM     70  C   UNL A   1      49.574  26.444  25.658  1.00  0.00     0.134 A 
ATOM     71  C   UNL A   1      50.117  26.158  27.970  1.00  0.00     0.134 A 
ATOM     72  F   UNL A   1      48.700  26.718  24.679  1.00  0.00    -0.206 F 
ATOM     73  C   UNL A   1      50.877  26.093  25.302  1.00  0.00     0.040 A 
ATOM     74  C   UNL A   1      51.430  25.827  27.630  1.00  0.00     0.040 A 
ATOM     75  F   UNL A   1      49.788  26.173  29.271  1.00  0.00    -0.206 F 
ATOM     76  C   UNL A   1      51.810  25.789  26.291  1.00  0.00     0.006 A 
ENDBRANCH  48  69
BRANCH  60  77
ATOM     77  C   UNL A   1      46.008  32.478  28.594  1.00  0.00     0.057 A 
ATOM     78  C   UNL A   1      45.944  33.360  27.509  1.00  0.00     0.134 A 
ATOM     79  C   UNL A   1      46.510  32.972  29.803  1.00  0.00     0.134 A 
ATOM     80  F   UNL A   1      45.485  32.942  26.319  1.00  0.00    -0.206 F 
ATOM     81  C   UNL A   1      46.373  34.683  27.620  1.00  0.00     0.040 A 
ATOM     82  C   UNL A   1      46.921  34.299  29.935  1.00  0.00     0.040 A 
ATOM     83  F   UNL A   1      46.590  32.179  30.882  1.00  0.00    -0.206 F 
ATOM     84  C   UNL A   1      46.856  35.157  28.838  1.00  0.00     0.006 A 
ENDBRANCH  60  77
ENDBRANCH  34  35
ENDBRANCH  27  29
ENDBRANCH  26  27
ENDBRANCH  25  26
ENDBRANCH  24  25
ENDBRANCH  23  24
ENDBRANCH   1  23
TORSDOF 18
ENDMDL
MODEL 3
REMARK VINA RESULT:     -10.2      2.555      4.056
REMARK SMILES CCc1nc(C)c(C(=O)OCCOCCOC(=O)c2ccc(-c3c4nc(c(-c5c(F)cccc5F)c5ccc([nH]5)c(-c5c(F)cccc5F)c5nc(c(-c6c(F)cccc6F)c6ccc3[nH]6)C=C5)C=C4)cc2)c(SCc2cnc(Cl)s2)n1
REMARK SMILES IDX 12 1 11 2 10 3 8 4 9 5 7 6 3 7 4 8 82 9 5 10 73 11 6 12 2 13
REMARK SMILES IDX 1 14 74 15 75 16 76 17 77 18 81 19 78 20 79 21 80 22 13 23
REMARK SMILES IDX 14 24 15 25 16 26 17 27 18 28 19 29 20 30 72 31 21 32 71 33
REMARK SMILES IDX 22 34 23 35 24 36 65 37 25 38 70 39 64 40 66 41 26 42 69 43
REMARK SMILES IDX 63 44 62 45 27 47 53 48 36 49 52 50 37 51 40 52 51 53 67 54
REMARK SMILES IDX 38 55 39 56 50 58 68 59 41 60 28 61 29 62 34 63 30 64 31 65
REMARK SMILES IDX 33 66 35 67 32 68 54 69 55 70 60 71 56 72 57 73 59 74 61 75
REMARK SMILES IDX 58 76 42 77 43 78 48 79 44 80 45 81 47 82 49 83 46 84
REMARK H PARENT 66 46 40 57
REMARK Flexibility Score: inf
ROOT
ATOM      1  C   UNL A   1      36.579  23.264  25.023  1.00  0.00     0.202 C 
ENDROOT
BRANCH   1   2
ATOM      2  C   UNL A   1      35.556  23.119  23.888  1.00  0.00     0.261 C 
BRANCH   2   3
ATOM      3  O   UNL A   1      34.912  24.358  23.561  1.00  0.00    -0.460 OA
BRANCH   3   4
ATOM      4  C   UNL A   1      33.652  24.212  23.084  1.00  0.00     0.342 C 
ATOM      5  O   UNL A   1      33.241  23.187  22.583  1.00  0.00    -0.246 OA
BRANCH   4   6
ATOM      6  C   UNL A   1      32.833  25.419  23.227  1.00  0.00     0.113 A 
ATOM      7  C   UNL A   1      31.224  27.625  23.316  1.00  0.00     0.129 A 
ATOM      8  N   UNL A   1      31.605  27.186  22.118  1.00  0.00    -0.237 NA
ATOM      9  N   UNL A   1      31.605  27.049  24.458  1.00  0.00    -0.226 NA
ATOM     10  C   UNL A   1      32.387  26.081  22.072  1.00  0.00     0.057 A 
ATOM     11  C   UNL A   1      32.397  25.939  24.445  1.00  0.00     0.115 A 
ATOM     12  C   UNL A   1      32.601  25.591  20.667  1.00  0.00     0.068 C 
BRANCH   7  13
ATOM     13  C   UNL A   1      30.366  28.856  23.423  1.00  0.00     0.074 C 
ATOM     14  C   UNL A   1      28.947  28.668  22.907  1.00  0.00     0.012 C 
ENDBRANCH   7  13
BRANCH  11  15
ATOM     15  S   UNL A   1      32.641  25.564  26.172  1.00  0.00    -0.100 SA
BRANCH  15  16
ATOM     16  C   UNL A   1      31.749  24.104  26.750  1.00  0.00     0.125 C 
BRANCH  16  17
ATOM     17  C   UNL A   1      32.383  22.755  26.636  1.00  0.00     0.036 A 
ATOM     18  C   UNL A   1      33.473  22.309  27.373  1.00  0.00     0.129 A 
ATOM     19  S   UNL A   1      32.008  21.566  25.446  1.00  0.00    -0.107 S 
ATOM     20  N   UNL A   1      34.124  21.198  26.877  1.00  0.00    -0.233 NA
ATOM     21  C   UNL A   1      33.496  20.818  25.791  1.00  0.00     0.183 A 
ATOM     22  Cl  UNL A   1      34.145  19.652  24.712  1.00  0.00    -0.051 Cl
ENDBRANCH  16  17
ENDBRANCH  15  16
ENDBRANCH  11  15
ENDBRANCH   4   6
ENDBRANCH   3   4
ENDBRANCH   2   3
ENDBRANCH   1   2
BRANCH   1  23
ATOM     23  O   UNL A   1      37.227  22.084  25.486  1.00  0.00    -0.374 OA
BRANCH  23  24
ATOM     24  C   UNL A   1      37.416  20.997  24.575  1.00  0.00     0.202 C 
BRANCH  24  25
ATOM     25  C   UNL A   1      38.385  19.873  24.956  1.00  0.00     0.261 C 
BRANCH  25  26
ATOM     26  O   UNL A   1      39.068  20.149  26.192  1.00  0.00    -0.460 OA
BRANCH  26  27
ATOM     27  C   UNL A   1      40.399  19.896  26.179  1.00  0.00     0.338 C 
ATOM     28  O   UNL A   1      40.967  18.921  25.718  1.00  0.00    -0.246 OA
BRANCH  27  29
ATOM     29  C   UNL A   1      41.120  21.098  26.625  1.00  0.00     0.060 A 
ATOM     30  C   UNL A   1      41.336  21.263  28.001  1.00  0.00     0.016 A 
ATOM     31  C   UNL A   1      41.529  22.071  25.714  1.00  0.00     0.016 A 
ATOM     32  C   UNL A   1      41.956  22.417  28.473  1.00  0.00     0.010 A 
ATOM     33  C   UNL A   1      42.129  23.237  26.190  1.00  0.00     0.010 A 
ATOM     34  C   UNL A   1      42.327  23.422  27.571  1.00  0.00    -0.014 A 
BRANCH  34  35
ATOM     35  C   UNL A   1      42.808  24.727  28.072  1.00  0.00     0.031 A 
ATOM     36  C   UNL A   1      41.804  25.796  28.389  1.00  0.00     0.074 A 
ATOM     37  C   UNL A   1      44.124  24.955  28.219  1.00  0.00     0.049 A 
ATOM     38  N   UNL A   1      42.000  27.042  28.727  1.00  0.00    -0.248 NA
ATOM     39  C   UNL A   1      40.387  25.405  28.311  1.00  0.00     0.031 C 
ATOM     40  C   UNL A   1      45.181  23.973  27.986  1.00  0.00     0.029 A 
ATOM     41  N   UNL A   1      44.792  26.095  28.578  1.00  0.00    -0.354 N 
ATOM     42  C   UNL A   1      40.735  27.588  28.897  1.00  0.00     0.074 A 
ATOM     43  C   UNL A   1      39.778  26.544  28.606  1.00  0.00     0.031 C 
ATOM     44  C   UNL A   1      46.373  24.564  28.182  1.00  0.00     0.029 A 
ATOM     45  C   UNL A   1      46.159  25.970  28.515  1.00  0.00     0.049 A 
ATOM     46  H   UNL A   1      44.339  26.924  28.855  1.00  0.00     0.167 HD
ATOM     47  C   UNL A   1      40.406  28.849  29.265  1.00  0.00     0.037 A 
ATOM     48  C   UNL A   1      47.121  26.898  28.672  1.00  0.00     0.037 A 
ATOM     49  C   UNL A   1      41.367  29.883  29.543  1.00  0.00     0.049 A 
ATOM     50  C   UNL A   1      46.727  28.319  28.980  1.00  0.00     0.074 A 
ATOM     51  C   UNL A   1      41.141  31.184  29.952  1.00  0.00     0.029 A 
ATOM     52  N   UNL A   1      42.741  29.731  29.424  1.00  0.00    -0.354 N 
ATOM     53  N   UNL A   1      45.531  28.823  29.163  1.00  0.00    -0.248 NA
ATOM     54  C   UNL A   1      47.816  29.300  29.089  1.00  0.00     0.031 C 
ATOM     55  C   UNL A   1      42.376  31.836  30.032  1.00  0.00     0.029 A 
ATOM     56  C   UNL A   1      43.374  30.926  29.715  1.00  0.00     0.049 A 
ATOM     57  H   UNL A   1      43.198  28.897  29.171  1.00  0.00     0.167 HD
ATOM     58  C   UNL A   1      45.722  30.174  29.422  1.00  0.00     0.074 A 
ATOM     59  C   UNL A   1      47.151  30.408  29.389  1.00  0.00     0.031 C 
ATOM     60  C   UNL A   1      44.798  31.136  29.665  1.00  0.00     0.037 A 
BRANCH  47  61
ATOM     61  C   UNL A   1      38.947  29.183  29.355  1.00  0.00     0.057 A 
ATOM     62  C   UNL A   1      38.215  29.602  28.238  1.00  0.00     0.134 A 
ATOM     63  C   UNL A   1      38.263  29.060  30.570  1.00  0.00     0.134 A 
ATOM     64  F   UNL A   1      38.817  29.757  27.050  1.00  0.00    -0.206 F 
ATOM     65  C   UNL A   1      36.855  29.905  28.331  1.00  0.00     0.040 A 
ATOM     66  C   UNL A   1      36.899  29.339  30.670  1.00  0.00     0.040 A 
ATOM     67  F   UNL A   1      38.907  28.662  31.678  1.00  0.00    -0.206 F 
ATOM     68  C   UNL A   1      36.192  29.768  29.549  1.00  0.00     0.006 A 
ENDBRANCH  47  61
BRANCH  48  69
ATOM     69  C   UNL A   1      48.546  26.527  28.498  1.00  0.00     0.057 A 
ATOM     70  C   UNL A   1      49.151  26.542  27.236  1.00  0.00     0.134 A 
ATOM     71  C   UNL A   1      49.335  26.135  29.587  1.00  0.00     0.134 A 
ATOM     72  F   UNL A   1      48.439  26.884  26.153  1.00  0.00    -0.206 F 
ATOM     73  C   UNL A   1      50.486  26.172  27.062  1.00  0.00     0.040 A 
ATOM     74  C   UNL A   1      50.677  25.785  29.431  1.00  0.00     0.040 A 
ATOM     75  F   UNL A   1      48.814  26.100  30.823  1.00  0.00    -0.206 F 
ATOM     76  C   UNL A   1      51.254  25.798  28.163  1.00  0.00     0.006 A 
ENDBRANCH  48  69
BRANCH  60  77
ATOM     77  C   UNL A   1      45.306  32.525  29.918  1.00  0.00     0.057 A 
ATOM     78  C   UNL A   1      45.683  32.944  31.200  1.00  0.00     0.134 A 
ATOM     79  C   UNL A   1      45.467  33.433  28.865  1.00  0.00     0.134 A 
ATOM     80  F   UNL A   1      45.540  32.123  32.253  1.00  0.00    -0.206 F 
ATOM     81  C   UNL A   1      46.194  34.222  31.427  1.00  0.00     0.040 A 
ATOM     82  C   UNL A   1      45.997  34.706  29.075  1.00  0.00     0.040 A 
ATOM     83  F   UNL A   1      45.131  33.089  27.613  1.00  0.00    -0.206 F 
ATOM     84  C   UNL A   1      46.358  35.105  30.361  1.00  0.00     0.006 A 
ENDBRANCH  60  77
ENDBRANCH  34  35
ENDBRANCH  27  29
ENDBRANCH  26  27
ENDBRANCH  25  26
ENDBRANCH  24  25
ENDBRANCH  23  24
ENDBRANCH   1  23
TORSDOF 18
ENDMDL
