MODEL 1
REMARK VINA RESULT:     -10.9      0.000      0.000
REMARK SMILES COc1ccc2cc([C@@H](C)C(=O)OCCOCCOC(=O)c3ccc(-c4c5nc(c(-c6c(F)cccc6F)c6ccc([nH]6)c(-c6c(F)cccc6F)c6nc(c(-c7c(F)cccc7F)c7ccc4[nH]7)C=C6)C=C5)cc3)ccc2c1
REMARK SMILES IDX 16 1 15 2 14 3 13 4 11 5 12 6 9 7 10 8 8 9 3 10 4 11 79 12
REMARK SMILES IDX 5 13 78 14 6 15 77 16 7 17 76 18 2 19 1 20 17 21 18 22 19 23
REMARK SMILES IDX 20 24 21 25 22 26 23 27 75 28 24 29 74 30 25 31 26 32 27 33
REMARK SMILES IDX 68 34 28 35 73 36 67 37 69 38 29 39 72 40 66 41 65 42 30 44
REMARK SMILES IDX 56 45 39 46 55 47 40 48 43 49 54 50 70 51 41 52 42 53 53 55
REMARK SMILES IDX 71 56 44 57 31 58 32 59 37 60 33 61 34 62 36 63 38 64 35 65
REMARK SMILES IDX 57 66 58 67 63 68 59 69 60 70 62 71 64 72 61 73 45 74 46 75
REMARK SMILES IDX 51 76 47 77 48 78 50 79 52 80 49 81
REMARK H PARENT 69 43 43 54
REMARK Flexibility Score: inf
ROOT
ATOM      1  O   UNL A   1      46.213  21.405  25.151  1.00  0.00    -0.374 OA
ENDROOT
BRANCH   1   2
ATOM      2  C   UNL A   1      45.588  20.364  24.401  1.00  0.00     0.202 C 
BRANCH   2   3
ATOM      3  C   UNL A   1      44.581  19.499  25.163  1.00  0.00     0.261 C 
BRANCH   3   4
ATOM      4  O   UNL A   1      43.228  19.834  24.804  1.00  0.00    -0.463 OA
BRANCH   4   5
ATOM      5  C   UNL A   1      42.283  19.558  25.740  1.00  0.00     0.313 C 
ATOM      6  O   UNL A   1      41.990  18.426  26.114  1.00  0.00    -0.252 OA
BRANCH   5   7
ATOM      7  C   UNL A   1      41.562  20.783  26.276  1.00  0.00     0.126 C 
ATOM      8  C   UNL A   1      41.848  20.917  27.771  1.00  0.00     0.025 C 
BRANCH   7   9
ATOM      9  C   UNL A   1      40.076  20.941  25.969  1.00  0.00    -0.033 A 
ATOM     10  C   UNL A   1      35.430  22.634  24.735  1.00  0.00     0.119 A 
ATOM     11  C   UNL A   1      36.082  23.704  25.341  1.00  0.00     0.047 A 
ATOM     12  C   UNL A   1      36.067  21.395  24.656  1.00  0.00     0.055 A 
ATOM     13  C   UNL A   1      37.386  23.545  25.826  1.00  0.00     0.012 A 
ATOM     14  C   UNL A   1      37.381  21.225  25.124  1.00  0.00    -0.015 A 
ATOM     15  C   UNL A   1      38.058  22.318  25.708  1.00  0.00    -0.018 A 
ATOM     16  C   UNL A   1      38.046  19.998  25.001  1.00  0.00     0.009 A 
ATOM     17  C   UNL A   1      39.393  22.158  26.134  1.00  0.00     0.013 A 
ATOM     18  C   UNL A   1      39.373  19.859  25.414  1.00  0.00     0.005 A 
BRANCH  10  19
ATOM     19  O   UNL A   1      34.161  22.681  24.227  1.00  0.00    -0.497 OA
ATOM     20  C   UNL A   1      33.410  21.478  24.375  1.00  0.00     0.278 C 
ENDBRANCH  10  19
ENDBRANCH   7   9
ENDBRANCH   5   7
ENDBRANCH   4   5
ENDBRANCH   3   4
ENDBRANCH   2   3
ENDBRANCH   1   2
BRANCH   1  21
ATOM     21  C   UNL A   1      45.472  21.966  26.235  1.00  0.00     0.202 C 
BRANCH  21  22
ATOM     22  C   UNL A   1      45.668  23.464  26.489  1.00  0.00     0.261 C 
BRANCH  22  23
ATOM     23  O   UNL A   1      45.305  24.263  25.350  1.00  0.00    -0.460 OA
BRANCH  23  24
ATOM     24  C   UNL A   1      43.994  24.221  25.019  1.00  0.00     0.338 C 
ATOM     25  O   UNL A   1      43.457  23.491  24.196  1.00  0.00    -0.246 OA
BRANCH  24  26
ATOM     26  C   UNL A   1      43.211  25.082  25.925  1.00  0.00     0.060 A 
ATOM     27  C   UNL A   1      43.600  26.423  26.034  1.00  0.00     0.016 A 
ATOM     28  C   UNL A   1      42.178  24.577  26.718  1.00  0.00     0.016 A 
ATOM     29  C   UNL A   1      42.994  27.253  26.974  1.00  0.00     0.010 A 
ATOM     30  C   UNL A   1      41.575  25.410  27.668  1.00  0.00     0.010 A 
ATOM     31  C   UNL A   1      42.005  26.741  27.825  1.00  0.00    -0.014 A 
BRANCH  31  32
ATOM     32  C   UNL A   1      41.532  27.567  28.964  1.00  0.00     0.031 A 
ATOM     33  C   UNL A   1      42.256  27.484  30.281  1.00  0.00     0.074 A 
ATOM     34  C   UNL A   1      40.498  28.414  28.818  1.00  0.00     0.049 A 
ATOM     35  N   UNL A   1      42.016  28.119  31.400  1.00  0.00    -0.248 NA
ATOM     36  C   UNL A   1      43.404  26.565  30.346  1.00  0.00     0.031 C 
ATOM     37  C   UNL A   1      39.732  28.610  27.587  1.00  0.00     0.029 A 
ATOM     38  N   UNL A   1      39.911  29.267  29.719  1.00  0.00    -0.354 N 
ATOM     39  C   UNL A   1      42.974  27.671  32.302  1.00  0.00     0.074 A 
ATOM     40  C   UNL A   1      43.786  26.696  31.608  1.00  0.00     0.031 C 
ATOM     41  C   UNL A   1      38.768  29.520  27.814  1.00  0.00     0.029 A 
ATOM     42  C   UNL A   1      38.834  29.951  29.209  1.00  0.00     0.049 A 
ATOM     43  H   UNL A   1      40.231  29.379  30.643  1.00  0.00     0.167 HD
ATOM     44  C   UNL A   1      43.163  28.044  33.589  1.00  0.00     0.037 A 
ATOM     45  C   UNL A   1      37.988  30.813  29.806  1.00  0.00     0.037 A 
ATOM     46  C   UNL A   1      42.372  29.030  34.277  1.00  0.00     0.049 A 
ATOM     47  C   UNL A   1      38.195  31.173  31.255  1.00  0.00     0.074 A 
ATOM     48  C   UNL A   1      42.527  29.511  35.566  1.00  0.00     0.029 A 
ATOM     49  N   UNL A   1      41.277  29.681  33.734  1.00  0.00    -0.354 N 
ATOM     50  N   UNL A   1      39.135  30.781  32.080  1.00  0.00    -0.248 NA
ATOM     51  C   UNL A   1      37.221  32.099  31.854  1.00  0.00     0.031 C 
ATOM     52  C   UNL A   1      41.495  30.421  35.818  1.00  0.00     0.029 A 
ATOM     53  C   UNL A   1      40.725  30.536  34.673  1.00  0.00     0.049 A 
ATOM     54  H   UNL A   1      40.941  29.555  32.817  1.00  0.00     0.167 HD
ATOM     55  C   UNL A   1      38.884  31.434  33.281  1.00  0.00     0.074 A 
ATOM     56  C   UNL A   1      37.711  32.256  33.075  1.00  0.00     0.031 C 
ATOM     57  C   UNL A   1      39.564  31.359  34.450  1.00  0.00     0.037 A 
BRANCH  44  58
ATOM     58  C   UNL A   1      44.260  27.370  34.357  1.00  0.00     0.057 A 
ATOM     59  C   UNL A   1      44.055  26.162  35.033  1.00  0.00     0.134 A 
ATOM     60  C   UNL A   1      45.554  27.904  34.359  1.00  0.00     0.134 A 
ATOM     61  F   UNL A   1      42.836  25.605  35.077  1.00  0.00    -0.206 F 
ATOM     62  C   UNL A   1      45.100  25.512  35.693  1.00  0.00     0.040 A 
ATOM     63  C   UNL A   1      46.612  27.253  34.996  1.00  0.00     0.040 A 
ATOM     64  F   UNL A   1      45.816  29.058  33.724  1.00  0.00    -0.206 F 
ATOM     65  C   UNL A   1      46.384  26.053  35.667  1.00  0.00     0.006 A 
ENDBRANCH  44  58
BRANCH  45  66
ATOM     66  C   UNL A   1      36.847  31.389  29.052  1.00  0.00     0.057 A 
ATOM     67  C   UNL A   1      36.854  32.721  28.623  1.00  0.00     0.134 A 
ATOM     68  C   UNL A   1      35.698  30.633  28.790  1.00  0.00     0.134 A 
ATOM     69  F   UNL A   1      37.916  33.503  28.869  1.00  0.00    -0.206 F 
ATOM     70  C   UNL A   1      35.750  33.290  27.985  1.00  0.00     0.040 A 
ATOM     71  C   UNL A   1      34.597  31.181  28.131  1.00  0.00     0.040 A 
ATOM     72  F   UNL A   1      35.628  29.350  29.176  1.00  0.00    -0.206 F 
ATOM     73  C   UNL A   1      34.618  32.517  27.735  1.00  0.00     0.006 A 
ENDBRANCH  45  66
BRANCH  57  74
ATOM     74  C   UNL A   1      39.080  32.211  35.586  1.00  0.00     0.057 A 
ATOM     75  C   UNL A   1      38.233  31.704  36.580  1.00  0.00     0.134 A 
ATOM     76  C   UNL A   1      39.496  33.543  35.706  1.00  0.00     0.134 A 
ATOM     77  F   UNL A   1      37.789  30.440  36.515  1.00  0.00    -0.206 F 
ATOM     78  C   UNL A   1      37.800  32.499  37.642  1.00  0.00     0.040 A 
ATOM     79  C   UNL A   1      39.089  34.340  36.776  1.00  0.00     0.040 A 
ATOM     80  F   UNL A   1      40.315  34.086  34.794  1.00  0.00    -0.206 F 
ATOM     81  C   UNL A   1      38.233  33.819  37.746  1.00  0.00     0.006 A 
ENDBRANCH  57  74
ENDBRANCH  31  32
ENDBRANCH  24  26
ENDBRANCH  23  24
ENDBRANCH  22  23
ENDBRANCH  21  22
ENDBRANCH   1  21
TORSDOF 16
ENDMDL
MODEL 2
REMARK VINA RESULT:     -10.7      4.359      9.738
REMARK SMILES COc1ccc2cc([C@@H](C)C(=O)OCCOCCOC(=O)c3ccc(-c4c5nc(c(-c6c(F)cccc6F)c6ccc([nH]6)c(-c6c(F)cccc6F)c6nc(c(-c7c(F)cccc7F)c7ccc4[nH]7)C=C6)C=C5)cc3)ccc2c1
REMARK SMILES IDX 16 1 15 2 14 3 13 4 11 5 12 6 9 7 10 8 8 9 3 10 4 11 79 12
REMARK SMILES IDX 5 13 78 14 6 15 77 16 7 17 76 18 2 19 1 20 17 21 18 22 19 23
REMARK SMILES IDX 20 24 21 25 22 26 23 27 75 28 24 29 74 30 25 31 26 32 27 33
REMARK SMILES IDX 68 34 28 35 73 36 67 37 69 38 29 39 72 40 66 41 65 42 30 44
REMARK SMILES IDX 56 45 39 46 55 47 40 48 43 49 54 50 70 51 41 52 42 53 53 55
REMARK SMILES IDX 71 56 44 57 31 58 32 59 37 60 33 61 34 62 36 63 38 64 35 65
REMARK SMILES IDX 57 66 58 67 63 68 59 69 60 70 62 71 64 72 61 73 45 74 46 75
REMARK SMILES IDX 51 76 47 77 48 78 50 79 52 80 49 81
REMARK H PARENT 69 43 43 54
REMARK Flexibility Score: inf
ROOT
ATOM      1  O   UNL A   1      32.505  30.749  26.753  1.00  0.00    -0.374 OA
ENDROOT
BRANCH   1   2
ATOM      2  C   UNL A   1      32.031  29.475  26.317  1.00  0.00     0.202 C 
BRANCH   2   3
ATOM      3  C   UNL A   1      32.265  28.307  27.277  1.00  0.00     0.261 C 
BRANCH   3   4
ATOM      4  O   UNL A   1      32.986  27.239  26.633  1.00  0.00    -0.463 OA
BRANCH   4   5
ATOM      5  C   UNL A   1      32.227  26.223  26.146  1.00  0.00     0.313 C 
ATOM      6  O   UNL A   1      31.594  25.437  26.844  1.00  0.00    -0.252 OA
BRANCH   5   7
ATOM      7  C   UNL A   1      32.255  26.099  24.632  1.00  0.00     0.126 C 
ATOM      8  C   UNL A   1      33.707  26.014  24.164  1.00  0.00     0.025 C 
BRANCH   7   9
ATOM      9  C   UNL A   1      31.452  27.102  23.809  1.00  0.00    -0.033 A 
ATOM     10  C   UNL A   1      27.964  30.333  21.976  1.00  0.00     0.119 A 
ATOM     11  C   UNL A   1      27.257  29.361  22.679  1.00  0.00     0.047 A 
ATOM     12  C   UNL A   1      29.348  30.216  21.842  1.00  0.00     0.055 A 
ATOM     13  C   UNL A   1      27.941  28.300  23.284  1.00  0.00     0.012 A 
ATOM     14  C   UNL A   1      30.049  29.166  22.458  1.00  0.00    -0.015 A 
ATOM     15  C   UNL A   1      29.339  28.197  23.200  1.00  0.00    -0.018 A 
ATOM     16  C   UNL A   1      31.444  29.071  22.371  1.00  0.00     0.009 A 
ATOM     17  C   UNL A   1      30.050  27.171  23.856  1.00  0.00     0.013 A 
ATOM     18  C   UNL A   1      32.135  28.057  23.039  1.00  0.00     0.005 A 
BRANCH  10  19
ATOM     19  O   UNL A   1      27.397  31.409  21.350  1.00  0.00    -0.497 OA
ATOM     20  C   UNL A   1      28.141  31.924  20.249  1.00  0.00     0.278 C 
ENDBRANCH  10  19
ENDBRANCH   7   9
ENDBRANCH   5   7
ENDBRANCH   4   5
ENDBRANCH   3   4
ENDBRANCH   2   3
ENDBRANCH   1   2
BRANCH   1  21
ATOM     21  C   UNL A   1      31.549  31.806  26.845  1.00  0.00     0.202 C 
BRANCH  21  22
ATOM     22  C   UNL A   1      32.112  33.231  26.860  1.00  0.00     0.261 C 
BRANCH  22  23
ATOM     23  O   UNL A   1      32.184  33.775  28.190  1.00  0.00    -0.460 OA
BRANCH  23  24
ATOM     24  C   UNL A   1      33.273  34.537  28.436  1.00  0.00     0.338 C 
ATOM     25  O   UNL A   1      33.315  35.753  28.577  1.00  0.00    -0.246 OA
BRANCH  24  26
ATOM     26  C   UNL A   1      34.446  33.682  28.698  1.00  0.00     0.060 A 
ATOM     27  C   UNL A   1      34.226  32.484  29.389  1.00  0.00     0.016 A 
ATOM     28  C   UNL A   1      35.742  34.078  28.359  1.00  0.00     0.016 A 
ATOM     29  C   UNL A   1      35.306  31.700  29.791  1.00  0.00     0.010 A 
ATOM     30  C   UNL A   1      36.827  33.294  28.771  1.00  0.00     0.010 A 
ATOM     31  C   UNL A   1      36.616  32.121  29.519  1.00  0.00    -0.014 A 
BRANCH  31  32
ATOM     32  C   UNL A   1      37.751  31.399  30.146  1.00  0.00     0.031 A 
ATOM     33  C   UNL A   1      38.077  31.658  31.592  1.00  0.00     0.074 A 
ATOM     34  C   UNL A   1      38.458  30.492  29.449  1.00  0.00     0.049 A 
ATOM     35  N   UNL A   1      39.019  31.136  32.335  1.00  0.00    -0.248 NA
ATOM     36  C   UNL A   1      37.229  32.634  32.294  1.00  0.00     0.031 C 
ATOM     37  C   UNL A   1      38.224  30.128  28.052  1.00  0.00     0.029 A 
ATOM     38  N   UNL A   1      39.523  29.712  29.826  1.00  0.00    -0.354 N 
ATOM     39  C   UNL A   1      38.883  31.725  33.587  1.00  0.00     0.074 A 
ATOM     40  C   UNL A   1      37.782  32.659  33.498  1.00  0.00     0.031 C 
ATOM     41  C   UNL A   1      39.128  29.201  27.686  1.00  0.00     0.029 A 
ATOM     42  C   UNL A   1      40.016  28.925  28.814  1.00  0.00     0.049 A 
ATOM     43  H   UNL A   1      39.899  29.716  30.737  1.00  0.00     0.167 HD
ATOM     44  C   UNL A   1      39.606  31.502  34.709  1.00  0.00     0.037 A 
ATOM     45  C   UNL A   1      41.074  28.092  28.796  1.00  0.00     0.037 A 
ATOM     46  C   UNL A   1      40.687  30.557  34.809  1.00  0.00     0.049 A 
ATOM     47  C   UNL A   1      41.890  27.900  30.048  1.00  0.00     0.074 A 
ATOM     48  C   UNL A   1      41.440  30.225  35.922  1.00  0.00     0.029 A 
ATOM     49  N   UNL A   1      41.170  29.799  33.756  1.00  0.00    -0.354 N 
ATOM     50  N   UNL A   1      41.719  28.424  31.237  1.00  0.00    -0.248 NA
ATOM     51  C   UNL A   1      43.048  26.997  29.954  1.00  0.00     0.031 C 
ATOM     52  C   UNL A   1      42.412  29.298  35.530  1.00  0.00     0.029 A 
ATOM     53  C   UNL A   1      42.234  29.023  34.184  1.00  0.00     0.049 A 
ATOM     54  H   UNL A   1      40.812  29.809  32.839  1.00  0.00     0.167 HD
ATOM     55  C   UNL A   1      42.724  27.892  32.036  1.00  0.00     0.074 A 
ATOM     56  C   UNL A   1      43.494  26.996  31.202  1.00  0.00     0.031 C 
ATOM     57  C   UNL A   1      42.985  28.125  33.345  1.00  0.00     0.037 A 
BRANCH  44  58
ATOM     58  C   UNL A   1      39.269  32.307  35.928  1.00  0.00     0.057 A 
ATOM     59  C   UNL A   1      39.803  33.583  36.142  1.00  0.00     0.134 A 
ATOM     60  C   UNL A   1      38.343  31.825  36.861  1.00  0.00     0.134 A 
ATOM     61  F   UNL A   1      40.702  34.096  35.290  1.00  0.00    -0.206 F 
ATOM     62  C   UNL A   1      39.433  34.349  37.249  1.00  0.00     0.040 A 
ATOM     63  C   UNL A   1      37.950  32.590  37.961  1.00  0.00     0.040 A 
ATOM     64  F   UNL A   1      37.792  30.611  36.709  1.00  0.00    -0.206 F 
ATOM     65  C   UNL A   1      38.497  33.856  38.157  1.00  0.00     0.006 A 
ENDBRANCH  44  58
BRANCH  45  66
ATOM     66  C   UNL A   1      41.450  27.383  27.547  1.00  0.00     0.057 A 
ATOM     67  C   UNL A   1      41.049  26.063  27.309  1.00  0.00     0.134 A 
ATOM     68  C   UNL A   1      42.266  27.993  26.586  1.00  0.00     0.134 A 
ATOM     69  F   UNL A   1      40.289  25.417  28.205  1.00  0.00    -0.206 F 
ATOM     70  C   UNL A   1      41.468  25.366  26.173  1.00  0.00     0.040 A 
ATOM     71  C   UNL A   1      42.671  27.317  25.435  1.00  0.00     0.040 A 
ATOM     72  F   UNL A   1      42.685  29.256  26.756  1.00  0.00    -0.206 F 
ATOM     73  C   UNL A   1      42.279  25.994  25.232  1.00  0.00     0.006 A 
ENDBRANCH  45  66
BRANCH  57  74
ATOM     74  C   UNL A   1      44.128  27.377  33.964  1.00  0.00     0.057 A 
ATOM     75  C   UNL A   1      43.949  26.131  34.578  1.00  0.00     0.134 A 
ATOM     76  C   UNL A   1      45.430  27.892  33.912  1.00  0.00     0.134 A 
ATOM     77  F   UNL A   1      42.724  25.589  34.672  1.00  0.00    -0.206 F 
ATOM     78  C   UNL A   1      45.021  25.433  35.137  1.00  0.00     0.040 A 
ATOM     79  C   UNL A   1      46.512  27.193  34.446  1.00  0.00     0.040 A 
ATOM     80  F   UNL A   1      45.671  29.076  33.330  1.00  0.00    -0.206 F 
ATOM     81  C   UNL A   1      46.308  25.962  35.066  1.00  0.00     0.006 A 
ENDBRANCH  57  74
ENDBRANCH  31  32
ENDBRANCH  24  26
ENDBRANCH  23  24
ENDBRANCH  22  23
ENDBRANCH  21  22
ENDBRANCH   1  21
TORSDOF 16
ENDMDL
MODEL 3
REMARK VINA RESULT:     -10.7      3.616      6.342
REMARK SMILES COc1ccc2cc([C@@H](C)C(=O)OCCOCCOC(=O)c3ccc(-c4c5nc(c(-c6c(F)cccc6F)c6ccc([nH]6)c(-c6c(F)cccc6F)c6nc(c(-c7c(F)cccc7F)c7ccc4[nH]7)C=C6)C=C5)cc3)ccc2c1
REMARK SMILES IDX 16 1 15 2 14 3 13 4 11 5 12 6 9 7 10 8 8 9 3 10 4 11 79 12
REMARK SMILES IDX 5 13 78 14 6 15 77 16 7 17 76 18 2 19 1 20 17 21 18 22 19 23
REMARK SMILES IDX 20 24 21 25 22 26 23 27 75 28 24 29 74 30 25 31 26 32 27 33
REMARK SMILES IDX 68 34 28 35 73 36 67 37 69 38 29 39 72 40 66 41 65 42 30 44
REMARK SMILES IDX 56 45 39 46 55 47 40 48 43 49 54 50 70 51 41 52 42 53 53 55
REMARK SMILES IDX 71 56 44 57 31 58 32 59 37 60 33 61 34 62 36 63 38 64 35 65
REMARK SMILES IDX 57 66 58 67 63 68 59 69 60 70 62 71 64 72 61 73 45 74 46 75
REMARK SMILES IDX 51 76 47 77 48 78 50 79 52 80 49 81
REMARK H PARENT 69 43 43 54
REMARK Flexibility Score: inf
ROOT
ATOM      1  O   UNL A   1      44.746  20.401  24.544  1.00  0.00    -0.374 OA
ENDROOT
BRANCH   1   2
ATOM      2  C   UNL A   1      46.033  21.018  24.588  1.00  0.00     0.202 C 
BRANCH   2   3
ATOM      3  C   UNL A   1      46.043  22.539  24.749  1.00  0.00     0.261 C 
BRANCH   3   4
ATOM      4  O   UNL A   1      46.398  22.920  26.092  1.00  0.00    -0.463 OA
BRANCH   4   5
ATOM      5  C   UNL A   1      47.125  24.061  26.210  1.00  0.00     0.313 C 
ATOM      6  O   UNL A   1      48.020  24.229  27.034  1.00  0.00    -0.252 OA
BRANCH   5   7
ATOM      7  C   UNL A   1      46.709  25.164  25.251  1.00  0.00     0.126 C 
ATOM      8  C   UNL A   1      47.917  25.578  24.414  1.00  0.00     0.025 C 
BRANCH   7   9
ATOM      9  C   UNL A   1      45.970  26.374  25.816  1.00  0.00    -0.033 A 
ATOM     10  C   UNL A   1      44.571  30.981  27.486  1.00  0.00     0.119 A 
ATOM     11  C   UNL A   1      45.932  30.870  27.757  1.00  0.00     0.047 A 
ATOM     12  C   UNL A   1      43.886  29.894  26.940  1.00  0.00     0.055 A 
ATOM     13  C   UNL A   1      46.614  29.689  27.438  1.00  0.00     0.012 A 
ATOM     14  C   UNL A   1      44.562  28.709  26.600  1.00  0.00    -0.015 A 
ATOM     15  C   UNL A   1      45.949  28.606  26.842  1.00  0.00    -0.018 A 
ATOM     16  C   UNL A   1      43.891  27.634  26.003  1.00  0.00     0.009 A 
ATOM     17  C   UNL A   1      46.633  27.435  26.457  1.00  0.00     0.013 A 
ATOM     18  C   UNL A   1      44.585  26.486  25.614  1.00  0.00     0.005 A 
BRANCH  10  19
ATOM     19  O   UNL A   1      43.810  32.085  27.755  1.00  0.00    -0.497 OA
ATOM     20  C   UNL A   1      43.981  33.168  26.843  1.00  0.00     0.278 C 
ENDBRANCH  10  19
ENDBRANCH   7   9
ENDBRANCH   5   7
ENDBRANCH   4   5
ENDBRANCH   3   4
ENDBRANCH   2   3
ENDBRANCH   1   2
BRANCH   1  21
ATOM     21  C   UNL A   1      44.628  19.094  25.106  1.00  0.00     0.202 C 
BRANCH  21  22
ATOM     22  C   UNL A   1      43.203  18.590  25.360  1.00  0.00     0.261 C 
BRANCH  22  23
ATOM     23  O   UNL A   1      42.651  19.107  26.583  1.00  0.00    -0.460 OA
BRANCH  23  24
ATOM     24  C   UNL A   1      41.701  20.056  26.424  1.00  0.00     0.338 C 
ATOM     25  O   UNL A   1      40.550  19.900  26.035  1.00  0.00    -0.246 OA
BRANCH  24  26
ATOM     26  C   UNL A   1      42.175  21.347  26.957  1.00  0.00     0.060 A 
ATOM     27  C   UNL A   1      42.089  21.542  28.341  1.00  0.00     0.016 A 
ATOM     28  C   UNL A   1      42.610  22.379  26.122  1.00  0.00     0.016 A 
ATOM     29  C   UNL A   1      42.387  22.786  28.892  1.00  0.00     0.010 A 
ATOM     30  C   UNL A   1      42.901  23.632  26.676  1.00  0.00     0.010 A 
ATOM     31  C   UNL A   1      42.756  23.851  28.059  1.00  0.00    -0.014 A 
BRANCH  31  32
ATOM     32  C   UNL A   1      42.850  25.218  28.629  1.00  0.00     0.031 A 
ATOM     33  C   UNL A   1      44.162  25.687  29.198  1.00  0.00     0.074 A 
ATOM     34  C   UNL A   1      41.792  26.048  28.604  1.00  0.00     0.049 A 
ATOM     35  N   UNL A   1      44.465  26.839  29.739  1.00  0.00    -0.248 NA
ATOM     36  C   UNL A   1      45.281  24.733  29.149  1.00  0.00     0.031 C 
ATOM     37  C   UNL A   1      40.476  25.725  28.054  1.00  0.00     0.029 A 
ATOM     38  N   UNL A   1      41.661  27.336  29.058  1.00  0.00    -0.354 N 
ATOM     39  C   UNL A   1      45.804  26.746  30.104  1.00  0.00     0.074 A 
ATOM     40  C   UNL A   1      46.249  25.418  29.741  1.00  0.00     0.031 C 
ATOM     41  C   UNL A   1      39.665  26.787  28.213  1.00  0.00     0.029 A 
ATOM     42  C   UNL A   1      40.398  27.853  28.894  1.00  0.00     0.049 A 
ATOM     43  H   UNL A   1      42.402  27.844  29.462  1.00  0.00     0.167 HD
ATOM     44  C   UNL A   1      46.590  27.683  30.681  1.00  0.00     0.037 A 
ATOM     45  C   UNL A   1      39.889  29.042  29.268  1.00  0.00     0.037 A 
ATOM     46  C   UNL A   1      46.158  29.013  31.022  1.00  0.00     0.049 A 
ATOM     47  C   UNL A   1      40.777  30.048  29.953  1.00  0.00     0.074 A 
ATOM     48  C   UNL A   1      46.903  30.048  31.560  1.00  0.00     0.029 A 
ATOM     49  N   UNL A   1      44.867  29.487  30.863  1.00  0.00    -0.354 N 
ATOM     50  N   UNL A   1      42.052  29.965  30.244  1.00  0.00    -0.248 NA
ATOM     51  C   UNL A   1      40.152  31.317  30.359  1.00  0.00     0.031 C 
ATOM     52  C   UNL A   1      46.049  31.136  31.770  1.00  0.00     0.029 A 
ATOM     53  C   UNL A   1      44.784  30.790  31.323  1.00  0.00     0.049 A 
ATOM     54  H   UNL A   1      44.118  28.974  30.480  1.00  0.00     0.167 HD
ATOM     55  C   UNL A   1      42.387  31.177  30.837  1.00  0.00     0.074 A 
ATOM     56  C   UNL A   1      41.186  31.983  30.854  1.00  0.00     0.031 C 
ATOM     57  C   UNL A   1      43.584  31.585  31.323  1.00  0.00     0.037 A 
BRANCH  44  58
ATOM     58  C   UNL A   1      48.004  27.305  31.003  1.00  0.00     0.057 A 
ATOM     59  C   UNL A   1      49.055  27.538  30.108  1.00  0.00     0.134 A 
ATOM     60  C   UNL A   1      48.326  26.766  32.255  1.00  0.00     0.134 A 
ATOM     61  F   UNL A   1      48.810  28.044  28.889  1.00  0.00    -0.206 F 
ATOM     62  C   UNL A   1      50.376  27.240  30.444  1.00  0.00     0.040 A 
ATOM     63  C   UNL A   1      49.646  26.483  32.610  1.00  0.00     0.040 A 
ATOM     64  F   UNL A   1      47.364  26.524  33.159  1.00  0.00    -0.206 F 
ATOM     65  C   UNL A   1      50.675  26.719  31.702  1.00  0.00     0.006 A 
ENDBRANCH  44  58
BRANCH  45  66
ATOM     66  C   UNL A   1      38.457  29.354  29.030  1.00  0.00     0.057 A 
ATOM     67  C   UNL A   1      37.991  29.714  27.760  1.00  0.00     0.134 A 
ATOM     68  C   UNL A   1      37.531  29.352  30.080  1.00  0.00     0.134 A 
ATOM     69  F   UNL A   1      38.836  29.760  26.719  1.00  0.00    -0.206 F 
ATOM     70  C   UNL A   1      36.662  30.086  27.547  1.00  0.00     0.040 A 
ATOM     71  C   UNL A   1      36.195  29.697  29.878  1.00  0.00     0.040 A 
ATOM     72  F   UNL A   1      37.915  29.017  31.321  1.00  0.00    -0.206 F 
ATOM     73  C   UNL A   1      35.759  30.076  28.609  1.00  0.00     0.006 A 
ENDBRANCH  45  66
BRANCH  57  74
ATOM     74  C   UNL A   1      43.662  32.975  31.884  1.00  0.00     0.057 A 
ATOM     75  C   UNL A   1      44.154  34.048  31.131  1.00  0.00     0.134 A 
ATOM     76  C   UNL A   1      43.205  33.248  33.179  1.00  0.00     0.134 A 
ATOM     77  F   UNL A   1      44.619  33.850  29.888  1.00  0.00    -0.206 F 
ATOM     78  C   UNL A   1      44.208  35.341  31.654  1.00  0.00     0.040 A 
ATOM     79  C   UNL A   1      43.232  34.540  33.705  1.00  0.00     0.040 A 
ATOM     80  F   UNL A   1      42.713  32.266  33.950  1.00  0.00    -0.206 F 
ATOM     81  C   UNL A   1      43.740  35.590  32.942  1.00  0.00     0.006 A 
ENDBRANCH  57  74
ENDBRANCH  31  32
ENDBRANCH  24  26
ENDBRANCH  23  24
ENDBRANCH  22  23
ENDBRANCH  21  22
ENDBRANCH   1  21
TORSDOF 16
ENDMDL
