MODEL 1
REMARK VINA RESULT:      -8.8      0.000      0.000
REMARK SMILES N#Cc1cc(-c2cncc(C(=O)OCCOCCOC(=O)c3ccc(-c4c5nc(c(-c6c(F)cccc6F)c6ccc([nH]6)c(-c6c(F)cccc6F)c6nc(c(-c7c(F)cccc7F)c7ccc4[nH]7)C=C6)C=C5)cc3)c2)ccc1Cl
REMARK SMILES IDX 16 1 15 2 14 3 13 4 11 5 12 6 10 7 6 8 7 9 76 10 8 11 9 12
REMARK SMILES IDX 5 13 3 14 4 15 79 16 78 17 80 18 77 19 2 20 1 21 17 22 18 23
REMARK SMILES IDX 19 24 20 25 21 26 22 27 23 28 75 29 24 30 74 31 25 32 26 33
REMARK SMILES IDX 27 34 68 35 28 36 73 37 67 38 69 39 29 40 72 41 66 42 65 43
REMARK SMILES IDX 30 45 56 46 39 47 55 48 40 49 43 50 54 51 70 52 41 53 42 54
REMARK SMILES IDX 53 56 71 57 44 58 31 59 32 60 37 61 33 62 34 63 36 64 38 65
REMARK SMILES IDX 35 66 57 67 58 68 63 69 59 70 60 71 62 72 64 73 61 74 45 75
REMARK SMILES IDX 46 76 51 77 47 78 48 79 50 80 52 81 49 82
REMARK H PARENT 69 44 43 55
REMARK Flexibility Score: inf
ROOT
ATOM      1  O   UNL A   1      33.979  36.777  32.669  1.00  0.00    -0.374 OA
ENDROOT
BRANCH   1   2
ATOM      2  C   UNL A   1      34.906  35.697  32.666  1.00  0.00     0.202 C 
BRANCH   2   3
ATOM      3  C   UNL A   1      34.718  34.554  33.669  1.00  0.00     0.261 C 
BRANCH   3   4
ATOM      4  O   UNL A   1      35.579  33.436  33.405  1.00  0.00    -0.460 OA
BRANCH   4   5
ATOM      5  C   UNL A   1      36.405  33.116  34.433  1.00  0.00     0.339 C 
ATOM      6  O   UNL A   1      36.395  33.590  35.557  1.00  0.00    -0.246 OA
BRANCH   5   7
ATOM      7  C   UNL A   1      37.236  31.958  34.071  1.00  0.00     0.079 A 
ATOM      8  C   UNL A   1      39.212  30.562  34.216  1.00  0.00     0.001 A 
ATOM      9  C   UNL A   1      38.586  29.730  33.282  1.00  0.00     0.119 A 
ATOM     10  C   UNL A   1      38.514  31.724  34.584  1.00  0.00     0.027 A 
ATOM     11  N   UNL A   1      37.371  29.957  32.729  1.00  0.00    -0.263 NA
ATOM     12  C   UNL A   1      36.713  31.057  33.154  1.00  0.00     0.126 A 
BRANCH   8  13
ATOM     13  C   UNL A   1      40.496  30.191  34.835  1.00  0.00    -0.015 A 
ATOM     14  C   UNL A   1      42.253  30.643  36.488  1.00  0.00     0.071 A 
ATOM     15  C   UNL A   1      41.062  31.001  35.836  1.00  0.00     0.029 A 
ATOM     16  C   UNL A   1      42.896  29.455  36.139  1.00  0.00     0.058 A 
ATOM     17  C   UNL A   1      42.355  28.640  35.142  1.00  0.00     0.022 A 
ATOM     18  Cl  UNL A   1      44.354  28.937  36.906  1.00  0.00    -0.083 Cl
ATOM     19  C   UNL A   1      41.168  29.005  34.496  1.00  0.00     0.010 A 
BRANCH  14  20
ATOM     20  C   UNL A   1      42.759  31.516  37.509  1.00  0.00     0.101 C 
ATOM     21  N   UNL A   1      43.213  32.220  38.307  1.00  0.00    -0.192 NA
ENDBRANCH  14  20
ENDBRANCH   8  13
ENDBRANCH   5   7
ENDBRANCH   4   5
ENDBRANCH   3   4
ENDBRANCH   2   3
ENDBRANCH   1   2
BRANCH   1  22
ATOM     22  C   UNL A   1      32.939  36.792  31.695  1.00  0.00     0.202 C 
BRANCH  22  23
ATOM     23  C   UNL A   1      33.214  36.249  30.286  1.00  0.00     0.261 C 
BRANCH  23  24
ATOM     24  O   UNL A   1      32.667  34.943  30.051  1.00  0.00    -0.460 OA
BRANCH  24  25
ATOM     25  C   UNL A   1      33.033  34.393  28.865  1.00  0.00     0.338 C 
ATOM     26  O   UNL A   1      32.501  34.548  27.780  1.00  0.00    -0.246 OA
BRANCH  25  27
ATOM     27  C   UNL A   1      34.321  33.696  29.020  1.00  0.00     0.060 A 
ATOM     28  C   UNL A   1      34.428  32.731  30.030  1.00  0.00     0.016 A 
ATOM     29  C   UNL A   1      35.426  34.044  28.244  1.00  0.00     0.016 A 
ATOM     30  C   UNL A   1      35.658  32.139  30.299  1.00  0.00     0.010 A 
ATOM     31  C   UNL A   1      36.661  33.451  28.519  1.00  0.00     0.010 A 
ATOM     32  C   UNL A   1      36.790  32.523  29.570  1.00  0.00    -0.014 A 
BRANCH  32  33
ATOM     33  C   UNL A   1      38.133  32.052  29.985  1.00  0.00     0.031 A 
ATOM     34  C   UNL A   1      38.644  30.736  29.469  1.00  0.00     0.074 A 
ATOM     35  C   UNL A   1      38.894  32.797  30.805  1.00  0.00     0.049 A 
ATOM     36  N   UNL A   1      39.760  30.111  29.744  1.00  0.00    -0.248 NA
ATOM     37  C   UNL A   1      37.771  30.025  28.522  1.00  0.00     0.031 C 
ATOM     38  C   UNL A   1      38.527  34.108  31.336  1.00  0.00     0.029 A 
ATOM     39  N   UNL A   1      40.133  32.549  31.337  1.00  0.00    -0.354 N 
ATOM     40  C   UNL A   1      39.721  28.931  29.012  1.00  0.00     0.074 A 
ATOM     41  C   UNL A   1      38.449  28.906  28.322  1.00  0.00     0.031 C 
ATOM     42  C   UNL A   1      39.525  34.553  32.117  1.00  0.00     0.029 A 
ATOM     43  C   UNL A   1      40.576  33.540  32.175  1.00  0.00     0.049 A 
ATOM     44  H   UNL A   1      40.654  31.737  31.137  1.00  0.00     0.167 HD
ATOM     45  C   UNL A   1      40.665  27.963  28.914  1.00  0.00     0.037 A 
ATOM     46  C   UNL A   1      41.696  33.611  32.920  1.00  0.00     0.037 A 
ATOM     47  C   UNL A   1      41.921  27.988  29.620  1.00  0.00     0.049 A 
ATOM     48  C   UNL A   1      42.683  32.476  32.878  1.00  0.00     0.074 A 
ATOM     49  C   UNL A   1      42.951  27.063  29.584  1.00  0.00     0.029 A 
ATOM     50  N   UNL A   1      42.313  28.984  30.504  1.00  0.00    -0.354 N 
ATOM     51  N   UNL A   1      42.652  31.375  32.167  1.00  0.00    -0.248 NA
ATOM     52  C   UNL A   1      43.864  32.598  33.745  1.00  0.00     0.031 C 
ATOM     53  C   UNL A   1      43.929  27.462  30.500  1.00  0.00     0.029 A 
ATOM     54  C   UNL A   1      43.551  28.678  31.048  1.00  0.00     0.049 A 
ATOM     55  H   UNL A   1      41.789  29.791  30.713  1.00  0.00     0.167 HD
ATOM     56  C   UNL A   1      43.825  30.691  32.470  1.00  0.00     0.074 A 
ATOM     57  C   UNL A   1      44.548  31.509  33.422  1.00  0.00     0.031 C 
ATOM     58  C   UNL A   1      44.264  29.498  31.996  1.00  0.00     0.037 A 
BRANCH  45  59
ATOM     59  C   UNL A   1      40.345  26.778  28.044  1.00  0.00     0.057 A 
ATOM     60  C   UNL A   1      39.503  25.742  28.472  1.00  0.00     0.134 A 
ATOM     61  C   UNL A   1      40.895  26.666  26.760  1.00  0.00     0.134 A 
ATOM     62  F   UNL A   1      38.947  25.778  29.694  1.00  0.00    -0.206 F 
ATOM     63  C   UNL A   1      39.261  24.618  27.681  1.00  0.00     0.040 A 
ATOM     64  C   UNL A   1      40.631  25.565  25.943  1.00  0.00     0.040 A 
ATOM     65  F   UNL A   1      41.701  27.623  26.276  1.00  0.00    -0.206 F 
ATOM     66  C   UNL A   1      39.824  24.529  26.409  1.00  0.00     0.006 A 
ENDBRANCH  45  59
BRANCH  46  67
ATOM     67  C   UNL A   1      41.950  34.810  33.758  1.00  0.00     0.057 A 
ATOM     68  C   UNL A   1      42.775  35.844  33.301  1.00  0.00     0.134 A 
ATOM     69  C   UNL A   1      41.377  34.955  35.028  1.00  0.00     0.134 A 
ATOM     70  F   UNL A   1      43.369  35.754  32.102  1.00  0.00    -0.206 F 
ATOM     71  C   UNL A   1      43.034  36.972  34.081  1.00  0.00     0.040 A 
ATOM     72  C   UNL A   1      41.604  36.091  35.806  1.00  0.00     0.040 A 
ATOM     73  F   UNL A   1      40.573  34.002  35.521  1.00  0.00    -0.206 F 
ATOM     74  C   UNL A   1      42.441  37.101  35.335  1.00  0.00     0.006 A 
ENDBRANCH  46  67
BRANCH  58  75
ATOM     75  C   UNL A   1      45.614  29.023  32.463  1.00  0.00     0.057 A 
ATOM     76  C   UNL A   1      46.809  29.579  31.989  1.00  0.00     0.134 A 
ATOM     77  C   UNL A   1      45.715  28.012  33.430  1.00  0.00     0.134 A 
ATOM     78  F   UNL A   1      46.789  30.542  31.054  1.00  0.00    -0.206 F 
ATOM     79  C   UNL A   1      48.053  29.128  32.436  1.00  0.00     0.040 A 
ATOM     80  C   UNL A   1      46.951  27.579  33.911  1.00  0.00     0.040 A 
ATOM     81  F   UNL A   1      44.612  27.441  33.937  1.00  0.00    -0.206 F 
ATOM     82  C   UNL A   1      48.125  28.130  33.407  1.00  0.00     0.006 A 
ENDBRANCH  58  75
ENDBRANCH  32  33
ENDBRANCH  25  27
ENDBRANCH  24  25
ENDBRANCH  23  24
ENDBRANCH  22  23
ENDBRANCH   1  22
TORSDOF 16
ENDMDL
MODEL 2
REMARK VINA RESULT:      -8.7      5.441     10.220
REMARK SMILES N#Cc1cc(-c2cncc(C(=O)OCCOCCOC(=O)c3ccc(-c4c5nc(c(-c6c(F)cccc6F)c6ccc([nH]6)c(-c6c(F)cccc6F)c6nc(c(-c7c(F)cccc7F)c7ccc4[nH]7)C=C6)C=C5)cc3)c2)ccc1Cl
REMARK SMILES IDX 16 1 15 2 14 3 13 4 11 5 12 6 10 7 6 8 7 9 76 10 8 11 9 12
REMARK SMILES IDX 5 13 3 14 4 15 79 16 78 17 80 18 77 19 2 20 1 21 17 22 18 23
REMARK SMILES IDX 19 24 20 25 21 26 22 27 23 28 75 29 24 30 74 31 25 32 26 33
REMARK SMILES IDX 27 34 68 35 28 36 73 37 67 38 69 39 29 40 72 41 66 42 65 43
REMARK SMILES IDX 30 45 56 46 39 47 55 48 40 49 43 50 54 51 70 52 41 53 42 54
REMARK SMILES IDX 53 56 71 57 44 58 31 59 32 60 37 61 33 62 34 63 36 64 38 65
REMARK SMILES IDX 35 66 57 67 58 68 63 69 59 70 60 71 62 72 64 73 61 74 45 75
REMARK SMILES IDX 46 76 51 77 47 78 48 79 50 80 52 81 49 82
REMARK H PARENT 69 44 43 55
REMARK Flexibility Score: inf
ROOT
ATOM      1  O   UNL A   1      33.386  33.968  29.603  1.00  0.00    -0.374 OA
ENDROOT
BRANCH   1   2
ATOM      2  C   UNL A   1      33.839  33.811  28.263  1.00  0.00     0.202 C 
BRANCH   2   3
ATOM      3  C   UNL A   1      34.573  32.524  27.873  1.00  0.00     0.261 C 
BRANCH   3   4
ATOM      4  O   UNL A   1      33.702  31.385  27.809  1.00  0.00    -0.460 OA
BRANCH   4   5
ATOM      5  C   UNL A   1      34.270  30.281  27.263  1.00  0.00     0.339 C 
ATOM      6  O   UNL A   1      35.423  29.907  27.395  1.00  0.00    -0.246 OA
BRANCH   5   7
ATOM      7  C   UNL A   1      33.243  29.457  26.606  1.00  0.00     0.079 A 
ATOM      8  C   UNL A   1      31.378  29.085  25.104  1.00  0.00     0.001 A 
ATOM      9  C   UNL A   1      31.453  27.741  25.484  1.00  0.00     0.119 A 
ATOM     10  C   UNL A   1      32.287  29.960  25.720  1.00  0.00     0.027 A 
ATOM     11  N   UNL A   1      32.335  27.233  26.377  1.00  0.00    -0.263 NA
ATOM     12  C   UNL A   1      33.226  28.101  26.902  1.00  0.00     0.126 A 
BRANCH   8  13
ATOM     13  C   UNL A   1      30.447  29.535  24.056  1.00  0.00    -0.015 A 
ATOM     14  C   UNL A   1      29.151  31.341  23.015  1.00  0.00     0.071 A 
ATOM     15  C   UNL A   1      29.989  30.865  24.036  1.00  0.00     0.029 A 
ATOM     16  C   UNL A   1      28.757  30.478  21.992  1.00  0.00     0.058 A 
ATOM     17  C   UNL A   1      29.193  29.150  21.997  1.00  0.00     0.022 A 
ATOM     18  Cl  UNL A   1      27.742  30.991  20.693  1.00  0.00    -0.083 Cl
ATOM     19  C   UNL A   1      30.028  28.684  23.019  1.00  0.00     0.010 A 
BRANCH  14  20
ATOM     20  C   UNL A   1      28.739  32.715  23.056  1.00  0.00     0.101 C 
ATOM     21  N   UNL A   1      28.447  33.835  23.060  1.00  0.00    -0.192 NA
ENDBRANCH  14  20
ENDBRANCH   8  13
ENDBRANCH   5   7
ENDBRANCH   4   5
ENDBRANCH   3   4
ENDBRANCH   2   3
ENDBRANCH   1   2
BRANCH   1  22
ATOM     22  C   UNL A   1      34.282  34.502  30.574  1.00  0.00     0.202 C 
BRANCH  22  23
ATOM     23  C   UNL A   1      34.357  33.862  31.967  1.00  0.00     0.261 C 
BRANCH  23  24
ATOM     24  O   UNL A   1      34.734  32.477  31.949  1.00  0.00    -0.460 OA
BRANCH  24  25
ATOM     25  C   UNL A   1      35.783  32.176  32.755  1.00  0.00     0.338 C 
ATOM     26  O   UNL A   1      35.861  32.335  33.961  1.00  0.00    -0.246 OA
BRANCH  25  27
ATOM     27  C   UNL A   1      36.798  31.433  31.990  1.00  0.00     0.060 A 
ATOM     28  C   UNL A   1      37.771  30.724  32.706  1.00  0.00     0.016 A 
ATOM     29  C   UNL A   1      36.844  31.501  30.598  1.00  0.00     0.016 A 
ATOM     30  C   UNL A   1      38.825  30.114  32.033  1.00  0.00     0.010 A 
ATOM     31  C   UNL A   1      37.905  30.891  29.924  1.00  0.00     0.010 A 
ATOM     32  C   UNL A   1      38.918  30.227  30.640  1.00  0.00    -0.014 A 
BRANCH  32  33
ATOM     33  C   UNL A   1      40.138  29.759  29.940  1.00  0.00     0.031 A 
ATOM     34  C   UNL A   1      41.280  30.715  29.731  1.00  0.00     0.074 A 
ATOM     35  C   UNL A   1      40.231  28.491  29.504  1.00  0.00     0.049 A 
ATOM     36  N   UNL A   1      42.413  30.534  29.101  1.00  0.00    -0.248 NA
ATOM     37  C   UNL A   1      41.116  32.060  30.304  1.00  0.00     0.031 C 
ATOM     38  C   UNL A   1      39.211  27.461  29.684  1.00  0.00     0.029 A 
ATOM     39  N   UNL A   1      41.235  27.860  28.814  1.00  0.00    -0.354 N 
ATOM     40  C   UNL A   1      43.093  31.742  29.194  1.00  0.00     0.074 A 
ATOM     41  C   UNL A   1      42.223  32.661  29.896  1.00  0.00     0.031 C 
ATOM     42  C   UNL A   1      39.644  26.320  29.122  1.00  0.00     0.029 A 
ATOM     43  C   UNL A   1      40.948  26.555  28.506  1.00  0.00     0.049 A 
ATOM     44  H   UNL A   1      42.079  28.301  28.565  1.00  0.00     0.167 HD
ATOM     45  C   UNL A   1      44.333  32.053  28.745  1.00  0.00     0.037 A 
ATOM     46  C   UNL A   1      41.651  25.657  27.789  1.00  0.00     0.037 A 
ATOM     47  C   UNL A   1      45.185  31.136  28.030  1.00  0.00     0.049 A 
ATOM     48  C   UNL A   1      42.982  26.056  27.209  1.00  0.00     0.074 A 
ATOM     49  C   UNL A   1      46.462  31.347  27.540  1.00  0.00     0.029 A 
ATOM     50  N   UNL A   1      44.838  29.836  27.688  1.00  0.00    -0.354 N 
ATOM     51  N   UNL A   1      43.629  27.190  27.320  1.00  0.00    -0.248 NA
ATOM     52  C   UNL A   1      43.679  25.043  26.404  1.00  0.00     0.031 C 
ATOM     53  C   UNL A   1      46.856  30.203  26.840  1.00  0.00     0.029 A 
ATOM     54  C   UNL A   1      45.860  29.246  26.961  1.00  0.00     0.049 A 
ATOM     55  H   UNL A   1      43.989  29.397  27.927  1.00  0.00     0.167 HD
ATOM     56  C   UNL A   1      44.825  27.016  26.633  1.00  0.00     0.074 A 
ATOM     57  C   UNL A   1      44.816  25.662  26.119  1.00  0.00     0.031 C 
ATOM     58  C   UNL A   1      45.842  27.897  26.452  1.00  0.00     0.037 A 
BRANCH  45  59
ATOM     59  C   UNL A   1      44.816  33.458  28.982  1.00  0.00     0.057 A 
ATOM     60  C   UNL A   1      45.563  33.809  30.115  1.00  0.00     0.134 A 
ATOM     61  C   UNL A   1      44.522  34.478  28.068  1.00  0.00     0.134 A 
ATOM     62  F   UNL A   1      45.875  32.886  31.039  1.00  0.00    -0.206 F 
ATOM     63  C   UNL A   1      45.954  35.128  30.356  1.00  0.00     0.040 A 
ATOM     64  C   UNL A   1      44.941  35.793  28.278  1.00  0.00     0.040 A 
ATOM     65  F   UNL A   1      43.822  34.216  26.954  1.00  0.00    -0.206 F 
ATOM     66  C   UNL A   1      45.645  36.125  29.432  1.00  0.00     0.006 A 
ENDBRANCH  45  59
BRANCH  46  67
ATOM     67  C   UNL A   1      41.116  24.286  27.594  1.00  0.00     0.057 A 
ATOM     68  C   UNL A   1      40.072  24.044  26.693  1.00  0.00     0.134 A 
ATOM     69  C   UNL A   1      41.629  23.189  28.296  1.00  0.00     0.134 A 
ATOM     70  F   UNL A   1      39.525  25.057  26.006  1.00  0.00    -0.206 F 
ATOM     71  C   UNL A   1      39.549  22.764  26.507  1.00  0.00     0.040 A 
ATOM     72  C   UNL A   1      41.136  21.898  28.098  1.00  0.00     0.040 A 
ATOM     73  F   UNL A   1      42.633  23.353  29.170  1.00  0.00    -0.206 F 
ATOM     74  C   UNL A   1      40.087  21.685  27.206  1.00  0.00     0.006 A 
ENDBRANCH  46  67
BRANCH  58  75
ATOM     75  C   UNL A   1      47.054  27.410  25.704  1.00  0.00     0.057 A 
ATOM     76  C   UNL A   1      47.208  27.597  24.325  1.00  0.00     0.134 A 
ATOM     77  C   UNL A   1      48.101  26.774  26.386  1.00  0.00     0.134 A 
ATOM     78  F   UNL A   1      46.241  28.188  23.605  1.00  0.00    -0.206 F 
ATOM     79  C   UNL A   1      48.341  27.142  23.646  1.00  0.00     0.040 A 
ATOM     80  C   UNL A   1      49.254  26.348  25.727  1.00  0.00     0.040 A 
ATOM     81  F   UNL A   1      48.028  26.571  27.711  1.00  0.00    -0.206 F 
ATOM     82  C   UNL A   1      49.373  26.523  24.351  1.00  0.00     0.006 A 
ENDBRANCH  58  75
ENDBRANCH  32  33
ENDBRANCH  25  27
ENDBRANCH  24  25
ENDBRANCH  23  24
ENDBRANCH  22  23
ENDBRANCH   1  22
TORSDOF 16
ENDMDL
MODEL 3
REMARK VINA RESULT:      -8.6      4.903      9.675
REMARK SMILES N#Cc1cc(-c2cncc(C(=O)OCCOCCOC(=O)c3ccc(-c4c5nc(c(-c6c(F)cccc6F)c6ccc([nH]6)c(-c6c(F)cccc6F)c6nc(c(-c7c(F)cccc7F)c7ccc4[nH]7)C=C6)C=C5)cc3)c2)ccc1Cl
REMARK SMILES IDX 16 1 15 2 14 3 13 4 11 5 12 6 10 7 6 8 7 9 76 10 8 11 9 12
REMARK SMILES IDX 5 13 3 14 4 15 79 16 78 17 80 18 77 19 2 20 1 21 17 22 18 23
REMARK SMILES IDX 19 24 20 25 21 26 22 27 23 28 75 29 24 30 74 31 25 32 26 33
REMARK SMILES IDX 27 34 68 35 28 36 73 37 67 38 69 39 29 40 72 41 66 42 65 43
REMARK SMILES IDX 30 45 56 46 39 47 55 48 40 49 43 50 54 51 70 52 41 53 42 54
REMARK SMILES IDX 53 56 71 57 44 58 31 59 32 60 37 61 33 62 34 63 36 64 38 65
REMARK SMILES IDX 35 66 57 67 58 68 63 69 59 70 60 71 62 72 64 73 61 74 45 75
REMARK SMILES IDX 46 76 51 77 47 78 48 79 50 80 52 81 49 82
REMARK H PARENT 69 44 43 55
REMARK Flexibility Score: inf
ROOT
ATOM      1  O   UNL A   1      33.699  34.162  30.172  1.00  0.00    -0.374 OA
ENDROOT
BRANCH   1   2
ATOM      2  C   UNL A   1      34.375  34.530  28.975  1.00  0.00     0.202 C 
BRANCH   2   3
ATOM      3  C   UNL A   1      34.995  33.432  28.105  1.00  0.00     0.261 C 
BRANCH   3   4
ATOM      4  O   UNL A   1      34.290  32.184  28.198  1.00  0.00    -0.460 OA
BRANCH   4   5
ATOM      5  C   UNL A   1      34.910  31.149  27.579  1.00  0.00     0.339 C 
ATOM      6  O   UNL A   1      36.101  30.890  27.596  1.00  0.00    -0.246 OA
BRANCH   5   7
ATOM      7  C   UNL A   1      33.911  30.234  27.003  1.00  0.00     0.079 A 
ATOM      8  C   UNL A   1      33.209  28.269  25.770  1.00  0.00     0.001 A 
ATOM      9  C   UNL A   1      31.899  28.663  26.059  1.00  0.00     0.119 A 
ATOM     10  C   UNL A   1      34.232  29.111  26.236  1.00  0.00     0.027 A 
ATOM     11  N   UNL A   1      31.556  29.772  26.757  1.00  0.00    -0.263 NA
ATOM     12  C   UNL A   1      32.573  30.522  27.233  1.00  0.00     0.126 A 
BRANCH   8  13
ATOM     13  C   UNL A   1      33.494  26.998  25.083  1.00  0.00    -0.015 A 
ATOM     14  C   UNL A   1      33.516  25.671  23.018  1.00  0.00     0.071 A 
ATOM     15  C   UNL A   1      33.199  26.848  23.716  1.00  0.00     0.029 A 
ATOM     16  C   UNL A   1      34.138  24.620  23.693  1.00  0.00     0.058 A 
ATOM     17  C   UNL A   1      34.434  24.745  25.053  1.00  0.00     0.022 A 
ATOM     18  Cl  UNL A   1      34.575  23.148  22.902  1.00  0.00    -0.083 Cl
ATOM     19  C   UNL A   1      34.113  25.922  25.740  1.00  0.00     0.010 A 
BRANCH  14  20
ATOM     20  C   UNL A   1      33.196  25.600  21.621  1.00  0.00     0.101 C 
ATOM     21  N   UNL A   1      32.979  25.513  20.488  1.00  0.00    -0.192 NA
ENDBRANCH  14  20
ENDBRANCH   8  13
ENDBRANCH   5   7
ENDBRANCH   4   5
ENDBRANCH   3   4
ENDBRANCH   2   3
ENDBRANCH   1   2
BRANCH   1  22
ATOM     22  C   UNL A   1      34.250  34.562  31.424  1.00  0.00     0.202 C 
BRANCH  22  23
ATOM     23  C   UNL A   1      34.278  33.565  32.591  1.00  0.00     0.261 C 
BRANCH  23  24
ATOM     24  O   UNL A   1      34.989  32.352  32.300  1.00  0.00    -0.460 OA
BRANCH  24  25
ATOM     25  C   UNL A   1      36.134  32.196  33.011  1.00  0.00     0.338 C 
ATOM     26  O   UNL A   1      36.321  32.465  34.185  1.00  0.00    -0.246 OA
BRANCH  25  27
ATOM     27  C   UNL A   1      37.121  31.460  32.204  1.00  0.00     0.060 A 
ATOM     28  C   UNL A   1      38.079  30.691  32.879  1.00  0.00     0.016 A 
ATOM     29  C   UNL A   1      37.158  31.589  30.816  1.00  0.00     0.016 A 
ATOM     30  C   UNL A   1      39.109  30.082  32.168  1.00  0.00     0.010 A 
ATOM     31  C   UNL A   1      38.195  30.981  30.105  1.00  0.00     0.010 A 
ATOM     32  C   UNL A   1      39.194  30.256  30.781  1.00  0.00    -0.014 A 
BRANCH  32  33
ATOM     33  C   UNL A   1      40.395  29.786  30.050  1.00  0.00     0.031 A 
ATOM     34  C   UNL A   1      41.543  30.732  29.831  1.00  0.00     0.074 A 
ATOM     35  C   UNL A   1      40.465  28.523  29.594  1.00  0.00     0.049 A 
ATOM     36  N   UNL A   1      42.660  30.548  29.176  1.00  0.00    -0.248 NA
ATOM     37  C   UNL A   1      41.405  32.070  30.427  1.00  0.00     0.031 C 
ATOM     38  C   UNL A   1      39.438  27.501  29.780  1.00  0.00     0.029 A 
ATOM     39  N   UNL A   1      41.448  27.892  28.874  1.00  0.00    -0.354 N 
ATOM     40  C   UNL A   1      43.355  31.748  29.272  1.00  0.00     0.074 A 
ATOM     41  C   UNL A   1      42.509  32.666  30.005  1.00  0.00     0.031 C 
ATOM     42  C   UNL A   1      39.846  26.364  29.192  1.00  0.00     0.029 A 
ATOM     43  C   UNL A   1      41.140  26.594  28.553  1.00  0.00     0.049 A 
ATOM     44  H   UNL A   1      42.291  28.328  28.614  1.00  0.00     0.167 HD
ATOM     45  C   UNL A   1      44.589  32.052  28.802  1.00  0.00     0.037 A 
ATOM     46  C   UNL A   1      41.819  25.699  27.809  1.00  0.00     0.037 A 
ATOM     47  C   UNL A   1      45.416  31.137  28.057  1.00  0.00     0.049 A 
ATOM     48  C   UNL A   1      43.141  26.093  27.208  1.00  0.00     0.074 A 
ATOM     49  C   UNL A   1      46.685  31.342  27.543  1.00  0.00     0.029 A 
ATOM     50  N   UNL A   1      45.048  29.846  27.703  1.00  0.00    -0.354 N 
ATOM     51  N   UNL A   1      43.803  27.219  27.322  1.00  0.00    -0.248 NA
ATOM     52  C   UNL A   1      43.812  25.084  26.374  1.00  0.00     0.031 C 
ATOM     53  C   UNL A   1      47.052  30.204  26.818  1.00  0.00     0.029 A 
ATOM     54  C   UNL A   1      46.049  29.256  26.946  1.00  0.00     0.049 A 
ATOM     55  H   UNL A   1      44.199  29.412  27.953  1.00  0.00     0.167 HD
ATOM     56  C   UNL A   1      44.983  27.042  26.608  1.00  0.00     0.074 A 
ATOM     57  C   UNL A   1      44.949  25.696  26.074  1.00  0.00     0.031 C 
ATOM     58  C   UNL A   1      46.006  27.915  26.419  1.00  0.00     0.037 A 
BRANCH  45  59
ATOM     59  C   UNL A   1      45.092  33.448  29.049  1.00  0.00     0.057 A 
ATOM     60  C   UNL A   1      44.841  34.501  28.156  1.00  0.00     0.134 A 
ATOM     61  C   UNL A   1      45.847  33.745  30.190  1.00  0.00     0.134 A 
ATOM     62  F   UNL A   1      44.131  34.290  27.037  1.00  0.00    -0.206 F 
ATOM     63  C   UNL A   1      45.364  35.779  28.363  1.00  0.00     0.040 A 
ATOM     64  C   UNL A   1      46.343  35.028  30.429  1.00  0.00     0.040 A 
ATOM     65  F   UNL A   1      46.118  32.793  31.096  1.00  0.00    -0.206 F 
ATOM     66  C   UNL A   1      46.116  36.046  29.506  1.00  0.00     0.006 A 
ENDBRANCH  45  59
BRANCH  46  67
ATOM     67  C   UNL A   1      41.265  24.337  27.605  1.00  0.00     0.057 A 
ATOM     68  C   UNL A   1      41.770  23.242  28.316  1.00  0.00     0.134 A 
ATOM     69  C   UNL A   1      40.222  24.095  26.703  1.00  0.00     0.134 A 
ATOM     70  F   UNL A   1      42.783  23.408  29.179  1.00  0.00    -0.206 F 
ATOM     71  C   UNL A   1      41.269  21.954  28.127  1.00  0.00     0.040 A 
ATOM     72  C   UNL A   1      39.691  22.816  26.527  1.00  0.00     0.040 A 
ATOM     73  F   UNL A   1      39.690  25.103  25.996  1.00  0.00    -0.206 F 
ATOM     74  C   UNL A   1      40.220  21.740  27.235  1.00  0.00     0.006 A 
ENDBRANCH  46  67
BRANCH  58  75
ATOM     75  C   UNL A   1      47.197  27.426  25.639  1.00  0.00     0.057 A 
ATOM     76  C   UNL A   1      47.311  27.607  24.255  1.00  0.00     0.134 A 
ATOM     77  C   UNL A   1      48.264  26.796  26.294  1.00  0.00     0.134 A 
ATOM     78  F   UNL A   1      46.322  28.191  23.560  1.00  0.00    -0.206 F 
ATOM     79  C   UNL A   1      48.425  27.150  23.547  1.00  0.00     0.040 A 
ATOM     80  C   UNL A   1      49.399  26.369  25.604  1.00  0.00     0.040 A 
ATOM     81  F   UNL A   1      48.229  26.599  27.621  1.00  0.00    -0.206 F 
ATOM     82  C   UNL A   1      49.477  26.536  24.225  1.00  0.00     0.006 A 
ENDBRANCH  58  75
ENDBRANCH  32  33
ENDBRANCH  25  27
ENDBRANCH  24  25
ENDBRANCH  23  24
ENDBRANCH  22  23
ENDBRANCH   1  22
TORSDOF 16
ENDMDL
