MODEL 1
REMARK VINA RESULT:      -9.9      0.000      0.000
REMARK SMILES Cc1ccnc(C(=O)c2[nH]c3cc(F)ccc3c2CC(=O)OCCOCCOC(=O)c2ccc(-c3c4nc(c(-c5c(F)cccc5F)c5ccc([nH]5)c(-c5c(F)cccc5F)c5nc(c(-c6c(F)cccc6F)c6ccc3[nH]6)C=C5)C=C4)cc2)c1
REMARK SMILES IDX 24 1 23 2 22 3 20 4 21 5 19 6 18 7 9 8 10 9 11 10 17 12
REMARK SMILES IDX 12 13 16 14 13 15 15 16 14 17 7 18 8 19 6 20 1 21 2 22 3 23
REMARK SMILES IDX 85 24 4 25 5 26 25 27 26 28 27 29 28 30 29 31 30 32 31 33
REMARK SMILES IDX 32 34 84 35 33 36 83 37 34 38 35 39 36 40 77 41 37 42 82 43
REMARK SMILES IDX 76 44 78 45 38 46 81 47 75 48 74 49 39 51 65 52 48 53 64 54
REMARK SMILES IDX 49 55 52 56 63 57 79 58 50 59 51 60 62 62 80 63 53 64 40 65
REMARK SMILES IDX 41 66 46 67 42 68 43 69 45 70 47 71 44 72 66 73 67 74 72 75
REMARK SMILES IDX 68 76 69 77 71 78 73 79 70 80 54 81 55 82 60 83 56 84 57 85
REMARK SMILES IDX 59 86 61 87 58 88
REMARK H PARENT 10 11 78 50 52 61
REMARK Flexibility Score: inf
ROOT
ATOM      1  C   UNL A   1      46.546  19.493  25.006  1.00  0.00     0.202 C 
ENDROOT
BRANCH   1   2
ATOM      2  C   UNL A   1      46.196  20.790  24.266  1.00  0.00     0.261 C 
BRANCH   2   3
ATOM      3  O   UNL A   1      46.783  21.970  24.858  1.00  0.00    -0.463 OA
BRANCH   3   4
ATOM      4  C   UNL A   1      45.890  22.844  25.400  1.00  0.00     0.310 C 
ATOM      5  O   UNL A   1      45.256  22.621  26.429  1.00  0.00    -0.252 OA
BRANCH   4   6
ATOM      6  C   UNL A   1      45.632  24.102  24.601  1.00  0.00     0.161 C 
BRANCH   6   7
ATOM      7  C   UNL A   1      45.694  25.446  25.283  1.00  0.00     0.000 A 
ATOM      8  C   UNL A   1      46.730  25.945  26.081  1.00  0.00     0.093 A 
ATOM      9  N   UNL A   1      46.341  27.202  26.492  1.00  0.00    -0.351 N 
ATOM     10  C   UNL A   1      45.009  27.412  26.216  1.00  0.00     0.049 A 
ATOM     11  H   UNL A   1      46.933  27.860  26.923  1.00  0.00     0.167 HD
ATOM     12  C   UNL A   1      44.584  26.341  25.431  1.00  0.00     0.004 A 
ATOM     13  C   UNL A   1      44.151  28.445  26.612  1.00  0.00     0.066 A 
ATOM     14  C   UNL A   1      43.233  26.299  25.021  1.00  0.00     0.013 A 
ATOM     15  C   UNL A   1      42.815  28.350  26.221  1.00  0.00     0.125 A 
ATOM     16  C   UNL A   1      42.353  27.302  25.439  1.00  0.00     0.040 A 
ATOM     17  F   UNL A   1      41.950  29.290  26.628  1.00  0.00    -0.207 F 
BRANCH   8  18
ATOM     18  C   UNL A   1      47.986  25.279  26.416  1.00  0.00     0.227 C 
ATOM     19  O   UNL A   1      48.017  24.296  27.154  1.00  0.00    -0.285 OA
BRANCH  18  20
ATOM     20  C   UNL A   1      49.299  25.794  25.919  1.00  0.00     0.113 A 
ATOM     21  C   UNL A   1      53.008  25.095  26.210  1.00  0.00     0.044 C 
ATOM     22  C   UNL A   1      51.689  25.660  25.775  1.00  0.00    -0.047 A 
ATOM     23  C   UNL A   1      51.618  26.476  24.643  1.00  0.00     0.023 A 
ATOM     24  C   UNL A   1      50.500  25.304  26.423  1.00  0.00     0.036 A 
ATOM     25  C   UNL A   1      50.379  26.937  24.229  1.00  0.00     0.112 A 
ATOM     26  N   UNL A   1      49.224  26.629  24.849  1.00  0.00    -0.253 NA
ENDBRANCH  18  20
ENDBRANCH   8  18
ENDBRANCH   6   7
ENDBRANCH   4   6
ENDBRANCH   3   4
ENDBRANCH   2   3
ENDBRANCH   1   2
BRANCH   1  27
ATOM     27  O   UNL A   1      45.663  18.381  24.876  1.00  0.00    -0.374 OA
BRANCH  27  28
ATOM     28  C   UNL A   1      44.574  18.311  25.793  1.00  0.00     0.202 C 
BRANCH  28  29
ATOM     29  C   UNL A   1      43.276  19.028  25.393  1.00  0.00     0.261 C 
BRANCH  29  30
ATOM     30  O   UNL A   1      42.213  18.868  26.345  1.00  0.00    -0.460 OA
BRANCH  30  31
ATOM     31  C   UNL A   1      41.186  19.736  26.193  1.00  0.00     0.338 C 
ATOM     32  O   UNL A   1      40.049  19.498  25.809  1.00  0.00    -0.246 OA
BRANCH  31  33
ATOM     33  C   UNL A   1      41.579  21.052  26.720  1.00  0.00     0.060 A 
ATOM     34  C   UNL A   1      41.662  21.199  28.110  1.00  0.00     0.016 A 
ATOM     35  C   UNL A   1      41.830  22.129  25.869  1.00  0.00     0.016 A 
ATOM     36  C   UNL A   1      41.987  22.434  28.659  1.00  0.00     0.010 A 
ATOM     37  C   UNL A   1      42.142  23.373  26.422  1.00  0.00     0.010 A 
ATOM     38  C   UNL A   1      42.206  23.534  27.818  1.00  0.00    -0.014 A 
BRANCH  38  39
ATOM     39  C   UNL A   1      42.419  24.875  28.404  1.00  0.00     0.031 A 
ATOM     40  C   UNL A   1      43.766  25.220  28.972  1.00  0.00     0.074 A 
ATOM     41  C   UNL A   1      41.416  25.770  28.416  1.00  0.00     0.049 A 
ATOM     42  N   UNL A   1      44.154  26.312  29.577  1.00  0.00    -0.248 NA
ATOM     43  C   UNL A   1      44.816  24.196  28.842  1.00  0.00     0.031 C 
ATOM     44  C   UNL A   1      40.082  25.547  27.858  1.00  0.00     0.029 A 
ATOM     45  N   UNL A   1      41.360  27.043  28.924  1.00  0.00    -0.354 N 
ATOM     46  C   UNL A   1      45.486  26.105  29.907  1.00  0.00     0.074 A 
ATOM     47  C   UNL A   1      45.836  24.776  29.457  1.00  0.00     0.031 C 
ATOM     48  C   UNL A   1      39.334  26.645  28.065  1.00  0.00     0.029 A 
ATOM     49  C   UNL A   1      40.123  27.629  28.801  1.00  0.00     0.049 A 
ATOM     50  H   UNL A   1      42.131  27.492  29.339  1.00  0.00     0.167 HD
ATOM     51  C   UNL A   1      46.339  26.954  30.529  1.00  0.00     0.037 A 
ATOM     52  C   UNL A   1      39.678  28.813  29.260  1.00  0.00     0.037 A 
ATOM     53  C   UNL A   1      45.976  28.275  30.969  1.00  0.00     0.049 A 
ATOM     54  C   UNL A   1      40.627  29.703  30.019  1.00  0.00     0.074 A 
ATOM     55  C   UNL A   1      46.772  29.232  31.574  1.00  0.00     0.029 A 
ATOM     56  N   UNL A   1      44.704  28.821  30.864  1.00  0.00    -0.354 N 
ATOM     57  N   UNL A   1      41.898  29.519  30.287  1.00  0.00    -0.248 NA
ATOM     58  C   UNL A   1      40.079  30.961  30.546  1.00  0.00     0.031 C 
ATOM     59  C   UNL A   1      45.968  30.331  31.890  1.00  0.00     0.029 A 
ATOM     60  C   UNL A   1      44.684  30.083  31.431  1.00  0.00     0.049 A 
ATOM     61  H   UNL A   1      43.931  28.375  30.447  1.00  0.00     0.167 HD
ATOM     62  C   UNL A   1      42.306  30.644  30.991  1.00  0.00     0.074 A 
ATOM     63  C   UNL A   1      41.153  31.515  31.090  1.00  0.00     0.031 C 
ATOM     64  C   UNL A   1      43.523  30.932  31.516  1.00  0.00     0.037 A 
BRANCH  51  65
ATOM     65  C   UNL A   1      47.735  26.476  30.797  1.00  0.00     0.057 A 
ATOM     66  C   UNL A   1      48.063  25.746  31.946  1.00  0.00     0.134 A 
ATOM     67  C   UNL A   1      48.755  26.701  29.862  1.00  0.00     0.134 A 
ATOM     68  F   UNL A   1      47.138  25.506  32.887  1.00  0.00    -0.206 F 
ATOM     69  C   UNL A   1      49.357  25.268  32.163  1.00  0.00     0.040 A 
ATOM     70  C   UNL A   1      50.046  26.208  30.056  1.00  0.00     0.040 A 
ATOM     71  F   UNL A   1      48.508  27.391  28.739  1.00  0.00    -0.206 F 
ATOM     72  C   UNL A   1      50.351  25.491  31.210  1.00  0.00     0.006 A 
ENDBRANCH  51  65
BRANCH  52  73
ATOM     73  C   UNL A   1      38.265  29.222  29.045  1.00  0.00     0.057 A 
ATOM     74  C   UNL A   1      37.835  29.731  27.814  1.00  0.00     0.134 A 
ATOM     75  C   UNL A   1      37.318  29.149  30.075  1.00  0.00     0.134 A 
ATOM     76  F   UNL A   1      38.698  29.849  26.794  1.00  0.00    -0.206 F 
ATOM     77  C   UNL A   1      36.525  30.174  27.622  1.00  0.00     0.040 A 
ATOM     78  C   UNL A   1      35.999  29.562  29.889  1.00  0.00     0.040 A 
ATOM     79  F   UNL A   1      37.663  28.670  31.281  1.00  0.00    -0.206 F 
ATOM     80  C   UNL A   1      35.601  30.086  28.661  1.00  0.00     0.006 A 
ENDBRANCH  52  73
BRANCH  64  81
ATOM     81  C   UNL A   1      43.670  32.248  32.224  1.00  0.00     0.057 A 
ATOM     82  C   UNL A   1      44.068  33.407  31.545  1.00  0.00     0.134 A 
ATOM     83  C   UNL A   1      43.367  32.366  33.586  1.00  0.00     0.134 A 
ATOM     84  F   UNL A   1      44.386  33.358  30.242  1.00  0.00    -0.206 F 
ATOM     85  C   UNL A   1      44.182  34.633  32.203  1.00  0.00     0.040 A 
ATOM     86  C   UNL A   1      43.447  33.591  34.246  1.00  0.00     0.040 A 
ATOM     87  F   UNL A   1      42.969  31.296  34.291  1.00  0.00    -0.206 F 
ATOM     88  C   UNL A   1      43.862  34.729  33.556  1.00  0.00     0.006 A 
ENDBRANCH  64  81
ENDBRANCH  38  39
ENDBRANCH  31  33
ENDBRANCH  30  31
ENDBRANCH  29  30
ENDBRANCH  28  29
ENDBRANCH  27  28
ENDBRANCH   1  27
TORSDOF 17
ENDMDL
MODEL 2
REMARK VINA RESULT:      -9.6      4.938     10.749
REMARK SMILES Cc1ccnc(C(=O)c2[nH]c3cc(F)ccc3c2CC(=O)OCCOCCOC(=O)c2ccc(-c3c4nc(c(-c5c(F)cccc5F)c5ccc([nH]5)c(-c5c(F)cccc5F)c5nc(c(-c6c(F)cccc6F)c6ccc3[nH]6)C=C5)C=C4)cc2)c1
REMARK SMILES IDX 24 1 23 2 22 3 20 4 21 5 19 6 18 7 9 8 10 9 11 10 17 12
REMARK SMILES IDX 12 13 16 14 13 15 15 16 14 17 7 18 8 19 6 20 1 21 2 22 3 23
REMARK SMILES IDX 85 24 4 25 5 26 25 27 26 28 27 29 28 30 29 31 30 32 31 33
REMARK SMILES IDX 32 34 84 35 33 36 83 37 34 38 35 39 36 40 77 41 37 42 82 43
REMARK SMILES IDX 76 44 78 45 38 46 81 47 75 48 74 49 39 51 65 52 48 53 64 54
REMARK SMILES IDX 49 55 52 56 63 57 79 58 50 59 51 60 62 62 80 63 53 64 40 65
REMARK SMILES IDX 41 66 46 67 42 68 43 69 45 70 47 71 44 72 66 73 67 74 72 75
REMARK SMILES IDX 68 76 69 77 71 78 73 79 70 80 54 81 55 82 60 83 56 84 57 85
REMARK SMILES IDX 59 86 61 87 58 88
REMARK H PARENT 10 11 78 50 52 61
REMARK Flexibility Score: inf
ROOT
ATOM      1  C   UNL A   1      30.908  26.375  26.282  1.00  0.00     0.202 C 
ENDROOT
BRANCH   1   2
ATOM      2  C   UNL A   1      31.030  24.866  26.041  1.00  0.00     0.261 C 
BRANCH   2   3
ATOM      3  O   UNL A   1      31.361  24.115  27.231  1.00  0.00    -0.463 OA
BRANCH   3   4
ATOM      4  C   UNL A   1      32.345  23.187  27.067  1.00  0.00     0.310 C 
ATOM      5  O   UNL A   1      32.841  22.548  27.993  1.00  0.00    -0.252 OA
BRANCH   4   6
ATOM      6  C   UNL A   1      32.887  23.042  25.663  1.00  0.00     0.161 C 
BRANCH   6   7
ATOM      7  C   UNL A   1      34.124  22.215  25.422  1.00  0.00     0.000 A 
ATOM      8  C   UNL A   1      34.193  20.833  25.211  1.00  0.00     0.093 A 
ATOM      9  N   UNL A   1      35.528  20.524  25.048  1.00  0.00    -0.351 N 
ATOM     10  C   UNL A   1      36.319  21.591  25.408  1.00  0.00     0.049 A 
ATOM     11  H   UNL A   1      35.868  19.661  24.718  1.00  0.00     0.167 HD
ATOM     12  C   UNL A   1      35.468  22.675  25.618  1.00  0.00     0.004 A 
ATOM     13  C   UNL A   1      37.706  21.675  25.584  1.00  0.00     0.066 A 
ATOM     14  C   UNL A   1      36.029  23.906  26.023  1.00  0.00     0.013 A 
ATOM     15  C   UNL A   1      38.221  22.895  26.022  1.00  0.00     0.125 A 
ATOM     16  C   UNL A   1      37.408  23.998  26.241  1.00  0.00     0.040 A 
ATOM     17  F   UNL A   1      39.536  22.999  26.256  1.00  0.00    -0.207 F 
BRANCH   8  18
ATOM     18  C   UNL A   1      33.079  19.890  25.161  1.00  0.00     0.227 C 
ATOM     19  O   UNL A   1      31.916  20.259  25.321  1.00  0.00    -0.285 OA
BRANCH  18  20
ATOM     20  C   UNL A   1      33.303  18.425  24.967  1.00  0.00     0.113 A 
ATOM     21  C   UNL A   1      31.960  15.085  26.135  1.00  0.00     0.044 C 
ATOM     22  C   UNL A   1      32.722  16.137  25.387  1.00  0.00    -0.047 A 
ATOM     23  C   UNL A   1      33.446  15.793  24.242  1.00  0.00     0.023 A 
ATOM     24  C   UNL A   1      32.642  17.486  25.752  1.00  0.00     0.036 A 
ATOM     25  C   UNL A   1      34.093  16.793  23.537  1.00  0.00     0.112 A 
ATOM     26  N   UNL A   1      34.052  18.095  23.881  1.00  0.00    -0.253 NA
ENDBRANCH  18  20
ENDBRANCH   8  18
ENDBRANCH   6   7
ENDBRANCH   4   6
ENDBRANCH   3   4
ENDBRANCH   2   3
ENDBRANCH   1   2
BRANCH   1  27
ATOM     27  O   UNL A   1      32.025  27.062  26.845  1.00  0.00    -0.374 OA
BRANCH  27  28
ATOM     28  C   UNL A   1      33.215  27.109  26.062  1.00  0.00     0.202 C 
BRANCH  28  29
ATOM     29  C   UNL A   1      34.230  28.211  26.397  1.00  0.00     0.261 C 
BRANCH  29  30
ATOM     30  O   UNL A   1      33.959  28.886  27.635  1.00  0.00    -0.460 OA
BRANCH  30  31
ATOM     31  C   UNL A   1      34.598  30.070  27.781  1.00  0.00     0.338 C 
ATOM     32  O   UNL A   1      34.121  31.196  27.730  1.00  0.00    -0.246 OA
BRANCH  31  33
ATOM     33  C   UNL A   1      35.991  29.825  28.184  1.00  0.00     0.060 A 
ATOM     34  C   UNL A   1      36.993  30.047  27.232  1.00  0.00     0.016 A 
ATOM     35  C   UNL A   1      36.305  29.355  29.460  1.00  0.00     0.016 A 
ATOM     36  C   UNL A   1      38.323  29.788  27.550  1.00  0.00     0.010 A 
ATOM     37  C   UNL A   1      37.639  29.081  29.773  1.00  0.00     0.010 A 
ATOM     38  C   UNL A   1      38.649  29.281  28.815  1.00  0.00    -0.014 A 
BRANCH  38  39
ATOM     39  C   UNL A   1      40.042  28.880  29.108  1.00  0.00     0.031 A 
ATOM     40  C   UNL A   1      40.948  29.844  29.817  1.00  0.00     0.074 A 
ATOM     41  C   UNL A   1      40.481  27.661  28.745  1.00  0.00     0.049 A 
ATOM     42  N   UNL A   1      42.213  29.719  30.123  1.00  0.00    -0.248 NA
ATOM     43  C   UNL A   1      40.350  31.122  30.235  1.00  0.00     0.031 C 
ATOM     44  C   UNL A   1      39.671  26.637  28.084  1.00  0.00     0.029 A 
ATOM     45  N   UNL A   1      41.717  27.082  28.873  1.00  0.00    -0.354 N 
ATOM     46  C   UNL A   1      42.564  30.901  30.762  1.00  0.00     0.074 A 
ATOM     47  C   UNL A   1      41.387  31.742  30.779  1.00  0.00     0.031 C 
ATOM     48  C   UNL A   1      40.437  25.557  27.855  1.00  0.00     0.029 A 
ATOM     49  C   UNL A   1      41.795  25.828  28.317  1.00  0.00     0.049 A 
ATOM     50  H   UNL A   1      42.476  27.523  29.320  1.00  0.00     0.167 HD
ATOM     51  C   UNL A   1      43.763  31.248  31.287  1.00  0.00     0.037 A 
ATOM     52  C   UNL A   1      42.855  25.010  28.174  1.00  0.00     0.037 A 
ATOM     53  C   UNL A   1      44.925  30.399  31.264  1.00  0.00     0.049 A 
ATOM     54  C   UNL A   1      44.195  25.457  28.696  1.00  0.00     0.074 A 
ATOM     55  C   UNL A   1      46.177  30.636  31.802  1.00  0.00     0.029 A 
ATOM     56  N   UNL A   1      44.979  29.152  30.657  1.00  0.00    -0.354 N 
ATOM     57  N   UNL A   1      44.507  26.557  29.339  1.00  0.00    -0.248 NA
ATOM     58  C   UNL A   1      45.331  24.552  28.468  1.00  0.00     0.031 C 
ATOM     59  C   UNL A   1      47.006  29.562  31.466  1.00  0.00     0.029 A 
ATOM     60  C   UNL A   1      46.255  28.628  30.770  1.00  0.00     0.049 A 
ATOM     61  H   UNL A   1      44.222  28.707  30.212  1.00  0.00     0.167 HD
ATOM     62  C   UNL A   1      45.866  26.467  29.611  1.00  0.00     0.074 A 
ATOM     63  C   UNL A   1      46.314  25.195  29.083  1.00  0.00     0.031 C 
ATOM     64  C   UNL A   1      46.676  27.358  30.235  1.00  0.00     0.037 A 
BRANCH  51  65
ATOM     65  C   UNL A   1      43.891  32.609  31.905  1.00  0.00     0.057 A 
ATOM     66  C   UNL A   1      44.269  33.732  31.158  1.00  0.00     0.134 A 
ATOM     67  C   UNL A   1      43.578  32.808  33.256  1.00  0.00     0.134 A 
ATOM     68  F   UNL A   1      44.595  33.610  29.863  1.00  0.00    -0.206 F 
ATOM     69  C   UNL A   1      44.342  35.002  31.735  1.00  0.00     0.040 A 
ATOM     70  C   UNL A   1      43.623  34.075  33.838  1.00  0.00     0.040 A 
ATOM     71  F   UNL A   1      43.207  31.775  34.029  1.00  0.00    -0.206 F 
ATOM     72  C   UNL A   1      44.008  35.177  33.078  1.00  0.00     0.006 A 
ENDBRANCH  51  65
BRANCH  52  73
ATOM     73  C   UNL A   1      42.709  23.701  27.485  1.00  0.00     0.057 A 
ATOM     74  C   UNL A   1      42.859  23.588  26.099  1.00  0.00     0.134 A 
ATOM     75  C   UNL A   1      42.379  22.536  28.192  1.00  0.00     0.134 A 
ATOM     76  F   UNL A   1      43.150  24.670  25.361  1.00  0.00    -0.206 F 
ATOM     77  C   UNL A   1      42.663  22.374  25.436  1.00  0.00     0.040 A 
ATOM     78  C   UNL A   1      42.209  21.310  27.547  1.00  0.00     0.040 A 
ATOM     79  F   UNL A   1      42.221  22.573  29.524  1.00  0.00    -0.206 F 
ATOM     80  C   UNL A   1      42.341  21.229  26.163  1.00  0.00     0.006 A 
ENDBRANCH  52  73
BRANCH  64  81
ATOM     81  C   UNL A   1      48.118  26.976  30.398  1.00  0.00     0.057 A 
ATOM     82  C   UNL A   1      49.103  27.425  29.509  1.00  0.00     0.134 A 
ATOM     83  C   UNL A   1      48.533  26.190  31.481  1.00  0.00     0.134 A 
ATOM     84  F   UNL A   1      48.770  28.170  28.443  1.00  0.00    -0.206 F 
ATOM     85  C   UNL A   1      50.447  27.085  29.678  1.00  0.00     0.040 A 
ATOM     86  C   UNL A   1      49.876  25.869  31.676  1.00  0.00     0.040 A 
ATOM     87  F   UNL A   1      47.641  25.737  32.375  1.00  0.00    -0.206 F 
ATOM     88  C   UNL A   1      50.837  26.312  30.770  1.00  0.00     0.006 A 
ENDBRANCH  64  81
ENDBRANCH  38  39
ENDBRANCH  31  33
ENDBRANCH  30  31
ENDBRANCH  29  30
ENDBRANCH  28  29
ENDBRANCH  27  28
ENDBRANCH   1  27
TORSDOF 17
ENDMDL
MODEL 3
REMARK VINA RESULT:      -9.5      0.749      6.088
REMARK SMILES Cc1ccnc(C(=O)c2[nH]c3cc(F)ccc3c2CC(=O)OCCOCCOC(=O)c2ccc(-c3c4nc(c(-c5c(F)cccc5F)c5ccc([nH]5)c(-c5c(F)cccc5F)c5nc(c(-c6c(F)cccc6F)c6ccc3[nH]6)C=C5)C=C4)cc2)c1
REMARK SMILES IDX 24 1 23 2 22 3 20 4 21 5 19 6 18 7 9 8 10 9 11 10 17 12
REMARK SMILES IDX 12 13 16 14 13 15 15 16 14 17 7 18 8 19 6 20 1 21 2 22 3 23
REMARK SMILES IDX 85 24 4 25 5 26 25 27 26 28 27 29 28 30 29 31 30 32 31 33
REMARK SMILES IDX 32 34 84 35 33 36 83 37 34 38 35 39 36 40 77 41 37 42 82 43
REMARK SMILES IDX 76 44 78 45 38 46 81 47 75 48 74 49 39 51 65 52 48 53 64 54
REMARK SMILES IDX 49 55 52 56 63 57 79 58 50 59 51 60 62 62 80 63 53 64 40 65
REMARK SMILES IDX 41 66 46 67 42 68 43 69 45 70 47 71 44 72 66 73 67 74 72 75
REMARK SMILES IDX 68 76 69 77 71 78 73 79 70 80 54 81 55 82 60 83 56 84 57 85
REMARK SMILES IDX 59 86 61 87 58 88
REMARK H PARENT 10 11 78 50 52 61
REMARK Flexibility Score: inf
ROOT
ATOM      1  C   UNL A   1      45.410  19.967  23.860  1.00  0.00     0.202 C 
ENDROOT
BRANCH   1   2
ATOM      2  C   UNL A   1      46.658  20.731  24.321  1.00  0.00     0.261 C 
BRANCH   2   3
ATOM      3  O   UNL A   1      46.361  21.875  25.153  1.00  0.00    -0.463 OA
BRANCH   3   4
ATOM      4  C   UNL A   1      46.154  23.038  24.474  1.00  0.00     0.310 C 
ATOM      5  O   UNL A   1      46.913  23.465  23.607  1.00  0.00    -0.252 OA
BRANCH   4   6
ATOM      6  C   UNL A   1      44.963  23.857  24.918  1.00  0.00     0.161 C 
BRANCH   6   7
ATOM      7  C   UNL A   1      45.170  25.266  25.416  1.00  0.00     0.000 A 
ATOM      8  C   UNL A   1      46.299  25.780  26.063  1.00  0.00     0.093 A 
ATOM      9  N   UNL A   1      46.028  27.104  26.338  1.00  0.00    -0.351 N 
ATOM     10  C   UNL A   1      44.695  27.377  26.137  1.00  0.00     0.049 A 
ATOM     11  H   UNL A   1      46.696  27.763  26.635  1.00  0.00     0.167 HD
ATOM     12  C   UNL A   1      44.137  26.253  25.531  1.00  0.00     0.004 A 
ATOM     13  C   UNL A   1      43.942  28.513  26.461  1.00  0.00     0.066 A 
ATOM     14  C   UNL A   1      42.757  26.263  25.231  1.00  0.00     0.013 A 
ATOM     15  C   UNL A   1      42.575  28.471  26.187  1.00  0.00     0.125 A 
ATOM     16  C   UNL A   1      41.981  27.372  25.582  1.00  0.00     0.040 A 
ATOM     17  F   UNL A   1      41.810  29.516  26.533  1.00  0.00    -0.207 F 
BRANCH   8  18
ATOM     18  C   UNL A   1      47.533  25.068  26.386  1.00  0.00     0.227 C 
ATOM     19  O   UNL A   1      47.553  24.154  27.208  1.00  0.00    -0.285 OA
BRANCH  18  20
ATOM     20  C   UNL A   1      48.840  25.452  25.770  1.00  0.00     0.113 A 
ATOM     21  C   UNL A   1      50.237  27.608  22.989  1.00  0.00     0.044 C 
ATOM     22  C   UNL A   1      50.127  26.715  24.189  1.00  0.00    -0.047 A 
ATOM     23  C   UNL A   1      51.252  26.466  24.979  1.00  0.00     0.023 A 
ATOM     24  C   UNL A   1      48.890  26.203  24.599  1.00  0.00     0.036 A 
ATOM     25  C   UNL A   1      51.111  25.685  26.114  1.00  0.00     0.112 A 
ATOM     26  N   UNL A   1      49.938  25.161  26.517  1.00  0.00    -0.253 NA
ENDBRANCH  18  20
ENDBRANCH   8  18
ENDBRANCH   6   7
ENDBRANCH   4   6
ENDBRANCH   3   4
ENDBRANCH   2   3
ENDBRANCH   1   2
BRANCH   1  27
ATOM     27  O   UNL A   1      44.215  20.099  24.628  1.00  0.00    -0.374 OA
BRANCH  27  28
ATOM     28  C   UNL A   1      43.564  18.893  25.020  1.00  0.00     0.202 C 
BRANCH  28  29
ATOM     29  C   UNL A   1      43.406  18.642  26.526  1.00  0.00     0.261 C 
BRANCH  29  30
ATOM     30  O   UNL A   1      42.045  18.705  26.981  1.00  0.00    -0.460 OA
BRANCH  30  31
ATOM     31  C   UNL A   1      41.274  19.603  26.325  1.00  0.00     0.338 C 
ATOM     32  O   UNL A   1      40.447  19.389  25.450  1.00  0.00    -0.246 OA
BRANCH  31  33
ATOM     33  C   UNL A   1      41.451  20.931  26.932  1.00  0.00     0.060 A 
ATOM     34  C   UNL A   1      41.732  22.005  26.078  1.00  0.00     0.016 A 
ATOM     35  C   UNL A   1      41.374  21.114  28.313  1.00  0.00     0.016 A 
ATOM     36  C   UNL A   1      41.950  23.273  26.607  1.00  0.00     0.010 A 
ATOM     37  C   UNL A   1      41.609  22.385  28.843  1.00  0.00     0.010 A 
ATOM     38  C   UNL A   1      41.912  23.464  27.995  1.00  0.00    -0.014 A 
BRANCH  38  39
ATOM     39  C   UNL A   1      42.276  24.780  28.564  1.00  0.00     0.031 A 
ATOM     40  C   UNL A   1      41.235  25.859  28.636  1.00  0.00     0.074 A 
ATOM     41  C   UNL A   1      43.524  24.995  29.016  1.00  0.00     0.049 A 
ATOM     42  N   UNL A   1      41.351  27.095  29.047  1.00  0.00    -0.248 NA
ATOM     43  C   UNL A   1      39.881  25.498  28.184  1.00  0.00     0.031 C 
ATOM     44  C   UNL A   1      44.599  24.002  29.025  1.00  0.00     0.029 A 
ATOM     45  N   UNL A   1      44.101  26.120  29.546  1.00  0.00    -0.354 N 
ATOM     46  C   UNL A   1      40.092  27.661  28.895  1.00  0.00     0.074 A 
ATOM     47  C   UNL A   1      39.231  26.643  28.333  1.00  0.00     0.031 C 
ATOM     48  C   UNL A   1      45.710  24.568  29.526  1.00  0.00     0.029 A 
ATOM     49  C   UNL A   1      45.436  25.968  29.837  1.00  0.00     0.049 A 
ATOM     50  H   UNL A   1      43.607  26.957  29.702  1.00  0.00     0.167 HD
ATOM     51  C   UNL A   1      39.694  28.919  29.201  1.00  0.00     0.037 A 
ATOM     52  C   UNL A   1      46.334  26.869  30.275  1.00  0.00     0.037 A 
ATOM     53  C   UNL A   1      40.563  29.920  29.761  1.00  0.00     0.049 A 
ATOM     54  C   UNL A   1      45.880  28.283  30.530  1.00  0.00     0.074 A 
ATOM     55  C   UNL A   1      40.253  31.213  30.145  1.00  0.00     0.029 A 
ATOM     56  N   UNL A   1      41.917  29.744  30.005  1.00  0.00    -0.354 N 
ATOM     57  N   UNL A   1      44.678  28.798  30.427  1.00  0.00    -0.248 NA
ATOM     58  C   UNL A   1      46.909  29.243  30.955  1.00  0.00     0.031 C 
ATOM     59  C   UNL A   1      41.432  31.838  30.562  1.00  0.00     0.029 A 
ATOM     60  C   UNL A   1      42.465  30.917  30.493  1.00  0.00     0.049 A 
ATOM     61  H   UNL A   1      42.414  28.907  29.852  1.00  0.00     0.167 HD
ATOM     62  C   UNL A   1      44.802  30.131  30.795  1.00  0.00     0.074 A 
ATOM     63  C   UNL A   1      46.191  30.341  31.145  1.00  0.00     0.031 C 
ATOM     64  C   UNL A   1      43.853  31.100  30.835  1.00  0.00     0.037 A 
BRANCH  51  65
ATOM     65  C   UNL A   1      38.271  29.295  28.912  1.00  0.00     0.057 A 
ATOM     66  C   UNL A   1      37.287  29.302  29.907  1.00  0.00     0.134 A 
ATOM     67  C   UNL A   1      37.894  29.710  27.627  1.00  0.00     0.134 A 
ATOM     68  F   UNL A   1      37.577  28.904  31.154  1.00  0.00    -0.206 F 
ATOM     69  C   UNL A   1      35.975  29.697  29.634  1.00  0.00     0.040 A 
ATOM     70  C   UNL A   1      36.593  30.131  27.348  1.00  0.00     0.040 A 
ATOM     71  F   UNL A   1      38.788  29.730  26.627  1.00  0.00    -0.206 F 
ATOM     72  C   UNL A   1      35.628  30.123  28.353  1.00  0.00     0.006 A 
ENDBRANCH  51  65
BRANCH  52  73
ATOM     73  C   UNL A   1      47.755  26.482  30.475  1.00  0.00     0.057 A 
ATOM     74  C   UNL A   1      48.730  26.779  29.517  1.00  0.00     0.134 A 
ATOM     75  C   UNL A   1      48.166  25.774  31.612  1.00  0.00     0.134 A 
ATOM     76  F   UNL A   1      48.398  27.433  28.395  1.00  0.00    -0.206 F 
ATOM     77  C   UNL A   1      50.056  26.365  29.668  1.00  0.00     0.040 A 
ATOM     78  C   UNL A   1      49.492  25.379  31.790  1.00  0.00     0.040 A 
ATOM     79  F   UNL A   1      47.281  25.457  32.570  1.00  0.00    -0.206 F 
ATOM     80  C   UNL A   1      50.440  25.666  30.811  1.00  0.00     0.006 A 
ENDBRANCH  52  73
BRANCH  64  81
ATOM     81  C   UNL A   1      44.285  32.463  31.292  1.00  0.00     0.057 A 
ATOM     82  C   UNL A   1      44.691  33.449  30.383  1.00  0.00     0.134 A 
ATOM     83  C   UNL A   1      44.251  32.807  32.649  1.00  0.00     0.134 A 
ATOM     84  F   UNL A   1      44.759  33.179  29.071  1.00  0.00    -0.206 F 
ATOM     85  C   UNL A   1      45.070  34.723  30.812  1.00  0.00     0.040 A 
ATOM     86  C   UNL A   1      44.598  34.085  33.086  1.00  0.00     0.040 A 
ATOM     87  F   UNL A   1      43.861  31.912  33.570  1.00  0.00    -0.206 F 
ATOM     88  C   UNL A   1      45.016  35.046  32.167  1.00  0.00     0.006 A 
ENDBRANCH  64  81
ENDBRANCH  38  39
ENDBRANCH  31  33
ENDBRANCH  30  31
ENDBRANCH  29  30
ENDBRANCH  28  29
ENDBRANCH  27  28
ENDBRANCH   1  27
TORSDOF 17
ENDMDL
