MODEL 1
REMARK VINA RESULT:     -11.9      0.000      0.000
REMARK SMILES Cc1cc2cc(-c3ccc([C@@H](C)C(=O)OCCOCCOC(=O)c4ccc(-c5c6nc(c(-c7c(F)cccc7F)c7ccc([nH]7)c(-c7c(F)cccc7F)c7nc(c(-c8c(F)cccc8F)c8ccc5[nH]8)C=C7)C=C6)cc4)cc3)ccc2[nH]1
REMARK SMILES IDX 18 1 17 2 16 3 15 4 13 5 14 6 11 7 12 8 10 9 7 10 8 11 79 12
REMARK SMILES IDX 9 13 78 14 6 15 1 16 2 17 3 18 83 19 4 20 82 21 5 23 81 24
REMARK SMILES IDX 80 25 19 26 20 27 21 28 22 29 23 30 24 31 25 32 77 33 26 34
REMARK SMILES IDX 76 35 27 36 28 37 29 38 70 39 30 40 75 41 69 42 71 43 31 44
REMARK SMILES IDX 74 45 68 46 67 47 32 49 58 50 41 51 57 52 42 53 45 54 56 55
REMARK SMILES IDX 72 56 43 57 44 58 55 60 73 61 46 62 33 63 34 64 39 65 35 66
REMARK SMILES IDX 36 67 38 68 40 69 37 70 59 71 60 72 65 73 61 74 62 75 64 76
REMARK SMILES IDX 66 77 63 78 47 79 48 80 53 81 49 82 50 83 52 84 54 85 51 86
REMARK H PARENT 83 22 71 48 45 59
REMARK Flexibility Score: inf
ROOT
ATOM      1  O   UNL A   1      35.100  35.773  32.821  1.00  0.00    -0.374 OA
ENDROOT
BRANCH   1   2
ATOM      2  C   UNL A   1      34.114  36.654  32.286  1.00  0.00     0.202 C 
BRANCH   2   3
ATOM      3  C   UNL A   1      32.800  35.997  31.857  1.00  0.00     0.261 C 
BRANCH   3   4
ATOM      4  O   UNL A   1      33.036  34.960  30.886  1.00  0.00    -0.463 OA
BRANCH   4   5
ATOM      5  C   UNL A   1      33.087  35.358  29.588  1.00  0.00     0.313 C 
ATOM      6  O   UNL A   1      32.472  36.319  29.135  1.00  0.00    -0.252 OA
BRANCH   5   7
ATOM      7  C   UNL A   1      33.946  34.469  28.704  1.00  0.00     0.126 C 
ATOM      8  C   UNL A   1      34.584  35.321  27.609  1.00  0.00     0.025 C 
BRANCH   7   9
ATOM      9  C   UNL A   1      33.314  33.200  28.137  1.00  0.00    -0.034 A 
ATOM     10  C   UNL A   1      32.331  30.854  26.854  1.00  0.00    -0.018 A 
ATOM     11  C   UNL A   1      31.606  32.055  26.832  1.00  0.00     0.009 A 
ATOM     12  C   UNL A   1      33.531  30.831  27.578  1.00  0.00     0.009 A 
ATOM     13  C   UNL A   1      32.088  33.211  27.460  1.00  0.00     0.005 A 
ATOM     14  C   UNL A   1      34.016  31.985  28.209  1.00  0.00     0.005 A 
BRANCH  10  15
ATOM     15  C   UNL A   1      31.881  29.683  26.079  1.00  0.00    -0.018 A 
ATOM     16  C   UNL A   1      30.851  23.774  24.793  1.00  0.00     0.064 C 
ATOM     17  C   UNL A   1      31.069  25.218  25.061  1.00  0.00     0.013 A 
ATOM     18  C   UNL A   1      31.632  25.857  26.146  1.00  0.00     0.031 A 
ATOM     19  N   UNL A   1      30.697  26.190  24.164  1.00  0.00    -0.359 N 
ATOM     20  C   UNL A   1      31.612  27.255  25.892  1.00  0.00     0.000 A 
ATOM     21  C   UNL A   1      31.018  27.439  24.646  1.00  0.00     0.046 A 
ATOM     22  H   UNL A   1      30.262  26.018  23.297  1.00  0.00     0.166 HD
ATOM     23  C   UNL A   1      32.044  28.387  26.610  1.00  0.00     0.019 A 
ATOM     24  C   UNL A   1      30.830  28.707  24.086  1.00  0.00     0.027 A 
ATOM     25  C   UNL A   1      31.270  29.818  24.823  1.00  0.00     0.011 A 
ENDBRANCH  10  15
ENDBRANCH   7   9
ENDBRANCH   5   7
ENDBRANCH   4   5
ENDBRANCH   3   4
ENDBRANCH   2   3
ENDBRANCH   1   2
BRANCH   1  26
ATOM     26  C   UNL A   1      34.779  35.092  34.035  1.00  0.00     0.202 C 
BRANCH  26  27
ATOM     27  C   UNL A   1      35.171  33.613  34.103  1.00  0.00     0.261 C 
BRANCH  27  28
ATOM     28  O   UNL A   1      36.025  33.229  33.011  1.00  0.00    -0.460 OA
BRANCH  28  29
ATOM     29  C   UNL A   1      35.472  32.374  32.122  1.00  0.00     0.338 C 
ATOM     30  O   UNL A   1      34.308  32.341  31.746  1.00  0.00    -0.246 OA
BRANCH  29  31
ATOM     31  C   UNL A   1      36.521  31.544  31.501  1.00  0.00     0.060 A 
ATOM     32  C   UNL A   1      37.490  30.990  32.346  1.00  0.00     0.016 A 
ATOM     33  C   UNL A   1      36.607  31.380  30.117  1.00  0.00     0.016 A 
ATOM     34  C   UNL A   1      38.582  30.311  31.808  1.00  0.00     0.010 A 
ATOM     35  C   UNL A   1      37.710  30.708  29.577  1.00  0.00     0.010 A 
ATOM     36  C   UNL A   1      38.720  30.203  30.418  1.00  0.00    -0.014 A 
BRANCH  36  37
ATOM     37  C   UNL A   1      39.996  29.710  29.845  1.00  0.00     0.031 A 
ATOM     38  C   UNL A   1      41.154  30.663  29.728  1.00  0.00     0.074 A 
ATOM     39  C   UNL A   1      40.135  28.429  29.465  1.00  0.00     0.049 A 
ATOM     40  N   UNL A   1      42.341  30.468  29.213  1.00  0.00    -0.248 NA
ATOM     41  C   UNL A   1      40.946  32.016  30.269  1.00  0.00     0.031 C 
ATOM     42  C   UNL A   1      39.108  27.395  29.578  1.00  0.00     0.029 A 
ATOM     43  N   UNL A   1      41.205  27.782  28.897  1.00  0.00    -0.354 N 
ATOM     44  C   UNL A   1      43.019  31.670  29.364  1.00  0.00     0.074 A 
ATOM     45  C   UNL A   1      42.103  32.598  29.994  1.00  0.00     0.031 C 
ATOM     46  C   UNL A   1      39.593  26.245  29.081  1.00  0.00     0.029 A 
ATOM     47  C   UNL A   1      40.950  26.469  28.585  1.00  0.00     0.049 A 
ATOM     48  H   UNL A   1      42.071  28.218  28.729  1.00  0.00     0.167 HD
ATOM     49  C   UNL A   1      44.292  31.974  29.016  1.00  0.00     0.037 A 
ATOM     50  C   UNL A   1      41.718  25.562  27.951  1.00  0.00     0.037 A 
ATOM     51  C   UNL A   1      45.202  31.056  28.386  1.00  0.00     0.049 A 
ATOM     52  C   UNL A   1      43.098  25.951  27.492  1.00  0.00     0.074 A 
ATOM     53  C   UNL A   1      46.511  31.271  27.993  1.00  0.00     0.029 A 
ATOM     54  N   UNL A   1      44.893  29.746  28.052  1.00  0.00    -0.354 N 
ATOM     55  N   UNL A   1      43.732  27.088  27.643  1.00  0.00    -0.248 NA
ATOM     56  C   UNL A   1      43.870  24.928  26.768  1.00  0.00     0.031 C 
ATOM     57  C   UNL A   1      46.982  30.102  27.386  1.00  0.00     0.029 A 
ATOM     58  C   UNL A   1      45.980  29.147  27.440  1.00  0.00     0.049 A 
ATOM     59  H   UNL A   1      44.029  29.308  28.225  1.00  0.00     0.167 HD
ATOM     60  C   UNL A   1      44.984  26.909  27.065  1.00  0.00     0.074 A 
ATOM     61  C   UNL A   1      45.022  25.551  26.564  1.00  0.00     0.031 C 
ATOM     62  C   UNL A   1      46.008  27.790  26.961  1.00  0.00     0.037 A 
BRANCH  49  63
ATOM     63  C   UNL A   1      44.767  33.368  29.294  1.00  0.00     0.057 A 
ATOM     64  C   UNL A   1      44.524  34.421  28.402  1.00  0.00     0.134 A 
ATOM     65  C   UNL A   1      45.451  33.668  30.479  1.00  0.00     0.134 A 
ATOM     66  F   UNL A   1      43.888  34.197  27.243  1.00  0.00    -0.206 F 
ATOM     67  C   UNL A   1      44.962  35.720  28.671  1.00  0.00     0.040 A 
ATOM     68  C   UNL A   1      45.873  34.966  30.769  1.00  0.00     0.040 A 
ATOM     69  F   UNL A   1      45.713  32.705  31.376  1.00  0.00    -0.206 F 
ATOM     70  C   UNL A   1      45.633  35.995  29.861  1.00  0.00     0.006 A 
ENDBRANCH  49  63
BRANCH  50  71
ATOM     71  C   UNL A   1      41.195  24.199  27.686  1.00  0.00     0.057 A 
ATOM     72  C   UNL A   1      41.667  23.091  28.398  1.00  0.00     0.134 A 
ATOM     73  C   UNL A   1      40.236  23.967  26.693  1.00  0.00     0.134 A 
ATOM     74  F   UNL A   1      42.606  23.246  29.343  1.00  0.00    -0.206 F 
ATOM     75  C   UNL A   1      41.216  21.799  28.122  1.00  0.00     0.040 A 
ATOM     76  C   UNL A   1      39.759  22.685  26.422  1.00  0.00     0.040 A 
ATOM     77  F   UNL A   1      39.746  24.987  25.974  1.00  0.00    -0.206 F 
ATOM     78  C   UNL A   1      40.255  21.593  27.134  1.00  0.00     0.006 A 
ENDBRANCH  50  71
BRANCH  62  79
ATOM     79  C   UNL A   1      47.274  27.303  26.320  1.00  0.00     0.057 A 
ATOM     80  C   UNL A   1      48.313  26.738  27.071  1.00  0.00     0.134 A 
ATOM     81  C   UNL A   1      47.433  27.355  24.929  1.00  0.00     0.134 A 
ATOM     82  F   UNL A   1      48.228  26.671  28.408  1.00  0.00    -0.206 F 
ATOM     83  C   UNL A   1      49.472  26.255  26.460  1.00  0.00     0.040 A 
ATOM     84  C   UNL A   1      48.576  26.855  24.306  1.00  0.00     0.040 A 
ATOM     85  F   UNL A   1      46.471  27.877  24.153  1.00  0.00    -0.206 F 
ATOM     86  C   UNL A   1      49.602  26.305  25.073  1.00  0.00     0.006 A 
ENDBRANCH  62  79
ENDBRANCH  36  37
ENDBRANCH  29  31
ENDBRANCH  28  29
ENDBRANCH  27  28
ENDBRANCH  26  27
ENDBRANCH   1  26
TORSDOF 16
ENDMDL
MODEL 2
REMARK VINA RESULT:     -11.8      5.191     10.428
REMARK SMILES Cc1cc2cc(-c3ccc([C@@H](C)C(=O)OCCOCCOC(=O)c4ccc(-c5c6nc(c(-c7c(F)cccc7F)c7ccc([nH]7)c(-c7c(F)cccc7F)c7nc(c(-c8c(F)cccc8F)c8ccc5[nH]8)C=C7)C=C6)cc4)cc3)ccc2[nH]1
REMARK SMILES IDX 18 1 17 2 16 3 15 4 13 5 14 6 11 7 12 8 10 9 7 10 8 11 79 12
REMARK SMILES IDX 9 13 78 14 6 15 1 16 2 17 3 18 83 19 4 20 82 21 5 23 81 24
REMARK SMILES IDX 80 25 19 26 20 27 21 28 22 29 23 30 24 31 25 32 77 33 26 34
REMARK SMILES IDX 76 35 27 36 28 37 29 38 70 39 30 40 75 41 69 42 71 43 31 44
REMARK SMILES IDX 74 45 68 46 67 47 32 49 58 50 41 51 57 52 42 53 45 54 56 55
REMARK SMILES IDX 72 56 43 57 44 58 55 60 73 61 46 62 33 63 34 64 39 65 35 66
REMARK SMILES IDX 36 67 38 68 40 69 37 70 59 71 60 72 65 73 61 74 62 75 64 76
REMARK SMILES IDX 66 77 63 78 47 79 48 80 53 81 49 82 50 83 52 84 54 85 51 86
REMARK H PARENT 83 22 71 48 45 59
REMARK Flexibility Score: inf
ROOT
ATOM      1  O   UNL A   1      41.954  20.850  25.713  1.00  0.00    -0.374 OA
ENDROOT
BRANCH   1   2
ATOM      2  C   UNL A   1      41.302  20.807  26.982  1.00  0.00     0.202 C 
BRANCH   2   3
ATOM      3  C   UNL A   1      40.097  21.737  27.140  1.00  0.00     0.261 C 
BRANCH   3   4
ATOM      4  O   UNL A   1      39.328  21.795  25.924  1.00  0.00    -0.463 OA
BRANCH   4   5
ATOM      5  C   UNL A   1      38.327  22.713  25.894  1.00  0.00     0.313 C 
ATOM      6  O   UNL A   1      38.489  23.918  26.062  1.00  0.00    -0.252 OA
BRANCH   5   7
ATOM      7  C   UNL A   1      36.946  22.112  25.680  1.00  0.00     0.126 C 
ATOM      8  C   UNL A   1      37.068  20.895  24.766  1.00  0.00     0.025 C 
BRANCH   7   9
ATOM      9  C   UNL A   1      35.823  23.044  25.235  1.00  0.00    -0.034 A 
ATOM     10  C   UNL A   1      33.939  24.975  24.319  1.00  0.00    -0.018 A 
ATOM     11  C   UNL A   1      34.151  24.756  25.689  1.00  0.00     0.009 A 
ATOM     12  C   UNL A   1      34.645  24.171  23.414  1.00  0.00     0.009 A 
ATOM     13  C   UNL A   1      35.078  23.809  26.142  1.00  0.00     0.005 A 
ATOM     14  C   UNL A   1      35.571  23.221  23.864  1.00  0.00     0.005 A 
BRANCH  10  15
ATOM     15  C   UNL A   1      33.062  26.065  23.853  1.00  0.00    -0.018 A 
ATOM     16  C   UNL A   1      27.830  29.073  22.753  1.00  0.00     0.064 C 
ATOM     17  C   UNL A   1      29.123  28.391  23.008  1.00  0.00     0.013 A 
ATOM     18  C   UNL A   1      29.398  27.164  23.575  1.00  0.00     0.031 A 
ATOM     19  N   UNL A   1      30.327  28.962  22.671  1.00  0.00    -0.359 N 
ATOM     20  C   UNL A   1      30.808  26.983  23.568  1.00  0.00     0.000 A 
ATOM     21  C   UNL A   1      31.368  28.124  23.002  1.00  0.00     0.046 A 
ATOM     22  H   UNL A   1      30.431  29.847  22.251  1.00  0.00     0.166 HD
ATOM     23  C   UNL A   1      31.664  25.949  23.997  1.00  0.00     0.019 A 
ATOM     24  C   UNL A   1      32.749  28.283  22.847  1.00  0.00     0.027 A 
ATOM     25  C   UNL A   1      33.579  27.238  23.282  1.00  0.00     0.011 A 
ENDBRANCH  10  15
ENDBRANCH   7   9
ENDBRANCH   5   7
ENDBRANCH   4   5
ENDBRANCH   3   4
ENDBRANCH   2   3
ENDBRANCH   1   2
BRANCH   1  26
ATOM     26  C   UNL A   1      43.328  20.463  25.671  1.00  0.00     0.202 C 
BRANCH  26  27
ATOM     27  C   UNL A   1      44.325  21.556  25.272  1.00  0.00     0.261 C 
BRANCH  27  28
ATOM     28  O   UNL A   1      44.258  22.696  26.148  1.00  0.00    -0.460 OA
BRANCH  28  29
ATOM     29  C   UNL A   1      44.177  23.894  25.526  1.00  0.00     0.338 C 
ATOM     30  O   UNL A   1      44.540  24.169  24.392  1.00  0.00    -0.246 OA
BRANCH  29  31
ATOM     31  C   UNL A   1      43.411  24.841  26.357  1.00  0.00     0.060 A 
ATOM     32  C   UNL A   1      43.870  26.163  26.421  1.00  0.00     0.016 A 
ATOM     33  C   UNL A   1      42.319  24.432  27.125  1.00  0.00     0.016 A 
ATOM     34  C   UNL A   1      43.272  27.070  27.292  1.00  0.00     0.010 A 
ATOM     35  C   UNL A   1      41.726  25.341  28.008  1.00  0.00     0.010 A 
ATOM     36  C   UNL A   1      42.224  26.652  28.122  1.00  0.00    -0.014 A 
BRANCH  36  37
ATOM     37  C   UNL A   1      41.761  27.537  29.219  1.00  0.00     0.031 A 
ATOM     38  C   UNL A   1      42.493  27.506  30.533  1.00  0.00     0.074 A 
ATOM     39  C   UNL A   1      40.729  28.379  29.042  1.00  0.00     0.049 A 
ATOM     40  N   UNL A   1      42.236  28.149  31.643  1.00  0.00    -0.248 NA
ATOM     41  C   UNL A   1      43.678  26.634  30.602  1.00  0.00     0.031 C 
ATOM     42  C   UNL A   1      39.974  28.544  27.802  1.00  0.00     0.029 A 
ATOM     43  N   UNL A   1      40.134  29.252  29.918  1.00  0.00    -0.354 N 
ATOM     44  C   UNL A   1      43.220  27.760  32.541  1.00  0.00     0.074 A 
ATOM     45  C   UNL A   1      44.065  26.804  31.857  1.00  0.00     0.031 C 
ATOM     46  C   UNL A   1      39.005  29.453  28.000  1.00  0.00     0.029 A 
ATOM     47  C   UNL A   1      39.051  29.909  29.389  1.00  0.00     0.049 A 
ATOM     48  H   UNL A   1      40.453  29.393  30.839  1.00  0.00     0.167 HD
ATOM     49  C   UNL A   1      43.409  28.166  33.819  1.00  0.00     0.037 A 
ATOM     50  C   UNL A   1      38.183  30.761  29.968  1.00  0.00     0.037 A 
ATOM     51  C   UNL A   1      42.568  29.112  34.503  1.00  0.00     0.049 A 
ATOM     52  C   UNL A   1      38.361  31.128  31.418  1.00  0.00     0.074 A 
ATOM     53  C   UNL A   1      42.677  29.585  35.799  1.00  0.00     0.029 A 
ATOM     54  N   UNL A   1      41.458  29.726  33.944  1.00  0.00    -0.354 N 
ATOM     55  N   UNL A   1      39.297  30.759  32.257  1.00  0.00    -0.248 NA
ATOM     56  C   UNL A   1      37.356  32.031  32.002  1.00  0.00     0.031 C 
ATOM     57  C   UNL A   1      41.609  30.457  36.036  1.00  0.00     0.029 A 
ATOM     58  C   UNL A   1      40.862  30.559  34.874  1.00  0.00     0.049 A 
ATOM     59  H   UNL A   1      41.141  29.590  33.021  1.00  0.00     0.167 HD
ATOM     60  C   UNL A   1      39.014  31.405  33.455  1.00  0.00     0.074 A 
ATOM     61  C   UNL A   1      37.821  32.195  33.233  1.00  0.00     0.031 C 
ATOM     62  C   UNL A   1      39.683  31.350  34.632  1.00  0.00     0.037 A 
BRANCH  49  63
ATOM     63  C   UNL A   1      44.562  27.569  34.568  1.00  0.00     0.057 A 
ATOM     64  C   UNL A   1      45.823  28.180  34.587  1.00  0.00     0.134 A 
ATOM     65  C   UNL A   1      44.404  26.387  35.301  1.00  0.00     0.134 A 
ATOM     66  F   UNL A   1      46.044  29.306  33.892  1.00  0.00    -0.206 F 
ATOM     67  C   UNL A   1      46.891  27.624  35.294  1.00  0.00     0.040 A 
ATOM     68  C   UNL A   1      45.458  25.835  36.030  1.00  0.00     0.040 A 
ATOM     69  F   UNL A   1      43.221  25.755  35.326  1.00  0.00    -0.206 F 
ATOM     70  C   UNL A   1      46.707  26.451  36.024  1.00  0.00     0.006 A 
ENDBRANCH  49  63
BRANCH  50  71
ATOM     71  C   UNL A   1      37.048  31.313  29.188  1.00  0.00     0.057 A 
ATOM     72  C   UNL A   1      37.072  32.624  28.700  1.00  0.00     0.134 A 
ATOM     73  C   UNL A   1      35.898  30.553  28.939  1.00  0.00     0.134 A 
ATOM     74  F   UNL A   1      38.135  33.410  28.931  1.00  0.00    -0.206 F 
ATOM     75  C   UNL A   1      35.989  33.167  28.008  1.00  0.00     0.040 A 
ATOM     76  C   UNL A   1      34.818  31.074  28.228  1.00  0.00     0.040 A 
ATOM     77  F   UNL A   1      35.812  29.291  29.381  1.00  0.00    -0.206 F 
ATOM     78  C   UNL A   1      34.858  32.389  27.765  1.00  0.00     0.006 A 
ENDBRANCH  50  71
BRANCH  62  79
ATOM     79  C   UNL A   1      39.171  32.198  35.758  1.00  0.00     0.057 A 
ATOM     80  C   UNL A   1      38.282  31.695  36.717  1.00  0.00     0.134 A 
ATOM     81  C   UNL A   1      39.613  33.518  35.913  1.00  0.00     0.134 A 
ATOM     82  F   UNL A   1      37.811  30.443  36.617  1.00  0.00    -0.206 F 
ATOM     83  C   UNL A   1      37.839  32.482  37.782  1.00  0.00     0.040 A 
ATOM     84  C   UNL A   1      39.196  34.306  36.986  1.00  0.00     0.040 A 
ATOM     85  F   UNL A   1      40.471  34.057  35.034  1.00  0.00    -0.206 F 
ATOM     86  C   UNL A   1      38.303  33.789  37.924  1.00  0.00     0.006 A 
ENDBRANCH  62  79
ENDBRANCH  36  37
ENDBRANCH  29  31
ENDBRANCH  28  29
ENDBRANCH  27  28
ENDBRANCH  26  27
ENDBRANCH   1  26
TORSDOF 16
ENDMDL
MODEL 3
REMARK VINA RESULT:     -11.6      2.500      4.415
REMARK SMILES Cc1cc2cc(-c3ccc([C@@H](C)C(=O)OCCOCCOC(=O)c4ccc(-c5c6nc(c(-c7c(F)cccc7F)c7ccc([nH]7)c(-c7c(F)cccc7F)c7nc(c(-c8c(F)cccc8F)c8ccc5[nH]8)C=C7)C=C6)cc4)cc3)ccc2[nH]1
REMARK SMILES IDX 18 1 17 2 16 3 15 4 13 5 14 6 11 7 12 8 10 9 7 10 8 11 79 12
REMARK SMILES IDX 9 13 78 14 6 15 1 16 2 17 3 18 83 19 4 20 82 21 5 23 81 24
REMARK SMILES IDX 80 25 19 26 20 27 21 28 22 29 23 30 24 31 25 32 77 33 26 34
REMARK SMILES IDX 76 35 27 36 28 37 29 38 70 39 30 40 75 41 69 42 71 43 31 44
REMARK SMILES IDX 74 45 68 46 67 47 32 49 58 50 41 51 57 52 42 53 45 54 56 55
REMARK SMILES IDX 72 56 43 57 44 58 55 60 73 61 46 62 33 63 34 64 39 65 35 66
REMARK SMILES IDX 36 67 38 68 40 69 37 70 59 71 60 72 65 73 61 74 62 75 64 76
REMARK SMILES IDX 66 77 63 78 47 79 48 80 53 81 49 82 50 83 52 84 54 85 51 86
REMARK H PARENT 83 22 71 48 45 59
REMARK Flexibility Score: inf
ROOT
ATOM      1  O   UNL A   1      33.440  32.278  28.270  1.00  0.00    -0.374 OA
ENDROOT
BRANCH   1   2
ATOM      2  C   UNL A   1      34.125  31.255  27.548  1.00  0.00     0.202 C 
BRANCH   2   3
ATOM      3  C   UNL A   1      33.259  30.088  27.067  1.00  0.00     0.261 C 
BRANCH   3   4
ATOM      4  O   UNL A   1      32.838  30.287  25.704  1.00  0.00    -0.463 OA
BRANCH   4   5
ATOM      5  C   UNL A   1      32.439  29.175  25.035  1.00  0.00     0.313 C 
ATOM      6  O   UNL A   1      31.285  28.757  25.014  1.00  0.00    -0.252 OA
BRANCH   5   7
ATOM      7  C   UNL A   1      33.570  28.437  24.335  1.00  0.00     0.126 C 
ATOM      8  C   UNL A   1      33.663  28.923  22.890  1.00  0.00     0.025 C 
BRANCH   7   9
ATOM      9  C   UNL A   1      33.591  26.914  24.421  1.00  0.00    -0.034 A 
ATOM     10  C   UNL A   1      33.926  24.091  24.618  1.00  0.00    -0.018 A 
ATOM     11  C   UNL A   1      33.646  24.709  23.389  1.00  0.00     0.009 A 
ATOM     12  C   UNL A   1      33.979  24.905  25.758  1.00  0.00     0.009 A 
ATOM     13  C   UNL A   1      33.483  26.096  23.289  1.00  0.00     0.005 A 
ATOM     14  C   UNL A   1      33.814  26.293  25.662  1.00  0.00     0.005 A 
BRANCH  10  15
ATOM     15  C   UNL A   1      34.228  22.650  24.691  1.00  0.00    -0.018 A 
ATOM     16  C   UNL A   1      33.317  16.615  24.078  1.00  0.00     0.064 C 
ATOM     17  C   UNL A   1      33.591  18.065  24.236  1.00  0.00     0.013 A 
ATOM     18  C   UNL A   1      32.808  19.165  23.953  1.00  0.00     0.031 A 
ATOM     19  N   UNL A   1      34.782  18.532  24.738  1.00  0.00    -0.359 N 
ATOM     20  C   UNL A   1      33.542  20.330  24.306  1.00  0.00     0.000 A 
ATOM     21  C   UNL A   1      34.777  19.908  24.792  1.00  0.00     0.046 A 
ATOM     22  H   UNL A   1      35.534  17.962  25.021  1.00  0.00     0.166 HD
ATOM     23  C   UNL A   1      33.270  21.711  24.256  1.00  0.00     0.019 A 
ATOM     24  C   UNL A   1      35.758  20.805  25.226  1.00  0.00     0.027 A 
ATOM     25  C   UNL A   1      35.461  22.176  25.165  1.00  0.00     0.011 A 
ENDBRANCH  10  15
ENDBRANCH   7   9
ENDBRANCH   5   7
ENDBRANCH   4   5
ENDBRANCH   3   4
ENDBRANCH   2   3
ENDBRANCH   1   2
BRANCH   1  26
ATOM     26  C   UNL A   1      34.202  33.418  28.670  1.00  0.00     0.202 C 
BRANCH  26  27
ATOM     27  C   UNL A   1      34.388  33.609  30.178  1.00  0.00     0.261 C 
BRANCH  27  28
ATOM     28  O   UNL A   1      34.499  32.353  30.872  1.00  0.00    -0.460 OA
BRANCH  28  29
ATOM     29  C   UNL A   1      35.545  32.260  31.725  1.00  0.00     0.338 C 
ATOM     30  O   UNL A   1      35.610  32.679  32.871  1.00  0.00    -0.246 OA
BRANCH  29  31
ATOM     31  C   UNL A   1      36.596  31.406  31.140  1.00  0.00     0.060 A 
ATOM     32  C   UNL A   1      37.483  30.777  32.022  1.00  0.00     0.016 A 
ATOM     33  C   UNL A   1      36.764  31.287  29.759  1.00  0.00     0.016 A 
ATOM     34  C   UNL A   1      38.577  30.069  31.528  1.00  0.00     0.010 A 
ATOM     35  C   UNL A   1      37.869  30.586  29.264  1.00  0.00     0.010 A 
ATOM     36  C   UNL A   1      38.799  30.006  30.146  1.00  0.00    -0.014 A 
BRANCH  36  37
ATOM     37  C   UNL A   1      40.087  29.475  29.636  1.00  0.00     0.031 A 
ATOM     38  C   UNL A   1      41.275  30.396  29.571  1.00  0.00     0.074 A 
ATOM     39  C   UNL A   1      40.209  28.189  29.267  1.00  0.00     0.049 A 
ATOM     40  N   UNL A   1      42.479  30.167  29.113  1.00  0.00    -0.248 NA
ATOM     41  C   UNL A   1      41.078  31.757  30.096  1.00  0.00     0.031 C 
ATOM     42  C   UNL A   1      39.151  27.184  29.336  1.00  0.00     0.029 A 
ATOM     43  N   UNL A   1      41.287  27.511  28.754  1.00  0.00    -0.354 N 
ATOM     44  C   UNL A   1      43.182  31.351  29.291  1.00  0.00     0.074 A 
ATOM     45  C   UNL A   1      42.263  32.306  29.874  1.00  0.00     0.031 C 
ATOM     46  C   UNL A   1      39.627  26.018  28.866  1.00  0.00     0.029 A 
ATOM     47  C   UNL A   1      41.012  26.204  28.435  1.00  0.00     0.049 A 
ATOM     48  H   UNL A   1      42.172  27.922  28.625  1.00  0.00     0.167 HD
ATOM     49  C   UNL A   1      44.477  31.619  29.003  1.00  0.00     0.037 A 
ATOM     50  C   UNL A   1      41.784  25.274  27.841  1.00  0.00     0.037 A 
ATOM     51  C   UNL A   1      45.391  30.674  28.420  1.00  0.00     0.049 A 
ATOM     52  C   UNL A   1      43.195  25.623  27.446  1.00  0.00     0.074 A 
ATOM     53  C   UNL A   1      46.723  30.851  28.089  1.00  0.00     0.029 A 
ATOM     54  N   UNL A   1      45.063  29.371  28.077  1.00  0.00    -0.354 N 
ATOM     55  N   UNL A   1      43.851  26.743  27.623  1.00  0.00    -0.248 NA
ATOM     56  C   UNL A   1      43.972  24.576  26.764  1.00  0.00     0.031 C 
ATOM     57  C   UNL A   1      47.190  29.667  27.509  1.00  0.00     0.029 A 
ATOM     58  C   UNL A   1      46.162  28.740  27.519  1.00  0.00     0.049 A 
ATOM     59  H   UNL A   1      44.180  28.957  28.210  1.00  0.00     0.167 HD
ATOM     60  C   UNL A   1      45.123  26.527  27.106  1.00  0.00     0.074 A 
ATOM     61  C   UNL A   1      45.149  25.167  26.612  1.00  0.00     0.031 C 
ATOM     62  C   UNL A   1      46.175  27.380  27.047  1.00  0.00     0.037 A 
BRANCH  49  63
ATOM     63  C   UNL A   1      44.977  33.001  29.298  1.00  0.00     0.057 A 
ATOM     64  C   UNL A   1      45.665  33.299  30.481  1.00  0.00     0.134 A 
ATOM     65  C   UNL A   1      44.793  34.039  28.376  1.00  0.00     0.134 A 
ATOM     66  F   UNL A   1      45.860  32.353  31.412  1.00  0.00    -0.206 F 
ATOM     67  C   UNL A   1      46.137  34.587  30.746  1.00  0.00     0.040 A 
ATOM     68  C   UNL A   1      45.280  35.325  28.619  1.00  0.00     0.040 A 
ATOM     69  F   UNL A   1      44.146  33.819  27.223  1.00  0.00    -0.206 F 
ATOM     70  C   UNL A   1      45.949  35.602  29.809  1.00  0.00     0.006 A 
ENDBRANCH  49  63
BRANCH  50  71
ATOM     71  C   UNL A   1      41.238  23.923  27.557  1.00  0.00     0.057 A 
ATOM     72  C   UNL A   1      41.647  22.806  28.293  1.00  0.00     0.134 A 
ATOM     73  C   UNL A   1      40.318  23.713  26.522  1.00  0.00     0.134 A 
ATOM     74  F   UNL A   1      42.547  22.940  29.279  1.00  0.00    -0.206 F 
ATOM     75  C   UNL A   1      41.175  21.525  28.001  1.00  0.00     0.040 A 
ATOM     76  C   UNL A   1      39.820  22.443  26.234  1.00  0.00     0.040 A 
ATOM     77  F   UNL A   1      39.889  24.743  25.779  1.00  0.00    -0.206 F 
ATOM     78  C   UNL A   1      40.255  21.341  26.970  1.00  0.00     0.006 A 
ENDBRANCH  50  71
BRANCH  62  79
ATOM     79  C   UNL A   1      47.456  26.856  26.469  1.00  0.00     0.057 A 
ATOM     80  C   UNL A   1      47.758  26.982  25.107  1.00  0.00     0.134 A 
ATOM     81  C   UNL A   1      48.422  26.266  27.295  1.00  0.00     0.134 A 
ATOM     82  F   UNL A   1      46.871  27.526  24.261  1.00  0.00    -0.206 F 
ATOM     83  C   UNL A   1      48.970  26.524  24.585  1.00  0.00     0.040 A 
ATOM     84  C   UNL A   1      49.645  25.826  26.789  1.00  0.00     0.040 A 
ATOM     85  F   UNL A   1      48.197  26.124  28.610  1.00  0.00    -0.206 F 
ATOM     86  C   UNL A   1      49.921  25.952  25.429  1.00  0.00     0.006 A 
ENDBRANCH  62  79
ENDBRANCH  36  37
ENDBRANCH  29  31
ENDBRANCH  28  29
ENDBRANCH  27  28
ENDBRANCH  26  27
ENDBRANCH   1  26
TORSDOF 16
ENDMDL
