MODEL 1
REMARK VINA RESULT:     -10.7      0.000      0.000
REMARK SMILES CC[C@@H](C)N(C)c1ccc(/C=C/C(=O)OCCOCCOC(=O)c2ccc(-c3c4nc(c(-c5c(F)cccc5F)c5ccc([nH]5)c(-c5c(F)cccc5F)c5nc(c(-c6c(F)cccc6F)c6ccc3[nH]6)C=C5)C=C4)cc2)cc1F
REMARK SMILES IDX 17 1 16 2 15 3 13 4 14 5 12 6 11 7 10 8 7 9 8 10 79 11 9 12
REMARK SMILES IDX 78 13 80 14 5 15 6 16 3 17 4 18 2 19 1 20 18 21 19 22 20 23
REMARK SMILES IDX 21 24 22 25 23 26 24 27 25 28 77 29 26 30 76 31 27 32 28 33
REMARK SMILES IDX 29 34 70 35 30 36 75 37 69 38 71 39 31 40 74 41 68 42 67 43
REMARK SMILES IDX 32 45 58 46 41 47 57 48 42 49 45 50 56 51 72 52 43 53 44 54
REMARK SMILES IDX 55 56 73 57 46 58 33 59 34 60 39 61 35 62 36 63 38 64 40 65
REMARK SMILES IDX 37 66 59 67 60 68 65 69 61 70 62 71 64 72 66 73 63 74 47 75
REMARK SMILES IDX 48 76 53 77 49 78 50 79 52 80 54 81 51 82
REMARK H PARENT 71 44 45 55
REMARK Flexibility Score: inf
ROOT
ATOM      1  C   UNL A   1      44.540  19.157  25.464  1.00  0.00     0.202 C 
ENDROOT
BRANCH   1   2
ATOM      2  C   UNL A   1      43.052  18.847  25.641  1.00  0.00     0.261 C 
BRANCH   2   3
ATOM      3  O   UNL A   1      42.258  20.031  25.457  1.00  0.00    -0.460 OA
BRANCH   3   4
ATOM      4  C   UNL A   1      41.630  20.481  26.566  1.00  0.00     0.330 C 
ATOM      5  O   UNL A   1      42.136  20.678  27.662  1.00  0.00    -0.247 OA
BRANCH   4   6
ATOM      6  C   UNL A   1      40.208  20.793  26.321  1.00  0.00     0.094 C 
ATOM      7  C   UNL A   1      39.691  22.000  26.041  1.00  0.00     0.016 C 
BRANCH   7   8
ATOM      8  C   UNL A   1      38.254  22.223  25.796  1.00  0.00    -0.022 A 
ATOM      9  C   UNL A   1      35.426  22.535  25.470  1.00  0.00     0.073 A 
ATOM     10  C   UNL A   1      36.241  23.604  25.865  1.00  0.00     0.029 A 
ATOM     11  C   UNL A   1      36.089  21.339  25.148  1.00  0.00     0.147 A 
ATOM     12  C   UNL A   1      37.629  23.456  26.017  1.00  0.00     0.010 A 
ATOM     13  C   UNL A   1      37.470  21.176  25.313  1.00  0.00     0.049 A 
ATOM     14  F   UNL A   1      35.409  20.299  24.639  1.00  0.00    -0.205 F 
BRANCH   9  15
ATOM     15  N   UNL A   1      34.035  22.663  25.434  1.00  0.00    -0.370 N 
ATOM     16  C   UNL A   1      33.398  22.768  24.123  1.00  0.00     0.144 C 
BRANCH  15  17
ATOM     17  C   UNL A   1      33.321  23.300  26.573  1.00  0.00     0.078 C 
ATOM     18  C   UNL A   1      33.229  22.359  27.780  1.00  0.00     0.031 C 
BRANCH  17  19
ATOM     19  C   UNL A   1      31.955  23.866  26.156  1.00  0.00     0.021 C 
ATOM     20  C   UNL A   1      30.776  23.122  26.771  1.00  0.00     0.006 C 
ENDBRANCH  17  19
ENDBRANCH  15  17
ENDBRANCH   9  15
ENDBRANCH   7   8
ENDBRANCH   4   6
ENDBRANCH   3   4
ENDBRANCH   2   3
ENDBRANCH   1   2
BRANCH   1  21
ATOM     21  O   UNL A   1      44.844  20.162  24.499  1.00  0.00    -0.374 OA
BRANCH  21  22
ATOM     22  C   UNL A   1      45.723  21.210  24.916  1.00  0.00     0.202 C 
BRANCH  22  23
ATOM     23  C   UNL A   1      45.248  22.031  26.120  1.00  0.00     0.261 C 
BRANCH  23  24
ATOM     24  O   UNL A   1      44.963  23.394  25.753  1.00  0.00    -0.460 OA
BRANCH  24  25
ATOM     25  C   UNL A   1      43.693  23.630  25.351  1.00  0.00     0.338 C 
ATOM     26  O   UNL A   1      43.065  23.041  24.482  1.00  0.00    -0.246 OA
BRANCH  25  27
ATOM     27  C   UNL A   1      43.063  24.616  26.249  1.00  0.00     0.060 A 
ATOM     28  C   UNL A   1      43.587  25.915  26.259  1.00  0.00     0.016 A 
ATOM     29  C   UNL A   1      42.017  24.265  27.103  1.00  0.00     0.016 A 
ATOM     30  C   UNL A   1      43.095  26.860  27.156  1.00  0.00     0.010 A 
ATOM     31  C   UNL A   1      41.531  25.212  28.010  1.00  0.00     0.010 A 
ATOM     32  C   UNL A   1      42.087  26.503  28.061  1.00  0.00    -0.014 A 
BRANCH  32  33
ATOM     33  C   UNL A   1      41.703  27.431  29.151  1.00  0.00     0.031 A 
ATOM     34  C   UNL A   1      42.463  27.390  30.445  1.00  0.00     0.074 A 
ATOM     35  C   UNL A   1      40.690  28.299  28.989  1.00  0.00     0.049 A 
ATOM     36  N   UNL A   1      42.246  28.048  31.554  1.00  0.00    -0.248 NA
ATOM     37  C   UNL A   1      43.620  26.481  30.498  1.00  0.00     0.031 C 
ATOM     38  C   UNL A   1      39.908  28.462  27.766  1.00  0.00     0.029 A 
ATOM     39  N   UNL A   1      40.138  29.196  29.868  1.00  0.00    -0.354 N 
ATOM     40  C   UNL A   1      43.228  27.625  32.441  1.00  0.00     0.074 A 
ATOM     41  C   UNL A   1      44.028  26.638  31.748  1.00  0.00     0.031 C 
ATOM     42  C   UNL A   1      38.964  29.396  27.976  1.00  0.00     0.029 A 
ATOM     43  C   UNL A   1      39.054  29.866  29.358  1.00  0.00     0.049 A 
ATOM     44  H   UNL A   1      40.486  29.345  30.777  1.00  0.00     0.167 HD
ATOM     45  C   UNL A   1      43.442  28.028  33.715  1.00  0.00     0.037 A 
ATOM     46  C   UNL A   1      38.212  30.738  29.947  1.00  0.00     0.037 A 
ATOM     47  C   UNL A   1      42.650  29.017  34.394  1.00  0.00     0.049 A 
ATOM     48  C   UNL A   1      38.424  31.119  31.387  1.00  0.00     0.074 A 
ATOM     49  C   UNL A   1      42.816  29.521  35.672  1.00  0.00     0.029 A 
ATOM     50  N   UNL A   1      41.538  29.645  33.856  1.00  0.00    -0.354 N 
ATOM     51  N   UNL A   1      39.366  30.730  32.211  1.00  0.00    -0.248 NA
ATOM     52  C   UNL A   1      37.457  32.054  31.981  1.00  0.00     0.031 C 
ATOM     53  C   UNL A   1      41.773  30.414  35.927  1.00  0.00     0.029 A 
ATOM     54  C   UNL A   1      40.987  30.507  34.788  1.00  0.00     0.049 A 
ATOM     55  H   UNL A   1      41.191  29.499  32.946  1.00  0.00     0.167 HD
ATOM     56  C   UNL A   1      39.119  31.384  33.412  1.00  0.00     0.074 A 
ATOM     57  C   UNL A   1      37.941  32.201  33.208  1.00  0.00     0.031 C 
ATOM     58  C   UNL A   1      39.812  31.316  34.574  1.00  0.00     0.037 A 
BRANCH  45  59
ATOM     59  C   UNL A   1      44.564  27.380  34.470  1.00  0.00     0.057 A 
ATOM     60  C   UNL A   1      45.851  27.934  34.446  1.00  0.00     0.134 A 
ATOM     61  C   UNL A   1      44.388  26.184  35.178  1.00  0.00     0.134 A 
ATOM     62  F   UNL A   1      46.088  29.075  33.782  1.00  0.00    -0.206 F 
ATOM     63  C   UNL A   1      46.923  27.319  35.092  1.00  0.00     0.040 A 
ATOM     64  C   UNL A   1      45.448  25.571  35.849  1.00  0.00     0.040 A 
ATOM     65  F   UNL A   1      43.178  25.609  35.250  1.00  0.00    -0.206 F 
ATOM     66  C   UNL A   1      46.722  26.135  35.800  1.00  0.00     0.006 A 
ENDBRANCH  45  59
BRANCH  46  67
ATOM     67  C   UNL A   1      37.086  31.300  29.162  1.00  0.00     0.057 A 
ATOM     68  C   UNL A   1      37.121  32.614  28.677  1.00  0.00     0.134 A 
ATOM     69  C   UNL A   1      35.929  30.552  28.922  1.00  0.00     0.134 A 
ATOM     70  F   UNL A   1      38.203  33.381  28.877  1.00  0.00    -0.206 F 
ATOM     71  C   UNL A   1      36.034  33.173  28.004  1.00  0.00     0.040 A 
ATOM     72  C   UNL A   1      34.843  31.093  28.233  1.00  0.00     0.040 A 
ATOM     73  F   UNL A   1      35.847  29.283  29.345  1.00  0.00    -0.206 F 
ATOM     74  C   UNL A   1      34.889  32.410  27.780  1.00  0.00     0.006 A 
ENDBRANCH  46  67
BRANCH  58  75
ATOM     75  C   UNL A   1      39.340  32.152  35.726  1.00  0.00     0.057 A 
ATOM     76  C   UNL A   1      38.376  31.659  36.616  1.00  0.00     0.134 A 
ATOM     77  C   UNL A   1      39.752  33.479  35.888  1.00  0.00     0.134 A 
ATOM     78  F   UNL A   1      37.930  30.398  36.506  1.00  0.00    -0.206 F 
ATOM     79  C   UNL A   1      37.821  32.464  37.611  1.00  0.00     0.040 A 
ATOM     80  C   UNL A   1      39.221  34.288  36.895  1.00  0.00     0.040 A 
ATOM     81  F   UNL A   1      40.678  34.008  35.074  1.00  0.00    -0.206 F 
ATOM     82  C   UNL A   1      38.243  33.784  37.751  1.00  0.00     0.006 A 
ENDBRANCH  58  75
ENDBRANCH  32  33
ENDBRANCH  25  27
ENDBRANCH  24  25
ENDBRANCH  23  24
ENDBRANCH  22  23
ENDBRANCH  21  22
ENDBRANCH   1  21
TORSDOF 18
ENDMDL
MODEL 2
REMARK VINA RESULT:     -10.2      5.572     10.802
REMARK SMILES CC[C@@H](C)N(C)c1ccc(/C=C/C(=O)OCCOCCOC(=O)c2ccc(-c3c4nc(c(-c5c(F)cccc5F)c5ccc([nH]5)c(-c5c(F)cccc5F)c5nc(c(-c6c(F)cccc6F)c6ccc3[nH]6)C=C5)C=C4)cc2)cc1F
REMARK SMILES IDX 17 1 16 2 15 3 13 4 14 5 12 6 11 7 10 8 7 9 8 10 79 11 9 12
REMARK SMILES IDX 78 13 80 14 5 15 6 16 3 17 4 18 2 19 1 20 18 21 19 22 20 23
REMARK SMILES IDX 21 24 22 25 23 26 24 27 25 28 77 29 26 30 76 31 27 32 28 33
REMARK SMILES IDX 29 34 70 35 30 36 75 37 69 38 71 39 31 40 74 41 68 42 67 43
REMARK SMILES IDX 32 45 58 46 41 47 57 48 42 49 45 50 56 51 72 52 43 53 44 54
REMARK SMILES IDX 55 56 73 57 46 58 33 59 34 60 39 61 35 62 36 63 38 64 40 65
REMARK SMILES IDX 37 66 59 67 60 68 65 69 61 70 62 71 64 72 66 73 63 74 47 75
REMARK SMILES IDX 48 76 53 77 49 78 50 79 52 80 54 81 51 82
REMARK H PARENT 71 44 45 55
REMARK Flexibility Score: inf
ROOT
ATOM      1  C   UNL A   1      32.895  35.453  30.071  1.00  0.00     0.202 C 
ENDROOT
BRANCH   1   2
ATOM      2  C   UNL A   1      33.381  34.918  28.723  1.00  0.00     0.261 C 
BRANCH   2   3
ATOM      3  O   UNL A   1      33.571  33.494  28.776  1.00  0.00    -0.460 OA
BRANCH   3   4
ATOM      4  C   UNL A   1      34.570  33.017  28.001  1.00  0.00     0.330 C 
ATOM      5  O   UNL A   1      35.572  33.622  27.648  1.00  0.00    -0.247 OA
BRANCH   4   6
ATOM      6  C   UNL A   1      34.373  31.599  27.637  1.00  0.00     0.094 C 
ATOM      7  C   UNL A   1      33.202  30.998  27.369  1.00  0.00     0.016 C 
BRANCH   7   8
ATOM      8  C   UNL A   1      33.094  29.575  27.000  1.00  0.00    -0.022 A 
ATOM      9  C   UNL A   1      32.775  26.865  26.131  1.00  0.00     0.073 A 
ATOM     10  C   UNL A   1      34.027  27.495  26.125  1.00  0.00     0.029 A 
ATOM     11  C   UNL A   1      31.714  27.605  26.680  1.00  0.00     0.147 A 
ATOM     12  C   UNL A   1      34.188  28.820  26.559  1.00  0.00     0.010 A 
ATOM     13  C   UNL A   1      31.861  28.933  27.099  1.00  0.00     0.049 A 
ATOM     14  F   UNL A   1      30.506  27.043  26.845  1.00  0.00    -0.205 F 
BRANCH   9  15
ATOM     15  N   UNL A   1      32.607  25.588  25.590  1.00  0.00    -0.370 N 
ATOM     16  C   UNL A   1      32.200  24.516  26.496  1.00  0.00     0.144 C 
BRANCH  15  17
ATOM     17  C   UNL A   1      33.391  25.183  24.392  1.00  0.00     0.078 C 
ATOM     18  C   UNL A   1      32.820  25.798  23.109  1.00  0.00     0.031 C 
BRANCH  17  19
ATOM     19  C   UNL A   1      33.556  23.659  24.297  1.00  0.00     0.021 C 
ATOM     20  C   UNL A   1      34.496  23.218  23.182  1.00  0.00     0.006 C 
ENDBRANCH  17  19
ENDBRANCH  15  17
ENDBRANCH   9  15
ENDBRANCH   7   8
ENDBRANCH   4   6
ENDBRANCH   3   4
ENDBRANCH   2   3
ENDBRANCH   1   2
BRANCH   1  21
ATOM     21  O   UNL A   1      33.407  34.775  31.218  1.00  0.00    -0.374 OA
BRANCH  21  22
ATOM     22  C   UNL A   1      34.203  35.548  32.119  1.00  0.00     0.202 C 
BRANCH  22  23
ATOM     23  C   UNL A   1      35.579  34.960  32.456  1.00  0.00     0.261 C 
BRANCH  23  24
ATOM     24  O   UNL A   1      35.890  33.828  31.622  1.00  0.00    -0.460 OA
BRANCH  24  25
ATOM     25  C   UNL A   1      36.054  32.656  32.278  1.00  0.00     0.338 C 
ATOM     26  O   UNL A   1      35.377  32.216  33.197  1.00  0.00    -0.246 OA
BRANCH  25  27
ATOM     27  C   UNL A   1      37.092  31.853  31.605  1.00  0.00     0.060 A 
ATOM     28  C   UNL A   1      38.075  31.257  32.406  1.00  0.00     0.016 A 
ATOM     29  C   UNL A   1      37.135  31.727  30.216  1.00  0.00     0.016 A 
ATOM     30  C   UNL A   1      39.133  30.568  31.817  1.00  0.00     0.010 A 
ATOM     31  C   UNL A   1      38.202  31.043  29.626  1.00  0.00     0.010 A 
ATOM     32  C   UNL A   1      39.220  30.487  30.421  1.00  0.00    -0.014 A 
BRANCH  32  33
ATOM     33  C   UNL A   1      40.441  29.940  29.783  1.00  0.00     0.031 A 
ATOM     34  C   UNL A   1      41.611  30.850  29.547  1.00  0.00     0.074 A 
ATOM     35  C   UNL A   1      40.504  28.648  29.418  1.00  0.00     0.049 A 
ATOM     36  N   UNL A   1      42.740  30.605  28.933  1.00  0.00    -0.248 NA
ATOM     37  C   UNL A   1      41.492  32.221  30.070  1.00  0.00     0.031 C 
ATOM     38  C   UNL A   1      39.451  27.658  29.634  1.00  0.00     0.029 A 
ATOM     39  N   UNL A   1      41.497  27.953  28.773  1.00  0.00    -0.354 N 
ATOM     40  C   UNL A   1      43.459  31.792  28.983  1.00  0.00     0.074 A 
ATOM     41  C   UNL A   1      42.632  32.762  29.667  1.00  0.00     0.031 C 
ATOM     42  C   UNL A   1      39.848  26.483  29.117  1.00  0.00     0.029 A 
ATOM     43  C   UNL A   1      41.165  26.649  28.503  1.00  0.00     0.049 A 
ATOM     44  H   UNL A   1      42.363  28.352  28.529  1.00  0.00     0.167 HD
ATOM     45  C   UNL A   1      44.698  32.047  28.503  1.00  0.00     0.037 A 
ATOM     46  C   UNL A   1      41.835  25.704  27.814  1.00  0.00     0.037 A 
ATOM     47  C   UNL A   1      45.521  31.075  27.832  1.00  0.00     0.049 A 
ATOM     48  C   UNL A   1      43.181  26.028  27.224  1.00  0.00     0.074 A 
ATOM     49  C   UNL A   1      46.808  31.228  27.348  1.00  0.00     0.029 A 
ATOM     50  N   UNL A   1      45.134  29.777  27.544  1.00  0.00    -0.354 N 
ATOM     51  N   UNL A   1      43.862  27.146  27.293  1.00  0.00    -0.248 NA
ATOM     52  C   UNL A   1      43.851  24.965  26.461  1.00  0.00     0.031 C 
ATOM     53  C   UNL A   1      47.180  30.038  26.718  1.00  0.00     0.029 A 
ATOM     54  C   UNL A   1      46.145  29.126  26.858  1.00  0.00     0.049 A 
ATOM     55  H   UNL A   1      44.269  29.376  27.791  1.00  0.00     0.167 HD
ATOM     56  C   UNL A   1      45.045  26.917  26.601  1.00  0.00     0.074 A 
ATOM     57  C   UNL A   1      44.993  25.551  26.123  1.00  0.00     0.031 C 
ATOM     58  C   UNL A   1      46.081  27.764  26.387  1.00  0.00     0.037 A 
BRANCH  45  59
ATOM     59  C   UNL A   1      45.234  33.438  28.661  1.00  0.00     0.057 A 
ATOM     60  C   UNL A   1      45.960  33.794  29.805  1.00  0.00     0.134 A 
ATOM     61  C   UNL A   1      44.992  34.438  27.711  1.00  0.00     0.134 A 
ATOM     62  F   UNL A   1      46.222  32.885  30.755  1.00  0.00    -0.206 F 
ATOM     63  C   UNL A   1      46.418  35.097  30.003  1.00  0.00     0.040 A 
ATOM     64  C   UNL A   1      45.466  35.740  27.885  1.00  0.00     0.040 A 
ATOM     65  F   UNL A   1      44.314  34.159  26.587  1.00  0.00    -0.206 F 
ATOM     66  C   UNL A   1      46.175  36.074  29.038  1.00  0.00     0.006 A 
ENDBRANCH  45  59
BRANCH  46  67
ATOM     67  C   UNL A   1      41.225  24.363  27.642  1.00  0.00     0.057 A 
ATOM     68  C   UNL A   1      41.674  23.259  28.378  1.00  0.00     0.134 A 
ATOM     69  C   UNL A   1      40.211  24.146  26.704  1.00  0.00     0.134 A 
ATOM     70  F   UNL A   1      42.645  23.405  29.292  1.00  0.00    -0.206 F 
ATOM     71  C   UNL A   1      41.156  21.981  28.167  1.00  0.00     0.040 A 
ATOM     72  C   UNL A   1      39.671  22.876  26.496  1.00  0.00     0.040 A 
ATOM     73  F   UNL A   1      39.727  25.169  25.985  1.00  0.00    -0.206 F 
ATOM     74  C   UNL A   1      40.151  21.787  27.222  1.00  0.00     0.006 A 
ENDBRANCH  46  67
BRANCH  58  75
ATOM     75  C   UNL A   1      47.262  27.252  25.617  1.00  0.00     0.057 A 
ATOM     76  C   UNL A   1      48.327  26.627  26.281  1.00  0.00     0.134 A 
ATOM     77  C   UNL A   1      47.397  27.476  24.243  1.00  0.00     0.134 A 
ATOM     78  F   UNL A   1      48.264  26.394  27.601  1.00  0.00    -0.206 F 
ATOM     79  C   UNL A   1      49.495  26.265  25.608  1.00  0.00     0.040 A 
ATOM     80  C   UNL A   1      48.551  27.098  23.554  1.00  0.00     0.040 A 
ATOM     81  F   UNL A   1      46.410  28.062  23.549  1.00  0.00    -0.206 F 
ATOM     82  C   UNL A   1      49.609  26.502  24.239  1.00  0.00     0.006 A 
ENDBRANCH  58  75
ENDBRANCH  32  33
ENDBRANCH  25  27
ENDBRANCH  24  25
ENDBRANCH  23  24
ENDBRANCH  22  23
ENDBRANCH  21  22
ENDBRANCH   1  21
TORSDOF 18
ENDMDL
MODEL 3
REMARK VINA RESULT:      -9.9      2.006      3.025
REMARK SMILES CC[C@@H](C)N(C)c1ccc(/C=C/C(=O)OCCOCCOC(=O)c2ccc(-c3c4nc(c(-c5c(F)cccc5F)c5ccc([nH]5)c(-c5c(F)cccc5F)c5nc(c(-c6c(F)cccc6F)c6ccc3[nH]6)C=C5)C=C4)cc2)cc1F
REMARK SMILES IDX 17 1 16 2 15 3 13 4 14 5 12 6 11 7 10 8 7 9 8 10 79 11 9 12
REMARK SMILES IDX 78 13 80 14 5 15 6 16 3 17 4 18 2 19 1 20 18 21 19 22 20 23
REMARK SMILES IDX 21 24 22 25 23 26 24 27 25 28 77 29 26 30 76 31 27 32 28 33
REMARK SMILES IDX 29 34 70 35 30 36 75 37 69 38 71 39 31 40 74 41 68 42 67 43
REMARK SMILES IDX 32 45 58 46 41 47 57 48 42 49 45 50 56 51 72 52 43 53 44 54
REMARK SMILES IDX 55 56 73 57 46 58 33 59 34 60 39 61 35 62 36 63 38 64 40 65
REMARK SMILES IDX 37 66 59 67 60 68 65 69 61 70 62 71 64 72 66 73 63 74 47 75
REMARK SMILES IDX 48 76 53 77 49 78 50 79 52 80 54 81 51 82
REMARK H PARENT 71 44 45 55
REMARK Flexibility Score: inf
ROOT
ATOM      1  C   UNL A   1      40.409  20.477  26.441  1.00  0.00     0.202 C 
ENDROOT
BRANCH   1   2
ATOM      2  C   UNL A   1      39.242  21.467  26.421  1.00  0.00     0.261 C 
BRANCH   2   3
ATOM      3  O   UNL A   1      38.678  21.565  25.102  1.00  0.00    -0.460 OA
BRANCH   3   4
ATOM      4  C   UNL A   1      37.338  21.396  25.035  1.00  0.00     0.330 C 
ATOM      5  O   UNL A   1      36.725  20.352  25.201  1.00  0.00    -0.247 OA
BRANCH   4   6
ATOM      6  C   UNL A   1      36.622  22.664  24.788  1.00  0.00     0.094 C 
ATOM      7  C   UNL A   1      35.307  22.807  24.558  1.00  0.00     0.016 C 
BRANCH   7   8
ATOM      8  C   UNL A   1      34.667  24.117  24.331  1.00  0.00    -0.022 A 
ATOM      9  C   UNL A   1      33.256  26.564  23.867  1.00  0.00     0.073 A 
ATOM     10  C   UNL A   1      33.830  26.274  25.111  1.00  0.00     0.029 A 
ATOM     11  C   UNL A   1      33.500  25.634  22.842  1.00  0.00     0.147 A 
ATOM     12  C   UNL A   1      34.531  25.079  25.339  1.00  0.00     0.010 A 
ATOM     13  C   UNL A   1      34.182  24.432  23.063  1.00  0.00     0.049 A 
ATOM     14  F   UNL A   1      33.099  25.886  21.585  1.00  0.00    -0.205 F 
BRANCH   9  15
ATOM     15  N   UNL A   1      32.464  27.701  23.685  1.00  0.00    -0.370 N 
ATOM     16  C   UNL A   1      33.142  28.953  23.357  1.00  0.00     0.144 C 
BRANCH  15  17
ATOM     17  C   UNL A   1      31.160  27.816  24.394  1.00  0.00     0.078 C 
ATOM     18  C   UNL A   1      30.456  26.459  24.503  1.00  0.00     0.031 C 
BRANCH  17  19
ATOM     19  C   UNL A   1      30.264  28.903  23.782  1.00  0.00     0.021 C 
ATOM     20  C   UNL A   1      29.003  28.353  23.127  1.00  0.00     0.006 C 
ENDBRANCH  17  19
ENDBRANCH  15  17
ENDBRANCH   9  15
ENDBRANCH   7   8
ENDBRANCH   4   6
ENDBRANCH   3   4
ENDBRANCH   2   3
ENDBRANCH   1   2
BRANCH   1  21
ATOM     21  O   UNL A   1      41.321  20.630  27.527  1.00  0.00    -0.374 OA
BRANCH  21  22
ATOM     22  C   UNL A   1      42.565  21.272  27.237  1.00  0.00     0.202 C 
BRANCH  22  23
ATOM     23  C   UNL A   1      42.899  21.422  25.748  1.00  0.00     0.261 C 
BRANCH  23  24
ATOM     24  O   UNL A   1      42.380  22.653  25.210  1.00  0.00    -0.460 OA
BRANCH  24  25
ATOM     25  C   UNL A   1      43.219  23.712  25.278  1.00  0.00     0.338 C 
ATOM     26  O   UNL A   1      44.225  23.909  24.611  1.00  0.00    -0.246 OA
BRANCH  25  27
ATOM     27  C   UNL A   1      42.654  24.736  26.177  1.00  0.00     0.060 A 
ATOM     28  C   UNL A   1      43.372  25.928  26.339  1.00  0.00     0.016 A 
ATOM     29  C   UNL A   1      41.474  24.515  26.889  1.00  0.00     0.016 A 
ATOM     30  C   UNL A   1      42.934  26.889  27.248  1.00  0.00     0.010 A 
ATOM     31  C   UNL A   1      41.042  25.476  27.808  1.00  0.00     0.010 A 
ATOM     32  C   UNL A   1      41.785  26.652  28.013  1.00  0.00    -0.014 A 
BRANCH  32  33
ATOM     33  C   UNL A   1      41.429  27.568  29.122  1.00  0.00     0.031 A 
ATOM     34  C   UNL A   1      42.207  27.496  30.405  1.00  0.00     0.074 A 
ATOM     35  C   UNL A   1      40.425  28.451  28.989  1.00  0.00     0.049 A 
ATOM     36  N   UNL A   1      42.015  28.140  31.527  1.00  0.00    -0.248 NA
ATOM     37  C   UNL A   1      43.352  26.572  30.426  1.00  0.00     0.031 C 
ATOM     38  C   UNL A   1      39.627  28.644  27.780  1.00  0.00     0.029 A 
ATOM     39  N   UNL A   1      39.897  29.341  29.891  1.00  0.00    -0.354 N 
ATOM     40  C   UNL A   1      43.004  27.690  32.392  1.00  0.00     0.074 A 
ATOM     41  C   UNL A   1      43.781  26.704  31.673  1.00  0.00     0.031 C 
ATOM     42  C   UNL A   1      38.699  29.586  28.019  1.00  0.00     0.029 A 
ATOM     43  C   UNL A   1      38.815  30.033  29.407  1.00  0.00     0.049 A 
ATOM     44  H   UNL A   1      40.260  29.471  30.796  1.00  0.00     0.167 HD
ATOM     45  C   UNL A   1      43.242  28.069  33.669  1.00  0.00     0.037 A 
ATOM     46  C   UNL A   1      37.994  30.907  30.022  1.00  0.00     0.037 A 
ATOM     47  C   UNL A   1      42.472  29.058  34.376  1.00  0.00     0.049 A 
ATOM     48  C   UNL A   1      38.231  31.261  31.464  1.00  0.00     0.074 A 
ATOM     49  C   UNL A   1      42.664  29.539  35.659  1.00  0.00     0.029 A 
ATOM     50  N   UNL A   1      41.361  29.708  33.864  1.00  0.00    -0.354 N 
ATOM     51  N   UNL A   1      39.180  30.847  32.268  1.00  0.00    -0.248 NA
ATOM     52  C   UNL A   1      37.286  32.200  32.088  1.00  0.00     0.031 C 
ATOM     53  C   UNL A   1      41.636  30.441  35.944  1.00  0.00     0.029 A 
ATOM     54  C   UNL A   1      40.835  30.562  34.818  1.00  0.00     0.049 A 
ATOM     55  H   UNL A   1      40.999  29.581  32.957  1.00  0.00     0.167 HD
ATOM     56  C   UNL A   1      38.959  31.485  33.483  1.00  0.00     0.074 A 
ATOM     57  C   UNL A   1      37.788  32.320  33.310  1.00  0.00     0.031 C 
ATOM     58  C   UNL A   1      39.668  31.389  34.634  1.00  0.00     0.037 A 
BRANCH  45  59
ATOM     59  C   UNL A   1      44.366  27.394  34.397  1.00  0.00     0.057 A 
ATOM     60  C   UNL A   1      44.152  26.183  35.069  1.00  0.00     0.134 A 
ATOM     61  C   UNL A   1      45.643  27.962  34.477  1.00  0.00     0.134 A 
ATOM     62  F   UNL A   1      42.950  25.589  35.036  1.00  0.00    -0.206 F 
ATOM     63  C   UNL A   1      45.166  25.567  35.802  1.00  0.00     0.040 A 
ATOM     64  C   UNL A   1      46.673  27.342  35.188  1.00  0.00     0.040 A 
ATOM     65  F   UNL A   1      45.917  29.113  33.846  1.00  0.00    -0.206 F 
ATOM     66  C   UNL A   1      46.433  26.145  35.860  1.00  0.00     0.006 A 
ENDBRANCH  45  59
BRANCH  46  67
ATOM     67  C   UNL A   1      36.864  31.496  29.263  1.00  0.00     0.057 A 
ATOM     68  C   UNL A   1      35.703  30.758  28.994  1.00  0.00     0.134 A 
ATOM     69  C   UNL A   1      36.938  32.794  28.749  1.00  0.00     0.134 A 
ATOM     70  F   UNL A   1      35.575  29.506  29.459  1.00  0.00    -0.206 F 
ATOM     71  C   UNL A   1      34.669  31.280  28.217  1.00  0.00     0.040 A 
ATOM     72  C   UNL A   1      35.902  33.336  27.987  1.00  0.00     0.040 A 
ATOM     73  F   UNL A   1      38.015  33.555  28.991  1.00  0.00    -0.206 F 
ATOM     74  C   UNL A   1      34.768  32.575  27.710  1.00  0.00     0.006 A 
ENDBRANCH  46  67
BRANCH  58  75
ATOM     75  C   UNL A   1      39.223  32.213  35.806  1.00  0.00     0.057 A 
ATOM     76  C   UNL A   1      38.255  31.724  36.693  1.00  0.00     0.134 A 
ATOM     77  C   UNL A   1      39.667  33.527  35.990  1.00  0.00     0.134 A 
ATOM     78  F   UNL A   1      37.780  30.476  36.562  1.00  0.00    -0.206 F 
ATOM     79  C   UNL A   1      37.726  32.522  37.708  1.00  0.00     0.040 A 
ATOM     80  C   UNL A   1      39.162  34.327  37.017  1.00  0.00     0.040 A 
ATOM     81  F   UNL A   1      40.598  34.051  35.180  1.00  0.00    -0.206 F 
ATOM     82  C   UNL A   1      38.179  33.829  37.871  1.00  0.00     0.006 A 
ENDBRANCH  58  75
ENDBRANCH  32  33
ENDBRANCH  25  27
ENDBRANCH  24  25
ENDBRANCH  23  24
ENDBRANCH  22  23
ENDBRANCH  21  22
ENDBRANCH   1  21
TORSDOF 18
ENDMDL
