MODEL 1
REMARK VINA RESULT:     -12.5      0.000      0.000
REMARK SMILES O=C(OCCOCCOC(=O)c1ccccc1NC(=O)c1cc2cc(Cl)cc(Cl)c2oc1=O)c1ccc(-c2c3nc(c(-c4c(F)cccc4F)c4ccc([nH]4)c(-c4c(F)cccc4F)c4nc(c(-c5c(F)cccc5F)c5ccc2[nH]5)C=C4)C=C3)cc1
REMARK SMILES IDX 6 1 5 2 4 3 3 4 2 5 1 6 34 7 35 8 87 9 36 10 86 11 37 12
REMARK SMILES IDX 38 13 39 14 80 15 40 16 85 17 79 18 81 19 41 20 84 21 78 22
REMARK SMILES IDX 77 23 42 25 68 26 51 27 67 28 52 29 55 30 66 31 82 32 53 33
REMARK SMILES IDX 54 34 65 36 83 37 56 38 43 39 44 40 49 41 45 42 46 43 48 44
REMARK SMILES IDX 50 45 47 46 69 47 70 48 75 49 71 50 72 51 74 52 76 53 73 54
REMARK SMILES IDX 57 55 58 56 63 57 59 58 60 59 62 60 64 61 61 62 7 63 8 64
REMARK SMILES IDX 9 65 10 66 11 67 12 68 13 69 17 70 14 71 16 72 15 73 18 74
REMARK SMILES IDX 19 75 20 77 21 78 22 79 32 80 23 81 31 82 33 83 24 84 30 85
REMARK SMILES IDX 25 86 28 87 26 88 27 89 29 90
REMARK H PARENT 81 24 55 35 18 76
REMARK Flexibility Score: inf
ROOT
ATOM      1  O   UNL A   1      39.915  20.797  25.905  1.00  0.00    -0.374 OA
ENDROOT
BRANCH   1   2
ATOM      2  C   UNL A   1      40.917  20.910  26.914  1.00  0.00     0.202 C 
BRANCH   2   3
ATOM      3  C   UNL A   1      42.325  21.186  26.380  1.00  0.00     0.261 C 
BRANCH   3   4
ATOM      4  O   UNL A   1      42.288  22.207  25.370  1.00  0.00    -0.460 OA
BRANCH   4   5
ATOM      5  C   UNL A   1      42.839  23.441  25.422  1.00  0.00     0.338 C 
ATOM      6  O   UNL A   1      43.768  23.709  24.663  1.00  0.00    -0.246 OA
BRANCH   5   7
ATOM      7  C   UNL A   1      42.399  24.497  26.381  1.00  0.00     0.060 A 
ATOM      8  C   UNL A   1      41.415  24.314  27.354  1.00  0.00     0.016 A 
ATOM      9  C   UNL A   1      43.113  25.706  26.387  1.00  0.00     0.016 A 
ATOM     10  C   UNL A   1      41.134  25.277  28.302  1.00  0.00     0.010 A 
ATOM     11  C   UNL A   1      42.863  26.676  27.363  1.00  0.00     0.010 A 
ATOM     12  C   UNL A   1      41.881  26.444  28.332  1.00  0.00    -0.014 A 
BRANCH  12  13
ATOM     13  C   UNL A   1      41.563  27.408  29.391  1.00  0.00     0.031 A 
ATOM     14  C   UNL A   1      42.419  27.427  30.611  1.00  0.00     0.074 A 
ATOM     15  C   UNL A   1      40.606  28.326  29.163  1.00  0.00     0.049 A 
ATOM     16  N   UNL A   1      42.280  28.128  31.699  1.00  0.00    -0.248 NA
ATOM     17  C   UNL A   1      43.603  26.549  30.597  1.00  0.00     0.031 C 
ATOM     18  C   UNL A   1      39.839  28.456  27.918  1.00  0.00     0.029 A 
ATOM     19  N   UNL A   1      40.129  29.336  29.951  1.00  0.00    -0.354 N 
ATOM     20  C   UNL A   1      43.331  27.747  32.520  1.00  0.00     0.074 A 
ATOM     21  C   UNL A   1      44.114  26.769  31.799  1.00  0.00     0.031 C 
ATOM     22  C   UNL A   1      38.987  29.487  28.031  1.00  0.00     0.029 A 
ATOM     23  C   UNL A   1      39.090  30.029  29.378  1.00  0.00     0.049 A 
ATOM     24  H   UNL A   1      40.495  29.547  30.840  1.00  0.00     0.167 HD
ATOM     25  C   UNL A   1      43.585  28.171  33.775  1.00  0.00     0.037 A 
ATOM     26  C   UNL A   1      38.276  30.953  29.922  1.00  0.00     0.037 A 
ATOM     27  C   UNL A   1      42.778  29.155  34.443  1.00  0.00     0.049 A 
ATOM     28  C   UNL A   1      38.519  31.322  31.361  1.00  0.00     0.074 A 
ATOM     29  C   UNL A   1      42.906  29.651  35.726  1.00  0.00     0.029 A 
ATOM     30  N   UNL A   1      41.682  29.786  33.868  1.00  0.00    -0.354 N 
ATOM     31  N   UNL A   1      39.482  30.927  32.162  1.00  0.00    -0.248 NA
ATOM     32  C   UNL A   1      37.554  32.234  31.983  1.00  0.00     0.031 C 
ATOM     33  C   UNL A   1      41.848  30.538  35.948  1.00  0.00     0.029 A 
ATOM     34  C   UNL A   1      41.095  30.638  34.786  1.00  0.00     0.049 A 
ATOM     35  H   UNL A   1      41.369  29.648  32.946  1.00  0.00     0.167 HD
ATOM     36  C   UNL A   1      39.245  31.549  33.379  1.00  0.00     0.074 A 
ATOM     37  C   UNL A   1      38.065  32.372  33.198  1.00  0.00     0.031 C 
ATOM     38  C   UNL A   1      39.924  31.443  34.547  1.00  0.00     0.037 A 
BRANCH  25  39
ATOM     39  C   UNL A   1      44.703  27.510  34.518  1.00  0.00     0.057 A 
ATOM     40  C   UNL A   1      44.529  26.329  35.250  1.00  0.00     0.134 A 
ATOM     41  C   UNL A   1      45.984  28.076  34.496  1.00  0.00     0.134 A 
ATOM     42  F   UNL A   1      43.321  25.755  35.338  1.00  0.00    -0.206 F 
ATOM     43  C   UNL A   1      45.591  25.739  35.940  1.00  0.00     0.040 A 
ATOM     44  C   UNL A   1      47.057  27.485  35.163  1.00  0.00     0.040 A 
ATOM     45  F   UNL A   1      46.213  29.216  33.826  1.00  0.00    -0.206 F 
ATOM     46  C   UNL A   1      46.861  26.313  35.890  1.00  0.00     0.006 A 
ENDBRANCH  25  39
BRANCH  26  47
ATOM     47  C   UNL A   1      37.115  31.494  29.167  1.00  0.00     0.057 A 
ATOM     48  C   UNL A   1      37.119  32.791  28.641  1.00  0.00     0.134 A 
ATOM     49  C   UNL A   1      35.939  30.746  29.005  1.00  0.00     0.134 A 
ATOM     50  F   UNL A   1      38.202  33.571  28.776  1.00  0.00    -0.206 F 
ATOM     51  C   UNL A   1      35.993  33.335  28.017  1.00  0.00     0.040 A 
ATOM     52  C   UNL A   1      34.819  31.263  28.352  1.00  0.00     0.040 A 
ATOM     53  F   UNL A   1      35.859  29.495  29.482  1.00  0.00    -0.206 F 
ATOM     54  C   UNL A   1      34.839  32.568  27.870  1.00  0.00     0.006 A 
ENDBRANCH  26  47
BRANCH  38  55
ATOM     55  C   UNL A   1      39.409  32.250  35.699  1.00  0.00     0.057 A 
ATOM     56  C   UNL A   1      39.829  33.566  35.916  1.00  0.00     0.134 A 
ATOM     57  C   UNL A   1      38.435  31.722  36.556  1.00  0.00     0.134 A 
ATOM     58  F   UNL A   1      40.771  34.118  35.137  1.00  0.00    -0.206 F 
ATOM     59  C   UNL A   1      39.307  34.329  36.959  1.00  0.00     0.040 A 
ATOM     60  C   UNL A   1      37.882  32.487  37.581  1.00  0.00     0.040 A 
ATOM     61  F   UNL A   1      37.985  30.468  36.389  1.00  0.00    -0.206 F 
ATOM     62  C   UNL A   1      38.322  33.793  37.787  1.00  0.00     0.006 A 
ENDBRANCH  38  55
ENDBRANCH  12  13
ENDBRANCH   5   7
ENDBRANCH   4   5
ENDBRANCH   3   4
ENDBRANCH   2   3
ENDBRANCH   1   2
BRANCH   1  63
ATOM     63  C   UNL A   1      38.916  21.821  25.863  1.00  0.00     0.202 C 
BRANCH  63  64
ATOM     64  C   UNL A   1      37.717  21.280  25.079  1.00  0.00     0.261 C 
BRANCH  64  65
ATOM     65  O   UNL A   1      36.889  22.406  24.751  1.00  0.00    -0.460 OA
BRANCH  65  66
ATOM     66  C   UNL A   1      35.764  22.531  25.505  1.00  0.00     0.340 C 
ATOM     67  O   UNL A   1      35.663  23.181  26.534  1.00  0.00    -0.246 OA
BRANCH  66  68
ATOM     68  C   UNL A   1      34.605  21.911  24.799  1.00  0.00     0.083 A 
ATOM     69  C   UNL A   1      34.323  20.576  25.140  1.00  0.00     0.018 A 
ATOM     70  C   UNL A   1      33.788  22.580  23.861  1.00  0.00     0.056 A 
ATOM     71  C   UNL A   1      33.270  19.895  24.533  1.00  0.00     0.001 A 
ATOM     72  C   UNL A   1      32.772  21.862  23.217  1.00  0.00     0.027 A 
ATOM     73  C   UNL A   1      32.518  20.529  23.551  1.00  0.00     0.002 A 
BRANCH  70  74
ATOM     74  N   UNL A   1      33.895  23.979  23.700  1.00  0.00    -0.321 N 
ATOM     75  C   UNL A   1      33.600  25.019  24.530  1.00  0.00     0.263 C 
ATOM     76  H   UNL A   1      34.250  24.255  22.824  1.00  0.00     0.170 HD
ATOM     77  O   UNL A   1      34.178  26.095  24.388  1.00  0.00    -0.269 OA
BRANCH  75  78
ATOM     78  C   UNL A   1      32.441  24.846  25.465  1.00  0.00     0.126 A 
ATOM     79  C   UNL A   1      32.231  25.797  26.403  1.00  0.00     0.033 A 
ATOM     80  C   UNL A   1      31.163  24.622  24.728  1.00  0.00     0.349 A 
ATOM     81  C   UNL A   1      31.768  27.078  25.824  1.00  0.00     0.021 A 
ATOM     82  O   UNL A   1      30.704  25.767  24.073  1.00  0.00    -0.421 OA
ATOM     83  O   UNL A   1      30.607  23.535  24.667  1.00  0.00    -0.245 OA
ATOM     84  C   UNL A   1      32.007  28.304  26.437  1.00  0.00     0.032 A 
ATOM     85  C   UNL A   1      31.078  27.030  24.601  1.00  0.00     0.157 A 
ATOM     86  C   UNL A   1      31.596  29.473  25.795  1.00  0.00     0.043 A 
ATOM     87  C   UNL A   1      30.712  28.200  23.941  1.00  0.00     0.085 A 
ATOM     88  Cl  UNL A   1      31.856  30.993  26.560  1.00  0.00    -0.084 Cl
ATOM     89  C   UNL A   1      30.975  29.430  24.542  1.00  0.00     0.045 A 
ATOM     90  Cl  UNL A   1      29.952  28.163  22.397  1.00  0.00    -0.080 Cl
ENDBRANCH  75  78
ENDBRANCH  70  74
ENDBRANCH  66  68
ENDBRANCH  65  66
ENDBRANCH  64  65
ENDBRANCH  63  64
ENDBRANCH   1  63
TORSDOF 16
ENDMDL
MODEL 2
REMARK VINA RESULT:     -12.3      3.065      8.429
REMARK SMILES O=C(OCCOCCOC(=O)c1ccccc1NC(=O)c1cc2cc(Cl)cc(Cl)c2oc1=O)c1ccc(-c2c3nc(c(-c4c(F)cccc4F)c4ccc([nH]4)c(-c4c(F)cccc4F)c4nc(c(-c5c(F)cccc5F)c5ccc2[nH]5)C=C4)C=C3)cc1
REMARK SMILES IDX 6 1 5 2 4 3 3 4 2 5 1 6 34 7 35 8 87 9 36 10 86 11 37 12
REMARK SMILES IDX 38 13 39 14 80 15 40 16 85 17 79 18 81 19 41 20 84 21 78 22
REMARK SMILES IDX 77 23 42 25 68 26 51 27 67 28 52 29 55 30 66 31 82 32 53 33
REMARK SMILES IDX 54 34 65 36 83 37 56 38 43 39 44 40 49 41 45 42 46 43 48 44
REMARK SMILES IDX 50 45 47 46 69 47 70 48 75 49 71 50 72 51 74 52 76 53 73 54
REMARK SMILES IDX 57 55 58 56 63 57 59 58 60 59 62 60 64 61 61 62 7 63 8 64
REMARK SMILES IDX 9 65 10 66 11 67 12 68 13 69 17 70 14 71 16 72 15 73 18 74
REMARK SMILES IDX 19 75 20 77 21 78 22 79 32 80 23 81 31 82 33 83 24 84 30 85
REMARK SMILES IDX 25 86 28 87 26 88 27 89 29 90
REMARK H PARENT 81 24 55 35 18 76
REMARK Flexibility Score: inf
ROOT
ATOM      1  O   UNL A   1      31.561  30.859  26.296  1.00  0.00    -0.374 OA
ENDROOT
BRANCH   1   2
ATOM      2  C   UNL A   1      31.453  32.258  26.548  1.00  0.00     0.202 C 
BRANCH   2   3
ATOM      3  C   UNL A   1      32.599  32.845  27.376  1.00  0.00     0.261 C 
BRANCH   3   4
ATOM      4  O   UNL A   1      32.221  34.119  27.922  1.00  0.00    -0.460 OA
BRANCH   4   5
ATOM      5  C   UNL A   1      32.956  34.927  28.722  1.00  0.00     0.338 C 
ATOM      6  O   UNL A   1      32.649  36.114  28.811  1.00  0.00    -0.246 OA
BRANCH   5   7
ATOM      7  C   UNL A   1      34.151  34.458  29.485  1.00  0.00     0.060 A 
ATOM      8  C   UNL A   1      34.088  33.736  30.677  1.00  0.00     0.016 A 
ATOM      9  C   UNL A   1      35.411  34.644  28.895  1.00  0.00     0.016 A 
ATOM     10  C   UNL A   1      35.215  33.213  31.278  1.00  0.00     0.010 A 
ATOM     11  C   UNL A   1      36.557  34.090  29.474  1.00  0.00     0.010 A 
ATOM     12  C   UNL A   1      36.447  33.356  30.659  1.00  0.00    -0.014 A 
BRANCH  12  13
ATOM     13  C   UNL A   1      37.599  32.739  31.325  1.00  0.00     0.031 A 
ATOM     14  C   UNL A   1      38.288  31.608  30.642  1.00  0.00     0.074 A 
ATOM     15  C   UNL A   1      38.073  33.304  32.450  1.00  0.00     0.049 A 
ATOM     16  N   UNL A   1      39.265  30.863  31.073  1.00  0.00    -0.248 NA
ATOM     17  C   UNL A   1      37.824  31.280  29.282  1.00  0.00     0.031 C 
ATOM     18  C   UNL A   1      37.532  34.514  33.082  1.00  0.00     0.029 A 
ATOM     19  N   UNL A   1      39.126  32.956  33.250  1.00  0.00    -0.354 N 
ATOM     20  C   UNL A   1      39.508  29.950  30.058  1.00  0.00     0.074 A 
ATOM     21  C   UNL A   1      38.592  30.244  28.980  1.00  0.00     0.031 C 
ATOM     22  C   UNL A   1      38.259  34.803  34.173  1.00  0.00     0.029 A 
ATOM     23  C   UNL A   1      39.254  33.757  34.360  1.00  0.00     0.049 A 
ATOM     24  H   UNL A   1      39.733  32.208  33.050  1.00  0.00     0.167 HD
ATOM     25  C   UNL A   1      40.406  28.943  30.060  1.00  0.00     0.037 A 
ATOM     26  C   UNL A   1      40.050  33.607  35.435  1.00  0.00     0.037 A 
ATOM     27  C   UNL A   1      41.302  28.700  31.158  1.00  0.00     0.049 A 
ATOM     28  C   UNL A   1      40.961  32.409  35.455  1.00  0.00     0.074 A 
ATOM     29  C   UNL A   1      42.239  27.696  31.302  1.00  0.00     0.029 A 
ATOM     30  N   UNL A   1      41.358  29.480  32.306  1.00  0.00    -0.354 N 
ATOM     31  N   UNL A   1      41.161  31.509  34.518  1.00  0.00    -0.248 NA
ATOM     32  C   UNL A   1      41.733  32.183  36.680  1.00  0.00     0.031 C 
ATOM     33  C   UNL A   1      42.820  27.833  32.566  1.00  0.00     0.029 A 
ATOM     34  C   UNL A   1      42.286  28.954  33.186  1.00  0.00     0.049 A 
ATOM     35  H   UNL A   1      40.818  30.286  32.470  1.00  0.00     0.167 HD
ATOM     36  C   UNL A   1      42.086  30.617  35.038  1.00  0.00     0.074 A 
ATOM     37  C   UNL A   1      42.432  31.104  36.359  1.00  0.00     0.031 C 
ATOM     38  C   UNL A   1      42.597  29.488  34.489  1.00  0.00     0.037 A 
BRANCH  25  39
ATOM     39  C   UNL A   1      40.389  27.996  28.901  1.00  0.00     0.057 A 
ATOM     40  C   UNL A   1      39.639  26.815  28.903  1.00  0.00     0.134 A 
ATOM     41  C   UNL A   1      41.148  28.281  27.759  1.00  0.00     0.134 A 
ATOM     42  F   UNL A   1      38.918  26.468  29.979  1.00  0.00    -0.206 F 
ATOM     43  C   UNL A   1      39.649  25.946  27.808  1.00  0.00     0.040 A 
ATOM     44  C   UNL A   1      41.150  27.432  26.652  1.00  0.00     0.040 A 
ATOM     45  F   UNL A   1      41.902  29.390  27.701  1.00  0.00    -0.206 F 
ATOM     46  C   UNL A   1      40.400  26.259  26.676  1.00  0.00     0.006 A 
ENDBRANCH  25  39
BRANCH  26  47
ATOM     47  C   UNL A   1      39.943  34.520  36.604  1.00  0.00     0.057 A 
ATOM     48  C   UNL A   1      40.703  35.692  36.693  1.00  0.00     0.134 A 
ATOM     49  C   UNL A   1      39.120  34.211  37.697  1.00  0.00     0.134 A 
ATOM     50  F   UNL A   1      41.527  36.040  35.694  1.00  0.00    -0.206 F 
ATOM     51  C   UNL A   1      40.676  36.500  37.833  1.00  0.00     0.040 A 
ATOM     52  C   UNL A   1      39.056  35.027  38.827  1.00  0.00     0.040 A 
ATOM     53  F   UNL A   1      38.362  33.104  37.685  1.00  0.00    -0.206 F 
ATOM     54  C   UNL A   1      39.849  36.168  38.904  1.00  0.00     0.006 A 
ENDBRANCH  26  47
BRANCH  38  55
ATOM     55  C   UNL A   1      43.588  28.728  35.314  1.00  0.00     0.057 A 
ATOM     56  C   UNL A   1      43.182  27.752  36.230  1.00  0.00     0.134 A 
ATOM     57  C   UNL A   1      44.962  28.932  35.140  1.00  0.00     0.134 A 
ATOM     58  F   UNL A   1      41.878  27.525  36.450  1.00  0.00    -0.206 F 
ATOM     59  C   UNL A   1      44.111  27.011  36.958  1.00  0.00     0.040 A 
ATOM     60  C   UNL A   1      45.901  28.175  35.838  1.00  0.00     0.040 A 
ATOM     61  F   UNL A   1      45.411  29.848  34.267  1.00  0.00    -0.206 F 
ATOM     62  C   UNL A   1      45.475  27.214  36.753  1.00  0.00     0.006 A 
ENDBRANCH  38  55
ENDBRANCH  12  13
ENDBRANCH   5   7
ENDBRANCH   4   5
ENDBRANCH   3   4
ENDBRANCH   2   3
ENDBRANCH   1   2
BRANCH   1  63
ATOM     63  C   UNL A   1      32.682  30.179  26.872  1.00  0.00     0.202 C 
BRANCH  63  64
ATOM     64  C   UNL A   1      32.219  28.785  27.302  1.00  0.00     0.261 C 
BRANCH  64  65
ATOM     65  O   UNL A   1      33.045  27.837  26.608  1.00  0.00    -0.460 OA
BRANCH  65  66
ATOM     66  C   UNL A   1      32.968  27.894  25.252  1.00  0.00     0.340 C 
ATOM     67  O   UNL A   1      33.894  28.144  24.494  1.00  0.00    -0.246 OA
BRANCH  66  68
ATOM     68  C   UNL A   1      31.628  27.422  24.796  1.00  0.00     0.083 A 
ATOM     69  C   UNL A   1      30.938  28.285  23.926  1.00  0.00     0.018 A 
ATOM     70  C   UNL A   1      31.050  26.185  25.157  1.00  0.00     0.056 A 
ATOM     71  C   UNL A   1      29.674  27.950  23.448  1.00  0.00     0.001 A 
ATOM     72  C   UNL A   1      29.753  25.891  24.715  1.00  0.00     0.027 A 
ATOM     73  C   UNL A   1      29.072  26.770  23.868  1.00  0.00     0.002 A 
BRANCH  70  74
ATOM     74  N   UNL A   1      31.827  25.205  25.811  1.00  0.00    -0.321 N 
ATOM     75  C   UNL A   1      32.975  24.562  25.457  1.00  0.00     0.263 C 
ATOM     76  H   UNL A   1      31.473  24.936  26.690  1.00  0.00     0.170 HD
ATOM     77  O   UNL A   1      33.714  24.109  26.329  1.00  0.00    -0.269 OA
BRANCH  75  78
ATOM     78  C   UNL A   1      33.183  24.279  23.999  1.00  0.00     0.126 A 
ATOM     79  C   UNL A   1      34.422  23.928  23.589  1.00  0.00     0.033 A 
ATOM     80  C   UNL A   1      32.213  23.267  23.487  1.00  0.00     0.349 A 
ATOM     81  C   UNL A   1      34.821  22.583  24.062  1.00  0.00     0.021 A 
ATOM     82  O   UNL A   1      32.467  21.979  23.964  1.00  0.00    -0.421 OA
ATOM     83  O   UNL A   1      31.269  23.551  22.765  1.00  0.00    -0.245 OA
ATOM     84  C   UNL A   1      36.151  22.227  24.263  1.00  0.00     0.032 A 
ATOM     85  C   UNL A   1      33.800  21.655  24.326  1.00  0.00     0.157 A 
ATOM     86  C   UNL A   1      36.442  20.960  24.774  1.00  0.00     0.043 A 
ATOM     87  C   UNL A   1      34.091  20.411  24.880  1.00  0.00     0.085 A 
ATOM     88  Cl  UNL A   1      38.085  20.497  24.995  1.00  0.00    -0.084 Cl
ATOM     89  C   UNL A   1      35.423  20.063  25.107  1.00  0.00     0.045 A 
ATOM     90  Cl  UNL A   1      32.846  19.298  25.300  1.00  0.00    -0.080 Cl
ENDBRANCH  75  78
ENDBRANCH  70  74
ENDBRANCH  66  68
ENDBRANCH  65  66
ENDBRANCH  64  65
ENDBRANCH  63  64
ENDBRANCH   1  63
TORSDOF 16
ENDMDL
MODEL 3
REMARK VINA RESULT:     -12.3      2.929      8.323
REMARK SMILES O=C(OCCOCCOC(=O)c1ccccc1NC(=O)c1cc2cc(Cl)cc(Cl)c2oc1=O)c1ccc(-c2c3nc(c(-c4c(F)cccc4F)c4ccc([nH]4)c(-c4c(F)cccc4F)c4nc(c(-c5c(F)cccc5F)c5ccc2[nH]5)C=C4)C=C3)cc1
REMARK SMILES IDX 6 1 5 2 4 3 3 4 2 5 1 6 34 7 35 8 87 9 36 10 86 11 37 12
REMARK SMILES IDX 38 13 39 14 80 15 40 16 85 17 79 18 81 19 41 20 84 21 78 22
REMARK SMILES IDX 77 23 42 25 68 26 51 27 67 28 52 29 55 30 66 31 82 32 53 33
REMARK SMILES IDX 54 34 65 36 83 37 56 38 43 39 44 40 49 41 45 42 46 43 48 44
REMARK SMILES IDX 50 45 47 46 69 47 70 48 75 49 71 50 72 51 74 52 76 53 73 54
REMARK SMILES IDX 57 55 58 56 63 57 59 58 60 59 62 60 64 61 61 62 7 63 8 64
REMARK SMILES IDX 9 65 10 66 11 67 12 68 13 69 17 70 14 71 16 72 15 73 18 74
REMARK SMILES IDX 19 75 20 77 21 78 22 79 32 80 23 81 31 82 33 83 24 84 30 85
REMARK SMILES IDX 25 86 28 87 26 88 27 89 29 90
REMARK H PARENT 81 24 55 35 18 76
REMARK Flexibility Score: inf
ROOT
ATOM      1  O   UNL A   1      32.126  29.940  26.968  1.00  0.00    -0.374 OA
ENDROOT
BRANCH   1   2
ATOM      2  C   UNL A   1      32.752  31.200  27.199  1.00  0.00     0.202 C 
BRANCH   2   3
ATOM      3  C   UNL A   1      31.791  32.391  27.229  1.00  0.00     0.261 C 
BRANCH   3   4
ATOM      4  O   UNL A   1      32.525  33.626  27.266  1.00  0.00    -0.460 OA
BRANCH   4   5
ATOM      5  C   UNL A   1      33.007  34.270  28.354  1.00  0.00     0.338 C 
ATOM      6  O   UNL A   1      32.418  35.268  28.763  1.00  0.00    -0.246 OA
BRANCH   5   7
ATOM      7  C   UNL A   1      34.245  33.849  29.074  1.00  0.00     0.060 A 
ATOM      8  C   UNL A   1      34.268  32.935  30.129  1.00  0.00     0.016 A 
ATOM      9  C   UNL A   1      35.474  34.302  28.570  1.00  0.00     0.016 A 
ATOM     10  C   UNL A   1      35.449  32.478  30.678  1.00  0.00     0.010 A 
ATOM     11  C   UNL A   1      36.679  33.822  29.093  1.00  0.00     0.010 A 
ATOM     12  C   UNL A   1      36.657  32.891  30.137  1.00  0.00    -0.014 A 
BRANCH  12  13
ATOM     13  C   UNL A   1      37.875  32.335  30.735  1.00  0.00     0.031 A 
ATOM     14  C   UNL A   1      38.542  31.193  30.051  1.00  0.00     0.074 A 
ATOM     15  C   UNL A   1      38.420  32.964  31.794  1.00  0.00     0.049 A 
ATOM     16  N   UNL A   1      39.572  30.494  30.434  1.00  0.00    -0.248 NA
ATOM     17  C   UNL A   1      37.984  30.791  28.747  1.00  0.00     0.031 C 
ATOM     18  C   UNL A   1      37.894  34.187  32.413  1.00  0.00     0.029 A 
ATOM     19  N   UNL A   1      39.542  32.681  32.522  1.00  0.00    -0.354 N 
ATOM     20  C   UNL A   1      39.761  29.542  29.444  1.00  0.00     0.074 A 
ATOM     21  C   UNL A   1      38.756  29.762  28.430  1.00  0.00     0.031 C 
ATOM     22  C   UNL A   1      38.696  34.545  33.429  1.00  0.00     0.029 A 
ATOM     23  C   UNL A   1      39.733  33.535  33.582  1.00  0.00     0.049 A 
ATOM     24  H   UNL A   1      40.153  31.940  32.307  1.00  0.00     0.167 HD
ATOM     25  C   UNL A   1      40.686  28.560  29.419  1.00  0.00     0.037 A 
ATOM     26  C   UNL A   1      40.614  33.455  34.596  1.00  0.00     0.037 A 
ATOM     27  C   UNL A   1      41.673  28.391  30.451  1.00  0.00     0.049 A 
ATOM     28  C   UNL A   1      41.559  32.284  34.595  1.00  0.00     0.074 A 
ATOM     29  C   UNL A   1      42.647  27.420  30.564  1.00  0.00     0.029 A 
ATOM     30  N   UNL A   1      41.795  29.224  31.556  1.00  0.00    -0.354 N 
ATOM     31  N   UNL A   1      41.711  31.347  33.686  1.00  0.00    -0.248 NA
ATOM     32  C   UNL A   1      42.431  32.134  35.764  1.00  0.00     0.031 C 
ATOM     33  C   UNL A   1      43.321  27.629  31.771  1.00  0.00     0.029 A 
ATOM     34  C   UNL A   1      42.804  28.764  32.382  1.00  0.00     0.049 A 
ATOM     35  H   UNL A   1      41.245  30.022  31.727  1.00  0.00     0.167 HD
ATOM     36  C   UNL A   1      42.701  30.504  34.169  1.00  0.00     0.074 A 
ATOM     37  C   UNL A   1      43.134  31.060  35.436  1.00  0.00     0.031 C 
ATOM     38  C   UNL A   1      43.200  29.365  33.631  1.00  0.00     0.037 A 
BRANCH  25  39
ATOM     39  C   UNL A   1      40.607  27.561  28.308  1.00  0.00     0.057 A 
ATOM     40  C   UNL A   1      39.837  26.395  28.394  1.00  0.00     0.134 A 
ATOM     41  C   UNL A   1      41.324  27.778  27.124  1.00  0.00     0.134 A 
ATOM     42  F   UNL A   1      39.154  26.112  29.513  1.00  0.00    -0.206 F 
ATOM     43  C   UNL A   1      39.788  25.476  27.342  1.00  0.00     0.040 A 
ATOM     44  C   UNL A   1      41.267  26.879  26.059  1.00  0.00     0.040 A 
ATOM     45  F   UNL A   1      42.093  28.869  26.984  1.00  0.00    -0.206 F 
ATOM     46  C   UNL A   1      40.498  25.722  26.168  1.00  0.00     0.006 A 
ENDBRANCH  25  39
BRANCH  26  47
ATOM     47  C   UNL A   1      40.572  34.418  35.728  1.00  0.00     0.057 A 
ATOM     48  C   UNL A   1      39.728  34.224  36.828  1.00  0.00     0.134 A 
ATOM     49  C   UNL A   1      41.333  35.597  35.711  1.00  0.00     0.134 A 
ATOM     50  F   UNL A   1      38.957  33.130  36.902  1.00  0.00    -0.206 F 
ATOM     51  C   UNL A   1      39.616  35.176  37.845  1.00  0.00     0.040 A 
ATOM     52  C   UNL A   1      41.258  36.539  36.737  1.00  0.00     0.040 A 
ATOM     53  F   UNL A   1      42.165  35.853  34.689  1.00  0.00    -0.206 F 
ATOM     54  C   UNL A   1      40.385  36.338  37.801  1.00  0.00     0.006 A 
ENDBRANCH  26  47
BRANCH  38  55
ATOM     55  C   UNL A   1      44.275  28.669  34.407  1.00  0.00     0.057 A 
ATOM     56  C   UNL A   1      43.972  27.707  35.376  1.00  0.00     0.134 A 
ATOM     57  C   UNL A   1      45.624  28.921  34.133  1.00  0.00     0.134 A 
ATOM     58  F   UNL A   1      42.696  27.437  35.692  1.00  0.00    -0.206 F 
ATOM     59  C   UNL A   1      44.977  27.026  36.059  1.00  0.00     0.040 A 
ATOM     60  C   UNL A   1      46.638  28.222  34.786  1.00  0.00     0.040 A 
ATOM     61  F   UNL A   1      45.976  29.826  33.206  1.00  0.00    -0.206 F 
ATOM     62  C   UNL A   1      46.315  27.275  35.755  1.00  0.00     0.006 A 
ENDBRANCH  38  55
ENDBRANCH  12  13
ENDBRANCH   5   7
ENDBRANCH   4   5
ENDBRANCH   3   4
ENDBRANCH   2   3
ENDBRANCH   1   2
BRANCH   1  63
ATOM     63  C   UNL A   1      32.932  28.771  27.139  1.00  0.00     0.202 C 
BRANCH  63  64
ATOM     64  C   UNL A   1      34.056  28.815  26.101  1.00  0.00     0.261 C 
BRANCH  64  65
ATOM     65  O   UNL A   1      33.694  27.903  25.053  1.00  0.00    -0.460 OA
BRANCH  65  66
ATOM     66  C   UNL A   1      33.311  28.490  23.888  1.00  0.00     0.340 C 
ATOM     67  O   UNL A   1      34.053  29.032  23.083  1.00  0.00    -0.246 OA
BRANCH  66  68
ATOM     68  C   UNL A   1      31.866  28.217  23.631  1.00  0.00     0.083 A 
ATOM     69  C   UNL A   1      31.008  29.327  23.719  1.00  0.00     0.018 A 
ATOM     70  C   UNL A   1      31.340  26.952  23.287  1.00  0.00     0.056 A 
ATOM     71  C   UNL A   1      29.638  29.184  23.510  1.00  0.00     0.001 A 
ATOM     72  C   UNL A   1      29.953  26.815  23.138  1.00  0.00     0.027 A 
ATOM     73  C   UNL A   1      29.111  27.925  23.251  1.00  0.00     0.002 A 
BRANCH  70  74
ATOM     74  N   UNL A   1      32.209  25.893  22.943  1.00  0.00    -0.321 N 
ATOM     75  C   UNL A   1      32.159  24.554  23.188  1.00  0.00     0.263 C 
ATOM     76  H   UNL A   1      33.000  26.177  22.429  1.00  0.00     0.170 HD
ATOM     77  O   UNL A   1      32.742  23.775  22.437  1.00  0.00    -0.269 OA
BRANCH  75  78
ATOM     78  C   UNL A   1      31.541  24.114  24.481  1.00  0.00     0.126 A 
ATOM     79  C   UNL A   1      31.432  22.787  24.716  1.00  0.00     0.033 A 
ATOM     80  C   UNL A   1      32.207  24.746  25.657  1.00  0.00     0.349 A 
ATOM     81  C   UNL A   1      32.742  22.137  24.945  1.00  0.00     0.021 A 
ATOM     82  O   UNL A   1      33.492  24.250  25.888  1.00  0.00    -0.421 OA
ATOM     83  O   UNL A   1      31.694  25.639  26.316  1.00  0.00    -0.245 OA
ATOM     84  C   UNL A   1      32.969  20.794  24.662  1.00  0.00     0.032 A 
ATOM     85  C   UNL A   1      33.783  22.931  25.455  1.00  0.00     0.157 A 
ATOM     86  C   UNL A   1      34.251  20.272  24.845  1.00  0.00     0.043 A 
ATOM     87  C   UNL A   1      35.071  22.419  25.591  1.00  0.00     0.085 A 
ATOM     88  Cl  UNL A   1      34.535  18.604  24.529  1.00  0.00    -0.084 Cl
ATOM     89  C   UNL A   1      35.306  21.079  25.281  1.00  0.00     0.045 A 
ATOM     90  Cl  UNL A   1      36.380  23.403  26.121  1.00  0.00    -0.080 Cl
ENDBRANCH  75  78
ENDBRANCH  70  74
ENDBRANCH  66  68
ENDBRANCH  65  66
ENDBRANCH  64  65
ENDBRANCH  63  64
ENDBRANCH   1  63
TORSDOF 16
ENDMDL
