MODEL 1
REMARK VINA RESULT:     -12.2      0.000      0.000
REMARK SMILES COC(=O)c1ccc([C@H]2Nc3c(C(=O)OCCOCCOC(=O)c4ccc(-c5c6nc(c(-c7c(F)cccc7F)c7ccc([nH]7)c(-c7c(F)cccc7F)c7nc(c(-c8c(F)cccc8F)c8ccc5[nH]8)C=C7)C=C6)cc4)cccc3[C@H]3[C@H]4CC[C@H](C4)[C@H]32)cc1
REMARK SMILES IDX 17 1 16 2 15 3 13 4 14 5 12 6 9 7 10 8 88 9 11 10 82 12
REMARK SMILES IDX 86 13 81 14 83 15 85 16 87 17 78 18 80 19 84 20 79 21 8 22
REMARK SMILES IDX 5 23 6 24 90 25 7 26 89 27 3 28 4 29 2 30 1 31 18 32 19 33
REMARK SMILES IDX 20 34 21 35 22 36 23 37 24 38 25 39 77 40 26 41 76 42 27 43
REMARK SMILES IDX 28 44 29 45 70 46 30 47 75 48 69 49 71 50 31 51 74 52 68 53
REMARK SMILES IDX 67 54 32 56 58 57 41 58 57 59 42 60 45 61 56 62 72 63 43 64
REMARK SMILES IDX 44 65 55 67 73 68 46 69 33 70 34 71 39 72 35 73 36 74 38 75
REMARK SMILES IDX 40 76 37 77 59 78 60 79 65 80 61 81 62 82 64 83 66 84 63 85
REMARK SMILES IDX 47 86 48 87 53 88 49 89 50 90 52 91 54 92 51 93
REMARK H PARENT 10 11 71 55 45 66
REMARK Flexibility Score: inf
ROOT
ATOM      1  C   UNL A   1      34.464  32.510  29.183  1.00  0.00     0.202 C 
ENDROOT
BRANCH   1   2
ATOM      2  C   UNL A   1      34.668  31.873  27.804  1.00  0.00     0.261 C 
BRANCH   2   3
ATOM      3  O   UNL A   1      34.003  30.602  27.720  1.00  0.00    -0.460 OA
BRANCH   3   4
ATOM      4  C   UNL A   1      32.738  30.617  27.222  1.00  0.00     0.340 C 
ATOM      5  O   UNL A   1      32.081  31.612  26.963  1.00  0.00    -0.246 OA
BRANCH   4   6
ATOM      6  C   UNL A   1      32.375  29.213  26.907  1.00  0.00     0.083 A 
ATOM      7  C   UNL A   1      33.120  28.777  23.341  1.00  0.00     0.113 C 
ATOM      8  N   UNL A   1      33.535  29.173  24.709  1.00  0.00    -0.377 N 
ATOM      9  C   UNL A   1      33.566  27.281  23.233  1.00  0.00     0.027 C 
ATOM     10  C   UNL A   1      32.874  28.548  25.772  1.00  0.00     0.053 A 
ATOM     11  H   UNL A   1      34.242  29.843  24.861  1.00  0.00     0.161 HD
ATOM     12  C   UNL A   1      33.423  26.468  24.556  1.00  0.00     0.030 C 
ATOM     13  C   UNL A   1      33.229  26.218  22.140  1.00  0.00    -0.005 C 
ATOM     14  C   UNL A   1      32.622  27.165  25.626  1.00  0.00    -0.020 A 
ATOM     15  C   UNL A   1      33.088  25.047  24.060  1.00  0.00    -0.003 C 
ATOM     16  C   UNL A   1      31.822  25.592  22.116  1.00  0.00     0.004 C 
ATOM     17  C   UNL A   1      33.941  24.995  22.778  1.00  0.00     0.008 C 
ATOM     18  C   UNL A   1      31.531  28.538  27.802  1.00  0.00     0.018 A 
ATOM     19  C   UNL A   1      31.807  26.496  26.543  1.00  0.00     0.006 A 
ATOM     20  C   UNL A   1      31.665  24.971  23.498  1.00  0.00     0.004 C 
ATOM     21  C   UNL A   1      31.226  27.193  27.601  1.00  0.00     0.001 A 
BRANCH   7  22
ATOM     22  C   UNL A   1      31.675  29.227  23.108  1.00  0.00    -0.025 A 
ATOM     23  C   UNL A   1      29.259  30.564  22.545  1.00  0.00     0.060 A 
ATOM     24  C   UNL A   1      29.899  29.861  21.534  1.00  0.00     0.016 A 
ATOM     25  C   UNL A   1      29.702  30.418  23.860  1.00  0.00     0.016 A 
ATOM     26  C   UNL A   1      31.086  29.184  21.827  1.00  0.00     0.007 A 
ATOM     27  C   UNL A   1      30.856  29.677  24.133  1.00  0.00     0.007 A 
BRANCH  23  28
ATOM     28  C   UNL A   1      28.105  31.424  22.218  1.00  0.00     0.337 C 
ATOM     29  O   UNL A   1      27.445  31.334  21.197  1.00  0.00    -0.246 OA
BRANCH  28  30
ATOM     30  O   UNL A   1      27.958  32.340  23.208  1.00  0.00    -0.465 OA
ATOM     31  C   UNL A   1      28.604  33.592  22.977  1.00  0.00     0.282 C 
ENDBRANCH  28  30
ENDBRANCH  23  28
ENDBRANCH   7  22
ENDBRANCH   4   6
ENDBRANCH   3   4
ENDBRANCH   2   3
ENDBRANCH   1   2
BRANCH   1  32
ATOM     32  O   UNL A   1      34.534  33.937  29.245  1.00  0.00    -0.374 OA
BRANCH  32  33
ATOM     33  C   UNL A   1      34.415  34.536  30.533  1.00  0.00     0.202 C 
BRANCH  33  34
ATOM     34  C   UNL A   1      34.698  33.645  31.746  1.00  0.00     0.261 C 
BRANCH  34  35
ATOM     35  O   UNL A   1      36.078  33.672  32.137  1.00  0.00    -0.460 OA
BRANCH  35  36
ATOM     36  C   UNL A   1      36.443  32.631  32.922  1.00  0.00     0.338 C 
ATOM     37  O   UNL A   1      36.042  32.372  34.044  1.00  0.00    -0.246 OA
BRANCH  36  38
ATOM     38  C   UNL A   1      37.326  31.717  32.176  1.00  0.00     0.060 A 
ATOM     39  C   UNL A   1      38.508  31.318  32.809  1.00  0.00     0.016 A 
ATOM     40  C   UNL A   1      37.063  31.345  30.856  1.00  0.00     0.016 A 
ATOM     41  C   UNL A   1      39.476  30.621  32.095  1.00  0.00     0.010 A 
ATOM     42  C   UNL A   1      38.035  30.641  30.140  1.00  0.00     0.010 A 
ATOM     43  C   UNL A   1      39.269  30.329  30.740  1.00  0.00    -0.014 A 
BRANCH  43  44
ATOM     44  C   UNL A   1      40.419  29.871  29.923  1.00  0.00     0.031 A 
ATOM     45  C   UNL A   1      41.556  30.824  29.665  1.00  0.00     0.074 A 
ATOM     46  C   UNL A   1      40.486  28.605  29.476  1.00  0.00     0.049 A 
ATOM     47  N   UNL A   1      42.676  30.629  29.019  1.00  0.00    -0.248 NA
ATOM     48  C   UNL A   1      41.405  32.184  30.209  1.00  0.00     0.031 C 
ATOM     49  C   UNL A   1      39.470  27.578  29.693  1.00  0.00     0.029 A 
ATOM     50  N   UNL A   1      41.463  27.968  28.754  1.00  0.00    -0.354 N 
ATOM     51  C   UNL A   1      43.357  31.840  29.068  1.00  0.00     0.074 A 
ATOM     52  C   UNL A   1      42.507  32.774  29.772  1.00  0.00     0.031 C 
ATOM     53  C   UNL A   1      39.882  26.432  29.125  1.00  0.00     0.029 A 
ATOM     54  C   UNL A   1      41.176  26.654  28.482  1.00  0.00     0.049 A 
ATOM     55  H   UNL A   1      42.291  28.412  28.458  1.00  0.00     0.167 HD
ATOM     56  C   UNL A   1      44.585  32.144  28.582  1.00  0.00     0.037 A 
ATOM     57  C   UNL A   1      41.878  25.737  27.789  1.00  0.00     0.037 A 
ATOM     58  C   UNL A   1      45.432  31.209  27.888  1.00  0.00     0.049 A 
ATOM     59  C   UNL A   1      43.215  26.114  27.209  1.00  0.00     0.074 A 
ATOM     60  C   UNL A   1      46.704  31.409  27.380  1.00  0.00     0.029 A 
ATOM     61  N   UNL A   1      45.088  29.897  27.596  1.00  0.00    -0.354 N 
ATOM     62  N   UNL A   1      43.864  27.251  27.288  1.00  0.00    -0.248 NA
ATOM     63  C   UNL A   1      43.922  25.073  26.451  1.00  0.00     0.031 C 
ATOM     64  C   UNL A   1      47.105  30.239  26.728  1.00  0.00     0.029 A 
ATOM     65  C   UNL A   1      46.111  29.285  26.889  1.00  0.00     0.049 A 
ATOM     66  H   UNL A   1      44.241  29.465  27.852  1.00  0.00     0.167 HD
ATOM     67  C   UNL A   1      45.072  27.049  26.630  1.00  0.00     0.074 A 
ATOM     68  C   UNL A   1      45.065  25.678  26.163  1.00  0.00     0.031 C 
ATOM     69  C   UNL A   1      46.097  27.916  26.437  1.00  0.00     0.037 A 
BRANCH  56  70
ATOM     70  C   UNL A   1      45.064  33.559  28.754  1.00  0.00     0.057 A 
ATOM     71  C   UNL A   1      44.745  34.573  27.841  1.00  0.00     0.134 A 
ATOM     72  C   UNL A   1      45.852  33.911  29.857  1.00  0.00     0.134 A 
ATOM     73  F   UNL A   1      44.006  34.302  26.754  1.00  0.00    -0.206 F 
ATOM     74  C   UNL A   1      45.223  35.876  27.999  1.00  0.00     0.040 A 
ATOM     75  C   UNL A   1      46.308  35.217  30.043  1.00  0.00     0.040 A 
ATOM     76  F   UNL A   1      46.191  32.993  30.775  1.00  0.00    -0.206 F 
ATOM     77  C   UNL A   1      46.002  36.201  29.106  1.00  0.00     0.006 A 
ENDBRANCH  56  70
BRANCH  57  78
ATOM     78  C   UNL A   1      41.341  24.363  27.621  1.00  0.00     0.057 A 
ATOM     79  C   UNL A   1      40.306  24.096  26.718  1.00  0.00     0.134 A 
ATOM     80  C   UNL A   1      41.839  23.289  28.368  1.00  0.00     0.134 A 
ATOM     81  F   UNL A   1      39.773  25.088  25.989  1.00  0.00    -0.206 F 
ATOM     82  C   UNL A   1      39.771  22.814  26.577  1.00  0.00     0.040 A 
ATOM     83  C   UNL A   1      41.333  21.997  28.218  1.00  0.00     0.040 A 
ATOM     84  F   UNL A   1      42.833  23.479  29.248  1.00  0.00    -0.206 F 
ATOM     85  C   UNL A   1      40.290  21.759  27.325  1.00  0.00     0.006 A 
ENDBRANCH  57  78
BRANCH  69  86
ATOM     86  C   UNL A   1      47.323  27.391  25.743  1.00  0.00     0.057 A 
ATOM     87  C   UNL A   1      47.514  27.518  24.360  1.00  0.00     0.134 A 
ATOM     88  C   UNL A   1      48.338  26.763  26.478  1.00  0.00     0.134 A 
ATOM     89  F   UNL A   1      46.579  28.099  23.595  1.00  0.00    -0.206 F 
ATOM     90  C   UNL A   1      48.651  27.007  23.731  1.00  0.00     0.040 A 
ATOM     91  C   UNL A   1      49.493  26.278  25.864  1.00  0.00     0.040 A 
ATOM     92  F   UNL A   1      48.228  26.618  27.807  1.00  0.00    -0.206 F 
ATOM     93  C   UNL A   1      49.648  26.389  24.485  1.00  0.00     0.006 A 
ENDBRANCH  69  86
ENDBRANCH  43  44
ENDBRANCH  36  38
ENDBRANCH  35  36
ENDBRANCH  34  35
ENDBRANCH  33  34
ENDBRANCH  32  33
ENDBRANCH   1  32
TORSDOF 17
ENDMDL
MODEL 2
REMARK VINA RESULT:     -11.9      3.964      8.833
REMARK SMILES COC(=O)c1ccc([C@H]2Nc3c(C(=O)OCCOCCOC(=O)c4ccc(-c5c6nc(c(-c7c(F)cccc7F)c7ccc([nH]7)c(-c7c(F)cccc7F)c7nc(c(-c8c(F)cccc8F)c8ccc5[nH]8)C=C7)C=C6)cc4)cccc3[C@H]3[C@H]4CC[C@H](C4)[C@H]32)cc1
REMARK SMILES IDX 17 1 16 2 15 3 13 4 14 5 12 6 9 7 10 8 88 9 11 10 82 12
REMARK SMILES IDX 86 13 81 14 83 15 85 16 87 17 78 18 80 19 84 20 79 21 8 22
REMARK SMILES IDX 5 23 6 24 90 25 7 26 89 27 3 28 4 29 2 30 1 31 18 32 19 33
REMARK SMILES IDX 20 34 21 35 22 36 23 37 24 38 25 39 77 40 26 41 76 42 27 43
REMARK SMILES IDX 28 44 29 45 70 46 30 47 75 48 69 49 71 50 31 51 74 52 68 53
REMARK SMILES IDX 67 54 32 56 58 57 41 58 57 59 42 60 45 61 56 62 72 63 43 64
REMARK SMILES IDX 44 65 55 67 73 68 46 69 33 70 34 71 39 72 35 73 36 74 38 75
REMARK SMILES IDX 40 76 37 77 59 78 60 79 65 80 61 81 62 82 64 83 66 84 63 85
REMARK SMILES IDX 47 86 48 87 53 88 49 89 50 90 52 91 54 92 51 93
REMARK H PARENT 10 11 71 55 45 66
REMARK Flexibility Score: inf
ROOT
ATOM      1  C   UNL A   1      35.602  20.072  25.065  1.00  0.00     0.202 C 
ENDROOT
BRANCH   1   2
ATOM      2  C   UNL A   1      34.482  19.117  24.637  1.00  0.00     0.261 C 
BRANCH   2   3
ATOM      3  O   UNL A   1      33.195  19.624  25.030  1.00  0.00    -0.460 OA
BRANCH   3   4
ATOM      4  C   UNL A   1      32.472  20.246  24.060  1.00  0.00     0.340 C 
ATOM      5  O   UNL A   1      32.209  19.791  22.959  1.00  0.00    -0.246 OA
BRANCH   4   6
ATOM      6  C   UNL A   1      31.937  21.498  24.649  1.00  0.00     0.083 A 
ATOM      7  C   UNL A   1      32.932  24.174  22.344  1.00  0.00     0.113 C 
ATOM      8  N   UNL A   1      32.281  22.867  22.601  1.00  0.00    -0.377 N 
ATOM      9  C   UNL A   1      31.756  25.203  22.437  1.00  0.00     0.027 C 
ATOM     10  C   UNL A   1      31.759  22.667  23.884  1.00  0.00     0.053 A 
ATOM     11  H   UNL A   1      32.218  22.174  21.904  1.00  0.00     0.161 HD
ATOM     12  C   UNL A   1      30.681  24.858  23.511  1.00  0.00     0.030 C 
ATOM     13  C   UNL A   1      31.799  26.763  22.483  1.00  0.00    -0.005 C 
ATOM     14  C   UNL A   1      31.089  23.767  24.467  1.00  0.00    -0.020 A 
ATOM     15  C   UNL A   1      30.204  26.245  23.988  1.00  0.00    -0.003 C 
ATOM     16  C   UNL A   1      32.245  27.459  23.783  1.00  0.00     0.004 C 
ATOM     17  C   UNL A   1      30.281  27.031  22.666  1.00  0.00     0.008 C 
ATOM     18  C   UNL A   1      31.574  21.483  26.004  1.00  0.00     0.018 A 
ATOM     19  C   UNL A   1      30.702  23.726  25.809  1.00  0.00     0.006 A 
ATOM     20  C   UNL A   1      31.273  26.943  24.836  1.00  0.00     0.004 C 
ATOM     21  C   UNL A   1      30.986  22.605  26.586  1.00  0.00     0.001 A 
BRANCH   7  22
ATOM     22  C   UNL A   1      34.194  24.282  23.205  1.00  0.00    -0.025 A 
ATOM     23  C   UNL A   1      36.289  24.028  25.072  1.00  0.00     0.060 A 
ATOM     24  C   UNL A   1      36.380  23.369  23.853  1.00  0.00     0.016 A 
ATOM     25  C   UNL A   1      35.276  24.969  25.262  1.00  0.00     0.016 A 
ATOM     26  C   UNL A   1      35.345  23.517  22.926  1.00  0.00     0.007 A 
ATOM     27  C   UNL A   1      34.291  25.145  24.286  1.00  0.00     0.007 A 
BRANCH  23  28
ATOM     28  C   UNL A   1      37.281  23.747  26.128  1.00  0.00     0.337 C 
ATOM     29  O   UNL A   1      37.494  24.473  27.084  1.00  0.00    -0.246 OA
BRANCH  28  30
ATOM     30  O   UNL A   1      37.928  22.597  25.814  1.00  0.00    -0.465 OA
ATOM     31  C   UNL A   1      39.311  22.563  26.168  1.00  0.00     0.282 C 
ENDBRANCH  28  30
ENDBRANCH  23  28
ENDBRANCH   7  22
ENDBRANCH   4   6
ENDBRANCH   3   4
ENDBRANCH   2   3
ENDBRANCH   1   2
BRANCH   1  32
ATOM     32  O   UNL A   1      36.900  19.819  24.522  1.00  0.00    -0.374 OA
BRANCH  32  33
ATOM     33  C   UNL A   1      37.838  19.156  25.367  1.00  0.00     0.202 C 
BRANCH  33  34
ATOM     34  C   UNL A   1      39.323  19.429  25.110  1.00  0.00     0.261 C 
BRANCH  34  35
ATOM     35  O   UNL A   1      40.080  19.530  26.324  1.00  0.00    -0.460 OA
BRANCH  35  36
ATOM     36  C   UNL A   1      41.400  19.270  26.167  1.00  0.00     0.338 C 
ATOM     37  O   UNL A   1      41.907  18.265  25.698  1.00  0.00    -0.246 OA
BRANCH  36  38
ATOM     38  C   UNL A   1      42.197  20.458  26.517  1.00  0.00     0.060 A 
ATOM     39  C   UNL A   1      42.138  20.896  27.846  1.00  0.00     0.016 A 
ATOM     40  C   UNL A   1      42.897  21.191  25.556  1.00  0.00     0.016 A 
ATOM     41  C   UNL A   1      42.701  22.116  28.200  1.00  0.00     0.010 A 
ATOM     42  C   UNL A   1      43.467  22.417  25.915  1.00  0.00     0.010 A 
ATOM     43  C   UNL A   1      43.319  22.910  27.224  1.00  0.00    -0.014 A 
BRANCH  43  44
ATOM     44  C   UNL A   1      43.633  24.323  27.546  1.00  0.00     0.031 A 
ATOM     45  C   UNL A   1      45.047  24.812  27.377  1.00  0.00     0.074 A 
ATOM     46  C   UNL A   1      42.663  25.178  27.914  1.00  0.00     0.049 A 
ATOM     47  N   UNL A   1      45.540  26.011  27.555  1.00  0.00    -0.248 NA
ATOM     48  C   UNL A   1      46.039  23.812  26.952  1.00  0.00     0.031 C 
ATOM     49  C   UNL A   1      41.252  24.835  28.074  1.00  0.00     0.029 A 
ATOM     50  N   UNL A   1      42.723  26.516  28.208  1.00  0.00    -0.354 N 
ATOM     51  C   UNL A   1      46.898  25.906  27.277  1.00  0.00     0.074 A 
ATOM     52  C   UNL A   1      47.158  24.520  26.957  1.00  0.00     0.031 C 
ATOM     53  C   UNL A   1      40.574  25.940  28.427  1.00  0.00     0.029 A 
ATOM     54  C   UNL A   1      41.507  27.059  28.546  1.00  0.00     0.049 A 
ATOM     55  H   UNL A   1      43.557  27.038  28.182  1.00  0.00     0.167 HD
ATOM     56  C   UNL A   1      47.842  26.878  27.275  1.00  0.00     0.037 A 
ATOM     57  C   UNL A   1      41.190  28.315  28.911  1.00  0.00     0.037 A 
ATOM     58  C   UNL A   1      47.579  28.259  27.587  1.00  0.00     0.049 A 
ATOM     59  C   UNL A   1      42.266  29.366  28.957  1.00  0.00     0.074 A 
ATOM     60  C   UNL A   1      48.459  29.327  27.588  1.00  0.00     0.029 A 
ATOM     61  N   UNL A   1      46.342  28.762  27.964  1.00  0.00    -0.354 N 
ATOM     62  N   UNL A   1      43.539  29.265  28.661  1.00  0.00    -0.248 NA
ATOM     63  C   UNL A   1      41.855  30.712  29.379  1.00  0.00     0.031 C 
ATOM     64  C   UNL A   1      47.770  30.463  28.023  1.00  0.00     0.029 A 
ATOM     65  C   UNL A   1      46.442  30.119  28.228  1.00  0.00     0.049 A 
ATOM     66  H   UNL A   1      45.515  28.232  28.035  1.00  0.00     0.167 HD
ATOM     67  C   UNL A   1      44.072  30.540  28.818  1.00  0.00     0.074 A 
ATOM     68  C   UNL A   1      42.979  31.397  29.231  1.00  0.00     0.031 C 
ATOM     69  C   UNL A   1      45.345  30.965  28.629  1.00  0.00     0.037 A 
BRANCH  56  70
ATOM     70  C   UNL A   1      49.254  26.468  26.961  1.00  0.00     0.057 A 
ATOM     71  C   UNL A   1      49.773  26.506  25.660  1.00  0.00     0.134 A 
ATOM     72  C   UNL A   1      50.109  26.032  27.982  1.00  0.00     0.134 A 
ATOM     73  F   UNL A   1      49.005  26.899  24.632  1.00  0.00    -0.206 F 
ATOM     74  C   UNL A   1      51.077  26.092  25.380  1.00  0.00     0.040 A 
ATOM     75  C   UNL A   1      51.425  25.648  27.720  1.00  0.00     0.040 A 
ATOM     76  F   UNL A   1      49.681  25.976  29.252  1.00  0.00    -0.206 F 
ATOM     77  C   UNL A   1      51.908  25.666  26.414  1.00  0.00     0.006 A 
ENDBRANCH  56  70
BRANCH  57  78
ATOM     78  C   UNL A   1      39.784  28.657  29.243  1.00  0.00     0.057 A 
ATOM     79  C   UNL A   1      39.273  28.451  30.531  1.00  0.00     0.134 A 
ATOM     80  C   UNL A   1      38.913  29.183  28.282  1.00  0.00     0.134 A 
ATOM     81  F   UNL A   1      40.052  27.929  31.490  1.00  0.00    -0.206 F 
ATOM     82  C   UNL A   1      37.944  28.738  30.845  1.00  0.00     0.040 A 
ATOM     83  C   UNL A   1      37.589  29.500  28.588  1.00  0.00     0.040 A 
ATOM     84  F   UNL A   1      39.342  29.407  27.030  1.00  0.00    -0.206 F 
ATOM     85  C   UNL A   1      37.099  29.270  29.873  1.00  0.00     0.006 A 
ENDBRANCH  57  78
BRANCH  69  86
ATOM     86  C   UNL A   1      45.617  32.432  28.808  1.00  0.00     0.057 A 
ATOM     87  C   UNL A   1      46.031  32.975  30.032  1.00  0.00     0.134 A 
ATOM     88  C   UNL A   1      45.478  33.314  27.726  1.00  0.00     0.134 A 
ATOM     89  F   UNL A   1      46.175  32.191  31.110  1.00  0.00    -0.206 F 
ATOM     90  C   UNL A   1      46.260  34.345  30.182  1.00  0.00     0.040 A 
ATOM     91  C   UNL A   1      45.736  34.679  27.857  1.00  0.00     0.040 A 
ATOM     92  F   UNL A   1      45.097  32.862  26.523  1.00  0.00    -0.206 F 
ATOM     93  C   UNL A   1      46.117  35.200  29.091  1.00  0.00     0.006 A 
ENDBRANCH  69  86
ENDBRANCH  43  44
ENDBRANCH  36  38
ENDBRANCH  35  36
ENDBRANCH  34  35
ENDBRANCH  33  34
ENDBRANCH  32  33
ENDBRANCH   1  32
TORSDOF 17
ENDMDL
MODEL 3
REMARK VINA RESULT:     -11.7      5.919      7.828
REMARK SMILES COC(=O)c1ccc([C@H]2Nc3c(C(=O)OCCOCCOC(=O)c4ccc(-c5c6nc(c(-c7c(F)cccc7F)c7ccc([nH]7)c(-c7c(F)cccc7F)c7nc(c(-c8c(F)cccc8F)c8ccc5[nH]8)C=C7)C=C6)cc4)cccc3[C@H]3[C@H]4CC[C@H](C4)[C@H]32)cc1
REMARK SMILES IDX 17 1 16 2 15 3 13 4 14 5 12 6 9 7 10 8 88 9 11 10 82 12
REMARK SMILES IDX 86 13 81 14 83 15 85 16 87 17 78 18 80 19 84 20 79 21 8 22
REMARK SMILES IDX 5 23 6 24 90 25 7 26 89 27 3 28 4 29 2 30 1 31 18 32 19 33
REMARK SMILES IDX 20 34 21 35 22 36 23 37 24 38 25 39 77 40 26 41 76 42 27 43
REMARK SMILES IDX 28 44 29 45 70 46 30 47 75 48 69 49 71 50 31 51 74 52 68 53
REMARK SMILES IDX 67 54 32 56 58 57 41 58 57 59 42 60 45 61 56 62 72 63 43 64
REMARK SMILES IDX 44 65 55 67 73 68 46 69 33 70 34 71 39 72 35 73 36 74 38 75
REMARK SMILES IDX 40 76 37 77 59 78 60 79 65 80 61 81 62 82 64 83 66 84 63 85
REMARK SMILES IDX 47 86 48 87 53 88 49 89 50 90 52 91 54 92 51 93
REMARK H PARENT 10 11 71 55 45 66
REMARK Flexibility Score: inf
ROOT
ATOM      1  C   UNL A   1      35.428  32.004  27.983  1.00  0.00     0.202 C 
ENDROOT
BRANCH   1   2
ATOM      2  C   UNL A   1      33.979  31.505  27.950  1.00  0.00     0.261 C 
BRANCH   2   3
ATOM      3  O   UNL A   1      33.705  30.798  26.728  1.00  0.00    -0.460 OA
BRANCH   3   4
ATOM      4  C   UNL A   1      32.396  30.537  26.466  1.00  0.00     0.340 C 
ATOM      5  O   UNL A   1      31.547  31.361  26.164  1.00  0.00    -0.246 OA
BRANCH   4   6
ATOM      6  C   UNL A   1      32.237  29.062  26.459  1.00  0.00     0.083 A 
ATOM      7  C   UNL A   1      32.941  28.008  23.017  1.00  0.00     0.113 C 
ATOM      8  N   UNL A   1      33.330  28.733  24.251  1.00  0.00    -0.377 N 
ATOM      9  C   UNL A   1      33.601  26.599  23.185  1.00  0.00     0.027 C 
ATOM     10  C   UNL A   1      32.799  28.253  25.454  1.00  0.00     0.053 A 
ATOM     11  H   UNL A   1      33.933  29.511  24.226  1.00  0.00     0.161 HD
ATOM     12  C   UNL A   1      33.616  26.066  24.650  1.00  0.00     0.030 C 
ATOM     13  C   UNL A   1      33.395  25.298  22.348  1.00  0.00    -0.005 C 
ATOM     14  C   UNL A   1      32.751  26.849  25.603  1.00  0.00    -0.020 A 
ATOM     15  C   UNL A   1      33.483  24.540  24.468  1.00  0.00    -0.003 C 
ATOM     16  C   UNL A   1      32.097  24.490  22.530  1.00  0.00     0.004 C 
ATOM     17  C   UNL A   1      34.299  24.345  23.176  1.00  0.00     0.008 C 
ATOM     18  C   UNL A   1      31.527  28.475  27.518  1.00  0.00     0.018 A 
ATOM     19  C   UNL A   1      32.070  26.276  26.680  1.00  0.00     0.006 A 
ATOM     20  C   UNL A   1      32.072  24.152  24.015  1.00  0.00     0.004 C 
ATOM     21  C   UNL A   1      31.421  27.088  27.608  1.00  0.00     0.001 A 
BRANCH   7  22
ATOM     22  C   UNL A   1      31.439  28.195  22.781  1.00  0.00    -0.025 A 
ATOM     23  C   UNL A   1      28.703  28.868  22.822  1.00  0.00     0.060 A 
ATOM     24  C   UNL A   1      29.585  29.649  22.088  1.00  0.00     0.016 A 
ATOM     25  C   UNL A   1      29.145  27.650  23.342  1.00  0.00     0.016 A 
ATOM     26  C   UNL A   1      30.937  29.296  22.057  1.00  0.00     0.007 A 
ATOM     27  C   UNL A   1      30.492  27.290  23.237  1.00  0.00     0.007 A 
BRANCH  23  28
ATOM     28  C   UNL A   1      27.311  29.320  23.009  1.00  0.00     0.337 C 
ATOM     29  O   UNL A   1      26.391  28.597  23.354  1.00  0.00    -0.246 OA
BRANCH  28  30
ATOM     30  O   UNL A   1      27.239  30.634  22.681  1.00  0.00    -0.465 OA
ATOM     31  C   UNL A   1      27.491  31.541  23.754  1.00  0.00     0.282 C 
ENDBRANCH  28  30
ENDBRANCH  23  28
ENDBRANCH   7  22
ENDBRANCH   4   6
ENDBRANCH   3   4
ENDBRANCH   2   3
ENDBRANCH   1   2
BRANCH   1  32
ATOM     32  O   UNL A   1      35.651  33.349  27.554  1.00  0.00    -0.374 OA
BRANCH  32  33
ATOM     33  C   UNL A   1      36.020  34.296  28.553  1.00  0.00     0.202 C 
BRANCH  33  34
ATOM     34  C   UNL A   1      35.170  34.334  29.827  1.00  0.00     0.261 C 
BRANCH  34  35
ATOM     35  O   UNL A   1      35.934  34.046  31.006  1.00  0.00    -0.460 OA
BRANCH  35  36
ATOM     36  C   UNL A   1      35.586  32.886  31.612  1.00  0.00     0.338 C 
ATOM     37  O   UNL A   1      34.480  32.373  31.651  1.00  0.00    -0.246 OA
BRANCH  36  38
ATOM     38  C   UNL A   1      36.784  32.204  32.131  1.00  0.00     0.060 A 
ATOM     39  C   UNL A   1      36.610  31.373  33.243  1.00  0.00     0.016 A 
ATOM     40  C   UNL A   1      38.059  32.450  31.617  1.00  0.00     0.016 A 
ATOM     41  C   UNL A   1      37.719  30.857  33.904  1.00  0.00     0.010 A 
ATOM     42  C   UNL A   1      39.174  31.928  32.280  1.00  0.00     0.010 A 
ATOM     43  C   UNL A   1      39.009  31.179  33.460  1.00  0.00    -0.014 A 
BRANCH  43  44
ATOM     44  C   UNL A   1      40.164  30.885  34.343  1.00  0.00     0.031 A 
ATOM     45  C   UNL A   1      40.588  31.916  35.355  1.00  0.00     0.074 A 
ATOM     46  C   UNL A   1      40.782  29.692  34.296  1.00  0.00     0.049 A 
ATOM     47  N   UNL A   1      41.537  31.859  36.255  1.00  0.00    -0.248 NA
ATOM     48  C   UNL A   1      39.843  33.185  35.348  1.00  0.00     0.031 C 
ATOM     49  C   UNL A   1      40.439  28.599  33.388  1.00  0.00     0.029 A 
ATOM     50  N   UNL A   1      41.823  29.201  35.040  1.00  0.00    -0.354 N 
ATOM     51  C   UNL A   1      41.510  33.084  36.911  1.00  0.00     0.074 A 
ATOM     52  C   UNL A   1      40.479  33.878  36.280  1.00  0.00     0.031 C 
ATOM     53  C   UNL A   1      41.249  27.557  33.638  1.00  0.00     0.029 A 
ATOM     54  C   UNL A   1      42.185  27.920  34.701  1.00  0.00     0.049 A 
ATOM     55  H   UNL A   1      42.270  29.717  35.749  1.00  0.00     0.167 HD
ATOM     56  C   UNL A   1      42.266  33.505  37.954  1.00  0.00     0.037 A 
ATOM     57  C   UNL A   1      43.162  27.136  35.193  1.00  0.00     0.037 A 
ATOM     58  C   UNL A   1      43.286  32.709  38.584  1.00  0.00     0.049 A 
ATOM     59  C   UNL A   1      44.027  27.647  36.313  1.00  0.00     0.074 A 
ATOM     60  C   UNL A   1      44.090  33.032  39.664  1.00  0.00     0.029 A 
ATOM     61  N   UNL A   1      43.651  31.431  38.184  1.00  0.00    -0.354 N 
ATOM     62  N   UNL A   1      43.973  28.792  36.948  1.00  0.00    -0.248 NA
ATOM     63  C   UNL A   1      45.085  26.746  36.792  1.00  0.00     0.031 C 
ATOM     64  C   UNL A   1      44.981  31.976  39.879  1.00  0.00     0.029 A 
ATOM     65  C   UNL A   1      44.687  30.964  38.978  1.00  0.00     0.049 A 
ATOM     66  H   UNL A   1      43.235  30.930  37.446  1.00  0.00     0.167 HD
ATOM     67  C   UNL A   1      44.957  28.735  37.928  1.00  0.00     0.074 A 
ATOM     68  C   UNL A   1      45.588  27.436  37.805  1.00  0.00     0.031 C 
ATOM     69  C   UNL A   1      45.302  29.666  38.852  1.00  0.00     0.037 A 
BRANCH  56  70
ATOM     70  C   UNL A   1      42.038  34.907  38.448  1.00  0.00     0.057 A 
ATOM     71  C   UNL A   1      41.074  35.211  39.418  1.00  0.00     0.134 A 
ATOM     72  C   UNL A   1      42.803  35.968  37.946  1.00  0.00     0.134 A 
ATOM     73  F   UNL A   1      40.296  34.246  39.930  1.00  0.00    -0.206 F 
ATOM     74  C   UNL A   1      40.854  36.523  39.844  1.00  0.00     0.040 A 
ATOM     75  C   UNL A   1      42.615  37.278  38.389  1.00  0.00     0.040 A 
ATOM     76  F   UNL A   1      43.749  35.749  37.020  1.00  0.00    -0.206 F 
ATOM     77  C   UNL A   1      41.631  37.559  39.332  1.00  0.00     0.006 A 
ENDBRANCH  56  70
BRANCH  57  78
ATOM     78  C   UNL A   1      43.364  25.771  34.643  1.00  0.00     0.057 A 
ATOM     79  C   UNL A   1      42.710  24.664  35.197  1.00  0.00     0.134 A 
ATOM     80  C   UNL A   1      44.223  25.538  33.563  1.00  0.00     0.134 A 
ATOM     81  F   UNL A   1      41.891  24.819  36.248  1.00  0.00    -0.206 F 
ATOM     82  C   UNL A   1      42.918  23.373  34.710  1.00  0.00     0.040 A 
ATOM     83  C   UNL A   1      44.419  24.257  33.047  1.00  0.00     0.040 A 
ATOM     84  F   UNL A   1      44.876  26.558  32.985  1.00  0.00    -0.206 F 
ATOM     85  C   UNL A   1      43.771  23.167  33.626  1.00  0.00     0.006 A 
ENDBRANCH  57  78
BRANCH  69  86
ATOM     86  C   UNL A   1      46.370  29.293  39.842  1.00  0.00     0.057 A 
ATOM     87  C   UNL A   1      46.078  28.656  41.055  1.00  0.00     0.134 A 
ATOM     88  C   UNL A   1      47.717  29.564  39.564  1.00  0.00     0.134 A 
ATOM     89  F   UNL A   1      44.810  28.377  41.389  1.00  0.00    -0.206 F 
ATOM     90  C   UNL A   1      47.083  28.336  41.971  1.00  0.00     0.040 A 
ATOM     91  C   UNL A   1      48.732  29.219  40.457  1.00  0.00     0.040 A 
ATOM     92  F   UNL A   1      48.070  30.161  38.416  1.00  0.00    -0.206 F 
ATOM     93  C   UNL A   1      48.415  28.613  41.670  1.00  0.00     0.006 A 
ENDBRANCH  69  86
ENDBRANCH  43  44
ENDBRANCH  36  38
ENDBRANCH  35  36
ENDBRANCH  34  35
ENDBRANCH  33  34
ENDBRANCH  32  33
ENDBRANCH   1  32
TORSDOF 17
ENDMDL
