MODEL 1
REMARK VINA RESULT:      -9.7      0.000      0.000
REMARK SMILES CCC(CC)[C@H](C(=O)OCCOCCOC(=O)c1ccc(-c2c3nc(c(-c4c(F)cccc4F)c4ccc([nH]4)c(-c4c(F)cccc4F)c4nc(c(-c5c(F)cccc5F)c5ccc2[nH]5)C=C4)C=C3)cc1)c1ccc(OC(F)F)cc1
REMARK SMILES IDX 11 1 10 2 9 3 7 4 8 5 6 6 3 7 2 8 1 9 4 10 5 11 72 12 73 13
REMARK SMILES IDX 81 14 74 15 80 16 75 17 76 18 77 19 78 20 79 21 12 22 13 23
REMARK SMILES IDX 14 24 15 25 16 26 17 27 18 28 19 29 71 30 20 31 70 32 21 33
REMARK SMILES IDX 22 34 23 35 64 36 24 37 69 38 63 39 65 40 25 41 68 42 62 43
REMARK SMILES IDX 61 44 26 46 52 47 35 48 51 49 36 50 39 51 50 52 66 53 37 54
REMARK SMILES IDX 38 55 49 57 67 58 40 59 27 60 28 61 33 62 29 63 30 64 32 65
REMARK SMILES IDX 34 66 31 67 53 68 54 69 59 70 55 71 56 72 58 73 60 74 57 75
REMARK SMILES IDX 41 76 42 77 47 78 43 79 44 80 46 81 48 82 45 83
REMARK H PARENT 65 45 39 56
REMARK Flexibility Score: inf
ROOT
ATOM      1  C   UNL A   1      38.116  23.082  25.534  1.00  0.00     0.202 C 
ENDROOT
BRANCH   1   2
ATOM      2  C   UNL A   1      36.725  23.717  25.432  1.00  0.00     0.261 C 
BRANCH   2   3
ATOM      3  O   UNL A   1      36.286  23.863  24.063  1.00  0.00    -0.463 OA
BRANCH   3   4
ATOM      4  C   UNL A   1      34.949  23.967  23.840  1.00  0.00     0.313 C 
ATOM      5  O   UNL A   1      34.450  24.530  22.871  1.00  0.00    -0.252 OA
BRANCH   4   6
ATOM      6  C   UNL A   1      34.112  23.396  24.991  1.00  0.00     0.132 C 
BRANCH   6   7
ATOM      7  C   UNL A   1      33.050  24.402  25.567  1.00  0.00     0.007 C 
BRANCH   7   8
ATOM      8  C   UNL A   1      32.229  23.775  26.719  1.00  0.00     0.001 C 
ATOM      9  C   UNL A   1      30.744  23.607  26.422  1.00  0.00     0.004 C 
ENDBRANCH   7   8
BRANCH   7  10
ATOM     10  C   UNL A   1      33.601  25.824  25.831  1.00  0.00     0.001 C 
ATOM     11  C   UNL A   1      32.615  26.866  26.318  1.00  0.00     0.004 C 
ENDBRANCH   7  10
ENDBRANCH   6   7
BRANCH   6  12
ATOM     12  C   UNL A   1      33.622  21.969  24.690  1.00  0.00    -0.033 A 
ATOM     13  C   UNL A   1      32.700  21.691  23.671  1.00  0.00     0.008 A 
ATOM     14  C   UNL A   1      34.031  20.892  25.498  1.00  0.00     0.008 A 
ATOM     15  C   UNL A   1      32.268  20.384  23.425  1.00  0.00     0.047 A 
ATOM     16  C   UNL A   1      33.603  19.583  25.247  1.00  0.00     0.047 A 
ATOM     17  C   UNL A   1      32.730  19.318  24.197  1.00  0.00     0.126 A 
BRANCH  17  18
ATOM     18  O   UNL A   1      32.246  18.095  23.837  1.00  0.00    -0.435 OA
BRANCH  18  19
ATOM     19  C   UNL A   1      32.816  17.464  22.698  1.00  0.00     0.542 C 
ATOM     20  F   UNL A   1      32.571  18.196  21.584  1.00  0.00    -0.167 F 
ATOM     21  F   UNL A   1      34.157  17.353  22.850  1.00  0.00    -0.167 F 
ENDBRANCH  18  19
ENDBRANCH  17  18
ENDBRANCH   6  12
ENDBRANCH   4   6
ENDBRANCH   3   4
ENDBRANCH   2   3
ENDBRANCH   1   2
BRANCH   1  22
ATOM     22  O   UNL A   1      38.107  21.751  26.050  1.00  0.00    -0.374 OA
BRANCH  22  23
ATOM     23  C   UNL A   1      37.770  20.727  25.115  1.00  0.00     0.202 C 
BRANCH  23  24
ATOM     24  C   UNL A   1      38.913  19.743  24.852  1.00  0.00     0.261 C 
BRANCH  24  25
ATOM     25  O   UNL A   1      39.593  19.421  26.082  1.00  0.00    -0.460 OA
BRANCH  25  26
ATOM     26  C   UNL A   1      40.938  19.582  26.076  1.00  0.00     0.338 C 
ATOM     27  O   UNL A   1      41.770  18.849  25.568  1.00  0.00    -0.246 OA
BRANCH  26  28
ATOM     28  C   UNL A   1      41.265  20.911  26.634  1.00  0.00     0.060 A 
ATOM     29  C   UNL A   1      41.754  21.885  25.755  1.00  0.00     0.016 A 
ATOM     30  C   UNL A   1      41.082  21.214  27.986  1.00  0.00     0.016 A 
ATOM     31  C   UNL A   1      42.064  23.163  26.225  1.00  0.00     0.010 A 
ATOM     32  C   UNL A   1      41.384  22.498  28.454  1.00  0.00     0.010 A 
ATOM     33  C   UNL A   1      41.894  23.476  27.580  1.00  0.00    -0.014 A 
BRANCH  33  34
ATOM     34  C   UNL A   1      42.386  24.773  28.113  1.00  0.00     0.031 A 
ATOM     35  C   UNL A   1      41.397  25.882  28.340  1.00  0.00     0.074 A 
ATOM     36  C   UNL A   1      43.684  24.968  28.412  1.00  0.00     0.049 A 
ATOM     37  N   UNL A   1      41.599  27.102  28.768  1.00  0.00    -0.248 NA
ATOM     38  C   UNL A   1      39.988  25.575  28.039  1.00  0.00     0.031 C 
ATOM     39  C   UNL A   1      44.749  23.978  28.266  1.00  0.00     0.029 A 
ATOM     40  N   UNL A   1      44.327  26.082  28.897  1.00  0.00    -0.354 N 
ATOM     41  C   UNL A   1      40.350  27.708  28.783  1.00  0.00     0.074 A 
ATOM     42  C   UNL A   1      39.400  26.736  28.285  1.00  0.00     0.031 C 
ATOM     43  C   UNL A   1      45.914  24.529  28.650  1.00  0.00     0.029 A 
ATOM     44  C   UNL A   1      45.683  25.919  29.042  1.00  0.00     0.049 A 
ATOM     45  H   UNL A   1      43.858  26.919  29.120  1.00  0.00     0.167 HD
ATOM     46  C   UNL A   1      40.015  28.954  29.189  1.00  0.00     0.037 A 
ATOM     47  C   UNL A   1      46.631  26.796  29.429  1.00  0.00     0.037 A 
ATOM     48  C   UNL A   1      40.944  29.923  29.700  1.00  0.00     0.049 A 
ATOM     49  C   UNL A   1      46.243  28.205  29.801  1.00  0.00     0.074 A 
ATOM     50  C   UNL A   1      40.684  31.194  30.182  1.00  0.00     0.029 A 
ATOM     51  N   UNL A   1      42.314  29.734  29.788  1.00  0.00    -0.354 N 
ATOM     52  N   UNL A   1      45.053  28.749  29.857  1.00  0.00    -0.248 NA
ATOM     53  C   UNL A   1      47.337  29.124  30.156  1.00  0.00     0.031 C 
ATOM     54  C   UNL A   1      41.902  31.793  30.517  1.00  0.00     0.029 A 
ATOM     55  C   UNL A   1      42.916  30.879  30.281  1.00  0.00     0.049 A 
ATOM     56  H   UNL A   1      42.787  28.908  29.536  1.00  0.00     0.167 HD
ATOM     57  C   UNL A   1      45.251  30.061  30.273  1.00  0.00     0.074 A 
ATOM     58  C   UNL A   1      46.675  30.230  30.468  1.00  0.00     0.031 C 
ATOM     59  C   UNL A   1      44.334  31.038  30.474  1.00  0.00     0.037 A 
BRANCH  46  60
ATOM     60  C   UNL A   1      38.573  29.344  29.084  1.00  0.00     0.057 A 
ATOM     61  C   UNL A   1      38.005  29.743  27.867  1.00  0.00     0.134 A 
ATOM     62  C   UNL A   1      37.738  29.293  30.207  1.00  0.00     0.134 A 
ATOM     63  F   UNL A   1      38.758  29.827  26.761  1.00  0.00    -0.206 F 
ATOM     64  C   UNL A   1      36.659  30.099  27.777  1.00  0.00     0.040 A 
ATOM     65  C   UNL A   1      36.386  29.624  30.124  1.00  0.00     0.040 A 
ATOM     66  F   UNL A   1      38.224  28.917  31.399  1.00  0.00    -0.206 F 
ATOM     67  C   UNL A   1      35.844  30.032  28.906  1.00  0.00     0.006 A 
ENDBRANCH  46  60
BRANCH  47  68
ATOM     68  C   UNL A   1      48.059  26.388  29.468  1.00  0.00     0.057 A 
ATOM     69  C   UNL A   1      48.890  26.552  28.353  1.00  0.00     0.134 A 
ATOM     70  C   UNL A   1      48.609  25.774  30.599  1.00  0.00     0.134 A 
ATOM     71  F   UNL A   1      48.411  27.104  27.229  1.00  0.00    -0.206 F 
ATOM     72  C   UNL A   1      50.213  26.104  28.355  1.00  0.00     0.040 A 
ATOM     73  C   UNL A   1      49.937  25.343  30.623  1.00  0.00     0.040 A 
ATOM     74  F   UNL A   1      47.863  25.582  31.695  1.00  0.00    -0.206 F 
ATOM     75  C   UNL A   1      50.740  25.499  29.495  1.00  0.00     0.006 A 
ENDBRANCH  47  68
BRANCH  59  76
ATOM     76  C   UNL A   1      44.829  32.375  30.942  1.00  0.00     0.057 A 
ATOM     77  C   UNL A   1      45.126  33.404  30.040  1.00  0.00     0.134 A 
ATOM     78  C   UNL A   1      44.944  32.658  32.308  1.00  0.00     0.134 A 
ATOM     79  F   UNL A   1      45.048  33.193  28.717  1.00  0.00    -0.206 F 
ATOM     80  C   UNL A   1      45.529  34.666  30.481  1.00  0.00     0.040 A 
ATOM     81  C   UNL A   1      45.324  33.923  32.762  1.00  0.00     0.040 A 
ATOM     82  F   UNL A   1      44.666  31.719  33.225  1.00  0.00    -0.206 F 
ATOM     83  C   UNL A   1      45.621  34.930  31.847  1.00  0.00     0.006 A 
ENDBRANCH  59  76
ENDBRANCH  33  34
ENDBRANCH  26  28
ENDBRANCH  25  26
ENDBRANCH  24  25
ENDBRANCH  23  24
ENDBRANCH  22  23
ENDBRANCH   1  22
TORSDOF 20
ENDMDL
MODEL 2
REMARK VINA RESULT:      -9.6      1.433      1.970
REMARK SMILES CCC(CC)[C@H](C(=O)OCCOCCOC(=O)c1ccc(-c2c3nc(c(-c4c(F)cccc4F)c4ccc([nH]4)c(-c4c(F)cccc4F)c4nc(c(-c5c(F)cccc5F)c5ccc2[nH]5)C=C4)C=C3)cc1)c1ccc(OC(F)F)cc1
REMARK SMILES IDX 11 1 10 2 9 3 7 4 8 5 6 6 3 7 2 8 1 9 4 10 5 11 72 12 73 13
REMARK SMILES IDX 81 14 74 15 80 16 75 17 76 18 77 19 78 20 79 21 12 22 13 23
REMARK SMILES IDX 14 24 15 25 16 26 17 27 18 28 19 29 71 30 20 31 70 32 21 33
REMARK SMILES IDX 22 34 23 35 64 36 24 37 69 38 63 39 65 40 25 41 68 42 62 43
REMARK SMILES IDX 61 44 26 46 52 47 35 48 51 49 36 50 39 51 50 52 66 53 37 54
REMARK SMILES IDX 38 55 49 57 67 58 40 59 27 60 28 61 33 62 29 63 30 64 32 65
REMARK SMILES IDX 34 66 31 67 53 68 54 69 59 70 55 71 56 72 58 73 60 74 57 75
REMARK SMILES IDX 41 76 42 77 47 78 43 79 44 80 46 81 48 82 45 83
REMARK H PARENT 65 45 39 56
REMARK Flexibility Score: inf
ROOT
ATOM      1  C   UNL A   1      37.687  23.011  25.968  1.00  0.00     0.202 C 
ENDROOT
BRANCH   1   2
ATOM      2  C   UNL A   1      36.401  23.739  25.564  1.00  0.00     0.261 C 
BRANCH   2   3
ATOM      3  O   UNL A   1      36.208  23.762  24.131  1.00  0.00    -0.463 OA
BRANCH   3   4
ATOM      4  C   UNL A   1      34.939  23.624  23.666  1.00  0.00     0.313 C 
ATOM      5  O   UNL A   1      34.571  23.965  22.547  1.00  0.00    -0.252 OA
BRANCH   4   6
ATOM      6  C   UNL A   1      33.975  23.089  24.731  1.00  0.00     0.132 C 
BRANCH   6   7
ATOM      7  C   UNL A   1      32.799  24.073  25.078  1.00  0.00     0.007 C 
BRANCH   7   8
ATOM      8  C   UNL A   1      32.164  23.750  26.452  1.00  0.00     0.001 C 
ATOM      9  C   UNL A   1      30.752  23.181  26.382  1.00  0.00     0.004 C 
ENDBRANCH   7   8
BRANCH   7  10
ATOM     10  C   UNL A   1      33.122  25.564  24.820  1.00  0.00     0.001 C 
ATOM     11  C   UNL A   1      33.479  26.410  26.025  1.00  0.00     0.004 C 
ENDBRANCH   7  10
ENDBRANCH   6   7
BRANCH   6  12
ATOM     12  C   UNL A   1      33.596  21.620  24.476  1.00  0.00    -0.033 A 
ATOM     13  C   UNL A   1      34.333  20.550  25.003  1.00  0.00     0.008 A 
ATOM     14  C   UNL A   1      32.524  21.301  23.621  1.00  0.00     0.008 A 
ATOM     15  C   UNL A   1      33.967  19.225  24.748  1.00  0.00     0.047 A 
ATOM     16  C   UNL A   1      32.154  19.975  23.372  1.00  0.00     0.047 A 
ATOM     17  C   UNL A   1      32.865  18.927  23.948  1.00  0.00     0.126 A 
BRANCH  17  18
ATOM     18  O   UNL A   1      32.606  17.596  23.799  1.00  0.00    -0.435 OA
BRANCH  18  19
ATOM     19  C   UNL A   1      33.693  16.689  23.921  1.00  0.00     0.542 C 
ATOM     20  F   UNL A   1      33.239  15.452  24.239  1.00  0.00    -0.167 F 
ATOM     21  F   UNL A   1      34.365  16.609  22.748  1.00  0.00    -0.167 F 
ENDBRANCH  18  19
ENDBRANCH  17  18
ENDBRANCH   6  12
ENDBRANCH   4   6
ENDBRANCH   3   4
ENDBRANCH   2   3
ENDBRANCH   1   2
BRANCH   1  22
ATOM     22  O   UNL A   1      37.591  21.587  25.901  1.00  0.00    -0.374 OA
BRANCH  22  23
ATOM     23  C   UNL A   1      38.677  20.925  25.255  1.00  0.00     0.202 C 
BRANCH  23  24
ATOM     24  C   UNL A   1      39.337  19.850  26.123  1.00  0.00     0.261 C 
BRANCH  24  25
ATOM     25  O   UNL A   1      40.399  19.199  25.399  1.00  0.00    -0.460 OA
BRANCH  25  26
ATOM     26  C   UNL A   1      41.604  19.163  26.018  1.00  0.00     0.338 C 
ATOM     27  O   UNL A   1      42.353  18.208  26.129  1.00  0.00    -0.246 OA
BRANCH  26  28
ATOM     28  C   UNL A   1      41.986  20.539  26.401  1.00  0.00     0.060 A 
ATOM     29  C   UNL A   1      42.268  21.448  25.375  1.00  0.00     0.016 A 
ATOM     30  C   UNL A   1      42.052  20.945  27.737  1.00  0.00     0.016 A 
ATOM     31  C   UNL A   1      42.620  22.765  25.680  1.00  0.00     0.010 A 
ATOM     32  C   UNL A   1      42.394  22.268  28.041  1.00  0.00     0.010 A 
ATOM     33  C   UNL A   1      42.699  23.182  27.015  1.00  0.00    -0.014 A 
BRANCH  33  34
ATOM     34  C   UNL A   1      43.239  24.526  27.346  1.00  0.00     0.031 A 
ATOM     35  C   UNL A   1      42.284  25.600  27.787  1.00  0.00     0.074 A 
ATOM     36  C   UNL A   1      44.557  24.794  27.277  1.00  0.00     0.049 A 
ATOM     37  N   UNL A   1      42.523  26.849  28.097  1.00  0.00    -0.248 NA
ATOM     38  C   UNL A   1      40.867  25.215  27.887  1.00  0.00     0.031 C 
ATOM     39  C   UNL A   1      45.599  23.847  26.889  1.00  0.00     0.029 A 
ATOM     40  N   UNL A   1      45.241  25.960  27.528  1.00  0.00    -0.354 N 
ATOM     41  C   UNL A   1      41.290  27.398  28.423  1.00  0.00     0.074 A 
ATOM     42  C   UNL A   1      40.299  26.359  28.237  1.00  0.00     0.031 C 
ATOM     43  C   UNL A   1      46.791  24.469  26.924  1.00  0.00     0.029 A 
ATOM     44  C   UNL A   1      46.594  25.866  27.309  1.00  0.00     0.049 A 
ATOM     45  H   UNL A   1      44.801  26.786  27.836  1.00  0.00     0.167 HD
ATOM     46  C   UNL A   1      41.005  28.647  28.856  1.00  0.00     0.037 A 
ATOM     47  C   UNL A   1      47.558  26.804  27.393  1.00  0.00     0.037 A 
ATOM     48  C   UNL A   1      41.979  29.683  29.060  1.00  0.00     0.049 A 
ATOM     49  C   UNL A   1      47.203  28.212  27.800  1.00  0.00     0.074 A 
ATOM     50  C   UNL A   1      41.784  30.964  29.545  1.00  0.00     0.029 A 
ATOM     51  N   UNL A   1      43.331  29.560  28.784  1.00  0.00    -0.354 N 
ATOM     52  N   UNL A   1      46.042  28.704  28.153  1.00  0.00    -0.248 NA
ATOM     53  C   UNL A   1      48.297  29.197  27.812  1.00  0.00     0.031 C 
ATOM     54  C   UNL A   1      43.011  31.635  29.516  1.00  0.00     0.029 A 
ATOM     55  C   UNL A   1      43.977  30.756  29.052  1.00  0.00     0.049 A 
ATOM     56  H   UNL A   1      43.767  28.744  28.447  1.00  0.00     0.167 HD
ATOM     57  C   UNL A   1      46.268  30.044  28.449  1.00  0.00     0.074 A 
ATOM     58  C   UNL A   1      47.680  30.287  28.247  1.00  0.00     0.031 C 
ATOM     59  C   UNL A   1      45.383  30.988  28.851  1.00  0.00     0.037 A 
BRANCH  46  60
ATOM     60  C   UNL A   1      39.567  28.966  29.127  1.00  0.00     0.057 A 
ATOM     61  C   UNL A   1      38.713  29.432  28.118  1.00  0.00     0.134 A 
ATOM     62  C   UNL A   1      39.025  28.778  30.404  1.00  0.00     0.134 A 
ATOM     63  F   UNL A   1      39.179  29.648  26.880  1.00  0.00    -0.206 F 
ATOM     64  C   UNL A   1      37.373  29.721  28.378  1.00  0.00     0.040 A 
ATOM     65  C   UNL A   1      37.682  29.042  30.670  1.00  0.00     0.040 A 
ATOM     66  F   UNL A   1      39.792  28.333  31.410  1.00  0.00    -0.206 F 
ATOM     67  C   UNL A   1      36.853  29.519  29.655  1.00  0.00     0.006 A 
ENDBRANCH  46  60
BRANCH  47  68
ATOM     68  C   UNL A   1      48.965  26.463  27.062  1.00  0.00     0.057 A 
ATOM     69  C   UNL A   1      49.427  26.491  25.741  1.00  0.00     0.134 A 
ATOM     70  C   UNL A   1      49.865  26.048  28.051  1.00  0.00     0.134 A 
ATOM     71  F   UNL A   1      48.603  26.849  24.746  1.00  0.00    -0.206 F 
ATOM     72  C   UNL A   1      50.727  26.101  25.412  1.00  0.00     0.040 A 
ATOM     73  C   UNL A   1      51.174  25.677  27.740  1.00  0.00     0.040 A 
ATOM     74  F   UNL A   1      49.481  25.993  29.335  1.00  0.00    -0.206 F 
ATOM     75  C   UNL A   1      51.605  25.695  26.415  1.00  0.00     0.006 A 
ENDBRANCH  47  68
BRANCH  59  76
ATOM     76  C   UNL A   1      45.907  32.369  29.116  1.00  0.00     0.057 A 
ATOM     77  C   UNL A   1      46.439  32.726  30.361  1.00  0.00     0.134 A 
ATOM     78  C   UNL A   1      45.941  33.329  28.097  1.00  0.00     0.134 A 
ATOM     79  F   UNL A   1      46.425  31.855  31.382  1.00  0.00    -0.206 F 
ATOM     80  C   UNL A   1      46.981  33.992  30.586  1.00  0.00     0.040 A 
ATOM     81  C   UNL A   1      46.500  34.592  28.303  1.00  0.00     0.040 A 
ATOM     82  F   UNL A   1      45.455  33.048  26.880  1.00  0.00    -0.206 F 
ATOM     83  C   UNL A   1      47.020  34.927  29.552  1.00  0.00     0.006 A 
ENDBRANCH  59  76
ENDBRANCH  33  34
ENDBRANCH  26  28
ENDBRANCH  25  26
ENDBRANCH  24  25
ENDBRANCH  23  24
ENDBRANCH  22  23
ENDBRANCH   1  22
TORSDOF 20
ENDMDL
MODEL 3
REMARK VINA RESULT:      -9.6      1.924      6.151
REMARK SMILES CCC(CC)[C@H](C(=O)OCCOCCOC(=O)c1ccc(-c2c3nc(c(-c4c(F)cccc4F)c4ccc([nH]4)c(-c4c(F)cccc4F)c4nc(c(-c5c(F)cccc5F)c5ccc2[nH]5)C=C4)C=C3)cc1)c1ccc(OC(F)F)cc1
REMARK SMILES IDX 11 1 10 2 9 3 7 4 8 5 6 6 3 7 2 8 1 9 4 10 5 11 72 12 73 13
REMARK SMILES IDX 81 14 74 15 80 16 75 17 76 18 77 19 78 20 79 21 12 22 13 23
REMARK SMILES IDX 14 24 15 25 16 26 17 27 18 28 19 29 71 30 20 31 70 32 21 33
REMARK SMILES IDX 22 34 23 35 64 36 24 37 69 38 63 39 65 40 25 41 68 42 62 43
REMARK SMILES IDX 61 44 26 46 52 47 35 48 51 49 36 50 39 51 50 52 66 53 37 54
REMARK SMILES IDX 38 55 49 57 67 58 40 59 27 60 28 61 33 62 29 63 30 64 32 65
REMARK SMILES IDX 34 66 31 67 53 68 54 69 59 70 55 71 56 72 58 73 60 74 57 75
REMARK SMILES IDX 41 76 42 77 47 78 43 79 44 80 46 81 48 82 45 83
REMARK H PARENT 65 45 39 56
REMARK Flexibility Score: inf
ROOT
ATOM      1  C   UNL A   1      36.872  22.600  25.734  1.00  0.00     0.202 C 
ENDROOT
BRANCH   1   2
ATOM      2  C   UNL A   1      36.547  23.935  25.056  1.00  0.00     0.261 C 
BRANCH   2   3
ATOM      3  O   UNL A   1      35.138  24.075  24.765  1.00  0.00    -0.463 OA
BRANCH   3   4
ATOM      4  C   UNL A   1      34.641  23.371  23.715  1.00  0.00     0.313 C 
ATOM      5  O   UNL A   1      35.251  23.161  22.672  1.00  0.00    -0.252 OA
BRANCH   4   6
ATOM      6  C   UNL A   1      33.182  22.949  23.924  1.00  0.00     0.132 C 
BRANCH   6   7
ATOM      7  C   UNL A   1      32.158  23.728  23.019  1.00  0.00     0.007 C 
BRANCH   7   8
ATOM      8  C   UNL A   1      30.808  23.954  23.742  1.00  0.00     0.001 C 
ATOM      9  C   UNL A   1      30.901  23.995  25.262  1.00  0.00     0.004 C 
ENDBRANCH   7   8
BRANCH   7  10
ATOM     10  C   UNL A   1      32.754  24.966  22.307  1.00  0.00     0.001 C 
ATOM     11  C   UNL A   1      31.796  25.835  21.518  1.00  0.00     0.004 C 
ENDBRANCH   7  10
ENDBRANCH   6   7
BRANCH   6  12
ATOM     12  C   UNL A   1      33.030  21.420  23.982  1.00  0.00    -0.033 A 
ATOM     13  C   UNL A   1      33.571  20.649  25.021  1.00  0.00     0.008 A 
ATOM     14  C   UNL A   1      32.400  20.728  22.931  1.00  0.00     0.008 A 
ATOM     15  C   UNL A   1      33.421  19.259  25.043  1.00  0.00     0.047 A 
ATOM     16  C   UNL A   1      32.244  19.337  22.957  1.00  0.00     0.047 A 
ATOM     17  C   UNL A   1      32.741  18.595  24.023  1.00  0.00     0.126 A 
BRANCH  17  18
ATOM     18  O   UNL A   1      32.648  17.243  24.180  1.00  0.00    -0.435 OA
BRANCH  18  19
ATOM     19  C   UNL A   1      33.655  16.433  23.587  1.00  0.00     0.542 C 
ATOM     20  F   UNL A   1      34.183  17.059  22.507  1.00  0.00    -0.167 F 
ATOM     21  F   UNL A   1      34.650  16.203  24.476  1.00  0.00    -0.167 F 
ENDBRANCH  18  19
ENDBRANCH  17  18
ENDBRANCH   6  12
ENDBRANCH   4   6
ENDBRANCH   3   4
ENDBRANCH   2   3
ENDBRANCH   1   2
BRANCH   1  22
ATOM     22  O   UNL A   1      37.650  21.716  24.927  1.00  0.00    -0.374 OA
BRANCH  22  23
ATOM     23  C   UNL A   1      37.506  20.327  25.217  1.00  0.00     0.202 C 
BRANCH  23  24
ATOM     24  C   UNL A   1      38.827  19.555  25.168  1.00  0.00     0.261 C 
BRANCH  24  25
ATOM     25  O   UNL A   1      39.492  19.612  26.446  1.00  0.00    -0.460 OA
BRANCH  25  26
ATOM     26  C   UNL A   1      40.829  19.824  26.408  1.00  0.00     0.338 C 
ATOM     27  O   UNL A   1      41.689  19.067  25.992  1.00  0.00    -0.246 OA
BRANCH  26  28
ATOM     28  C   UNL A   1      41.103  21.226  26.790  1.00  0.00     0.060 A 
ATOM     29  C   UNL A   1      40.736  22.232  25.888  1.00  0.00     0.016 A 
ATOM     30  C   UNL A   1      41.691  21.561  28.013  1.00  0.00     0.016 A 
ATOM     31  C   UNL A   1      40.958  23.574  26.204  1.00  0.00     0.010 A 
ATOM     32  C   UNL A   1      41.903  22.907  28.333  1.00  0.00     0.010 A 
ATOM     33  C   UNL A   1      41.555  23.922  27.422  1.00  0.00    -0.014 A 
BRANCH  33  34
ATOM     34  C   UNL A   1      41.949  25.330  27.684  1.00  0.00     0.031 A 
ATOM     35  C   UNL A   1      43.289  25.807  27.198  1.00  0.00     0.074 A 
ATOM     36  C   UNL A   1      41.130  26.185  28.326  1.00  0.00     0.049 A 
ATOM     37  N   UNL A   1      43.854  26.980  27.337  1.00  0.00    -0.248 NA
ATOM     38  C   UNL A   1      44.104  24.829  26.459  1.00  0.00     0.031 C 
ATOM     39  C   UNL A   1      39.796  25.870  28.832  1.00  0.00     0.029 A 
ATOM     40  N   UNL A   1      41.314  27.504  28.669  1.00  0.00    -0.354 N 
ATOM     41  C   UNL A   1      45.088  26.878  26.709  1.00  0.00     0.074 A 
ATOM     42  C   UNL A   1      45.208  25.521  26.223  1.00  0.00     0.031 C 
ATOM     43  C   UNL A   1      39.282  26.963  29.424  1.00  0.00     0.029 A 
ATOM     44  C   UNL A   1      40.262  28.048  29.364  1.00  0.00     0.049 A 
ATOM     45  H   UNL A   1      42.126  28.012  28.436  1.00  0.00     0.167 HD
ATOM     46  C   UNL A   1      46.033  27.831  26.535  1.00  0.00     0.037 A 
ATOM     47  C   UNL A   1      40.113  29.273  29.905  1.00  0.00     0.037 A 
ATOM     48  C   UNL A   1      45.921  29.186  26.998  1.00  0.00     0.049 A 
ATOM     49  C   UNL A   1      41.215  30.293  29.767  1.00  0.00     0.074 A 
ATOM     50  C   UNL A   1      46.810  30.232  26.822  1.00  0.00     0.029 A 
ATOM     51  N   UNL A   1      44.859  29.683  27.736  1.00  0.00    -0.354 N 
ATOM     52  N   UNL A   1      42.355  30.200  29.129  1.00  0.00    -0.248 NA
ATOM     53  C   UNL A   1      41.009  31.590  30.434  1.00  0.00     0.031 C 
ATOM     54  C   UNL A   1      46.310  31.350  27.496  1.00  0.00     0.029 A 
ATOM     55  C   UNL A   1      45.089  31.010  28.056  1.00  0.00     0.049 A 
ATOM     56  H   UNL A   1      44.061  29.167  27.995  1.00  0.00     0.167 HD
ATOM     57  C   UNL A   1      42.990  31.425  29.299  1.00  0.00     0.074 A 
ATOM     58  C   UNL A   1      42.104  32.253  30.088  1.00  0.00     0.031 C 
ATOM     59  C   UNL A   1      44.200  31.827  28.840  1.00  0.00     0.037 A 
BRANCH  46  60
ATOM     60  C   UNL A   1      47.285  27.430  25.818  1.00  0.00     0.057 A 
ATOM     61  C   UNL A   1      47.415  27.566  24.430  1.00  0.00     0.134 A 
ATOM     62  C   UNL A   1      48.382  26.926  26.528  1.00  0.00     0.134 A 
ATOM     63  F   UNL A   1      46.393  28.027  23.694  1.00  0.00    -0.206 F 
ATOM     64  C   UNL A   1      48.588  27.195  23.770  1.00  0.00     0.040 A 
ATOM     65  C   UNL A   1      49.567  26.574  25.883  1.00  0.00     0.040 A 
ATOM     66  F   UNL A   1      48.319  26.773  27.859  1.00  0.00    -0.206 F 
ATOM     67  C   UNL A   1      49.670  26.705  24.499  1.00  0.00     0.006 A 
ENDBRANCH  46  60
BRANCH  47  68
ATOM     68  C   UNL A   1      38.879  29.615  30.657  1.00  0.00     0.057 A 
ATOM     69  C   UNL A   1      37.825  30.306  30.046  1.00  0.00     0.134 A 
ATOM     70  C   UNL A   1      38.748  29.310  32.017  1.00  0.00     0.134 A 
ATOM     71  F   UNL A   1      37.905  30.654  28.754  1.00  0.00    -0.206 F 
ATOM     72  C   UNL A   1      36.693  30.696  30.765  1.00  0.00     0.040 A 
ATOM     73  C   UNL A   1      37.612  29.674  32.742  1.00  0.00     0.040 A 
ATOM     74  F   UNL A   1      39.726  28.657  32.661  1.00  0.00    -0.206 F 
ATOM     75  C   UNL A   1      36.584  30.378  32.117  1.00  0.00     0.006 A 
ENDBRANCH  47  68
BRANCH  59  76
ATOM     76  C   UNL A   1      44.640  33.225  29.163  1.00  0.00     0.057 A 
ATOM     77  C   UNL A   1      45.417  33.508  30.293  1.00  0.00     0.134 A 
ATOM     78  C   UNL A   1      44.341  34.287  28.301  1.00  0.00     0.134 A 
ATOM     79  F   UNL A   1      45.728  32.536  31.165  1.00  0.00    -0.206 F 
ATOM     80  C   UNL A   1      45.875  34.799  30.558  1.00  0.00     0.040 A 
ATOM     81  C   UNL A   1      44.811  35.579  28.543  1.00  0.00     0.040 A 
ATOM     82  F   UNL A   1      43.608  34.083  27.197  1.00  0.00    -0.206 F 
ATOM     83  C   UNL A   1      45.579  35.839  29.677  1.00  0.00     0.006 A 
ENDBRANCH  59  76
ENDBRANCH  33  34
ENDBRANCH  26  28
ENDBRANCH  25  26
ENDBRANCH  24  25
ENDBRANCH  23  24
ENDBRANCH  22  23
ENDBRANCH   1  22
TORSDOF 20
ENDMDL
