MODEL 1
REMARK VINA RESULT:     -10.8      0.000      0.000
REMARK SMILES CCc1cc2ccccc2c(=O)n1CC(=O)OCCOCCOC(=O)c1ccc(-c2c3nc(c(-c4c(F)cccc4F)c4ccc([nH]4)c(-c4c(F)cccc4F)c4nc(c(-c5c(F)cccc5F)c5ccc2[nH]5)C=C4)C=C3)cc1
REMARK SMILES IDX 20 1 19 2 18 3 17 4 15 5 16 6 14 7 13 8 3 9 4 10 5 11 11 12
REMARK SMILES IDX 6 13 10 14 12 15 7 16 9 17 8 18 2 19 1 20 21 21 22 22 23 23
REMARK SMILES IDX 24 24 25 25 26 26 27 27 79 28 28 29 78 30 29 31 30 32 31 33
REMARK SMILES IDX 72 34 32 35 77 36 71 37 73 38 33 39 76 40 70 41 69 42 34 44
REMARK SMILES IDX 60 45 43 46 59 47 44 48 47 49 58 50 74 51 45 52 46 53 57 55
REMARK SMILES IDX 75 56 48 57 35 58 36 59 41 60 37 61 38 62 40 63 42 64 39 65
REMARK SMILES IDX 61 66 62 67 67 68 63 69 64 70 66 71 68 72 65 73 49 74 50 75
REMARK SMILES IDX 55 76 51 77 52 78 54 79 56 80 53 81
REMARK H PARENT 73 43 47 54
REMARK Flexibility Score: inf
ROOT
ATOM      1  O   UNL A   1      35.065  35.909  32.871  1.00  0.00    -0.374 OA
ENDROOT
BRANCH   1   2
ATOM      2  C   UNL A   1      33.641  35.927  32.879  1.00  0.00     0.202 C 
BRANCH   2   3
ATOM      3  C   UNL A   1      32.915  35.835  31.530  1.00  0.00     0.261 C 
BRANCH   3   4
ATOM      4  O   UNL A   1      33.758  35.330  30.478  1.00  0.00    -0.462 OA
BRANCH   4   5
ATOM      5  C   UNL A   1      33.371  35.666  29.216  1.00  0.00     0.326 C 
ATOM      6  O   UNL A   1      32.455  36.442  28.957  1.00  0.00    -0.250 OA
BRANCH   5   7
ATOM      7  C   UNL A   1      34.262  35.089  28.117  1.00  0.00     0.248 C 
BRANCH   7   8
ATOM      8  N   UNL A   1      34.424  33.636  27.991  1.00  0.00    -0.301 N 
ATOM      9  C   UNL A   1      35.629  32.971  28.271  1.00  0.00     0.022 A 
ATOM     10  C   UNL A   1      35.685  31.625  28.179  1.00  0.00     0.030 A 
ATOM     11  C   UNL A   1      34.560  30.833  27.700  1.00  0.00    -0.011 A 
ATOM     12  C   UNL A   1      33.254  32.929  27.627  1.00  0.00     0.259 A 
ATOM     13  C   UNL A   1      34.680  29.457  27.470  1.00  0.00     0.009 A 
ATOM     14  C   UNL A   1      33.360  31.470  27.406  1.00  0.00     0.047 A 
ATOM     15  O   UNL A   1      32.152  33.456  27.468  1.00  0.00    -0.269 OA
ATOM     16  C   UNL A   1      33.615  28.737  26.921  1.00  0.00     0.001 A 
ATOM     17  C   UNL A   1      32.283  30.745  26.876  1.00  0.00     0.014 A 
ATOM     18  C   UNL A   1      32.418  29.382  26.618  1.00  0.00     0.001 A 
BRANCH   9  19
ATOM     19  C   UNL A   1      36.948  33.659  28.614  1.00  0.00     0.051 C 
ATOM     20  C   UNL A   1      37.264  34.204  29.999  1.00  0.00     0.010 C 
ENDBRANCH   9  19
ENDBRANCH   7   8
ENDBRANCH   5   7
ENDBRANCH   4   5
ENDBRANCH   3   4
ENDBRANCH   2   3
ENDBRANCH   1   2
BRANCH   1  21
ATOM     21  C   UNL A   1      35.712  34.723  33.333  1.00  0.00     0.202 C 
BRANCH  21  22
ATOM     22  C   UNL A   1      34.874  33.439  33.401  1.00  0.00     0.261 C 
BRANCH  22  23
ATOM     23  O   UNL A   1      35.580  32.288  32.900  1.00  0.00    -0.460 OA
BRANCH  23  24
ATOM     24  C   UNL A   1      36.700  31.967  33.589  1.00  0.00     0.338 C 
ATOM     25  O   UNL A   1      36.876  32.036  34.798  1.00  0.00    -0.246 OA
BRANCH  24  26
ATOM     26  C   UNL A   1      37.666  31.303  32.694  1.00  0.00     0.060 A 
ATOM     27  C   UNL A   1      37.486  31.273  31.311  1.00  0.00     0.016 A 
ATOM     28  C   UNL A   1      38.814  30.749  33.276  1.00  0.00     0.016 A 
ATOM     29  C   UNL A   1      38.488  30.720  30.506  1.00  0.00     0.010 A 
ATOM     30  C   UNL A   1      39.811  30.198  32.472  1.00  0.00     0.010 A 
ATOM     31  C   UNL A   1      39.667  30.205  31.078  1.00  0.00    -0.014 A 
BRANCH  31  32
ATOM     32  C   UNL A   1      40.808  29.800  30.220  1.00  0.00     0.031 A 
ATOM     33  C   UNL A   1      41.915  30.753  29.883  1.00  0.00     0.074 A 
ATOM     34  C   UNL A   1      40.805  28.558  29.701  1.00  0.00     0.049 A 
ATOM     35  N   UNL A   1      43.001  30.539  29.182  1.00  0.00    -0.248 NA
ATOM     36  C   UNL A   1      41.784  32.126  30.390  1.00  0.00     0.031 C 
ATOM     37  C   UNL A   1      39.754  27.559  29.915  1.00  0.00     0.029 A 
ATOM     38  N   UNL A   1      41.710  27.919  28.892  1.00  0.00    -0.354 N 
ATOM     39  C   UNL A   1      43.692  31.744  29.174  1.00  0.00     0.074 A 
ATOM     40  C   UNL A   1      42.876  32.697  29.898  1.00  0.00     0.031 C 
ATOM     41  C   UNL A   1      40.093  26.424  29.285  1.00  0.00     0.029 A 
ATOM     42  C   UNL A   1      41.362  26.625  28.593  1.00  0.00     0.049 A 
ATOM     43  H   UNL A   1      42.531  28.349  28.558  1.00  0.00     0.167 HD
ATOM     44  C   UNL A   1      44.900  32.022  28.625  1.00  0.00     0.037 A 
ATOM     45  C   UNL A   1      41.995  25.703  27.844  1.00  0.00     0.037 A 
ATOM     46  C   UNL A   1      45.691  31.074  27.878  1.00  0.00     0.049 A 
ATOM     47  C   UNL A   1      43.305  26.061  27.200  1.00  0.00     0.074 A 
ATOM     48  C   UNL A   1      46.947  31.247  27.319  1.00  0.00     0.029 A 
ATOM     49  N   UNL A   1      45.291  29.784  27.563  1.00  0.00    -0.354 N 
ATOM     50  N   UNL A   1      43.995  27.172  27.281  1.00  0.00    -0.248 NA
ATOM     51  C   UNL A   1      43.926  25.027  26.360  1.00  0.00     0.031 C 
ATOM     52  C   UNL A   1      47.278  30.083  26.614  1.00  0.00     0.029 A 
ATOM     53  C   UNL A   1      46.258  29.161  26.787  1.00  0.00     0.049 A 
ATOM     54  H   UNL A   1      44.444  29.370  27.847  1.00  0.00     0.167 HD
ATOM     55  C   UNL A   1      45.143  26.962  26.528  1.00  0.00     0.074 A 
ATOM     56  C   UNL A   1      45.067  25.608  26.020  1.00  0.00     0.031 C 
ATOM     57  C   UNL A   1      46.168  27.815  26.279  1.00  0.00     0.037 A 
BRANCH  44  58
ATOM     58  C   UNL A   1      45.434  33.416  28.802  1.00  0.00     0.057 A 
ATOM     59  C   UNL A   1      45.152  34.419  27.866  1.00  0.00     0.134 A 
ATOM     60  C   UNL A   1      46.253  33.763  29.886  1.00  0.00     0.134 A 
ATOM     61  F   UNL A   1      44.385  34.157  26.797  1.00  0.00    -0.206 F 
ATOM     62  C   UNL A   1      45.657  35.713  28.003  1.00  0.00     0.040 A 
ATOM     63  C   UNL A   1      46.742  35.060  30.050  1.00  0.00     0.040 A 
ATOM     64  F   UNL A   1      46.561  32.854  30.824  1.00  0.00    -0.206 F 
ATOM     65  C   UNL A   1      46.447  36.039  29.103  1.00  0.00     0.006 A 
ENDBRANCH  44  58
BRANCH  45  66
ATOM     66  C   UNL A   1      41.417  24.347  27.675  1.00  0.00     0.057 A 
ATOM     67  C   UNL A   1      40.358  24.104  26.792  1.00  0.00     0.134 A 
ATOM     68  C   UNL A   1      41.940  23.249  28.371  1.00  0.00     0.134 A 
ATOM     69  F   UNL A   1      39.807  25.113  26.102  1.00  0.00    -0.206 F 
ATOM     70  C   UNL A   1      39.843  22.821  26.604  1.00  0.00     0.040 A 
ATOM     71  C   UNL A   1      41.455  21.957  28.170  1.00  0.00     0.040 A 
ATOM     72  F   UNL A   1      42.965  23.415  29.219  1.00  0.00    -0.206 F 
ATOM     73  C   UNL A   1      40.400  21.741  27.285  1.00  0.00     0.006 A 
ENDBRANCH  45  66
BRANCH  57  74
ATOM     74  C   UNL A   1      47.301  27.287  25.443  1.00  0.00     0.057 A 
ATOM     75  C   UNL A   1      47.347  27.539  24.065  1.00  0.00     0.134 A 
ATOM     76  C   UNL A   1      48.346  26.535  25.995  1.00  0.00     0.134 A 
ATOM     77  F   UNL A   1      46.376  28.245  23.467  1.00  0.00    -0.206 F 
ATOM     78  C   UNL A   1      48.392  27.067  23.270  1.00  0.00     0.040 A 
ATOM     79  C   UNL A   1      49.414  26.087  25.215  1.00  0.00     0.040 A 
ATOM     80  F   UNL A   1      48.373  26.272  27.310  1.00  0.00    -0.206 F 
ATOM     81  C   UNL A   1      49.436  26.349  23.847  1.00  0.00     0.006 A 
ENDBRANCH  57  74
ENDBRANCH  31  32
ENDBRANCH  24  26
ENDBRANCH  23  24
ENDBRANCH  22  23
ENDBRANCH  21  22
ENDBRANCH   1  21
TORSDOF 16
ENDMDL
MODEL 2
REMARK VINA RESULT:     -10.6      1.111      2.364
REMARK SMILES CCc1cc2ccccc2c(=O)n1CC(=O)OCCOCCOC(=O)c1ccc(-c2c3nc(c(-c4c(F)cccc4F)c4ccc([nH]4)c(-c4c(F)cccc4F)c4nc(c(-c5c(F)cccc5F)c5ccc2[nH]5)C=C4)C=C3)cc1
REMARK SMILES IDX 20 1 19 2 18 3 17 4 15 5 16 6 14 7 13 8 3 9 4 10 5 11 11 12
REMARK SMILES IDX 6 13 10 14 12 15 7 16 9 17 8 18 2 19 1 20 21 21 22 22 23 23
REMARK SMILES IDX 24 24 25 25 26 26 27 27 79 28 28 29 78 30 29 31 30 32 31 33
REMARK SMILES IDX 72 34 32 35 77 36 71 37 73 38 33 39 76 40 70 41 69 42 34 44
REMARK SMILES IDX 60 45 43 46 59 47 44 48 47 49 58 50 74 51 45 52 46 53 57 55
REMARK SMILES IDX 75 56 48 57 35 58 36 59 41 60 37 61 38 62 40 63 42 64 39 65
REMARK SMILES IDX 61 66 62 67 67 68 63 69 64 70 66 71 68 72 65 73 49 74 50 75
REMARK SMILES IDX 55 76 51 77 52 78 54 79 56 80 53 81
REMARK H PARENT 73 43 47 54
REMARK Flexibility Score: inf
ROOT
ATOM      1  O   UNL A   1      32.826  35.121  31.175  1.00  0.00    -0.374 OA
ENDROOT
BRANCH   1   2
ATOM      2  C   UNL A   1      32.946  35.742  29.899  1.00  0.00     0.202 C 
BRANCH   2   3
ATOM      3  C   UNL A   1      33.274  34.848  28.696  1.00  0.00     0.261 C 
BRANCH   3   4
ATOM      4  O   UNL A   1      34.655  34.444  28.662  1.00  0.00    -0.462 OA
BRANCH   4   5
ATOM      5  C   UNL A   1      34.890  33.240  28.070  1.00  0.00     0.326 C 
ATOM      6  O   UNL A   1      35.843  33.008  27.329  1.00  0.00    -0.250 OA
BRANCH   5   7
ATOM      7  C   UNL A   1      33.930  32.134  28.503  1.00  0.00     0.248 C 
BRANCH   7   8
ATOM      8  N   UNL A   1      33.675  30.993  27.615  1.00  0.00    -0.301 N 
ATOM      9  C   UNL A   1      34.508  29.865  27.557  1.00  0.00     0.022 A 
ATOM     10  C   UNL A   1      34.179  28.833  26.751  1.00  0.00     0.030 A 
ATOM     11  C   UNL A   1      33.033  28.886  25.852  1.00  0.00    -0.011 A 
ATOM     12  C   UNL A   1      32.483  31.076  26.857  1.00  0.00     0.259 A 
ATOM     13  C   UNL A   1      32.789  27.872  24.917  1.00  0.00     0.009 A 
ATOM     14  C   UNL A   1      32.199  29.998  25.884  1.00  0.00     0.047 A 
ATOM     15  O   UNL A   1      31.671  31.997  26.947  1.00  0.00    -0.269 OA
ATOM     16  C   UNL A   1      31.738  27.992  24.004  1.00  0.00     0.001 A 
ATOM     17  C   UNL A   1      31.131  30.110  24.983  1.00  0.00     0.014 A 
ATOM     18  C   UNL A   1      30.912  29.114  24.032  1.00  0.00     0.001 A 
BRANCH   9  19
ATOM     19  C   UNL A   1      35.836  29.720  28.297  1.00  0.00     0.051 C 
ATOM     20  C   UNL A   1      37.182  29.688  27.588  1.00  0.00     0.010 C 
ENDBRANCH   9  19
ENDBRANCH   7   8
ENDBRANCH   5   7
ENDBRANCH   4   5
ENDBRANCH   3   4
ENDBRANCH   2   3
ENDBRANCH   1   2
BRANCH   1  21
ATOM     21  C   UNL A   1      33.987  35.094  32.007  1.00  0.00     0.202 C 
BRANCH  21  22
ATOM     22  C   UNL A   1      34.550  33.720  32.393  1.00  0.00     0.261 C 
BRANCH  22  23
ATOM     23  O   UNL A   1      35.970  33.620  32.175  1.00  0.00    -0.460 OA
BRANCH  23  24
ATOM     24  C   UNL A   1      36.588  32.660  32.904  1.00  0.00     0.338 C 
ATOM     25  O   UNL A   1      36.292  32.272  34.026  1.00  0.00    -0.246 OA
BRANCH  24  26
ATOM     26  C   UNL A   1      37.585  31.963  32.072  1.00  0.00     0.060 A 
ATOM     27  C   UNL A   1      37.578  32.059  30.680  1.00  0.00     0.016 A 
ATOM     28  C   UNL A   1      38.588  31.239  32.731  1.00  0.00     0.016 A 
ATOM     29  C   UNL A   1      38.611  31.460  29.950  1.00  0.00     0.010 A 
ATOM     30  C   UNL A   1      39.616  30.643  32.002  1.00  0.00     0.010 A 
ATOM     31  C   UNL A   1      39.650  30.773  30.607  1.00  0.00    -0.014 A 
BRANCH  31  32
ATOM     32  C   UNL A   1      40.842  30.310  29.854  1.00  0.00     0.031 A 
ATOM     33  C   UNL A   1      41.994  31.224  29.566  1.00  0.00     0.074 A 
ATOM     34  C   UNL A   1      40.847  29.047  29.386  1.00  0.00     0.049 A 
ATOM     35  N   UNL A   1      43.123  30.959  28.958  1.00  0.00    -0.248 NA
ATOM     36  C   UNL A   1      41.858  32.619  30.007  1.00  0.00     0.031 C 
ATOM     37  C   UNL A   1      39.760  28.081  29.559  1.00  0.00     0.029 A 
ATOM     38  N   UNL A   1      41.795  28.357  28.674  1.00  0.00    -0.354 N 
ATOM     39  C   UNL A   1      43.842  32.147  28.955  1.00  0.00     0.074 A 
ATOM     40  C   UNL A   1      42.997  33.147  29.578  1.00  0.00     0.031 C 
ATOM     41  C   UNL A   1      40.117  26.914  29.001  1.00  0.00     0.029 A 
ATOM     42  C   UNL A   1      41.439  27.060  28.400  1.00  0.00     0.049 A 
ATOM     43  H   UNL A   1      42.649  28.755  28.386  1.00  0.00     0.167 HD
ATOM     44  C   UNL A   1      45.095  32.378  28.489  1.00  0.00     0.037 A 
ATOM     45  C   UNL A   1      42.104  26.095  27.738  1.00  0.00     0.037 A 
ATOM     46  C   UNL A   1      45.916  31.383  27.842  1.00  0.00     0.049 A 
ATOM     47  C   UNL A   1      43.467  26.398  27.182  1.00  0.00     0.074 A 
ATOM     48  C   UNL A   1      47.214  31.506  27.374  1.00  0.00     0.029 A 
ATOM     49  N   UNL A   1      45.510  30.089  27.548  1.00  0.00    -0.354 N 
ATOM     50  N   UNL A   1      44.175  27.497  27.271  1.00  0.00    -0.248 NA
ATOM     51  C   UNL A   1      44.124  25.318  26.433  1.00  0.00     0.031 C 
ATOM     52  C   UNL A   1      47.569  30.308  26.742  1.00  0.00     0.029 A 
ATOM     53  C   UNL A   1      46.517  29.416  26.873  1.00  0.00     0.049 A 
ATOM     54  H   UNL A   1      44.634  29.706  27.783  1.00  0.00     0.167 HD
ATOM     55  C   UNL A   1      45.371  27.232  26.616  1.00  0.00     0.074 A 
ATOM     56  C   UNL A   1      45.301  25.860  26.158  1.00  0.00     0.031 C 
ATOM     57  C   UNL A   1      46.433  28.052  26.413  1.00  0.00     0.037 A 
BRANCH  44  58
ATOM     58  C   UNL A   1      45.647  33.766  28.652  1.00  0.00     0.057 A 
ATOM     59  C   UNL A   1      46.283  34.153  29.839  1.00  0.00     0.134 A 
ATOM     60  C   UNL A   1      45.527  34.733  27.644  1.00  0.00     0.134 A 
ATOM     61  F   UNL A   1      46.424  33.284  30.851  1.00  0.00    -0.206 F 
ATOM     62  C   UNL A   1      46.783  35.444  30.015  1.00  0.00     0.040 A 
ATOM     63  C   UNL A   1      46.048  36.019  27.797  1.00  0.00     0.040 A 
ATOM     64  F   UNL A   1      44.934  34.431  26.479  1.00  0.00    -0.206 F 
ATOM     65  C   UNL A   1      46.674  36.379  28.988  1.00  0.00     0.006 A 
ENDBRANCH  44  58
BRANCH  45  66
ATOM     66  C   UNL A   1      41.507  24.745  27.579  1.00  0.00     0.057 A 
ATOM     67  C   UNL A   1      41.892  23.671  28.391  1.00  0.00     0.134 A 
ATOM     68  C   UNL A   1      40.504  24.508  26.631  1.00  0.00     0.134 A 
ATOM     69  F   UNL A   1      42.852  23.829  29.314  1.00  0.00    -0.206 F 
ATOM     70  C   UNL A   1      41.301  22.413  28.268  1.00  0.00     0.040 A 
ATOM     71  C   UNL A   1      39.884  23.264  26.517  1.00  0.00     0.040 A 
ATOM     72  F   UNL A   1      40.081  25.501  25.835  1.00  0.00    -0.206 F 
ATOM     73  C   UNL A   1      40.284  22.211  27.337  1.00  0.00     0.006 A 
ENDBRANCH  45  66
BRANCH  57  74
ATOM     74  C   UNL A   1      47.612  27.467  25.686  1.00  0.00     0.057 A 
ATOM     75  C   UNL A   1      48.665  26.875  26.397  1.00  0.00     0.134 A 
ATOM     76  C   UNL A   1      47.707  27.481  24.288  1.00  0.00     0.134 A 
ATOM     77  F   UNL A   1      48.645  26.833  27.738  1.00  0.00    -0.206 F 
ATOM     78  C   UNL A   1      49.765  26.317  25.744  1.00  0.00     0.040 A 
ATOM     79  C   UNL A   1      48.786  26.896  23.624  1.00  0.00     0.040 A 
ATOM     80  F   UNL A   1      46.726  28.016  23.546  1.00  0.00    -0.206 F 
ATOM     81  C   UNL A   1      49.822  26.316  24.353  1.00  0.00     0.006 A 
ENDBRANCH  57  74
ENDBRANCH  31  32
ENDBRANCH  24  26
ENDBRANCH  23  24
ENDBRANCH  22  23
ENDBRANCH  21  22
ENDBRANCH   1  21
TORSDOF 16
ENDMDL
MODEL 3
REMARK VINA RESULT:     -10.6      4.307      7.757
REMARK SMILES CCc1cc2ccccc2c(=O)n1CC(=O)OCCOCCOC(=O)c1ccc(-c2c3nc(c(-c4c(F)cccc4F)c4ccc([nH]4)c(-c4c(F)cccc4F)c4nc(c(-c5c(F)cccc5F)c5ccc2[nH]5)C=C4)C=C3)cc1
REMARK SMILES IDX 20 1 19 2 18 3 17 4 15 5 16 6 14 7 13 8 3 9 4 10 5 11 11 12
REMARK SMILES IDX 6 13 10 14 12 15 7 16 9 17 8 18 2 19 1 20 21 21 22 22 23 23
REMARK SMILES IDX 24 24 25 25 26 26 27 27 79 28 28 29 78 30 29 31 30 32 31 33
REMARK SMILES IDX 72 34 32 35 77 36 71 37 73 38 33 39 76 40 70 41 69 42 34 44
REMARK SMILES IDX 60 45 43 46 59 47 44 48 47 49 58 50 74 51 45 52 46 53 57 55
REMARK SMILES IDX 75 56 48 57 35 58 36 59 41 60 37 61 38 62 40 63 42 64 39 65
REMARK SMILES IDX 61 66 62 67 67 68 63 69 64 70 66 71 68 72 65 73 49 74 50 75
REMARK SMILES IDX 55 76 51 77 52 78 54 79 56 80 53 81
REMARK H PARENT 73 43 47 54
REMARK Flexibility Score: inf
ROOT
ATOM      1  O   UNL A   1      31.337  29.812  25.949  1.00  0.00    -0.374 OA
ENDROOT
BRANCH   1   2
ATOM      2  C   UNL A   1      31.975  29.322  27.124  1.00  0.00     0.202 C 
BRANCH   2   3
ATOM      3  C   UNL A   1      32.230  27.813  27.225  1.00  0.00     0.261 C 
BRANCH   3   4
ATOM      4  O   UNL A   1      31.093  27.027  26.821  1.00  0.00    -0.462 OA
BRANCH   4   5
ATOM      5  C   UNL A   1      31.389  25.793  26.328  1.00  0.00     0.326 C 
ATOM      6  O   UNL A   1      31.511  24.783  27.017  1.00  0.00    -0.250 OA
BRANCH   5   7
ATOM      7  C   UNL A   1      31.437  25.726  24.802  1.00  0.00     0.248 C 
BRANCH   7   8
ATOM      8  N   UNL A   1      31.032  26.889  24.003  1.00  0.00    -0.301 N 
ATOM      9  C   UNL A   1      31.950  27.746  23.375  1.00  0.00     0.022 A 
ATOM     10  C   UNL A   1      31.498  28.766  22.615  1.00  0.00     0.030 A 
ATOM     11  C   UNL A   1      30.079  29.077  22.499  1.00  0.00    -0.011 A 
ATOM     12  C   UNL A   1      29.635  27.056  23.849  1.00  0.00     0.259 A 
ATOM     13  C   UNL A   1      29.635  30.224  21.829  1.00  0.00     0.009 A 
ATOM     14  C   UNL A   1      29.151  28.249  23.121  1.00  0.00     0.047 A 
ATOM     15  O   UNL A   1      28.795  26.276  24.297  1.00  0.00    -0.269 OA
ATOM     16  C   UNL A   1      28.275  30.550  21.813  1.00  0.00     0.001 A 
ATOM     17  C   UNL A   1      27.785  28.563  23.086  1.00  0.00     0.014 A 
ATOM     18  C   UNL A   1      27.350  29.722  22.447  1.00  0.00     0.001 A 
BRANCH   9  19
ATOM     19  C   UNL A   1      33.467  27.670  23.534  1.00  0.00     0.051 C 
ATOM     20  C   UNL A   1      34.425  28.612  22.820  1.00  0.00     0.010 C 
ENDBRANCH   9  19
ENDBRANCH   7   8
ENDBRANCH   5   7
ENDBRANCH   4   5
ENDBRANCH   3   4
ENDBRANCH   2   3
ENDBRANCH   1   2
BRANCH   1  21
ATOM     21  C   UNL A   1      31.308  31.226  25.755  1.00  0.00     0.202 C 
BRANCH  21  22
ATOM     22  C   UNL A   1      31.585  32.115  26.974  1.00  0.00     0.261 C 
BRANCH  22  23
ATOM     23  O   UNL A   1      32.641  33.067  26.740  1.00  0.00    -0.460 OA
BRANCH  23  24
ATOM     24  C   UNL A   1      33.114  33.672  27.856  1.00  0.00     0.338 C 
ATOM     25  O   UNL A   1      32.549  34.512  28.543  1.00  0.00    -0.246 OA
BRANCH  24  26
ATOM     26  C   UNL A   1      34.369  33.026  28.282  1.00  0.00     0.060 A 
ATOM     27  C   UNL A   1      35.571  33.731  28.355  1.00  0.00     0.016 A 
ATOM     28  C   UNL A   1      34.306  31.682  28.673  1.00  0.00     0.016 A 
ATOM     29  C   UNL A   1      36.705  33.091  28.866  1.00  0.00     0.010 A 
ATOM     30  C   UNL A   1      35.437  31.046  29.180  1.00  0.00     0.010 A 
ATOM     31  C   UNL A   1      36.640  31.755  29.307  1.00  0.00    -0.014 A 
BRANCH  31  32
ATOM     32  C   UNL A   1      37.784  31.141  30.025  1.00  0.00     0.031 A 
ATOM     33  C   UNL A   1      38.087  31.478  31.454  1.00  0.00     0.074 A 
ATOM     34  C   UNL A   1      38.585  30.300  29.345  1.00  0.00     0.049 A 
ATOM     35  N   UNL A   1      39.023  30.996  32.233  1.00  0.00    -0.248 NA
ATOM     36  C   UNL A   1      37.237  32.494  32.089  1.00  0.00     0.031 C 
ATOM     37  C   UNL A   1      38.421  29.937  27.935  1.00  0.00     0.029 A 
ATOM     38  N   UNL A   1      39.693  29.596  29.742  1.00  0.00    -0.354 N 
ATOM     39  C   UNL A   1      38.868  31.637  33.455  1.00  0.00     0.074 A 
ATOM     40  C   UNL A   1      37.779  32.580  33.297  1.00  0.00     0.031 C 
ATOM     41  C   UNL A   1      39.370  29.051  27.596  1.00  0.00     0.029 A 
ATOM     42  C   UNL A   1      40.230  28.812  28.750  1.00  0.00     0.049 A 
ATOM     43  H   UNL A   1      40.068  29.648  30.651  1.00  0.00     0.167 HD
ATOM     44  C   UNL A   1      39.562  31.445  34.605  1.00  0.00     0.037 A 
ATOM     45  C   UNL A   1      41.298  27.992  28.770  1.00  0.00     0.037 A 
ATOM     46  C   UNL A   1      40.666  30.526  34.744  1.00  0.00     0.049 A 
ATOM     47  C   UNL A   1      42.082  27.845  30.043  1.00  0.00     0.074 A 
ATOM     48  C   UNL A   1      41.405  30.229  35.877  1.00  0.00     0.029 A 
ATOM     49  N   UNL A   1      41.207  29.776  33.710  1.00  0.00    -0.354 N 
ATOM     50  N   UNL A   1      41.866  28.383  31.219  1.00  0.00    -0.248 NA
ATOM     51  C   UNL A   1      43.261  26.970  29.990  1.00  0.00     0.031 C 
ATOM     52  C   UNL A   1      42.430  29.347  35.515  1.00  0.00     0.029 A 
ATOM     53  C   UNL A   1      42.292  29.044  34.169  1.00  0.00     0.049 A 
ATOM     54  H   UNL A   1      40.870  29.765  32.785  1.00  0.00     0.167 HD
ATOM     55  C   UNL A   1      42.863  27.890  32.051  1.00  0.00     0.074 A 
ATOM     56  C   UNL A   1      43.667  26.990  31.250  1.00  0.00     0.031 C 
ATOM     57  C   UNL A   1      43.092  28.158  33.361  1.00  0.00     0.037 A 
BRANCH  44  58
ATOM     58  C   UNL A   1      39.153  32.257  35.801  1.00  0.00     0.057 A 
ATOM     59  C   UNL A   1      38.250  31.746  36.744  1.00  0.00     0.134 A 
ATOM     60  C   UNL A   1      39.629  33.559  36.010  1.00  0.00     0.134 A 
ATOM     61  F   UNL A   1      37.743  30.512  36.602  1.00  0.00    -0.206 F 
ATOM     62  C   UNL A   1      37.842  32.495  37.849  1.00  0.00     0.040 A 
ATOM     63  C   UNL A   1      39.251  34.307  37.127  1.00  0.00     0.040 A 
ATOM     64  F   UNL A   1      40.500  34.110  35.151  1.00  0.00    -0.206 F 
ATOM     65  C   UNL A   1      38.351  33.776  38.048  1.00  0.00     0.006 A 
ENDBRANCH  44  58
BRANCH  45  66
ATOM     66  C   UNL A   1      41.681  27.229  27.555  1.00  0.00     0.057 A 
ATOM     67  C   UNL A   1      41.237  25.919  27.341  1.00  0.00     0.134 A 
ATOM     68  C   UNL A   1      42.473  27.813  26.558  1.00  0.00     0.134 A 
ATOM     69  F   UNL A   1      40.482  25.300  28.260  1.00  0.00    -0.206 F 
ATOM     70  C   UNL A   1      41.565  25.218  26.180  1.00  0.00     0.040 A 
ATOM     71  C   UNL A   1      42.782  27.135  25.379  1.00  0.00     0.040 A 
ATOM     72  F   UNL A   1      42.914  29.071  26.698  1.00  0.00    -0.206 F 
ATOM     73  C   UNL A   1      42.329  25.831  25.189  1.00  0.00     0.006 A 
ENDBRANCH  45  66
BRANCH  57  74
ATOM     74  C   UNL A   1      44.244  27.441  34.008  1.00  0.00     0.057 A 
ATOM     75  C   UNL A   1      45.518  28.023  34.039  1.00  0.00     0.134 A 
ATOM     76  C   UNL A   1      44.096  26.181  34.604  1.00  0.00     0.134 A 
ATOM     77  F   UNL A   1      45.734  29.223  33.482  1.00  0.00    -0.206 F 
ATOM     78  C   UNL A   1      46.601  27.380  34.642  1.00  0.00     0.040 A 
ATOM     79  C   UNL A   1      45.164  25.544  35.239  1.00  0.00     0.040 A 
ATOM     80  F   UNL A   1      42.900  25.575  34.624  1.00  0.00    -0.206 F 
ATOM     81  C   UNL A   1      46.422  26.142  35.255  1.00  0.00     0.006 A 
ENDBRANCH  57  74
ENDBRANCH  31  32
ENDBRANCH  24  26
ENDBRANCH  23  24
ENDBRANCH  22  23
ENDBRANCH  21  22
ENDBRANCH   1  21
TORSDOF 16
ENDMDL
