MODEL 1
REMARK VINA RESULT:      -9.7      0.000      0.000
REMARK SMILES CC(C)C[C@H](CNc1cccc(F)c1C#N)CC(=O)OCCOCCOC(=O)c1ccc(-c2c3nc(c(-c4c(F)cccc4F)c4ccc([nH]4)c(-c4c(F)cccc4F)c4nc(c(-c5c(F)cccc5F)c5ccc2[nH]5)C=C4)C=C3)cc1
REMARK SMILES IDX 21 1 20 2 18 3 19 4 17 5 5 6 4 7 2 8 1 9 3 10 6 11 7 12 8 14
REMARK SMILES IDX 9 15 14 16 10 17 12 18 11 19 13 20 15 21 16 22 22 23 23 24
REMARK SMILES IDX 24 25 25 26 26 27 27 28 28 29 29 30 30 31 82 32 31 33 81 34
REMARK SMILES IDX 32 35 33 36 34 37 75 38 35 39 80 40 74 41 76 42 36 43 79 44
REMARK SMILES IDX 73 45 72 46 37 48 63 49 46 50 62 51 47 52 50 53 61 54 77 55
REMARK SMILES IDX 48 56 49 57 60 59 78 60 51 61 38 62 39 63 44 64 40 65 41 66
REMARK SMILES IDX 43 67 45 68 42 69 64 70 65 71 70 72 66 73 67 74 69 75 71 76
REMARK SMILES IDX 68 77 52 78 53 79 58 80 54 81 55 82 57 83 59 84 56 85
REMARK H PARENT 7 13 76 47 50 58
REMARK Flexibility Score: inf
ROOT
ATOM      1  C   UNL A   1      33.276  30.189  27.330  1.00  0.00     0.261 C 
ENDROOT
BRANCH   1   2
ATOM      2  O   UNL A   1      32.346  29.449  26.518  1.00  0.00    -0.463 OA
BRANCH   2   3
ATOM      3  C   UNL A   1      32.227  28.135  26.819  1.00  0.00     0.306 C 
ATOM      4  O   UNL A   1      31.250  27.632  27.364  1.00  0.00    -0.252 OA
BRANCH   3   5
ATOM      5  C   UNL A   1      33.447  27.313  26.451  1.00  0.00     0.128 C 
BRANCH   5   6
ATOM      6  C   UNL A   1      33.381  26.385  25.218  1.00  0.00     0.019 C 
BRANCH   6   7
ATOM      7  C   UNL A   1      32.807  27.086  23.948  1.00  0.00     0.009 C 
BRANCH   7   8
ATOM      8  C   UNL A   1      31.402  26.666  23.476  1.00  0.00    -0.017 C 
ATOM      9  C   UNL A   1      30.362  27.760  23.693  1.00  0.00     0.007 C 
ATOM     10  C   UNL A   1      31.449  26.250  22.004  1.00  0.00     0.007 C 
ENDBRANCH   7   8
ENDBRANCH   6   7
BRANCH   6  11
ATOM     11  C   UNL A   1      32.622  25.059  25.499  1.00  0.00     0.117 C 
BRANCH  11  12
ATOM     12  N   UNL A   1      33.411  24.114  26.293  1.00  0.00    -0.384 N 
ATOM     13  H   UNL A   1      33.268  24.039  27.265  1.00  0.00     0.160 HD
BRANCH  12  14
ATOM     14  C   UNL A   1      34.367  23.323  25.657  1.00  0.00     0.055 A 
ATOM     15  C   UNL A   1      35.634  23.871  25.396  1.00  0.00     0.027 A 
ATOM     16  C   UNL A   1      34.159  21.966  25.350  1.00  0.00     0.111 A 
ATOM     17  C   UNL A   1      36.672  23.088  24.880  1.00  0.00     0.005 A 
ATOM     18  C   UNL A   1      35.209  21.183  24.869  1.00  0.00     0.143 A 
ATOM     19  C   UNL A   1      36.465  21.733  24.636  1.00  0.00     0.041 A 
ATOM     20  F   UNL A   1      35.024  19.878  24.616  1.00  0.00    -0.205 F 
BRANCH  16  21
ATOM     21  C   UNL A   1      32.838  21.423  25.412  1.00  0.00     0.104 C 
ATOM     22  N   UNL A   1      31.778  20.961  25.370  1.00  0.00    -0.192 NA
ENDBRANCH  16  21
ENDBRANCH  12  14
ENDBRANCH  11  12
ENDBRANCH   6  11
ENDBRANCH   5   6
ENDBRANCH   3   5
ENDBRANCH   2   3
ENDBRANCH   1   2
BRANCH   1  23
ATOM     23  C   UNL A   1      32.897  31.667  27.436  1.00  0.00     0.202 C 
BRANCH  23  24
ATOM     24  O   UNL A   1      33.932  32.612  27.685  1.00  0.00    -0.374 OA
BRANCH  24  25
ATOM     25  C   UNL A   1      33.561  33.866  28.251  1.00  0.00     0.202 C 
BRANCH  25  26
ATOM     26  C   UNL A   1      33.962  34.155  29.707  1.00  0.00     0.261 C 
BRANCH  26  27
ATOM     27  O   UNL A   1      35.298  33.731  30.034  1.00  0.00    -0.460 OA
BRANCH  27  28
ATOM     28  C   UNL A   1      35.368  32.671  30.882  1.00  0.00     0.338 C 
ATOM     29  O   UNL A   1      34.542  32.331  31.710  1.00  0.00    -0.246 OA
BRANCH  28  30
ATOM     30  C   UNL A   1      36.538  31.843  30.537  1.00  0.00     0.060 A 
ATOM     31  C   UNL A   1      37.345  31.345  31.572  1.00  0.00     0.016 A 
ATOM     32  C   UNL A   1      36.871  31.614  29.205  1.00  0.00     0.016 A 
ATOM     33  C   UNL A   1      38.494  30.609  31.277  1.00  0.00     0.010 A 
ATOM     34  C   UNL A   1      38.029  30.893  28.913  1.00  0.00     0.010 A 
ATOM     35  C   UNL A   1      38.855  30.393  29.943  1.00  0.00    -0.014 A 
BRANCH  35  36
ATOM     36  C   UNL A   1      40.163  29.788  29.580  1.00  0.00     0.031 A 
ATOM     37  C   UNL A   1      41.360  30.693  29.514  1.00  0.00     0.074 A 
ATOM     38  C   UNL A   1      40.289  28.484  29.268  1.00  0.00     0.049 A 
ATOM     39  N   UNL A   1      42.551  30.469  29.025  1.00  0.00    -0.248 NA
ATOM     40  C   UNL A   1      41.174  32.050  30.054  1.00  0.00     0.031 C 
ATOM     41  C   UNL A   1      39.225  27.485  29.335  1.00  0.00     0.029 A 
ATOM     42  N   UNL A   1      41.376  27.784  28.798  1.00  0.00    -0.354 N 
ATOM     43  C   UNL A   1      43.243  31.666  29.167  1.00  0.00     0.074 A 
ATOM     44  C   UNL A   1      42.328  32.622  29.748  1.00  0.00     0.031 C 
ATOM     45  C   UNL A   1      39.704  26.305  28.904  1.00  0.00     0.029 A 
ATOM     46  C   UNL A   1      41.092  26.476  28.480  1.00  0.00     0.049 A 
ATOM     47  H   UNL A   1      42.271  28.180  28.699  1.00  0.00     0.167 HD
ATOM     48  C   UNL A   1      44.529  31.940  28.849  1.00  0.00     0.037 A 
ATOM     49  C   UNL A   1      41.853  25.541  27.874  1.00  0.00     0.037 A 
ATOM     50  C   UNL A   1      45.436  30.982  28.279  1.00  0.00     0.049 A 
ATOM     51  C   UNL A   1      43.257  25.894  27.445  1.00  0.00     0.074 A 
ATOM     52  C   UNL A   1      46.764  31.155  27.932  1.00  0.00     0.029 A 
ATOM     53  N   UNL A   1      45.106  29.672  27.966  1.00  0.00    -0.354 N 
ATOM     54  N   UNL A   1      43.907  27.024  27.583  1.00  0.00    -0.248 NA
ATOM     55  C   UNL A   1      44.033  24.842  26.767  1.00  0.00     0.031 C 
ATOM     56  C   UNL A   1      47.219  29.971  27.349  1.00  0.00     0.029 A 
ATOM     57  C   UNL A   1      46.200  29.034  27.409  1.00  0.00     0.049 A 
ATOM     58  H   UNL A   1      44.225  29.258  28.118  1.00  0.00     0.167 HD
ATOM     59  C   UNL A   1      45.177  26.802  27.062  1.00  0.00     0.074 A 
ATOM     60  C   UNL A   1      45.207  25.433  26.598  1.00  0.00     0.031 C 
ATOM     61  C   UNL A   1      46.227  27.656  26.985  1.00  0.00     0.037 A 
BRANCH  48  62
ATOM     62  C   UNL A   1      45.017  33.339  29.085  1.00  0.00     0.057 A 
ATOM     63  C   UNL A   1      44.849  34.356  28.136  1.00  0.00     0.134 A 
ATOM     64  C   UNL A   1      45.647  33.679  30.288  1.00  0.00     0.134 A 
ATOM     65  F   UNL A   1      44.265  34.096  26.955  1.00  0.00    -0.206 F 
ATOM     66  C   UNL A   1      45.319  35.650  28.362  1.00  0.00     0.040 A 
ATOM     67  C   UNL A   1      46.088  34.978  30.541  1.00  0.00     0.040 A 
ATOM     68  F   UNL A   1      45.835  32.757  31.245  1.00  0.00    -0.206 F 
ATOM     69  C   UNL A   1      45.933  35.967  29.572  1.00  0.00     0.006 A 
ENDBRANCH  48  62
BRANCH  49  70
ATOM     70  C   UNL A   1      41.312  24.179  27.615  1.00  0.00     0.057 A 
ATOM     71  C   UNL A   1      40.347  23.962  26.624  1.00  0.00     0.134 A 
ATOM     72  C   UNL A   1      41.708  23.071  28.375  1.00  0.00     0.134 A 
ATOM     73  F   UNL A   1      39.904  24.985  25.878  1.00  0.00    -0.206 F 
ATOM     74  C   UNL A   1      39.775  22.704  26.417  1.00  0.00     0.040 A 
ATOM     75  C   UNL A   1      41.169  21.801  28.157  1.00  0.00     0.040 A 
ATOM     76  F   UNL A   1      42.625  23.205  29.344  1.00  0.00    -0.206 F 
ATOM     77  C   UNL A   1      40.190  21.618  27.183  1.00  0.00     0.006 A 
ENDBRANCH  49  70
BRANCH  61  78
ATOM     78  C   UNL A   1      47.533  27.129  26.461  1.00  0.00     0.057 A 
ATOM     79  C   UNL A   1      48.489  26.534  27.289  1.00  0.00     0.134 A 
ATOM     80  C   UNL A   1      47.784  27.131  25.080  1.00  0.00     0.134 A 
ATOM     81  F   UNL A   1      48.317  26.506  28.619  1.00  0.00    -0.206 F 
ATOM     82  C   UNL A   1      49.654  25.966  26.766  1.00  0.00     0.040 A 
ATOM     83  C   UNL A   1      48.927  26.538  24.544  1.00  0.00     0.040 A 
ATOM     84  F   UNL A   1      46.903  27.675  24.228  1.00  0.00    -0.206 F 
ATOM     85  C   UNL A   1      49.868  25.954  25.388  1.00  0.00     0.006 A 
ENDBRANCH  61  78
ENDBRANCH  35  36
ENDBRANCH  28  30
ENDBRANCH  27  28
ENDBRANCH  26  27
ENDBRANCH  25  26
ENDBRANCH  24  25
ENDBRANCH  23  24
ENDBRANCH   1  23
TORSDOF 21
ENDMDL
MODEL 2
REMARK VINA RESULT:      -9.7      3.900      7.443
REMARK SMILES CC(C)C[C@H](CNc1cccc(F)c1C#N)CC(=O)OCCOCCOC(=O)c1ccc(-c2c3nc(c(-c4c(F)cccc4F)c4ccc([nH]4)c(-c4c(F)cccc4F)c4nc(c(-c5c(F)cccc5F)c5ccc2[nH]5)C=C4)C=C3)cc1
REMARK SMILES IDX 21 1 20 2 18 3 19 4 17 5 5 6 4 7 2 8 1 9 3 10 6 11 7 12 8 14
REMARK SMILES IDX 9 15 14 16 10 17 12 18 11 19 13 20 15 21 16 22 22 23 23 24
REMARK SMILES IDX 24 25 25 26 26 27 27 28 28 29 29 30 30 31 82 32 31 33 81 34
REMARK SMILES IDX 32 35 33 36 34 37 75 38 35 39 80 40 74 41 76 42 36 43 79 44
REMARK SMILES IDX 73 45 72 46 37 48 63 49 46 50 62 51 47 52 50 53 61 54 77 55
REMARK SMILES IDX 48 56 49 57 60 59 78 60 51 61 38 62 39 63 44 64 40 65 41 66
REMARK SMILES IDX 43 67 45 68 42 69 64 70 65 71 70 72 66 73 67 74 69 75 71 76
REMARK SMILES IDX 68 77 52 78 53 79 58 80 54 81 55 82 57 83 59 84 56 85
REMARK H PARENT 7 13 76 47 50 58
REMARK Flexibility Score: inf
ROOT
ATOM      1  C   UNL A   1      33.293  27.679  22.247  1.00  0.00     0.261 C 
ENDROOT
BRANCH   1   2
ATOM      2  O   UNL A   1      32.372  26.573  22.241  1.00  0.00    -0.463 OA
BRANCH   2   3
ATOM      3  C   UNL A   1      32.889  25.386  21.846  1.00  0.00     0.306 C 
ATOM      4  O   UNL A   1      33.242  25.127  20.701  1.00  0.00    -0.252 OA
BRANCH   3   5
ATOM      5  C   UNL A   1      32.970  24.357  22.957  1.00  0.00     0.128 C 
BRANCH   5   6
ATOM      6  C   UNL A   1      31.863  23.286  23.070  1.00  0.00     0.019 C 
BRANCH   6   7
ATOM      7  C   UNL A   1      31.083  23.344  24.420  1.00  0.00     0.009 C 
BRANCH   7   8
ATOM      8  C   UNL A   1      31.329  24.561  25.332  1.00  0.00    -0.017 C 
ATOM      9  C   UNL A   1      30.197  25.581  25.264  1.00  0.00     0.007 C 
ATOM     10  C   UNL A   1      31.550  24.095  26.773  1.00  0.00     0.007 C 
ENDBRANCH   7   8
ENDBRANCH   6   7
BRANCH   6  11
ATOM     11  C   UNL A   1      32.386  21.847  22.805  1.00  0.00     0.117 C 
BRANCH  11  12
ATOM     12  N   UNL A   1      32.220  20.964  23.962  1.00  0.00    -0.384 N 
ATOM     13  H   UNL A   1      31.635  21.227  24.710  1.00  0.00     0.160 HD
BRANCH  12  14
ATOM     14  C   UNL A   1      32.899  19.746  23.992  1.00  0.00     0.055 A 
ATOM     15  C   UNL A   1      32.321  18.633  23.361  1.00  0.00     0.027 A 
ATOM     16  C   UNL A   1      34.186  19.600  24.541  1.00  0.00     0.111 A 
ATOM     17  C   UNL A   1      33.012  17.422  23.247  1.00  0.00     0.005 A 
ATOM     18  C   UNL A   1      34.883  18.400  24.392  1.00  0.00     0.143 A 
ATOM     19  C   UNL A   1      34.306  17.312  23.745  1.00  0.00     0.041 A 
ATOM     20  F   UNL A   1      36.128  18.271  24.877  1.00  0.00    -0.205 F 
BRANCH  16  21
ATOM     21  C   UNL A   1      34.727  20.638  25.361  1.00  0.00     0.104 C 
ATOM     22  N   UNL A   1      35.240  21.480  25.967  1.00  0.00    -0.192 NA
ENDBRANCH  16  21
ENDBRANCH  12  14
ENDBRANCH  11  12
ENDBRANCH   6  11
ENDBRANCH   5   6
ENDBRANCH   3   5
ENDBRANCH   2   3
ENDBRANCH   1   2
BRANCH   1  23
ATOM     23  C   UNL A   1      32.971  28.687  23.351  1.00  0.00     0.202 C 
BRANCH  23  24
ATOM     24  O   UNL A   1      32.921  28.220  24.696  1.00  0.00    -0.374 OA
BRANCH  24  25
ATOM     25  C   UNL A   1      31.857  28.688  25.519  1.00  0.00     0.202 C 
BRANCH  25  26
ATOM     26  C   UNL A   1      31.744  30.200  25.773  1.00  0.00     0.261 C 
BRANCH  26  27
ATOM     27  O   UNL A   1      32.102  30.591  27.111  1.00  0.00    -0.460 OA
BRANCH  27  28
ATOM     28  C   UNL A   1      32.803  31.752  27.196  1.00  0.00     0.338 C 
ATOM     29  O   UNL A   1      32.388  32.882  27.008  1.00  0.00    -0.246 OA
BRANCH  28  30
ATOM     30  C   UNL A   1      34.144  31.478  27.744  1.00  0.00     0.060 A 
ATOM     31  C   UNL A   1      34.486  30.156  28.070  1.00  0.00     0.016 A 
ATOM     32  C   UNL A   1      35.030  32.522  27.991  1.00  0.00     0.016 A 
ATOM     33  C   UNL A   1      35.725  29.872  28.646  1.00  0.00     0.010 A 
ATOM     34  C   UNL A   1      36.261  32.236  28.583  1.00  0.00     0.010 A 
ATOM     35  C   UNL A   1      36.616  30.914  28.925  1.00  0.00    -0.014 A 
BRANCH  35  36
ATOM     36  C   UNL A   1      37.857  30.687  29.710  1.00  0.00     0.031 A 
ATOM     37  C   UNL A   1      38.918  29.812  29.106  1.00  0.00     0.074 A 
ATOM     38  C   UNL A   1      38.030  31.196  30.944  1.00  0.00     0.049 A 
ATOM     39  N   UNL A   1      39.983  29.288  29.655  1.00  0.00    -0.248 NA
ATOM     40  C   UNL A   1      38.735  29.459  27.688  1.00  0.00     0.031 C 
ATOM     41  C   UNL A   1      37.107  32.096  31.631  1.00  0.00     0.029 A 
ATOM     42  N   UNL A   1      39.042  30.996  31.855  1.00  0.00    -0.354 N 
ATOM     43  C   UNL A   1      40.574  28.518  28.661  1.00  0.00     0.074 A 
ATOM     44  C   UNL A   1      39.730  28.609  27.491  1.00  0.00     0.031 C 
ATOM     45  C   UNL A   1      37.583  32.357  32.861  1.00  0.00     0.029 A 
ATOM     46  C   UNL A   1      38.816  31.601  33.070  1.00  0.00     0.049 A 
ATOM     47  H   UNL A   1      39.850  30.472  31.656  1.00  0.00     0.167 HD
ATOM     48  C   UNL A   1      41.722  27.805  28.717  1.00  0.00     0.037 A 
ATOM     49  C   UNL A   1      39.502  31.515  34.228  1.00  0.00     0.037 A 
ATOM     50  C   UNL A   1      42.561  27.726  29.881  1.00  0.00     0.049 A 
ATOM     51  C   UNL A   1      40.732  30.642  34.295  1.00  0.00     0.074 A 
ATOM     52  C   UNL A   1      43.753  27.042  30.037  1.00  0.00     0.029 A 
ATOM     53  N   UNL A   1      42.291  28.346  31.091  1.00  0.00    -0.354 N 
ATOM     54  N   UNL A   1      41.289  29.918  33.353  1.00  0.00    -0.248 NA
ATOM     55  C   UNL A   1      41.428  30.567  35.591  1.00  0.00     0.031 C 
ATOM     56  C   UNL A   1      44.172  27.194  31.360  1.00  0.00     0.029 A 
ATOM     57  C   UNL A   1      43.285  28.041  32.005  1.00  0.00     0.049 A 
ATOM     58  H   UNL A   1      41.511  28.919  31.273  1.00  0.00     0.167 HD
ATOM     59  C   UNL A   1      42.423  29.351  33.925  1.00  0.00     0.074 A 
ATOM     60  C   UNL A   1      42.473  29.806  35.297  1.00  0.00     0.031 C 
ATOM     61  C   UNL A   1      43.343  28.533  33.360  1.00  0.00     0.037 A 
BRANCH  48  62
ATOM     62  C   UNL A   1      42.119  27.035  27.492  1.00  0.00     0.057 A 
ATOM     63  C   UNL A   1      41.778  25.687  27.318  1.00  0.00     0.134 A 
ATOM     64  C   UNL A   1      42.836  27.657  26.462  1.00  0.00     0.134 A 
ATOM     65  F   UNL A   1      41.104  25.026  28.272  1.00  0.00    -0.206 F 
ATOM     66  C   UNL A   1      42.164  24.978  26.180  1.00  0.00     0.040 A 
ATOM     67  C   UNL A   1      43.195  26.968  25.303  1.00  0.00     0.040 A 
ATOM     68  F   UNL A   1      43.190  28.948  26.558  1.00  0.00    -0.206 F 
ATOM     69  C   UNL A   1      42.868  25.621  25.163  1.00  0.00     0.006 A 
ENDBRANCH  48  62
BRANCH  49  70
ATOM     70  C   UNL A   1      39.046  32.258  35.433  1.00  0.00     0.057 A 
ATOM     71  C   UNL A   1      39.412  33.594  35.639  1.00  0.00     0.134 A 
ATOM     72  C   UNL A   1      38.275  31.646  36.430  1.00  0.00     0.134 A 
ATOM     73  F   UNL A   1      40.173  34.232  34.736  1.00  0.00    -0.206 F 
ATOM     74  C   UNL A   1      39.055  34.284  36.800  1.00  0.00     0.040 A 
ATOM     75  C   UNL A   1      37.883  32.334  37.580  1.00  0.00     0.040 A 
ATOM     76  F   UNL A   1      37.892  30.368  36.302  1.00  0.00    -0.206 F 
ATOM     77  C   UNL A   1      38.284  33.654  37.773  1.00  0.00     0.006 A 
ENDBRANCH  49  70
BRANCH  61  78
ATOM     78  C   UNL A   1      44.538  28.136  34.179  1.00  0.00     0.057 A 
ATOM     79  C   UNL A   1      44.579  26.953  34.924  1.00  0.00     0.134 A 
ATOM     80  C   UNL A   1      45.706  28.912  34.134  1.00  0.00     0.134 A 
ATOM     81  F   UNL A   1      43.495  26.168  35.017  1.00  0.00    -0.206 F 
ATOM     82  C   UNL A   1      45.736  26.558  35.601  1.00  0.00     0.040 A 
ATOM     83  C   UNL A   1      46.876  28.512  34.779  1.00  0.00     0.040 A 
ATOM     84  F   UNL A   1      45.739  30.053  33.429  1.00  0.00    -0.206 F 
ATOM     85  C   UNL A   1      46.893  27.332  35.517  1.00  0.00     0.006 A 
ENDBRANCH  61  78
ENDBRANCH  35  36
ENDBRANCH  28  30
ENDBRANCH  27  28
ENDBRANCH  26  27
ENDBRANCH  25  26
ENDBRANCH  24  25
ENDBRANCH  23  24
ENDBRANCH   1  23
TORSDOF 21
ENDMDL
MODEL 3
REMARK VINA RESULT:      -9.7      1.100      2.109
REMARK SMILES CC(C)C[C@H](CNc1cccc(F)c1C#N)CC(=O)OCCOCCOC(=O)c1ccc(-c2c3nc(c(-c4c(F)cccc4F)c4ccc([nH]4)c(-c4c(F)cccc4F)c4nc(c(-c5c(F)cccc5F)c5ccc2[nH]5)C=C4)C=C3)cc1
REMARK SMILES IDX 21 1 20 2 18 3 19 4 17 5 5 6 4 7 2 8 1 9 3 10 6 11 7 12 8 14
REMARK SMILES IDX 9 15 14 16 10 17 12 18 11 19 13 20 15 21 16 22 22 23 23 24
REMARK SMILES IDX 24 25 25 26 26 27 27 28 28 29 29 30 30 31 82 32 31 33 81 34
REMARK SMILES IDX 32 35 33 36 34 37 75 38 35 39 80 40 74 41 76 42 36 43 79 44
REMARK SMILES IDX 73 45 72 46 37 48 63 49 46 50 62 51 47 52 50 53 61 54 77 55
REMARK SMILES IDX 48 56 49 57 60 59 78 60 51 61 38 62 39 63 44 64 40 65 41 66
REMARK SMILES IDX 43 67 45 68 42 69 64 70 65 71 70 72 66 73 67 74 69 75 71 76
REMARK SMILES IDX 68 77 52 78 53 79 58 80 54 81 55 82 57 83 59 84 56 85
REMARK H PARENT 7 13 76 47 50 58
REMARK Flexibility Score: inf
ROOT
ATOM      1  C   UNL A   1      33.810  30.515  27.580  1.00  0.00     0.261 C 
ENDROOT
BRANCH   1   2
ATOM      2  O   UNL A   1      33.455  29.829  26.366  1.00  0.00    -0.463 OA
BRANCH   2   3
ATOM      3  C   UNL A   1      33.246  28.498  26.489  1.00  0.00     0.306 C 
ATOM      4  O   UNL A   1      32.535  27.981  27.344  1.00  0.00    -0.252 OA
BRANCH   3   5
ATOM      5  C   UNL A   1      34.009  27.665  25.477  1.00  0.00     0.128 C 
BRANCH   5   6
ATOM      6  C   UNL A   1      33.337  26.409  24.880  1.00  0.00     0.019 C 
BRANCH   6   7
ATOM      7  C   UNL A   1      31.801  26.574  24.664  1.00  0.00     0.009 C 
BRANCH   7   8
ATOM      8  C   UNL A   1      30.915  25.330  24.865  1.00  0.00    -0.017 C 
ATOM      9  C   UNL A   1      29.934  25.492  26.021  1.00  0.00     0.007 C 
ATOM     10  C   UNL A   1      30.172  25.003  23.567  1.00  0.00     0.007 C 
ENDBRANCH   7   8
ENDBRANCH   6   7
BRANCH   6  11
ATOM     11  C   UNL A   1      33.637  25.120  25.693  1.00  0.00     0.117 C 
BRANCH  11  12
ATOM     12  N   UNL A   1      34.441  24.153  24.942  1.00  0.00    -0.384 N 
ATOM     13  H   UNL A   1      35.373  24.362  24.699  1.00  0.00     0.160 HD
BRANCH  12  14
ATOM     14  C   UNL A   1      33.873  22.933  24.575  1.00  0.00     0.055 A 
ATOM     15  C   UNL A   1      33.907  21.869  25.491  1.00  0.00     0.027 A 
ATOM     16  C   UNL A   1      33.178  22.744  23.368  1.00  0.00     0.111 A 
ATOM     17  C   UNL A   1      33.242  20.665  25.231  1.00  0.00     0.005 A 
ATOM     18  C   UNL A   1      32.487  21.554  23.131  1.00  0.00     0.143 A 
ATOM     19  C   UNL A   1      32.511  20.516  24.056  1.00  0.00     0.041 A 
ATOM     20  F   UNL A   1      31.787  21.387  21.998  1.00  0.00    -0.205 F 
BRANCH  16  21
ATOM     21  C   UNL A   1      33.285  23.720  22.330  1.00  0.00     0.104 C 
ATOM     22  N   UNL A   1      33.279  24.500  21.474  1.00  0.00    -0.192 NA
ENDBRANCH  16  21
ENDBRANCH  12  14
ENDBRANCH  11  12
ENDBRANCH   6  11
ENDBRANCH   5   6
ENDBRANCH   3   5
ENDBRANCH   2   3
ENDBRANCH   1   2
BRANCH   1  23
ATOM     23  C   UNL A   1      33.256  31.940  27.617  1.00  0.00     0.202 C 
BRANCH  23  24
ATOM     24  O   UNL A   1      34.137  32.996  27.988  1.00  0.00    -0.374 OA
BRANCH  24  25
ATOM     25  C   UNL A   1      33.589  34.088  28.721  1.00  0.00     0.202 C 
BRANCH  25  26
ATOM     26  C   UNL A   1      34.080  34.319  30.159  1.00  0.00     0.261 C 
BRANCH  26  27
ATOM     27  O   UNL A   1      35.406  33.817  30.406  1.00  0.00    -0.460 OA
BRANCH  27  28
ATOM     28  C   UNL A   1      35.459  32.714  31.199  1.00  0.00     0.338 C 
ATOM     29  O   UNL A   1      34.638  32.356  32.025  1.00  0.00    -0.246 OA
BRANCH  28  30
ATOM     30  C   UNL A   1      36.600  31.872  30.792  1.00  0.00     0.060 A 
ATOM     31  C   UNL A   1      37.399  31.287  31.787  1.00  0.00     0.016 A 
ATOM     32  C   UNL A   1      36.913  31.714  29.446  1.00  0.00     0.016 A 
ATOM     33  C   UNL A   1      38.521  30.534  31.435  1.00  0.00     0.010 A 
ATOM     34  C   UNL A   1      38.044  30.975  29.098  1.00  0.00     0.010 A 
ATOM     35  C   UNL A   1      38.863  30.388  30.087  1.00  0.00    -0.014 A 
BRANCH  35  36
ATOM     36  C   UNL A   1      40.147  29.765  29.674  1.00  0.00     0.031 A 
ATOM     37  C   UNL A   1      41.356  30.651  29.574  1.00  0.00     0.074 A 
ATOM     38  C   UNL A   1      40.242  28.462  29.348  1.00  0.00     0.049 A 
ATOM     39  N   UNL A   1      42.526  30.413  29.042  1.00  0.00    -0.248 NA
ATOM     40  C   UNL A   1      41.211  32.007  30.131  1.00  0.00     0.031 C 
ATOM     41  C   UNL A   1      39.164  27.480  29.444  1.00  0.00     0.029 A 
ATOM     42  N   UNL A   1      41.300  27.749  28.835  1.00  0.00    -0.354 N 
ATOM     43  C   UNL A   1      43.242  31.597  29.169  1.00  0.00     0.074 A 
ATOM     44  C   UNL A   1      42.363  32.563  29.789  1.00  0.00     0.031 C 
ATOM     45  C   UNL A   1      39.609  26.296  28.988  1.00  0.00     0.029 A 
ATOM     46  C   UNL A   1      40.984  26.448  28.517  1.00  0.00     0.049 A 
ATOM     47  H   UNL A   1      42.198  28.131  28.709  1.00  0.00     0.167 HD
ATOM     48  C   UNL A   1      44.520  31.853  28.808  1.00  0.00     0.037 A 
ATOM     49  C   UNL A   1      41.707  25.506  27.878  1.00  0.00     0.037 A 
ATOM     50  C   UNL A   1      45.391  30.885  28.199  1.00  0.00     0.049 A 
ATOM     51  C   UNL A   1      43.101  25.840  27.403  1.00  0.00     0.074 A 
ATOM     52  C   UNL A   1      46.709  31.040  27.809  1.00  0.00     0.029 A 
ATOM     53  N   UNL A   1      45.029  29.584  27.888  1.00  0.00    -0.354 N 
ATOM     54  N   UNL A   1      43.775  26.958  27.527  1.00  0.00    -0.248 NA
ATOM     55  C   UNL A   1      43.836  24.781  26.691  1.00  0.00     0.031 C 
ATOM     56  C   UNL A   1      47.124  29.853  27.201  1.00  0.00     0.029 A 
ATOM     57  C   UNL A   1      46.093  28.932  27.289  1.00  0.00     0.049 A 
ATOM     58  H   UNL A   1      44.147  29.182  28.068  1.00  0.00     0.167 HD
ATOM     59  C   UNL A   1      45.022  26.720  26.961  1.00  0.00     0.074 A 
ATOM     60  C   UNL A   1      45.014  25.354  26.485  1.00  0.00     0.031 C 
ATOM     61  C   UNL A   1      46.082  27.557  26.853  1.00  0.00     0.037 A 
BRANCH  48  62
ATOM     62  C   UNL A   1      45.039  33.242  29.038  1.00  0.00     0.057 A 
ATOM     63  C   UNL A   1      45.704  33.601  30.219  1.00  0.00     0.134 A 
ATOM     64  C   UNL A   1      44.890  34.229  28.057  1.00  0.00     0.134 A 
ATOM     65  F   UNL A   1      45.869  32.708  31.207  1.00  0.00    -0.206 F 
ATOM     66  C   UNL A   1      46.171  34.900  30.427  1.00  0.00     0.040 A 
ATOM     67  C   UNL A   1      45.386  35.521  28.238  1.00  0.00     0.040 A 
ATOM     68  F   UNL A   1      44.270  33.953  26.899  1.00  0.00    -0.206 F 
ATOM     69  C   UNL A   1      46.020  35.862  29.430  1.00  0.00     0.006 A 
ENDBRANCH  48  62
BRANCH  49  70
ATOM     70  C   UNL A   1      41.136  24.155  27.628  1.00  0.00     0.057 A 
ATOM     71  C   UNL A   1      41.577  23.039  28.351  1.00  0.00     0.134 A 
ATOM     72  C   UNL A   1      40.174  23.933  26.635  1.00  0.00     0.134 A 
ATOM     73  F   UNL A   1      42.517  23.178  29.298  1.00  0.00    -0.206 F 
ATOM     74  C   UNL A   1      41.106  21.753  28.079  1.00  0.00     0.040 A 
ATOM     75  C   UNL A   1      39.669  22.657  26.374  1.00  0.00     0.040 A 
ATOM     76  F   UNL A   1      39.709  24.954  25.900  1.00  0.00    -0.206 F 
ATOM     77  C   UNL A   1      40.145  21.560  27.090  1.00  0.00     0.006 A 
ENDBRANCH  49  70
BRANCH  61  78
ATOM     78  C   UNL A   1      47.360  27.014  26.280  1.00  0.00     0.057 A 
ATOM     79  C   UNL A   1      47.692  27.145  24.928  1.00  0.00     0.134 A 
ATOM     80  C   UNL A   1      48.318  26.437  27.128  1.00  0.00     0.134 A 
ATOM     81  F   UNL A   1      46.819  27.678  24.060  1.00  0.00    -0.206 F 
ATOM     82  C   UNL A   1      48.928  26.716  24.436  1.00  0.00     0.040 A 
ATOM     83  C   UNL A   1      49.567  26.036  26.655  1.00  0.00     0.040 A 
ATOM     84  F   UNL A   1      48.069  26.292  28.438  1.00  0.00    -0.206 F 
ATOM     85  C   UNL A   1      49.875  26.173  25.304  1.00  0.00     0.006 A 
ENDBRANCH  61  78
ENDBRANCH  35  36
ENDBRANCH  28  30
ENDBRANCH  27  28
ENDBRANCH  26  27
ENDBRANCH  25  26
ENDBRANCH  24  25
ENDBRANCH  23  24
ENDBRANCH   1  23
TORSDOF 21
ENDMDL
