MODEL 1
REMARK VINA RESULT:     -11.1      0.000      0.000
REMARK SMILES CCCCCCNC(=O)Oc1cccc(-c2ccc(CC(=O)OCCOCCOC(=O)c3ccc(-c4c5nc(c(-c6c(F)cccc6F)c6ccc([nH]6)c(-c6c(F)cccc6F)c6nc(c(-c7c(F)cccc7F)c7ccc4[nH]7)C=C6)C=C5)cc3)cc2F)c1
REMARK SMILES IDX 21 1 22 2 20 3 19 4 16 5 17 6 87 7 18 8 86 9 88 10 15 11
REMARK SMILES IDX 11 12 12 13 89 14 13 15 14 16 10 17 8 18 7 19 9 21 6 22 5 23
REMARK SMILES IDX 4 24 3 25 2 26 1 27 23 28 24 29 25 30 26 31 27 32 28 33
REMARK SMILES IDX 29 34 30 35 31 36 32 37 33 38 85 39 34 40 84 41 35 42 36 43
REMARK SMILES IDX 37 44 78 45 38 46 83 47 77 48 79 49 39 50 82 51 76 52 75 53
REMARK SMILES IDX 40 55 66 56 49 57 65 58 50 59 53 60 64 61 80 62 51 63 52 64
REMARK SMILES IDX 63 66 81 67 54 68 41 69 42 70 47 71 43 72 44 73 46 74 48 75
REMARK SMILES IDX 45 76 67 77 68 78 73 79 69 80 70 81 72 82 74 83 71 84 55 85
REMARK SMILES IDX 56 86 61 87 57 88 58 89 60 90 62 91 59 92
REMARK H PARENT 7 20 79 54 53 65
REMARK Flexibility Score: inf
ROOT
ATOM      1  C   UNL A   1      41.220  20.366  27.044  1.00  0.00     0.310 C 
ATOM      2  O   UNL A   1      41.018  19.588  27.971  1.00  0.00    -0.252 OA
ENDROOT
BRANCH   1   3
ATOM      3  C   UNL A   1      40.633  21.758  27.048  1.00  0.00     0.158 C 
BRANCH   3   4
ATOM      4  C   UNL A   1      39.361  22.017  26.273  1.00  0.00    -0.034 A 
ATOM      5  C   UNL A   1      36.865  22.434  24.981  1.00  0.00     0.018 A 
ATOM      6  C   UNL A   1      37.524  23.490  25.628  1.00  0.00     0.012 A 
ATOM      7  C   UNL A   1      37.491  21.182  24.976  1.00  0.00     0.131 A 
ATOM      8  C   UNL A   1      38.750  23.280  26.276  1.00  0.00     0.005 A 
ATOM      9  C   UNL A   1      38.722  20.971  25.598  1.00  0.00     0.044 A 
ATOM     10  F   UNL A   1      36.899  20.136  24.377  1.00  0.00    -0.206 F 
BRANCH   5  11
ATOM     11  C   UNL A   1      35.548  22.626  24.364  1.00  0.00    -0.012 A 
ATOM     12  C   UNL A   1      34.051  23.917  22.952  1.00  0.00     0.133 A 
ATOM     13  C   UNL A   1      32.996  23.056  23.241  1.00  0.00     0.047 A 
ATOM     14  C   UNL A   1      35.314  23.720  23.514  1.00  0.00     0.056 A 
ATOM     15  C   UNL A   1      33.218  21.961  24.074  1.00  0.00     0.004 A 
ATOM     16  C   UNL A   1      34.486  21.745  24.626  1.00  0.00     0.009 A 
BRANCH  12  17
ATOM     17  O   UNL A   1      33.766  25.056  22.183  1.00  0.00    -0.410 OA
BRANCH  17  18
ATOM     18  C   UNL A   1      32.549  25.684  22.407  1.00  0.00     0.412 C 
ATOM     19  N   UNL A   1      32.592  26.599  23.424  1.00  0.00    -0.321 N 
ATOM     20  H   UNL A   1      31.749  27.065  23.631  1.00  0.00     0.167 HD
ATOM     21  O   UNL A   1      31.508  25.477  21.796  1.00  0.00    -0.224 OA
BRANCH  19  22
ATOM     22  C   UNL A   1      33.741  26.957  24.232  1.00  0.00     0.119 C 
BRANCH  22  23
ATOM     23  C   UNL A   1      33.629  26.423  25.661  1.00  0.00     0.021 C 
BRANCH  23  24
ATOM     24  C   UNL A   1      32.515  27.055  26.505  1.00  0.00     0.002 C 
BRANCH  24  25
ATOM     25  C   UNL A   1      32.887  28.351  27.234  1.00  0.00    -0.000 C 
BRANCH  25  26
ATOM     26  C   UNL A   1      32.207  29.620  26.713  1.00  0.00    -0.003 C 
ATOM     27  C   UNL A   1      31.460  29.411  25.405  1.00  0.00     0.004 C 
ENDBRANCH  25  26
ENDBRANCH  24  25
ENDBRANCH  23  24
ENDBRANCH  22  23
ENDBRANCH  19  22
ENDBRANCH  17  18
ENDBRANCH  12  17
ENDBRANCH   5  11
ENDBRANCH   3   4
ENDBRANCH   1   3
BRANCH   1  28
ATOM     28  O   UNL A   1      41.934  20.063  25.927  1.00  0.00    -0.463 OA
BRANCH  28  29
ATOM     29  C   UNL A   1      42.761  18.885  26.015  1.00  0.00     0.261 C 
BRANCH  29  30
ATOM     30  C   UNL A   1      44.089  19.060  25.272  1.00  0.00     0.202 C 
BRANCH  30  31
ATOM     31  O   UNL A   1      44.136  20.118  24.313  1.00  0.00    -0.374 OA
BRANCH  31  32
ATOM     32  C   UNL A   1      44.866  21.287  24.681  1.00  0.00     0.202 C 
BRANCH  32  33
ATOM     33  C   UNL A   1      44.522  22.569  23.911  1.00  0.00     0.261 C 
BRANCH  33  34
ATOM     34  O   UNL A   1      43.742  23.484  24.702  1.00  0.00    -0.460 OA
BRANCH  34  35
ATOM     35  C   UNL A   1      44.402  24.605  25.079  1.00  0.00     0.338 C 
ATOM     36  O   UNL A   1      45.473  25.009  24.658  1.00  0.00    -0.246 OA
BRANCH  35  37
ATOM     37  C   UNL A   1      43.568  25.412  25.994  1.00  0.00     0.060 A 
ATOM     38  C   UNL A   1      43.938  26.750  26.179  1.00  0.00     0.016 A 
ATOM     39  C   UNL A   1      42.507  24.864  26.718  1.00  0.00     0.016 A 
ATOM     40  C   UNL A   1      43.291  27.530  27.135  1.00  0.00     0.010 A 
ATOM     41  C   UNL A   1      41.863  25.647  27.685  1.00  0.00     0.010 A 
ATOM     42  C   UNL A   1      42.279  26.969  27.924  1.00  0.00    -0.014 A 
BRANCH  42  43
ATOM     43  C   UNL A   1      41.772  27.730  29.094  1.00  0.00     0.031 A 
ATOM     44  C   UNL A   1      42.480  27.594  30.415  1.00  0.00     0.074 A 
ATOM     45  C   UNL A   1      40.727  28.567  28.970  1.00  0.00     0.049 A 
ATOM     46  N   UNL A   1      42.214  28.168  31.561  1.00  0.00    -0.248 NA
ATOM     47  C   UNL A   1      43.643  26.693  30.448  1.00  0.00     0.031 C 
ATOM     48  C   UNL A   1      39.980  28.810  27.737  1.00  0.00     0.029 A 
ATOM     49  N   UNL A   1      40.115  29.369  29.901  1.00  0.00    -0.354 N 
ATOM     50  C   UNL A   1      43.174  27.697  32.450  1.00  0.00     0.074 A 
ATOM     51  C   UNL A   1      44.010  26.770  31.719  1.00  0.00     0.031 C 
ATOM     52  C   UNL A   1      39.000  29.696  27.991  1.00  0.00     0.029 A 
ATOM     53  C   UNL A   1      39.037  30.063  29.405  1.00  0.00     0.049 A 
ATOM     54  H   UNL A   1      40.418  29.440  30.835  1.00  0.00     0.167 HD
ATOM     55  C   UNL A   1      43.347  28.015  33.754  1.00  0.00     0.037 A 
ATOM     56  C   UNL A   1      38.173  30.887  30.028  1.00  0.00     0.037 A 
ATOM     57  C   UNL A   1      42.521  28.944  34.479  1.00  0.00     0.049 A 
ATOM     58  C   UNL A   1      38.357  31.183  31.492  1.00  0.00     0.074 A 
ATOM     59  C   UNL A   1      42.634  29.350  35.799  1.00  0.00     0.029 A 
ATOM     60  N   UNL A   1      41.427  29.607  33.948  1.00  0.00    -0.354 N 
ATOM     61  N   UNL A   1      39.286  30.758  32.313  1.00  0.00    -0.248 NA
ATOM     62  C   UNL A   1      37.371  32.078  32.117  1.00  0.00     0.031 C 
ATOM     63  C   UNL A   1      41.582  30.228  36.077  1.00  0.00     0.029 A 
ATOM     64  C   UNL A   1      40.841  30.402  34.919  1.00  0.00     0.049 A 
ATOM     65  H   UNL A   1      41.113  29.526  33.019  1.00  0.00     0.167 HD
ATOM     66  C   UNL A   1      39.016  31.354  33.538  1.00  0.00     0.074 A 
ATOM     67  C   UNL A   1      37.842  32.180  33.353  1.00  0.00     0.031 C 
ATOM     68  C   UNL A   1      39.680  31.229  34.713  1.00  0.00     0.037 A 
BRANCH  55  69
ATOM     69  C   UNL A   1      44.466  27.342  34.491  1.00  0.00     0.057 A 
ATOM     70  C   UNL A   1      44.299  26.095  35.106  1.00  0.00     0.134 A 
ATOM     71  C   UNL A   1      45.739  27.923  34.539  1.00  0.00     0.134 A 
ATOM     72  F   UNL A   1      43.101  25.492  35.106  1.00  0.00    -0.206 F 
ATOM     73  C   UNL A   1      45.357  25.456  35.756  1.00  0.00     0.040 A 
ATOM     74  C   UNL A   1      46.809  27.285  35.167  1.00  0.00     0.040 A 
ATOM     75  F   UNL A   1      45.965  29.114  33.965  1.00  0.00    -0.206 F 
ATOM     76  C   UNL A   1      46.619  26.049  35.780  1.00  0.00     0.006 A 
ENDBRANCH  55  69
BRANCH  56  77
ATOM     77  C   UNL A   1      37.040  31.485  29.277  1.00  0.00     0.057 A 
ATOM     78  C   UNL A   1      35.896  30.741  28.970  1.00  0.00     0.134 A 
ATOM     79  C   UNL A   1      37.094  32.806  28.817  1.00  0.00     0.134 A 
ATOM     80  F   UNL A   1      35.797  29.463  29.362  1.00  0.00    -0.206 F 
ATOM     81  C   UNL A   1      34.853  31.282  28.214  1.00  0.00     0.040 A 
ATOM     82  C   UNL A   1      36.049  33.367  28.081  1.00  0.00     0.040 A 
ATOM     83  F   UNL A   1      38.164  33.572  29.077  1.00  0.00    -0.206 F 
ATOM     84  C   UNL A   1      34.928  32.601  27.771  1.00  0.00     0.006 A 
ENDBRANCH  56  77
BRANCH  68  85
ATOM     85  C   UNL A   1      39.178  32.031  35.878  1.00  0.00     0.057 A 
ATOM     86  C   UNL A   1      39.551  33.366  36.070  1.00  0.00     0.134 A 
ATOM     87  C   UNL A   1      38.274  31.471  36.790  1.00  0.00     0.134 A 
ATOM     88  F   UNL A   1      40.422  33.956  35.237  1.00  0.00    -0.206 F 
ATOM     89  C   UNL A   1      39.058  34.111  37.142  1.00  0.00     0.040 A 
ATOM     90  C   UNL A   1      37.757  32.214  37.852  1.00  0.00     0.040 A 
ATOM     91  F   UNL A   1      37.869  30.200  36.655  1.00  0.00    -0.206 F 
ATOM     92  C   UNL A   1      38.152  33.537  38.033  1.00  0.00     0.006 A 
ENDBRANCH  68  85
ENDBRANCH  42  43
ENDBRANCH  35  37
ENDBRANCH  34  35
ENDBRANCH  33  34
ENDBRANCH  32  33
ENDBRANCH  31  32
ENDBRANCH  30  31
ENDBRANCH  29  30
ENDBRANCH  28  29
ENDBRANCH   1  28
TORSDOF 23
ENDMDL
MODEL 2
REMARK VINA RESULT:     -11.0      1.239      2.140
REMARK SMILES CCCCCCNC(=O)Oc1cccc(-c2ccc(CC(=O)OCCOCCOC(=O)c3ccc(-c4c5nc(c(-c6c(F)cccc6F)c6ccc([nH]6)c(-c6c(F)cccc6F)c6nc(c(-c7c(F)cccc7F)c7ccc4[nH]7)C=C6)C=C5)cc3)cc2F)c1
REMARK SMILES IDX 21 1 22 2 20 3 19 4 16 5 17 6 87 7 18 8 86 9 88 10 15 11
REMARK SMILES IDX 11 12 12 13 89 14 13 15 14 16 10 17 8 18 7 19 9 21 6 22 5 23
REMARK SMILES IDX 4 24 3 25 2 26 1 27 23 28 24 29 25 30 26 31 27 32 28 33
REMARK SMILES IDX 29 34 30 35 31 36 32 37 33 38 85 39 34 40 84 41 35 42 36 43
REMARK SMILES IDX 37 44 78 45 38 46 83 47 77 48 79 49 39 50 82 51 76 52 75 53
REMARK SMILES IDX 40 55 66 56 49 57 65 58 50 59 53 60 64 61 80 62 51 63 52 64
REMARK SMILES IDX 63 66 81 67 54 68 41 69 42 70 47 71 43 72 44 73 46 74 48 75
REMARK SMILES IDX 45 76 67 77 68 78 73 79 69 80 70 81 72 82 74 83 71 84 55 85
REMARK SMILES IDX 56 86 61 87 57 88 58 89 60 90 62 91 59 92
REMARK H PARENT 7 20 79 54 53 65
REMARK Flexibility Score: inf
ROOT
ATOM      1  C   UNL A   1      41.386  20.301  26.688  1.00  0.00     0.310 C 
ATOM      2  O   UNL A   1      41.181  19.671  27.721  1.00  0.00    -0.252 OA
ENDROOT
BRANCH   1   3
ATOM      3  C   UNL A   1      40.958  21.743  26.555  1.00  0.00     0.158 C 
BRANCH   3   4
ATOM      4  C   UNL A   1      39.539  22.048  26.130  1.00  0.00    -0.034 A 
ATOM      5  C   UNL A   1      36.810  22.554  25.521  1.00  0.00     0.018 A 
ATOM      6  C   UNL A   1      37.645  23.582  25.983  1.00  0.00     0.012 A 
ATOM      7  C   UNL A   1      37.375  21.284  25.349  1.00  0.00     0.131 A 
ATOM      8  C   UNL A   1      38.989  23.328  26.296  1.00  0.00     0.005 A 
ATOM      9  C   UNL A   1      38.717  21.030  25.636  1.00  0.00     0.044 A 
ATOM     10  F   UNL A   1      36.618  20.263  24.916  1.00  0.00    -0.206 F 
BRANCH   5  11
ATOM     11  C   UNL A   1      35.386  22.791  25.260  1.00  0.00    -0.012 A 
ATOM     12  C   UNL A   1      33.290  23.872  25.841  1.00  0.00     0.133 A 
ATOM     13  C   UNL A   1      32.627  23.188  24.826  1.00  0.00     0.047 A 
ATOM     14  C   UNL A   1      34.652  23.672  26.073  1.00  0.00     0.056 A 
ATOM     15  C   UNL A   1      33.346  22.320  24.006  1.00  0.00     0.004 A 
ATOM     16  C   UNL A   1      34.717  22.128  24.218  1.00  0.00     0.009 A 
BRANCH  12  17
ATOM     17  O   UNL A   1      32.515  24.667  26.700  1.00  0.00    -0.410 OA
BRANCH  17  18
ATOM     18  C   UNL A   1      31.157  24.387  26.770  1.00  0.00     0.412 C 
ATOM     19  N   UNL A   1      30.374  25.376  26.243  1.00  0.00    -0.321 N 
ATOM     20  H   UNL A   1      29.400  25.231  26.278  1.00  0.00     0.167 HD
ATOM     21  O   UNL A   1      30.653  23.379  27.250  1.00  0.00    -0.224 OA
BRANCH  19  22
ATOM     22  C   UNL A   1      30.818  26.616  25.637  1.00  0.00     0.119 C 
BRANCH  22  23
ATOM     23  C   UNL A   1      30.532  26.659  24.136  1.00  0.00     0.021 C 
BRANCH  23  24
ATOM     24  C   UNL A   1      30.185  28.046  23.580  1.00  0.00     0.002 C 
BRANCH  24  25
ATOM     25  C   UNL A   1      31.308  28.756  22.814  1.00  0.00    -0.000 C 
BRANCH  25  26
ATOM     26  C   UNL A   1      32.664  28.797  23.523  1.00  0.00    -0.003 C 
ATOM     27  C   UNL A   1      33.847  28.763  22.568  1.00  0.00     0.004 C 
ENDBRANCH  25  26
ENDBRANCH  24  25
ENDBRANCH  23  24
ENDBRANCH  22  23
ENDBRANCH  19  22
ENDBRANCH  17  18
ENDBRANCH  12  17
ENDBRANCH   5  11
ENDBRANCH   3   4
ENDBRANCH   1   3
BRANCH   1  28
ATOM     28  O   UNL A   1      41.961  19.781  25.572  1.00  0.00    -0.463 OA
BRANCH  28  29
ATOM     29  C   UNL A   1      42.891  18.702  25.792  1.00  0.00     0.261 C 
BRANCH  29  30
ATOM     30  C   UNL A   1      44.216  18.927  25.058  1.00  0.00     0.202 C 
BRANCH  30  31
ATOM     31  O   UNL A   1      44.234  19.997  24.112  1.00  0.00    -0.374 OA
BRANCH  31  32
ATOM     32  C   UNL A   1      44.927  21.183  24.496  1.00  0.00     0.202 C 
BRANCH  32  33
ATOM     33  C   UNL A   1      44.413  22.493  23.885  1.00  0.00     0.261 C 
BRANCH  33  34
ATOM     34  O   UNL A   1      43.740  23.317  24.854  1.00  0.00    -0.460 OA
BRANCH  34  35
ATOM     35  C   UNL A   1      44.355  24.496  25.115  1.00  0.00     0.338 C 
ATOM     36  O   UNL A   1      45.384  24.919  24.614  1.00  0.00    -0.246 OA
BRANCH  35  37
ATOM     37  C   UNL A   1      43.520  25.328  26.004  1.00  0.00     0.060 A 
ATOM     38  C   UNL A   1      43.910  26.663  26.178  1.00  0.00     0.016 A 
ATOM     39  C   UNL A   1      42.438  24.808  26.717  1.00  0.00     0.016 A 
ATOM     40  C   UNL A   1      43.259  27.465  27.113  1.00  0.00     0.010 A 
ATOM     41  C   UNL A   1      41.790  25.615  27.662  1.00  0.00     0.010 A 
ATOM     42  C   UNL A   1      42.224  26.933  27.892  1.00  0.00    -0.014 A 
BRANCH  42  43
ATOM     43  C   UNL A   1      41.710  27.717  29.042  1.00  0.00     0.031 A 
ATOM     44  C   UNL A   1      42.420  27.621  30.366  1.00  0.00     0.074 A 
ATOM     45  C   UNL A   1      40.658  28.541  28.899  1.00  0.00     0.049 A 
ATOM     46  N   UNL A   1      42.150  28.220  31.497  1.00  0.00    -0.248 NA
ATOM     47  C   UNL A   1      43.592  26.733  30.421  1.00  0.00     0.031 C 
ATOM     48  C   UNL A   1      39.907  28.746  27.661  1.00  0.00     0.029 A 
ATOM     49  N   UNL A   1      40.038  29.359  29.809  1.00  0.00    -0.354 N 
ATOM     50  C   UNL A   1      43.114  27.781  32.397  1.00  0.00     0.074 A 
ATOM     51  C   UNL A   1      43.959  26.844  31.689  1.00  0.00     0.031 C 
ATOM     52  C   UNL A   1      38.919  29.628  27.893  1.00  0.00     0.029 A 
ATOM     53  C   UNL A   1      38.953  30.030  29.297  1.00  0.00     0.049 A 
ATOM     54  H   UNL A   1      40.341  29.457  30.741  1.00  0.00     0.167 HD
ATOM     55  C   UNL A   1      43.284  28.134  33.693  1.00  0.00     0.037 A 
ATOM     56  C   UNL A   1      38.081  30.861  29.900  1.00  0.00     0.037 A 
ATOM     57  C   UNL A   1      42.450  29.072  34.396  1.00  0.00     0.049 A 
ATOM     58  C   UNL A   1      38.262  31.195  31.356  1.00  0.00     0.074 A 
ATOM     59  C   UNL A   1      42.559  29.511  35.704  1.00  0.00     0.029 A 
ATOM     60  N   UNL A   1      41.349  29.711  33.849  1.00  0.00    -0.354 N 
ATOM     61  N   UNL A   1      39.196  30.799  32.186  1.00  0.00    -0.248 NA
ATOM     62  C   UNL A   1      37.268  32.096  31.960  1.00  0.00     0.031 C 
ATOM     63  C   UNL A   1      41.499  30.386  35.961  1.00  0.00     0.029 A 
ATOM     64  C   UNL A   1      40.756  30.524  34.799  1.00  0.00     0.049 A 
ATOM     65  H   UNL A   1      41.036  29.604  32.922  1.00  0.00     0.167 HD
ATOM     66  C   UNL A   1      38.921  31.423  33.397  1.00  0.00     0.074 A 
ATOM     67  C   UNL A   1      37.739  32.233  33.192  1.00  0.00     0.031 C 
ATOM     68  C   UNL A   1      39.587  31.334  34.574  1.00  0.00     0.037 A 
BRANCH  55  69
ATOM     69  C   UNL A   1      44.410  27.490  34.446  1.00  0.00     0.057 A 
ATOM     70  C   UNL A   1      45.680  28.075  34.516  1.00  0.00     0.134 A 
ATOM     71  C   UNL A   1      44.205  26.298  35.152  1.00  0.00     0.134 A 
ATOM     72  F   UNL A   1      45.944  29.211  33.852  1.00  0.00    -0.206 F 
ATOM     73  C   UNL A   1      46.712  27.490  35.253  1.00  0.00     0.040 A 
ATOM     74  C   UNL A   1      45.222  25.715  35.908  1.00  0.00     0.040 A 
ATOM     75  F   UNL A   1      43.010  25.689  35.128  1.00  0.00    -0.206 F 
ATOM     76  C   UNL A   1      46.481  26.309  35.958  1.00  0.00     0.006 A 
ENDBRANCH  55  69
BRANCH  56  77
ATOM     77  C   UNL A   1      36.942  31.430  29.135  1.00  0.00     0.057 A 
ATOM     78  C   UNL A   1      36.964  32.749  28.669  1.00  0.00     0.134 A 
ATOM     79  C   UNL A   1      35.789  30.676  28.886  1.00  0.00     0.134 A 
ATOM     80  F   UNL A   1      38.031  33.528  28.899  1.00  0.00    -0.206 F 
ATOM     81  C   UNL A   1      35.872  33.306  28.001  1.00  0.00     0.040 A 
ATOM     82  C   UNL A   1      34.700  31.213  28.197  1.00  0.00     0.040 A 
ATOM     83  F   UNL A   1      35.705  29.406  29.307  1.00  0.00    -0.206 F 
ATOM     84  C   UNL A   1      34.737  32.535  27.760  1.00  0.00     0.006 A 
ENDBRANCH  56  77
BRANCH  68  85
ATOM     85  C   UNL A   1      39.077  32.160  35.719  1.00  0.00     0.057 A 
ATOM     86  C   UNL A   1      38.241  31.619  36.703  1.00  0.00     0.134 A 
ATOM     87  C   UNL A   1      39.465  33.498  35.859  1.00  0.00     0.134 A 
ATOM     88  F   UNL A   1      37.825  30.347  36.619  1.00  0.00    -0.206 F 
ATOM     89  C   UNL A   1      37.792  32.389  37.778  1.00  0.00     0.040 A 
ATOM     90  C   UNL A   1      39.041  34.270  36.942  1.00  0.00     0.040 A 
ATOM     91  F   UNL A   1      40.272  34.072  34.955  1.00  0.00    -0.206 F 
ATOM     92  C   UNL A   1      38.199  33.716  37.903  1.00  0.00     0.006 A 
ENDBRANCH  68  85
ENDBRANCH  42  43
ENDBRANCH  35  37
ENDBRANCH  34  35
ENDBRANCH  33  34
ENDBRANCH  32  33
ENDBRANCH  31  32
ENDBRANCH  30  31
ENDBRANCH  29  30
ENDBRANCH  28  29
ENDBRANCH   1  28
TORSDOF 23
ENDMDL
MODEL 3
REMARK VINA RESULT:     -11.0      5.032     10.985
REMARK SMILES CCCCCCNC(=O)Oc1cccc(-c2ccc(CC(=O)OCCOCCOC(=O)c3ccc(-c4c5nc(c(-c6c(F)cccc6F)c6ccc([nH]6)c(-c6c(F)cccc6F)c6nc(c(-c7c(F)cccc7F)c7ccc4[nH]7)C=C6)C=C5)cc3)cc2F)c1
REMARK SMILES IDX 21 1 22 2 20 3 19 4 16 5 17 6 87 7 18 8 86 9 88 10 15 11
REMARK SMILES IDX 11 12 12 13 89 14 13 15 14 16 10 17 8 18 7 19 9 21 6 22 5 23
REMARK SMILES IDX 4 24 3 25 2 26 1 27 23 28 24 29 25 30 26 31 27 32 28 33
REMARK SMILES IDX 29 34 30 35 31 36 32 37 33 38 85 39 34 40 84 41 35 42 36 43
REMARK SMILES IDX 37 44 78 45 38 46 83 47 77 48 79 49 39 50 82 51 76 52 75 53
REMARK SMILES IDX 40 55 66 56 49 57 65 58 50 59 53 60 64 61 80 62 51 63 52 64
REMARK SMILES IDX 63 66 81 67 54 68 41 69 42 70 47 71 43 72 44 73 46 74 48 75
REMARK SMILES IDX 45 76 67 77 68 78 73 79 69 80 70 81 72 82 74 83 71 84 55 85
REMARK SMILES IDX 56 86 61 87 57 88 58 89 60 90 62 91 59 92
REMARK H PARENT 7 20 79 54 53 65
REMARK Flexibility Score: inf
ROOT
ATOM      1  C   UNL A   1      32.958  35.521  29.461  1.00  0.00     0.310 C 
ATOM      2  O   UNL A   1      32.255  36.373  28.929  1.00  0.00    -0.252 OA
ENDROOT
BRANCH   1   3
ATOM      3  C   UNL A   1      34.057  34.822  28.695  1.00  0.00     0.158 C 
BRANCH   3   4
ATOM      4  C   UNL A   1      33.779  33.461  28.097  1.00  0.00    -0.034 A 
ATOM      5  C   UNL A   1      33.205  30.840  27.165  1.00  0.00     0.018 A 
ATOM      6  C   UNL A   1      32.253  31.865  27.057  1.00  0.00     0.012 A 
ATOM      7  C   UNL A   1      34.448  31.161  27.723  1.00  0.00     0.131 A 
ATOM      8  C   UNL A   1      32.534  33.155  27.529  1.00  0.00     0.005 A 
ATOM      9  C   UNL A   1      34.742  32.449  28.174  1.00  0.00     0.044 A 
ATOM     10  F   UNL A   1      35.391  30.216  27.856  1.00  0.00    -0.206 F 
BRANCH   5  11
ATOM     11  C   UNL A   1      32.896  29.469  26.741  1.00  0.00    -0.012 A 
ATOM     12  C   UNL A   1      33.310  27.571  25.284  1.00  0.00     0.133 A 
ATOM     13  C   UNL A   1      32.254  26.868  25.857  1.00  0.00     0.047 A 
ATOM     14  C   UNL A   1      33.626  28.864  25.705  1.00  0.00     0.056 A 
ATOM     15  C   UNL A   1      31.529  27.453  26.894  1.00  0.00     0.004 A 
ATOM     16  C   UNL A   1      31.852  28.742  27.336  1.00  0.00     0.009 A 
BRANCH  12  17
ATOM     17  O   UNL A   1      33.957  26.985  24.185  1.00  0.00    -0.410 OA
BRANCH  17  18
ATOM     18  C   UNL A   1      33.479  27.306  22.922  1.00  0.00     0.412 C 
ATOM     19  N   UNL A   1      33.066  26.216  22.207  1.00  0.00    -0.321 N 
ATOM     20  H   UNL A   1      32.728  26.389  21.298  1.00  0.00     0.167 HD
ATOM     21  O   UNL A   1      33.417  28.431  22.439  1.00  0.00    -0.224 OA
BRANCH  19  22
ATOM     22  C   UNL A   1      33.071  24.832  22.639  1.00  0.00     0.119 C 
BRANCH  22  23
ATOM     23  C   UNL A   1      31.687  24.364  23.089  1.00  0.00     0.021 C 
BRANCH  23  24
ATOM     24  C   UNL A   1      31.689  23.278  24.172  1.00  0.00     0.002 C 
BRANCH  24  25
ATOM     25  C   UNL A   1      32.268  21.921  23.752  1.00  0.00    -0.000 C 
BRANCH  25  26
ATOM     26  C   UNL A   1      33.681  21.622  24.260  1.00  0.00    -0.003 C 
ATOM     27  C   UNL A   1      33.869  20.181  24.709  1.00  0.00     0.004 C 
ENDBRANCH  25  26
ENDBRANCH  24  25
ENDBRANCH  23  24
ENDBRANCH  22  23
ENDBRANCH  19  22
ENDBRANCH  17  18
ENDBRANCH  12  17
ENDBRANCH   5  11
ENDBRANCH   3   4
ENDBRANCH   1   3
BRANCH   1  28
ATOM     28  O   UNL A   1      32.809  35.091  30.743  1.00  0.00    -0.463 OA
BRANCH  28  29
ATOM     29  C   UNL A   1      32.462  36.106  31.705  1.00  0.00     0.261 C 
BRANCH  29  30
ATOM     30  C   UNL A   1      33.645  37.027  32.020  1.00  0.00     0.202 C 
BRANCH  30  31
ATOM     31  O   UNL A   1      34.342  36.756  33.238  1.00  0.00    -0.374 OA
BRANCH  31  32
ATOM     32  C   UNL A   1      34.711  35.400  33.479  1.00  0.00     0.202 C 
BRANCH  32  33
ATOM     33  C   UNL A   1      35.841  34.841  32.605  1.00  0.00     0.261 C 
BRANCH  33  34
ATOM     34  O   UNL A   1      35.636  33.456  32.273  1.00  0.00    -0.460 OA
BRANCH  34  35
ATOM     35  C   UNL A   1      36.333  32.584  33.041  1.00  0.00     0.338 C 
ATOM     36  O   UNL A   1      36.175  32.356  34.228  1.00  0.00    -0.246 OA
BRANCH  35  37
ATOM     37  C   UNL A   1      37.251  31.782  32.206  1.00  0.00     0.060 A 
ATOM     38  C   UNL A   1      38.297  31.122  32.865  1.00  0.00     0.016 A 
ATOM     39  C   UNL A   1      37.152  31.739  30.815  1.00  0.00     0.016 A 
ATOM     40  C   UNL A   1      39.285  30.470  32.131  1.00  0.00     0.010 A 
ATOM     41  C   UNL A   1      38.151  31.089  30.077  1.00  0.00     0.010 A 
ATOM     42  C   UNL A   1      39.241  30.487  30.731  1.00  0.00    -0.014 A 
BRANCH  42  43
ATOM     43  C   UNL A   1      40.418  30.004  29.967  1.00  0.00     0.031 A 
ATOM     44  C   UNL A   1      41.564  30.948  29.718  1.00  0.00     0.074 A 
ATOM     45  C   UNL A   1      40.490  28.730  29.544  1.00  0.00     0.049 A 
ATOM     46  N   UNL A   1      42.689  30.738  29.083  1.00  0.00    -0.248 NA
ATOM     47  C   UNL A   1      41.423  32.310  30.259  1.00  0.00     0.031 C 
ATOM     48  C   UNL A   1      39.461  27.712  29.751  1.00  0.00     0.029 A 
ATOM     49  N   UNL A   1      41.476  28.078  28.847  1.00  0.00    -0.354 N 
ATOM     50  C   UNL A   1      43.387  31.939  29.146  1.00  0.00     0.074 A 
ATOM     51  C   UNL A   1      42.550  32.880  29.856  1.00  0.00     0.031 C 
ATOM     52  C   UNL A   1      39.867  26.563  29.184  1.00  0.00     0.029 A 
ATOM     53  C   UNL A   1      41.170  26.770  28.556  1.00  0.00     0.049 A 
ATOM     54  H   UNL A   1      42.322  28.505  28.582  1.00  0.00     0.167 HD
ATOM     55  C   UNL A   1      44.619  32.226  28.664  1.00  0.00     0.037 A 
ATOM     56  C   UNL A   1      41.858  25.853  27.848  1.00  0.00     0.037 A 
ATOM     57  C   UNL A   1      45.457  31.288  27.965  1.00  0.00     0.049 A 
ATOM     58  C   UNL A   1      43.203  26.216  27.277  1.00  0.00     0.074 A 
ATOM     59  C   UNL A   1      46.732  31.480  27.460  1.00  0.00     0.029 A 
ATOM     60  N   UNL A   1      45.102  29.982  27.670  1.00  0.00    -0.354 N 
ATOM     61  N   UNL A   1      43.866  27.343  27.371  1.00  0.00    -0.248 NA
ATOM     62  C   UNL A   1      43.897  25.176  26.502  1.00  0.00     0.031 C 
ATOM     63  C   UNL A   1      47.131  30.302  26.822  1.00  0.00     0.029 A 
ATOM     64  C   UNL A   1      46.123  29.363  26.969  1.00  0.00     0.049 A 
ATOM     65  H   UNL A   1      44.250  29.557  27.922  1.00  0.00     0.167 HD
ATOM     66  C   UNL A   1      45.064  27.139  26.696  1.00  0.00     0.074 A 
ATOM     67  C   UNL A   1      45.042  25.777  26.206  1.00  0.00     0.031 C 
ATOM     68  C   UNL A   1      46.090  28.002  26.500  1.00  0.00     0.037 A 
BRANCH  55  69
ATOM     69  C   UNL A   1      45.134  33.621  28.860  1.00  0.00     0.057 A 
ATOM     70  C   UNL A   1      44.899  34.633  27.920  1.00  0.00     0.134 A 
ATOM     71  C   UNL A   1      45.824  33.968  30.027  1.00  0.00     0.134 A 
ATOM     72  F   UNL A   1      44.254  34.362  26.776  1.00  0.00    -0.206 F 
ATOM     73  C   UNL A   1      45.347  35.939  28.129  1.00  0.00     0.040 A 
ATOM     74  C   UNL A   1      46.258  35.274  30.257  1.00  0.00     0.040 A 
ATOM     75  F   UNL A   1      46.077  33.046  30.968  1.00  0.00    -0.206 F 
ATOM     76  C   UNL A   1      46.022  36.263  29.305  1.00  0.00     0.006 A 
ENDBRANCH  55  69
BRANCH  56  77
ATOM     77  C   UNL A   1      41.287  24.502  27.623  1.00  0.00     0.057 A 
ATOM     78  C   UNL A   1      40.254  24.292  26.702  1.00  0.00     0.134 A 
ATOM     79  C   UNL A   1      41.735  23.395  28.353  1.00  0.00     0.134 A 
ATOM     80  F   UNL A   1      39.765  25.318  25.991  1.00  0.00    -0.206 F 
ATOM     81  C   UNL A   1      39.674  23.033  26.529  1.00  0.00     0.040 A 
ATOM     82  C   UNL A   1      41.181  22.126  28.173  1.00  0.00     0.040 A 
ATOM     83  F   UNL A   1      42.721  23.530  29.252  1.00  0.00    -0.206 F 
ATOM     84  C   UNL A   1      40.141  21.946  27.264  1.00  0.00     0.006 A 
ENDBRANCH  56  77
BRANCH  68  85
ATOM     85  C   UNL A   1      47.288  27.489  25.756  1.00  0.00     0.057 A 
ATOM     86  C   UNL A   1      48.343  26.843  26.412  1.00  0.00     0.134 A 
ATOM     87  C   UNL A   1      47.364  27.605  24.362  1.00  0.00     0.134 A 
ATOM     88  F   UNL A   1      48.335  26.712  27.747  1.00  0.00    -0.206 F 
ATOM     89  C   UNL A   1      49.442  26.347  25.708  1.00  0.00     0.040 A 
ATOM     90  C   UNL A   1      48.446  27.092  23.647  1.00  0.00     0.040 A 
ATOM     91  F   UNL A   1      46.381  28.204  23.674  1.00  0.00    -0.206 F 
ATOM     92  C   UNL A   1      49.491  26.465  24.320  1.00  0.00     0.006 A 
ENDBRANCH  68  85
ENDBRANCH  42  43
ENDBRANCH  35  37
ENDBRANCH  34  35
ENDBRANCH  33  34
ENDBRANCH  32  33
ENDBRANCH  31  32
ENDBRANCH  30  31
ENDBRANCH  29  30
ENDBRANCH  28  29
ENDBRANCH   1  28
TORSDOF 23
ENDMDL
