MODEL 1
REMARK VINA RESULT:      -9.2      0.000      0.000
REMARK SMILES O=C(OCCOCCOC(=O)c1ccc2nc(C3CCCCC3)[nH]c2c1)c1ccc(-c2c3nc(c(-c4c(F)cccc4F)c4ccc([nH]4)c(-c4c(F)cccc4F)c4nc(c(-c5c(F)cccc5F)c5ccc2[nH]5)C=C4)C=C3)cc1
REMARK SMILES IDX 5 1 4 2 3 3 2 4 1 5 27 6 28 7 80 8 29 9 79 10 30 11 31 12
REMARK SMILES IDX 32 13 73 14 33 15 78 16 72 17 74 18 34 19 77 20 71 21 70 22
REMARK SMILES IDX 35 24 61 25 44 26 60 27 45 28 48 29 59 30 75 31 46 32 47 33
REMARK SMILES IDX 58 35 76 36 49 37 36 38 37 39 42 40 38 41 39 42 41 43 43 44
REMARK SMILES IDX 40 45 62 46 63 47 68 48 64 49 65 50 67 51 69 52 66 53 50 54
REMARK SMILES IDX 51 55 56 56 52 57 53 58 55 59 57 60 54 61 6 62 7 63 8 64
REMARK SMILES IDX 9 65 10 66 11 67 12 68 13 69 26 70 14 71 25 72 15 73 24 74
REMARK SMILES IDX 16 75 17 76 18 78 19 79 23 80 20 81 22 82 21 83
REMARK H PARENT 74 23 48 34 24 77
REMARK Flexibility Score: inf
ROOT
ATOM      1  C   UNL A   1      33.307  37.056  31.233  1.00  0.00     0.202 C 
ENDROOT
BRANCH   1   2
ATOM      2  C   UNL A   1      32.416  35.911  30.742  1.00  0.00     0.261 C 
BRANCH   2   3
ATOM      3  O   UNL A   1      32.674  35.636  29.354  1.00  0.00    -0.460 OA
BRANCH   3   4
ATOM      4  C   UNL A   1      33.227  34.522  28.821  1.00  0.00     0.338 C 
ATOM      5  O   UNL A   1      32.624  33.919  27.935  1.00  0.00    -0.246 OA
BRANCH   4   6
ATOM      6  C   UNL A   1      34.541  33.975  29.269  1.00  0.00     0.060 A 
ATOM      7  C   UNL A   1      34.680  32.961  30.216  1.00  0.00     0.016 A 
ATOM      8  C   UNL A   1      35.696  34.428  28.610  1.00  0.00     0.016 A 
ATOM      9  C   UNL A   1      35.918  32.443  30.550  1.00  0.00     0.010 A 
ATOM     10  C   UNL A   1      36.944  33.867  28.895  1.00  0.00     0.010 A 
ATOM     11  C   UNL A   1      37.052  32.866  29.868  1.00  0.00    -0.014 A 
BRANCH  11  12
ATOM     12  C   UNL A   1      38.333  32.230  30.214  1.00  0.00     0.031 A 
ATOM     13  C   UNL A   1      39.232  32.901  31.199  1.00  0.00     0.074 A 
ATOM     14  C   UNL A   1      38.599  31.004  29.728  1.00  0.00     0.049 A 
ATOM     15  N   UNL A   1      40.417  32.543  31.609  1.00  0.00    -0.248 NA
ATOM     16  C   UNL A   1      38.722  34.136  31.822  1.00  0.00     0.031 C 
ATOM     17  C   UNL A   1      37.711  30.233  28.850  1.00  0.00     0.029 A 
ATOM     18  N   UNL A   1      39.671  30.175  29.919  1.00  0.00    -0.354 N 
ATOM     19  C   UNL A   1      40.812  33.522  32.510  1.00  0.00     0.074 A 
ATOM     20  C   UNL A   1      39.737  34.486  32.598  1.00  0.00     0.031 C 
ATOM     21  C   UNL A   1      38.266  29.039  28.598  1.00  0.00     0.029 A 
ATOM     22  C   UNL A   1      39.580  28.991  29.225  1.00  0.00     0.049 A 
ATOM     23  H   UNL A   1      40.435  30.405  30.497  1.00  0.00     0.167 HD
ATOM     24  C   UNL A   1      41.981  33.603  33.183  1.00  0.00     0.037 A 
ATOM     25  C   UNL A   1      40.485  28.007  29.080  1.00  0.00     0.037 A 
ATOM     26  C   UNL A   1      43.023  32.619  33.074  1.00  0.00     0.049 A 
ATOM     27  C   UNL A   1      41.811  28.173  29.771  1.00  0.00     0.074 A 
ATOM     28  C   UNL A   1      44.269  32.608  33.672  1.00  0.00     0.029 A 
ATOM     29  N   UNL A   1      42.931  31.464  32.307  1.00  0.00    -0.354 N 
ATOM     30  N   UNL A   1      42.205  29.127  30.583  1.00  0.00    -0.248 NA
ATOM     31  C   UNL A   1      42.826  27.147  29.510  1.00  0.00     0.031 C 
ATOM     32  C   UNL A   1      44.948  31.469  33.228  1.00  0.00     0.029 A 
ATOM     33  C   UNL A   1      44.109  30.746  32.392  1.00  0.00     0.049 A 
ATOM     34  H   UNL A   1      42.143  31.198  31.780  1.00  0.00     0.167 HD
ATOM     35  C   UNL A   1      43.509  28.815  30.934  1.00  0.00     0.074 A 
ATOM     36  C   UNL A   1      43.828  27.564  30.273  1.00  0.00     0.031 C 
ATOM     37  C   UNL A   1      44.376  29.500  31.720  1.00  0.00     0.037 A 
BRANCH  24  38
ATOM     38  C   UNL A   1      42.210  34.823  34.020  1.00  0.00     0.057 A 
ATOM     39  C   UNL A   1      41.920  34.860  35.389  1.00  0.00     0.134 A 
ATOM     40  C   UNL A   1      42.732  35.985  33.438  1.00  0.00     0.134 A 
ATOM     41  F   UNL A   1      41.391  33.791  36.002  1.00  0.00    -0.206 F 
ATOM     42  C   UNL A   1      42.130  36.016  36.147  1.00  0.00     0.040 A 
ATOM     43  C   UNL A   1      42.964  37.139  34.188  1.00  0.00     0.040 A 
ATOM     44  F   UNL A   1      43.022  36.019  32.127  1.00  0.00    -0.206 F 
ATOM     45  C   UNL A   1      42.658  37.157  35.546  1.00  0.00     0.006 A 
ENDBRANCH  24  38
BRANCH  25  46
ATOM     46  C   UNL A   1      40.215  26.844  28.194  1.00  0.00     0.057 A 
ATOM     47  C   UNL A   1      40.736  26.772  26.896  1.00  0.00     0.134 A 
ATOM     48  C   UNL A   1      39.387  25.791  28.608  1.00  0.00     0.134 A 
ATOM     49  F   UNL A   1      41.519  27.755  26.428  1.00  0.00    -0.206 F 
ATOM     50  C   UNL A   1      40.424  25.715  26.038  1.00  0.00     0.040 A 
ATOM     51  C   UNL A   1      39.092  24.713  27.773  1.00  0.00     0.040 A 
ATOM     52  F   UNL A   1      38.850  25.793  29.837  1.00  0.00    -0.206 F 
ATOM     53  C   UNL A   1      39.602  24.679  26.478  1.00  0.00     0.006 A 
ENDBRANCH  25  46
BRANCH  37  54
ATOM     54  C   UNL A   1      45.731  28.894  31.910  1.00  0.00     0.057 A 
ATOM     55  C   UNL A   1      46.821  29.272  31.117  1.00  0.00     0.134 A 
ATOM     56  C   UNL A   1      45.955  27.956  32.926  1.00  0.00     0.134 A 
ATOM     57  F   UNL A   1      46.663  30.152  30.118  1.00  0.00    -0.206 F 
ATOM     58  C   UNL A   1      48.087  28.723  31.318  1.00  0.00     0.040 A 
ATOM     59  C   UNL A   1      47.221  27.423  33.153  1.00  0.00     0.040 A 
ATOM     60  F   UNL A   1      44.950  27.562  33.723  1.00  0.00    -0.206 F 
ATOM     61  C   UNL A   1      48.291  27.802  32.345  1.00  0.00     0.006 A 
ENDBRANCH  37  54
ENDBRANCH  11  12
ENDBRANCH   4   6
ENDBRANCH   3   4
ENDBRANCH   2   3
ENDBRANCH   1   2
BRANCH   1  62
ATOM     62  O   UNL A   1      34.017  36.779  32.439  1.00  0.00    -0.374 OA
BRANCH  62  63
ATOM     63  C   UNL A   1      34.047  35.403  32.844  1.00  0.00     0.202 C 
BRANCH  63  64
ATOM     64  C   UNL A   1      35.479  35.032  33.247  1.00  0.00     0.261 C 
BRANCH  64  65
ATOM     65  O   UNL A   1      35.474  33.674  33.717  1.00  0.00    -0.460 OA
BRANCH  65  66
ATOM     66  C   UNL A   1      36.192  33.460  34.854  1.00  0.00     0.338 C 
ATOM     67  O   UNL A   1      35.938  33.851  35.973  1.00  0.00    -0.246 OA
BRANCH  66  68
ATOM     68  C   UNL A   1      37.214  32.432  34.536  1.00  0.00     0.062 A 
ATOM     69  C   UNL A   1      36.957  31.441  33.580  1.00  0.00     0.018 A 
ATOM     70  C   UNL A   1      38.391  32.425  35.307  1.00  0.00     0.044 A 
ATOM     71  C   UNL A   1      37.865  30.393  33.384  1.00  0.00     0.031 A 
ATOM     72  C   UNL A   1      39.256  31.345  35.113  1.00  0.00     0.066 A 
ATOM     73  C   UNL A   1      39.020  30.345  34.177  1.00  0.00     0.089 A 
ATOM     74  N   UNL A   1      40.435  30.975  35.711  1.00  0.00    -0.342 N 
ATOM     75  N   UNL A   1      40.026  29.420  34.188  1.00  0.00    -0.233 NA
ATOM     76  C   UNL A   1      40.884  29.826  35.102  1.00  0.00     0.110 A 
ATOM     77  H   UNL A   1      40.883  31.450  36.448  1.00  0.00     0.168 HD
BRANCH  76  78
ATOM     78  C   UNL A   1      42.184  29.152  35.418  1.00  0.00     0.055 C 
ATOM     79  C   UNL A   1      43.170  30.081  36.137  1.00  0.00     0.011 C 
ATOM     80  C   UNL A   1      41.985  27.851  36.206  1.00  0.00     0.011 C 
ATOM     81  C   UNL A   1      44.510  29.385  36.361  1.00  0.00     0.001 C 
ATOM     82  C   UNL A   1      43.324  27.148  36.433  1.00  0.00     0.001 C 
ATOM     83  C   UNL A   1      44.342  28.064  37.109  1.00  0.00     0.000 C 
ENDBRANCH  76  78
ENDBRANCH  66  68
ENDBRANCH  65  66
ENDBRANCH  64  65
ENDBRANCH  63  64
ENDBRANCH  62  63
ENDBRANCH   1  62
TORSDOF 15
ENDMDL
MODEL 2
REMARK VINA RESULT:      -8.8      5.459     11.288
REMARK SMILES O=C(OCCOCCOC(=O)c1ccc2nc(C3CCCCC3)[nH]c2c1)c1ccc(-c2c3nc(c(-c4c(F)cccc4F)c4ccc([nH]4)c(-c4c(F)cccc4F)c4nc(c(-c5c(F)cccc5F)c5ccc2[nH]5)C=C4)C=C3)cc1
REMARK SMILES IDX 5 1 4 2 3 3 2 4 1 5 27 6 28 7 80 8 29 9 79 10 30 11 31 12
REMARK SMILES IDX 32 13 73 14 33 15 78 16 72 17 74 18 34 19 77 20 71 21 70 22
REMARK SMILES IDX 35 24 61 25 44 26 60 27 45 28 48 29 59 30 75 31 46 32 47 33
REMARK SMILES IDX 58 35 76 36 49 37 36 38 37 39 42 40 38 41 39 42 41 43 43 44
REMARK SMILES IDX 40 45 62 46 63 47 68 48 64 49 65 50 67 51 69 52 66 53 50 54
REMARK SMILES IDX 51 55 56 56 52 57 53 58 55 59 57 60 54 61 6 62 7 63 8 64
REMARK SMILES IDX 9 65 10 66 11 67 12 68 13 69 26 70 14 71 25 72 15 73 24 74
REMARK SMILES IDX 16 75 17 76 18 78 19 79 23 80 20 81 22 82 21 83
REMARK H PARENT 74 23 48 34 24 77
REMARK Flexibility Score: inf
ROOT
ATOM      1  C   UNL A   1      45.356  21.092  24.460  1.00  0.00     0.202 C 
ENDROOT
BRANCH   1   2
ATOM      2  C   UNL A   1      45.657  22.506  24.965  1.00  0.00     0.261 C 
BRANCH   2   3
ATOM      3  O   UNL A   1      44.656  22.923  25.910  1.00  0.00    -0.460 OA
BRANCH   3   4
ATOM      4  C   UNL A   1      43.562  23.683  25.674  1.00  0.00     0.338 C 
ATOM      5  O   UNL A   1      42.987  23.588  24.592  1.00  0.00    -0.246 OA
BRANCH   4   6
ATOM      6  C   UNL A   1      43.019  24.653  26.670  1.00  0.00     0.060 A 
ATOM      7  C   UNL A   1      42.107  24.313  27.670  1.00  0.00     0.016 A 
ATOM      8  C   UNL A   1      43.548  25.953  26.672  1.00  0.00     0.016 A 
ATOM      9  C   UNL A   1      41.684  25.234  28.611  1.00  0.00     0.010 A 
ATOM     10  C   UNL A   1      43.174  26.874  27.656  1.00  0.00     0.010 A 
ATOM     11  C   UNL A   1      42.240  26.508  28.632  1.00  0.00    -0.014 A 
BRANCH  11  12
ATOM     12  C   UNL A   1      41.805  27.423  29.699  1.00  0.00     0.031 A 
ATOM     13  C   UNL A   1      42.587  27.478  30.969  1.00  0.00     0.074 A 
ATOM     14  C   UNL A   1      40.789  28.271  29.450  1.00  0.00     0.049 A 
ATOM     15  N   UNL A   1      42.355  28.173  32.048  1.00  0.00    -0.248 NA
ATOM     16  C   UNL A   1      43.806  26.653  31.029  1.00  0.00     0.031 C 
ATOM     17  C   UNL A   1      40.052  28.355  28.185  1.00  0.00     0.029 A 
ATOM     18  N   UNL A   1      40.218  29.241  30.228  1.00  0.00    -0.354 N 
ATOM     19  C   UNL A   1      43.376  27.844  32.929  1.00  0.00     0.074 A 
ATOM     20  C   UNL A   1      44.237  26.896  32.258  1.00  0.00     0.031 C 
ATOM     21  C   UNL A   1      39.142  29.337  28.268  1.00  0.00     0.029 A 
ATOM     22  C   UNL A   1      39.176  29.893  29.614  1.00  0.00     0.049 A 
ATOM     23  H   UNL A   1      40.524  29.450  31.141  1.00  0.00     0.167 HD
ATOM     24  C   UNL A   1      43.554  28.291  34.192  1.00  0.00     0.037 A 
ATOM     25  C   UNL A   1      38.319  30.803  30.110  1.00  0.00     0.037 A 
ATOM     26  C   UNL A   1      42.678  29.240  34.823  1.00  0.00     0.049 A 
ATOM     27  C   UNL A   1      38.492  31.211  31.548  1.00  0.00     0.074 A 
ATOM     28  C   UNL A   1      42.727  29.740  36.110  1.00  0.00     0.029 A 
ATOM     29  N   UNL A   1      41.586  29.832  34.200  1.00  0.00    -0.354 N 
ATOM     30  N   UNL A   1      39.427  30.860  32.398  1.00  0.00    -0.248 NA
ATOM     31  C   UNL A   1      37.480  32.117  32.105  1.00  0.00     0.031 C 
ATOM     32  C   UNL A   1      41.636  30.599  36.280  1.00  0.00     0.029 A 
ATOM     33  C   UNL A   1      40.935  30.671  35.084  1.00  0.00     0.049 A 
ATOM     34  H   UNL A   1      41.317  29.676  33.266  1.00  0.00     0.167 HD
ATOM     35  C   UNL A   1      39.124  31.505  33.588  1.00  0.00     0.074 A 
ATOM     36  C   UNL A   1      37.933  32.295  33.338  1.00  0.00     0.031 C 
ATOM     37  C   UNL A   1      39.757  31.445  34.785  1.00  0.00     0.037 A 
BRANCH  24  38
ATOM     38  C   UNL A   1      44.682  27.700  34.980  1.00  0.00     0.057 A 
ATOM     39  C   UNL A   1      44.520  26.574  35.794  1.00  0.00     0.134 A 
ATOM     40  C   UNL A   1      45.958  28.275  34.918  1.00  0.00     0.134 A 
ATOM     41  F   UNL A   1      43.318  25.992  35.920  1.00  0.00    -0.206 F 
ATOM     42  C   UNL A   1      45.585  26.048  36.531  1.00  0.00     0.040 A 
ATOM     43  C   UNL A   1      47.033  27.748  35.633  1.00  0.00     0.040 A 
ATOM     44  F   UNL A   1      46.178  29.364  34.163  1.00  0.00    -0.206 F 
ATOM     45  C   UNL A   1      46.848  26.633  36.446  1.00  0.00     0.006 A 
ENDBRANCH  24  38
BRANCH  25  46
ATOM     46  C   UNL A   1      37.188  31.315  29.291  1.00  0.00     0.057 A 
ATOM     47  C   UNL A   1      37.218  32.589  28.711  1.00  0.00     0.134 A 
ATOM     48  C   UNL A   1      36.024  30.557  29.104  1.00  0.00     0.134 A 
ATOM     49  F   UNL A   1      38.293  33.377  28.867  1.00  0.00    -0.206 F 
ATOM     50  C   UNL A   1      36.127  33.098  28.002  1.00  0.00     0.040 A 
ATOM     51  C   UNL A   1      34.939  31.040  28.371  1.00  0.00     0.040 A 
ATOM     52  F   UNL A   1      35.923  29.328  29.632  1.00  0.00    -0.206 F 
ATOM     53  C   UNL A   1      34.984  32.320  27.828  1.00  0.00     0.006 A 
ENDBRANCH  25  46
BRANCH  37  54
ATOM     54  C   UNL A   1      39.177  32.268  35.892  1.00  0.00     0.057 A 
ATOM     55  C   UNL A   1      38.233  31.740  36.782  1.00  0.00     0.134 A 
ATOM     56  C   UNL A   1      39.602  33.586  36.095  1.00  0.00     0.134 A 
ATOM     57  F   UNL A   1      37.776  30.489  36.626  1.00  0.00    -0.206 F 
ATOM     58  C   UNL A   1      37.718  32.505  37.828  1.00  0.00     0.040 A 
ATOM     59  C   UNL A   1      39.114  34.350  37.154  1.00  0.00     0.040 A 
ATOM     60  F   UNL A   1      40.511  34.143  35.280  1.00  0.00    -0.206 F 
ATOM     61  C   UNL A   1      38.165  33.811  38.021  1.00  0.00     0.006 A 
ENDBRANCH  37  54
ENDBRANCH  11  12
ENDBRANCH   4   6
ENDBRANCH   3   4
ENDBRANCH   2   3
ENDBRANCH   1   2
BRANCH   1  62
ATOM     62  O   UNL A   1      44.953  20.173  25.474  1.00  0.00    -0.374 OA
BRANCH  62  63
ATOM     63  C   UNL A   1      44.431  18.920  25.010  1.00  0.00     0.202 C 
BRANCH  63  64
ATOM     64  C   UNL A   1      43.116  18.625  25.739  1.00  0.00     0.261 C 
BRANCH  64  65
ATOM     65  O   UNL A   1      42.174  19.656  25.400  1.00  0.00    -0.460 OA
BRANCH  65  66
ATOM     66  C   UNL A   1      41.607  20.285  26.467  1.00  0.00     0.338 C 
ATOM     67  O   UNL A   1      42.165  20.725  27.449  1.00  0.00    -0.246 OA
BRANCH  66  68
ATOM     68  C   UNL A   1      40.199  20.577  26.100  1.00  0.00     0.062 A 
ATOM     69  C   UNL A   1      39.396  19.595  25.505  1.00  0.00     0.018 A 
ATOM     70  C   UNL A   1      39.745  21.899  26.267  1.00  0.00     0.044 A 
ATOM     71  C   UNL A   1      38.118  19.915  25.034  1.00  0.00     0.031 A 
ATOM     72  C   UNL A   1      38.480  22.192  25.751  1.00  0.00     0.066 A 
ATOM     73  C   UNL A   1      37.668  21.238  25.149  1.00  0.00     0.089 A 
ATOM     74  N   UNL A   1      37.751  23.353  25.672  1.00  0.00    -0.342 N 
ATOM     75  N   UNL A   1      36.485  21.791  24.744  1.00  0.00    -0.233 NA
ATOM     76  C   UNL A   1      36.540  23.061  25.088  1.00  0.00     0.110 A 
ATOM     77  H   UNL A   1      38.044  24.241  25.980  1.00  0.00     0.168 HD
BRANCH  76  78
ATOM     78  C   UNL A   1      35.430  24.050  24.899  1.00  0.00     0.055 C 
ATOM     79  C   UNL A   1      34.782  23.949  23.513  1.00  0.00     0.011 C 
ATOM     80  C   UNL A   1      34.373  23.950  26.005  1.00  0.00     0.011 C 
ATOM     81  C   UNL A   1      33.717  25.028  23.330  1.00  0.00     0.001 C 
ATOM     82  C   UNL A   1      33.304  25.029  25.828  1.00  0.00     0.001 C 
ATOM     83  C   UNL A   1      32.670  24.982  24.440  1.00  0.00     0.000 C 
ENDBRANCH  76  78
ENDBRANCH  66  68
ENDBRANCH  65  66
ENDBRANCH  64  65
ENDBRANCH  63  64
ENDBRANCH  62  63
ENDBRANCH   1  62
TORSDOF 15
ENDMDL
MODEL 3
REMARK VINA RESULT:      -8.7      0.649      6.287
REMARK SMILES O=C(OCCOCCOC(=O)c1ccc2nc(C3CCCCC3)[nH]c2c1)c1ccc(-c2c3nc(c(-c4c(F)cccc4F)c4ccc([nH]4)c(-c4c(F)cccc4F)c4nc(c(-c5c(F)cccc5F)c5ccc2[nH]5)C=C4)C=C3)cc1
REMARK SMILES IDX 5 1 4 2 3 3 2 4 1 5 27 6 28 7 80 8 29 9 79 10 30 11 31 12
REMARK SMILES IDX 32 13 73 14 33 15 78 16 72 17 74 18 34 19 77 20 71 21 70 22
REMARK SMILES IDX 35 24 61 25 44 26 60 27 45 28 48 29 59 30 75 31 46 32 47 33
REMARK SMILES IDX 58 35 76 36 49 37 36 38 37 39 42 40 38 41 39 42 41 43 43 44
REMARK SMILES IDX 40 45 62 46 63 47 68 48 64 49 65 50 67 51 69 52 66 53 50 54
REMARK SMILES IDX 51 55 56 56 52 57 53 58 55 59 57 60 54 61 6 62 7 63 8 64
REMARK SMILES IDX 9 65 10 66 11 67 12 68 13 69 26 70 14 71 25 72 15 73 24 74
REMARK SMILES IDX 16 75 17 76 18 78 19 79 23 80 20 81 22 82 21 83
REMARK H PARENT 74 23 48 34 24 77
REMARK Flexibility Score: inf
ROOT
ATOM      1  C   UNL A   1      33.655  35.764  31.546  1.00  0.00     0.202 C 
ENDROOT
BRANCH   1   2
ATOM      2  C   UNL A   1      32.892  36.100  30.262  1.00  0.00     0.261 C 
BRANCH   2   3
ATOM      3  O   UNL A   1      32.546  34.897  29.555  1.00  0.00    -0.460 OA
BRANCH   3   4
ATOM      4  C   UNL A   1      33.359  34.111  28.812  1.00  0.00     0.338 C 
ATOM      5  O   UNL A   1      33.002  33.777  27.684  1.00  0.00    -0.246 OA
BRANCH   4   6
ATOM      6  C   UNL A   1      34.678  33.615  29.303  1.00  0.00     0.060 A 
ATOM      7  C   UNL A   1      34.829  32.520  30.153  1.00  0.00     0.016 A 
ATOM      8  C   UNL A   1      35.837  34.214  28.783  1.00  0.00     0.016 A 
ATOM      9  C   UNL A   1      36.078  32.058  30.529  1.00  0.00     0.010 A 
ATOM     10  C   UNL A   1      37.103  33.716  29.106  1.00  0.00     0.010 A 
ATOM     11  C   UNL A   1      37.220  32.629  29.981  1.00  0.00    -0.014 A 
BRANCH  11  12
ATOM     12  C   UNL A   1      38.519  32.052  30.360  1.00  0.00     0.031 A 
ATOM     13  C   UNL A   1      38.958  30.775  29.723  1.00  0.00     0.074 A 
ATOM     14  C   UNL A   1      39.326  32.754  31.178  1.00  0.00     0.049 A 
ATOM     15  N   UNL A   1      40.034  30.073  29.943  1.00  0.00    -0.248 NA
ATOM     16  C   UNL A   1      38.074  30.221  28.682  1.00  0.00     0.031 C 
ATOM     17  C   UNL A   1      39.012  34.069  31.747  1.00  0.00     0.029 A 
ATOM     18  N   UNL A   1      40.582  32.483  31.649  1.00  0.00    -0.354 N 
ATOM     19  C   UNL A   1      39.944  28.976  29.098  1.00  0.00     0.074 A 
ATOM     20  C   UNL A   1      38.713  29.109  28.350  1.00  0.00     0.031 C 
ATOM     21  C   UNL A   1      40.055  34.496  32.474  1.00  0.00     0.029 A 
ATOM     22  C   UNL A   1      41.074  33.455  32.488  1.00  0.00     0.049 A 
ATOM     23  H   UNL A   1      41.084  31.670  31.411  1.00  0.00     0.167 HD
ATOM     24  C   UNL A   1      40.813  27.948  28.981  1.00  0.00     0.037 A 
ATOM     25  C   UNL A   1      42.202  33.470  33.219  1.00  0.00     0.037 A 
ATOM     26  C   UNL A   1      42.031  27.855  29.739  1.00  0.00     0.049 A 
ATOM     27  C   UNL A   1      43.103  32.268  33.134  1.00  0.00     0.074 A 
ATOM     28  C   UNL A   1      42.974  26.846  29.742  1.00  0.00     0.029 A 
ATOM     29  N   UNL A   1      42.469  28.822  30.636  1.00  0.00    -0.354 N 
ATOM     30  N   UNL A   1      42.991  31.205  32.372  1.00  0.00    -0.248 NA
ATOM     31  C   UNL A   1      44.269  32.250  34.024  1.00  0.00     0.031 C 
ATOM     32  C   UNL A   1      43.960  27.181  30.677  1.00  0.00     0.029 A 
ATOM     33  C   UNL A   1      43.656  28.420  31.220  1.00  0.00     0.049 A 
ATOM     34  H   UNL A   1      42.003  29.668  30.826  1.00  0.00     0.167 HD
ATOM     35  C   UNL A   1      44.072  30.395  32.684  1.00  0.00     0.074 A 
ATOM     36  C   UNL A   1      44.847  31.107  33.682  1.00  0.00     0.031 C 
ATOM     37  C   UNL A   1      44.395  29.169  32.205  1.00  0.00     0.037 A 
BRANCH  24  38
ATOM     38  C   UNL A   1      40.432  26.825  28.067  1.00  0.00     0.057 A 
ATOM     39  C   UNL A   1      39.518  25.832  28.437  1.00  0.00     0.134 A 
ATOM     40  C   UNL A   1      40.999  26.739  26.788  1.00  0.00     0.134 A 
ATOM     41  F   UNL A   1      38.962  25.840  29.657  1.00  0.00    -0.206 F 
ATOM     42  C   UNL A   1      39.189  24.785  27.571  1.00  0.00     0.040 A 
ATOM     43  C   UNL A   1      40.664  25.710  25.908  1.00  0.00     0.040 A 
ATOM     44  F   UNL A   1      41.891  27.654  26.376  1.00  0.00    -0.206 F 
ATOM     45  C   UNL A   1      39.759  24.727  26.300  1.00  0.00     0.006 A 
ENDBRANCH  24  38
BRANCH  25  46
ATOM     46  C   UNL A   1      42.498  34.594  34.147  1.00  0.00     0.057 A 
ATOM     47  C   UNL A   1      42.215  34.512  35.516  1.00  0.00     0.134 A 
ATOM     48  C   UNL A   1      43.032  35.802  33.677  1.00  0.00     0.134 A 
ATOM     49  F   UNL A   1      41.683  33.392  36.029  1.00  0.00    -0.206 F 
ATOM     50  C   UNL A   1      42.426  35.593  36.374  1.00  0.00     0.040 A 
ATOM     51  C   UNL A   1      43.278  36.880  34.530  1.00  0.00     0.040 A 
ATOM     52  F   UNL A   1      43.327  35.955  32.378  1.00  0.00    -0.206 F 
ATOM     53  C   UNL A   1      42.962  36.781  35.881  1.00  0.00     0.006 A 
ENDBRANCH  25  46
BRANCH  37  54
ATOM     54  C   UNL A   1      45.643  28.545  32.746  1.00  0.00     0.057 A 
ATOM     55  C   UNL A   1      46.913  28.996  32.366  1.00  0.00     0.134 A 
ATOM     56  C   UNL A   1      45.570  27.514  33.691  1.00  0.00     0.134 A 
ATOM     57  F   UNL A   1      47.045  29.969  31.452  1.00  0.00    -0.206 F 
ATOM     58  C   UNL A   1      48.072  28.428  32.895  1.00  0.00     0.040 A 
ATOM     59  C   UNL A   1      46.721  26.959  34.247  1.00  0.00     0.040 A 
ATOM     60  F   UNL A   1      44.381  27.048  34.100  1.00  0.00    -0.206 F 
ATOM     61  C   UNL A   1      47.976  27.412  33.845  1.00  0.00     0.006 A 
ENDBRANCH  37  54
ENDBRANCH  11  12
ENDBRANCH   4   6
ENDBRANCH   3   4
ENDBRANCH   2   3
ENDBRANCH   1   2
BRANCH   1  62
ATOM     62  O   UNL A   1      32.917  34.986  32.488  1.00  0.00    -0.374 OA
BRANCH  62  63
ATOM     63  C   UNL A   1      33.634  33.909  33.107  1.00  0.00     0.202 C 
BRANCH  63  64
ATOM     64  C   UNL A   1      34.991  34.428  33.596  1.00  0.00     0.261 C 
BRANCH  64  65
ATOM     65  O   UNL A   1      35.914  33.326  33.607  1.00  0.00    -0.460 OA
BRANCH  65  66
ATOM     66  C   UNL A   1      36.575  33.147  34.784  1.00  0.00     0.338 C 
ATOM     67  O   UNL A   1      36.271  33.575  35.876  1.00  0.00    -0.246 OA
BRANCH  66  68
ATOM     68  C   UNL A   1      37.604  32.104  34.548  1.00  0.00     0.062 A 
ATOM     69  C   UNL A   1      37.405  31.106  33.585  1.00  0.00     0.018 A 
ATOM     70  C   UNL A   1      38.724  32.091  35.401  1.00  0.00     0.044 A 
ATOM     71  C   UNL A   1      38.311  30.047  33.464  1.00  0.00     0.031 A 
ATOM     72  C   UNL A   1      39.587  30.999  35.279  1.00  0.00     0.066 A 
ATOM     73  C   UNL A   1      39.406  29.993  34.337  1.00  0.00     0.089 A 
ATOM     74  N   UNL A   1      40.716  30.621  35.963  1.00  0.00    -0.342 N 
ATOM     75  N   UNL A   1      40.397  29.056  34.428  1.00  0.00    -0.233 NA
ATOM     76  C   UNL A   1      41.193  29.461  35.397  1.00  0.00     0.110 A 
ATOM     77  H   UNL A   1      41.116  31.098  36.726  1.00  0.00     0.168 HD
BRANCH  76  78
ATOM     78  C   UNL A   1      42.459  28.774  35.811  1.00  0.00     0.055 C 
ATOM     79  C   UNL A   1      43.398  29.697  36.597  1.00  0.00     0.011 C 
ATOM     80  C   UNL A   1      42.188  27.480  36.587  1.00  0.00     0.011 C 
ATOM     81  C   UNL A   1      44.711  28.988  36.923  1.00  0.00     0.001 C 
ATOM     82  C   UNL A   1      43.500  26.764  36.915  1.00  0.00     0.001 C 
ATOM     83  C   UNL A   1      44.475  27.673  37.661  1.00  0.00     0.000 C 
ENDBRANCH  76  78
ENDBRANCH  66  68
ENDBRANCH  65  66
ENDBRANCH  64  65
ENDBRANCH  63  64
ENDBRANCH  62  63
ENDBRANCH   1  62
TORSDOF 15
ENDMDL
