MODEL 1
REMARK VINA RESULT:     -12.4      0.000      0.000
REMARK SMILES O=C(OCCOCCOC(=O)[C@@H]1[C@@H](C(=O)N2CCN(c3cccc(Cl)c3)CC2)[C@H]2CC[C@@H]1O2)c1ccc(-c2c3nc(c(-c4c(F)cccc4F)c4ccc([nH]4)c(-c4c(F)cccc4F)c4nc(c(-c5c(F)cccc5F)c5ccc2[nH]5)C=C4)C=C3)cc1
REMARK SMILES IDX 6 1 5 2 4 3 3 4 2 5 1 6 34 7 35 8 87 9 36 10 86 11 37 12
REMARK SMILES IDX 38 13 39 14 80 15 40 16 85 17 79 18 81 19 41 20 84 21 78 22
REMARK SMILES IDX 77 23 42 25 68 26 51 27 67 28 52 29 55 30 66 31 82 32 53 33
REMARK SMILES IDX 54 34 65 36 83 37 56 38 43 39 44 40 49 41 45 42 46 43 48 44
REMARK SMILES IDX 50 45 47 46 69 47 70 48 75 49 71 50 72 51 74 52 76 53 73 54
REMARK SMILES IDX 57 55 58 56 63 57 59 58 60 59 62 60 64 61 61 62 7 63 8 64
REMARK SMILES IDX 9 65 10 66 11 67 12 68 13 69 32 70 29 71 31 72 33 73 30 74
REMARK SMILES IDX 14 75 15 76 16 77 17 78 28 79 18 80 27 81 19 82 20 83 21 84
REMARK SMILES IDX 26 85 22 86 24 87 23 88 25 89
REMARK H PARENT 81 24 55 35
REMARK Flexibility Score: inf
ROOT
ATOM      1  O   UNL A   1      41.509  21.339  26.595  1.00  0.00    -0.374 OA
ENDROOT
BRANCH   1   2
ATOM      2  C   UNL A   1      42.685  20.800  25.983  1.00  0.00     0.202 C 
BRANCH   2   3
ATOM      3  C   UNL A   1      43.708  21.778  25.383  1.00  0.00     0.261 C 
BRANCH   3   4
ATOM      4  O   UNL A   1      43.108  23.009  24.954  1.00  0.00    -0.460 OA
BRANCH   4   5
ATOM      5  C   UNL A   1      43.535  24.267  25.231  1.00  0.00     0.338 C 
ATOM      6  O   UNL A   1      44.506  24.714  24.625  1.00  0.00    -0.246 OA
BRANCH   5   7
ATOM      7  C   UNL A   1      42.885  25.133  26.260  1.00  0.00     0.060 A 
ATOM      8  C   UNL A   1      43.261  26.447  26.523  1.00  0.00     0.016 A 
ATOM      9  C   UNL A   1      41.787  24.617  26.964  1.00  0.00     0.016 A 
ATOM     10  C   UNL A   1      42.658  27.210  27.489  1.00  0.00     0.010 A 
ATOM     11  C   UNL A   1      41.133  25.394  27.926  1.00  0.00     0.010 A 
ATOM     12  C   UNL A   1      41.593  26.686  28.198  1.00  0.00    -0.014 A 
BRANCH  12  13
ATOM     13  C   UNL A   1      41.160  27.504  29.332  1.00  0.00     0.031 A 
ATOM     14  C   UNL A   1      42.048  27.530  30.533  1.00  0.00     0.074 A 
ATOM     15  C   UNL A   1      40.171  28.395  29.143  1.00  0.00     0.049 A 
ATOM     16  N   UNL A   1      41.923  28.207  31.638  1.00  0.00    -0.248 NA
ATOM     17  C   UNL A   1      43.266  26.699  30.467  1.00  0.00     0.031 C 
ATOM     18  C   UNL A   1      39.415  28.565  27.894  1.00  0.00     0.029 A 
ATOM     19  N   UNL A   1      39.682  29.370  29.961  1.00  0.00    -0.354 N 
ATOM     20  C   UNL A   1      43.012  27.845  32.418  1.00  0.00     0.074 A 
ATOM     21  C   UNL A   1      43.799  26.903  31.660  1.00  0.00     0.031 C 
ATOM     22  C   UNL A   1      38.580  29.606  28.026  1.00  0.00     0.029 A 
ATOM     23  C   UNL A   1      38.681  30.115  29.387  1.00  0.00     0.049 A 
ATOM     24  H   UNL A   1      40.013  29.525  30.876  1.00  0.00     0.167 HD
ATOM     25  C   UNL A   1      43.301  28.259  33.671  1.00  0.00     0.037 A 
ATOM     26  C   UNL A   1      37.912  31.071  29.933  1.00  0.00     0.037 A 
ATOM     27  C   UNL A   1      42.484  29.206  34.378  1.00  0.00     0.049 A 
ATOM     28  C   UNL A   1      38.173  31.415  31.373  1.00  0.00     0.074 A 
ATOM     29  C   UNL A   1      42.602  29.657  35.677  1.00  0.00     0.029 A 
ATOM     30  N   UNL A   1      41.382  29.850  33.822  1.00  0.00    -0.354 N 
ATOM     31  N   UNL A   1      39.133  30.990  32.163  1.00  0.00    -0.248 NA
ATOM     32  C   UNL A   1      37.236  32.346  32.007  1.00  0.00     0.031 C 
ATOM     33  C   UNL A   1      41.536  30.530  35.925  1.00  0.00     0.029 A 
ATOM     34  C   UNL A   1      40.793  30.675  34.761  1.00  0.00     0.049 A 
ATOM     35  H   UNL A   1      41.068  29.734  32.897  1.00  0.00     0.167 HD
ATOM     36  C   UNL A   1      38.932  31.620  33.382  1.00  0.00     0.074 A 
ATOM     37  C   UNL A   1      37.766  32.470  33.215  1.00  0.00     0.031 C 
ATOM     38  C   UNL A   1      39.637  31.510  34.535  1.00  0.00     0.037 A 
BRANCH  25  39
ATOM     39  C   UNL A   1      44.455  27.591  34.355  1.00  0.00     0.057 A 
ATOM     40  C   UNL A   1      44.311  26.435  35.134  1.00  0.00     0.134 A 
ATOM     41  C   UNL A   1      45.729  28.172  34.295  1.00  0.00     0.134 A 
ATOM     42  F   UNL A   1      43.111  25.851  35.270  1.00  0.00    -0.206 F 
ATOM     43  C   UNL A   1      45.384  25.902  35.854  1.00  0.00     0.040 A 
ATOM     44  C   UNL A   1      46.814  27.633  34.988  1.00  0.00     0.040 A 
ATOM     45  F   UNL A   1      45.934  29.289  33.581  1.00  0.00    -0.206 F 
ATOM     46  C   UNL A   1      46.641  26.501  35.779  1.00  0.00     0.006 A 
ENDBRANCH  25  39
BRANCH  26  47
ATOM     47  C   UNL A   1      36.809  31.697  29.160  1.00  0.00     0.057 A 
ATOM     48  C   UNL A   1      36.892  33.016  28.703  1.00  0.00     0.134 A 
ATOM     49  C   UNL A   1      35.628  30.996  28.877  1.00  0.00     0.134 A 
ATOM     50  F   UNL A   1      37.987  33.750  28.952  1.00  0.00    -0.206 F 
ATOM     51  C   UNL A   1      35.838  33.622  28.012  1.00  0.00     0.040 A 
ATOM     52  C   UNL A   1      34.579  31.577  28.163  1.00  0.00     0.040 A 
ATOM     53  F   UNL A   1      35.477  29.727  29.283  1.00  0.00    -0.206 F 
ATOM     54  C   UNL A   1      34.679  32.899  27.736  1.00  0.00     0.006 A 
ENDBRANCH  26  47
BRANCH  38  55
ATOM     55  C   UNL A   1      39.187  32.370  35.676  1.00  0.00     0.057 A 
ATOM     56  C   UNL A   1      38.301  31.904  36.654  1.00  0.00     0.134 A 
ATOM     57  C   UNL A   1      39.684  33.673  35.812  1.00  0.00     0.134 A 
ATOM     58  F   UNL A   1      37.780  30.671  36.568  1.00  0.00    -0.206 F 
ATOM     59  C   UNL A   1      37.901  32.717  37.714  1.00  0.00     0.040 A 
ATOM     60  C   UNL A   1      39.318  34.481  36.885  1.00  0.00     0.040 A 
ATOM     61  F   UNL A   1      40.545  34.171  34.911  1.00  0.00    -0.206 F 
ATOM     62  C   UNL A   1      38.417  34.005  37.836  1.00  0.00     0.006 A 
ENDBRANCH  38  55
ENDBRANCH  12  13
ENDBRANCH   5   7
ENDBRANCH   4   5
ENDBRANCH   3   4
ENDBRANCH   2   3
ENDBRANCH   1   2
BRANCH   1  63
ATOM     63  C   UNL A   1      40.224  20.933  26.106  1.00  0.00     0.202 C 
BRANCH  63  64
ATOM     64  C   UNL A   1      39.234  22.099  26.142  1.00  0.00     0.261 C 
BRANCH  64  65
ATOM     65  O   UNL A   1      38.002  21.629  25.587  1.00  0.00    -0.463 OA
BRANCH  65  66
ATOM     66  C   UNL A   1      37.096  22.615  25.411  1.00  0.00     0.312 C 
ATOM     67  O   UNL A   1      37.300  23.802  25.651  1.00  0.00    -0.252 OA
BRANCH  66  68
ATOM     68  C   UNL A   1      35.806  22.124  24.824  1.00  0.00     0.143 C 
ATOM     69  C   UNL A   1      34.798  23.253  24.769  1.00  0.00     0.124 C 
ATOM     70  C   UNL A   1      35.083  21.081  25.688  1.00  0.00     0.133 C 
ATOM     71  C   UNL A   1      33.570  22.605  25.422  1.00  0.00     0.132 C 
ATOM     72  C   UNL A   1      34.070  20.349  24.810  1.00  0.00     0.036 C 
ATOM     73  O   UNL A   1      34.217  21.894  26.509  1.00  0.00    -0.373 OA
ATOM     74  C   UNL A   1      32.975  21.407  24.677  1.00  0.00     0.035 C 
BRANCH  69  75
ATOM     75  C   UNL A   1      34.580  23.849  23.395  1.00  0.00     0.229 C 
ATOM     76  O   UNL A   1      35.022  23.327  22.376  1.00  0.00    -0.274 OA
ATOM     77  N   UNL A   1      33.599  24.826  23.367  1.00  0.00    -0.339 N 
ATOM     78  C   UNL A   1      32.466  24.615  22.469  1.00  0.00     0.141 C 
ATOM     79  C   UNL A   1      33.835  26.244  23.698  1.00  0.00     0.141 C 
ATOM     80  C   UNL A   1      31.183  25.227  23.064  1.00  0.00     0.138 C 
ATOM     81  C   UNL A   1      32.563  26.933  24.243  1.00  0.00     0.138 C 
ATOM     82  N   UNL A   1      31.426  26.643  23.356  1.00  0.00    -0.368 N 
BRANCH  82  83
ATOM     83  C   UNL A   1      30.478  27.606  23.103  1.00  0.00     0.038 A 
ATOM     84  C   UNL A   1      30.843  28.773  22.417  1.00  0.00     0.026 A 
ATOM     85  C   UNL A   1      29.137  27.445  23.462  1.00  0.00     0.046 A 
ATOM     86  C   UNL A   1      29.897  29.736  22.062  1.00  0.00     0.004 A 
ATOM     87  C   UNL A   1      28.191  28.417  23.127  1.00  0.00     0.043 A 
ATOM     88  C   UNL A   1      28.565  29.556  22.417  1.00  0.00     0.020 A 
ATOM     89  Cl  UNL A   1      26.547  28.203  23.589  1.00  0.00    -0.084 Cl
ENDBRANCH  82  83
ENDBRANCH  69  75
ENDBRANCH  66  68
ENDBRANCH  65  66
ENDBRANCH  64  65
ENDBRANCH  63  64
ENDBRANCH   1  63
TORSDOF 16
ENDMDL
MODEL 2
REMARK VINA RESULT:     -12.2      3.979      5.849
REMARK SMILES O=C(OCCOCCOC(=O)[C@@H]1[C@@H](C(=O)N2CCN(c3cccc(Cl)c3)CC2)[C@H]2CC[C@@H]1O2)c1ccc(-c2c3nc(c(-c4c(F)cccc4F)c4ccc([nH]4)c(-c4c(F)cccc4F)c4nc(c(-c5c(F)cccc5F)c5ccc2[nH]5)C=C4)C=C3)cc1
REMARK SMILES IDX 6 1 5 2 4 3 3 4 2 5 1 6 34 7 35 8 87 9 36 10 86 11 37 12
REMARK SMILES IDX 38 13 39 14 80 15 40 16 85 17 79 18 81 19 41 20 84 21 78 22
REMARK SMILES IDX 77 23 42 25 68 26 51 27 67 28 52 29 55 30 66 31 82 32 53 33
REMARK SMILES IDX 54 34 65 36 83 37 56 38 43 39 44 40 49 41 45 42 46 43 48 44
REMARK SMILES IDX 50 45 47 46 69 47 70 48 75 49 71 50 72 51 74 52 76 53 73 54
REMARK SMILES IDX 57 55 58 56 63 57 59 58 60 59 62 60 64 61 61 62 7 63 8 64
REMARK SMILES IDX 9 65 10 66 11 67 12 68 13 69 32 70 29 71 31 72 33 73 30 74
REMARK SMILES IDX 14 75 15 76 16 77 17 78 28 79 18 80 27 81 19 82 20 83 21 84
REMARK SMILES IDX 26 85 22 86 24 87 23 88 25 89
REMARK H PARENT 81 24 55 35
REMARK Flexibility Score: inf
ROOT
ATOM      1  O   UNL A   1      36.522  20.690  25.059  1.00  0.00    -0.374 OA
ENDROOT
BRANCH   1   2
ATOM      2  C   UNL A   1      37.705  19.894  24.934  1.00  0.00     0.202 C 
BRANCH   2   3
ATOM      3  C   UNL A   1      38.942  20.292  25.754  1.00  0.00     0.261 C 
BRANCH   3   4
ATOM      4  O   UNL A   1      39.979  19.301  25.707  1.00  0.00    -0.460 OA
BRANCH   4   5
ATOM      5  C   UNL A   1      41.293  19.477  25.997  1.00  0.00     0.338 C 
ATOM      6  O   UNL A   1      42.057  18.519  25.911  1.00  0.00    -0.246 OA
BRANCH   5   7
ATOM      7  C   UNL A   1      41.854  20.790  26.438  1.00  0.00     0.060 A 
ATOM      8  C   UNL A   1      42.036  21.152  27.769  1.00  0.00     0.016 A 
ATOM      9  C   UNL A   1      42.285  21.691  25.454  1.00  0.00     0.016 A 
ATOM     10  C   UNL A   1      42.535  22.372  28.144  1.00  0.00     0.010 A 
ATOM     11  C   UNL A   1      42.834  22.927  25.815  1.00  0.00     0.010 A 
ATOM     12  C   UNL A   1      42.933  23.268  27.168  1.00  0.00    -0.014 A 
BRANCH  12  13
ATOM     13  C   UNL A   1      43.257  24.604  27.670  1.00  0.00     0.031 A 
ATOM     14  C   UNL A   1      44.673  25.062  27.526  1.00  0.00     0.074 A 
ATOM     15  C   UNL A   1      42.250  25.445  27.961  1.00  0.00     0.049 A 
ATOM     16  N   UNL A   1      45.204  26.208  27.839  1.00  0.00    -0.248 NA
ATOM     17  C   UNL A   1      45.613  24.103  26.915  1.00  0.00     0.031 C 
ATOM     18  C   UNL A   1      40.821  25.106  27.895  1.00  0.00     0.029 A 
ATOM     19  N   UNL A   1      42.261  26.767  28.293  1.00  0.00    -0.354 N 
ATOM     20  C   UNL A   1      46.549  26.090  27.514  1.00  0.00     0.074 A 
ATOM     21  C   UNL A   1      46.753  24.772  26.964  1.00  0.00     0.031 C 
ATOM     22  C   UNL A   1      40.098  26.206  28.149  1.00  0.00     0.029 A 
ATOM     23  C   UNL A   1      41.007  27.296  28.478  1.00  0.00     0.049 A 
ATOM     24  H   UNL A   1      43.088  27.293  28.391  1.00  0.00     0.167 HD
ATOM     25  C   UNL A   1      47.521  27.012  27.689  1.00  0.00     0.037 A 
ATOM     26  C   UNL A   1      40.654  28.518  28.909  1.00  0.00     0.037 A 
ATOM     27  C   UNL A   1      47.260  28.315  28.235  1.00  0.00     0.049 A 
ATOM     28  C   UNL A   1      41.768  29.478  29.223  1.00  0.00     0.074 A 
ATOM     29  C   UNL A   1      48.151  29.321  28.547  1.00  0.00     0.029 A 
ATOM     30  N   UNL A   1      45.989  28.785  28.551  1.00  0.00    -0.354 N 
ATOM     31  N   UNL A   1      43.059  29.336  29.029  1.00  0.00    -0.248 NA
ATOM     32  C   UNL A   1      41.384  30.752  29.836  1.00  0.00     0.031 C 
ATOM     33  C   UNL A   1      47.423  30.379  29.107  1.00  0.00     0.029 A 
ATOM     34  C   UNL A   1      46.072  30.058  29.081  1.00  0.00     0.049 A 
ATOM     35  H   UNL A   1      45.152  28.284  28.418  1.00  0.00     0.167 HD
ATOM     36  C   UNL A   1      43.644  30.511  29.473  1.00  0.00     0.074 A 
ATOM     37  C   UNL A   1      42.558  31.361  29.929  1.00  0.00     0.031 C 
ATOM     38  C   UNL A   1      44.954  30.863  29.508  1.00  0.00     0.037 A 
BRANCH  25  39
ATOM     39  C   UNL A   1      48.926  26.576  27.402  1.00  0.00     0.057 A 
ATOM     40  C   UNL A   1      49.508  26.676  26.131  1.00  0.00     0.134 A 
ATOM     41  C   UNL A   1      49.684  25.966  28.410  1.00  0.00     0.134 A 
ATOM     42  F   UNL A   1      48.823  27.211  25.109  1.00  0.00    -0.206 F 
ATOM     43  C   UNL A   1      50.778  26.156  25.866  1.00  0.00     0.040 A 
ATOM     44  C   UNL A   1      50.964  25.467  28.165  1.00  0.00     0.040 A 
ATOM     45  F   UNL A   1      49.182  25.823  29.646  1.00  0.00    -0.206 F 
ATOM     46  C   UNL A   1      51.510  25.550  26.887  1.00  0.00     0.006 A 
ENDBRANCH  25  39
BRANCH  26  47
ATOM     47  C   UNL A   1      39.227  28.865  29.134  1.00  0.00     0.057 A 
ATOM     48  C   UNL A   1      38.440  29.418  28.118  1.00  0.00     0.134 A 
ATOM     49  C   UNL A   1      38.618  28.673  30.382  1.00  0.00     0.134 A 
ATOM     50  F   UNL A   1      38.963  29.642  26.904  1.00  0.00    -0.206 F 
ATOM     51  C   UNL A   1      37.109  29.785  28.339  1.00  0.00     0.040 A 
ATOM     52  C   UNL A   1      37.282  29.007  30.609  1.00  0.00     0.040 A 
ATOM     53  F   UNL A   1      39.311  28.148  31.403  1.00  0.00    -0.206 F 
ATOM     54  C   UNL A   1      36.525  29.575  29.587  1.00  0.00     0.006 A 
ENDBRANCH  26  47
BRANCH  38  55
ATOM     55  C   UNL A   1      45.260  32.242  30.009  1.00  0.00     0.057 A 
ATOM     56  C   UNL A   1      45.324  33.346  29.151  1.00  0.00     0.134 A 
ATOM     57  C   UNL A   1      45.454  32.465  31.378  1.00  0.00     0.134 A 
ATOM     58  F   UNL A   1      45.163  33.192  27.829  1.00  0.00    -0.206 F 
ATOM     59  C   UNL A   1      45.601  34.624  29.637  1.00  0.00     0.040 A 
ATOM     60  C   UNL A   1      45.696  33.742  31.878  1.00  0.00     0.040 A 
ATOM     61  F   UNL A   1      45.393  31.446  32.249  1.00  0.00    -0.206 F 
ATOM     62  C   UNL A   1      45.779  34.824  31.005  1.00  0.00     0.006 A 
ENDBRANCH  38  55
ENDBRANCH  12  13
ENDBRANCH   5   7
ENDBRANCH   4   5
ENDBRANCH   3   4
ENDBRANCH   2   3
ENDBRANCH   1   2
BRANCH   1  63
ATOM     63  C   UNL A   1      36.479  21.974  24.423  1.00  0.00     0.202 C 
BRANCH  63  64
ATOM     64  C   UNL A   1      36.666  23.096  25.446  1.00  0.00     0.261 C 
BRANCH  64  65
ATOM     65  O   UNL A   1      35.491  23.912  25.403  1.00  0.00    -0.463 OA
BRANCH  65  66
ATOM     66  C   UNL A   1      34.512  23.464  26.219  1.00  0.00     0.312 C 
ATOM     67  O   UNL A   1      34.695  23.002  27.341  1.00  0.00    -0.252 OA
BRANCH  66  68
ATOM     68  C   UNL A   1      33.141  23.644  25.636  1.00  0.00     0.143 C 
ATOM     69  C   UNL A   1      32.821  25.119  25.512  1.00  0.00     0.124 C 
ATOM     70  C   UNL A   1      32.007  23.138  26.538  1.00  0.00     0.133 C 
ATOM     71  C   UNL A   1      31.440  25.194  26.178  1.00  0.00     0.132 C 
ATOM     72  C   UNL A   1      30.756  22.958  25.682  1.00  0.00     0.036 C 
ATOM     73  O   UNL A   1      31.664  24.311  27.307  1.00  0.00    -0.373 OA
ATOM     74  C   UNL A   1      30.324  24.410  25.481  1.00  0.00     0.035 C 
BRANCH  69  75
ATOM     75  C   UNL A   1      32.910  25.677  24.109  1.00  0.00     0.229 C 
ATOM     76  O   UNL A   1      33.397  25.040  23.179  1.00  0.00    -0.274 OA
ATOM     77  N   UNL A   1      32.129  26.804  23.911  1.00  0.00    -0.339 N 
ATOM     78  C   UNL A   1      31.118  26.744  22.858  1.00  0.00     0.141 C 
ATOM     79  C   UNL A   1      32.558  28.176  24.242  1.00  0.00     0.141 C 
ATOM     80  C   UNL A   1      29.889  27.592  23.240  1.00  0.00     0.138 C 
ATOM     81  C   UNL A   1      31.361  29.095  24.575  1.00  0.00     0.138 C 
ATOM     82  N   UNL A   1      30.331  28.959  23.533  1.00  0.00    -0.368 N 
BRANCH  82  83
ATOM     83  C   UNL A   1      29.612  30.055  23.119  1.00  0.00     0.038 A 
ATOM     84  C   UNL A   1      29.422  31.130  23.999  1.00  0.00     0.026 A 
ATOM     85  C   UNL A   1      29.096  30.164  21.825  1.00  0.00     0.046 A 
ATOM     86  C   UNL A   1      28.774  32.298  23.593  1.00  0.00     0.004 A 
ATOM     87  C   UNL A   1      28.429  31.323  21.422  1.00  0.00     0.043 A 
ATOM     88  C   UNL A   1      28.277  32.395  22.298  1.00  0.00     0.020 A 
ATOM     89  Cl  UNL A   1      27.793  31.431  19.826  1.00  0.00    -0.084 Cl
ENDBRANCH  82  83
ENDBRANCH  69  75
ENDBRANCH  66  68
ENDBRANCH  65  66
ENDBRANCH  64  65
ENDBRANCH  63  64
ENDBRANCH   1  63
TORSDOF 16
ENDMDL
MODEL 3
REMARK VINA RESULT:     -12.2      0.458      6.092
REMARK SMILES O=C(OCCOCCOC(=O)[C@@H]1[C@@H](C(=O)N2CCN(c3cccc(Cl)c3)CC2)[C@H]2CC[C@@H]1O2)c1ccc(-c2c3nc(c(-c4c(F)cccc4F)c4ccc([nH]4)c(-c4c(F)cccc4F)c4nc(c(-c5c(F)cccc5F)c5ccc2[nH]5)C=C4)C=C3)cc1
REMARK SMILES IDX 6 1 5 2 4 3 3 4 2 5 1 6 34 7 35 8 87 9 36 10 86 11 37 12
REMARK SMILES IDX 38 13 39 14 80 15 40 16 85 17 79 18 81 19 41 20 84 21 78 22
REMARK SMILES IDX 77 23 42 25 68 26 51 27 67 28 52 29 55 30 66 31 82 32 53 33
REMARK SMILES IDX 54 34 65 36 83 37 56 38 43 39 44 40 49 41 45 42 46 43 48 44
REMARK SMILES IDX 50 45 47 46 69 47 70 48 75 49 71 50 72 51 74 52 76 53 73 54
REMARK SMILES IDX 57 55 58 56 63 57 59 58 60 59 62 60 64 61 61 62 7 63 8 64
REMARK SMILES IDX 9 65 10 66 11 67 12 68 13 69 32 70 29 71 31 72 33 73 30 74
REMARK SMILES IDX 14 75 15 76 16 77 17 78 28 79 18 80 27 81 19 82 20 83 21 84
REMARK SMILES IDX 26 85 22 86 24 87 23 88 25 89
REMARK H PARENT 81 24 55 35
REMARK Flexibility Score: inf
ROOT
ATOM      1  O   UNL A   1      41.586  21.391  26.587  1.00  0.00    -0.374 OA
ENDROOT
BRANCH   1   2
ATOM      2  C   UNL A   1      42.695  20.855  25.859  1.00  0.00     0.202 C 
BRANCH   2   3
ATOM      3  C   UNL A   1      43.744  21.833  25.305  1.00  0.00     0.261 C 
BRANCH   3   4
ATOM      4  O   UNL A   1      43.194  23.127  25.017  1.00  0.00    -0.460 OA
BRANCH   4   5
ATOM      5  C   UNL A   1      43.755  24.333  25.290  1.00  0.00     0.338 C 
ATOM      6  O   UNL A   1      44.749  24.685  24.659  1.00  0.00    -0.246 OA
BRANCH   5   7
ATOM      7  C   UNL A   1      43.225  25.250  26.343  1.00  0.00     0.060 A 
ATOM      8  C   UNL A   1      43.666  26.557  26.532  1.00  0.00     0.016 A 
ATOM      9  C   UNL A   1      42.175  24.795  27.153  1.00  0.00     0.016 A 
ATOM     10  C   UNL A   1      43.175  27.369  27.521  1.00  0.00     0.010 A 
ATOM     11  C   UNL A   1      41.632  25.622  28.143  1.00  0.00     0.010 A 
ATOM     12  C   UNL A   1      42.158  26.904  28.335  1.00  0.00    -0.014 A 
BRANCH  12  13
ATOM     13  C   UNL A   1      41.853  27.769  29.475  1.00  0.00     0.031 A 
ATOM     14  C   UNL A   1      40.611  28.596  29.390  1.00  0.00     0.074 A 
ATOM     15  C   UNL A   1      42.516  27.574  30.628  1.00  0.00     0.049 A 
ATOM     16  N   UNL A   1      40.092  29.397  30.275  1.00  0.00    -0.248 NA
ATOM     17  C   UNL A   1      39.827  28.478  28.146  1.00  0.00     0.031 C 
ATOM     18  C   UNL A   1      43.601  26.602  30.823  1.00  0.00     0.029 A 
ATOM     19  N   UNL A   1      42.333  28.119  31.864  1.00  0.00    -0.354 N 
ATOM     20  C   UNL A   1      38.954  29.920  29.676  1.00  0.00     0.074 A 
ATOM     21  C   UNL A   1      38.844  29.335  28.361  1.00  0.00     0.031 C 
ATOM     22  C   UNL A   1      43.962  26.602  32.115  1.00  0.00     0.029 A 
ATOM     23  C   UNL A   1      43.198  27.629  32.811  1.00  0.00     0.049 A 
ATOM     24  H   UNL A   1      41.647  28.798  32.059  1.00  0.00     0.167 HD
ATOM     25  C   UNL A   1      38.097  30.828  30.190  1.00  0.00     0.037 A 
ATOM     26  C   UNL A   1      43.368  28.012  34.087  1.00  0.00     0.037 A 
ATOM     27  C   UNL A   1      38.250  31.373  31.510  1.00  0.00     0.049 A 
ATOM     28  C   UNL A   1      42.486  29.121  34.589  1.00  0.00     0.074 A 
ATOM     29  C   UNL A   1      37.513  32.358  32.135  1.00  0.00     0.029 A 
ATOM     30  N   UNL A   1      39.227  30.962  32.412  1.00  0.00    -0.354 N 
ATOM     31  N   UNL A   1      41.475  29.708  33.989  1.00  0.00    -0.248 NA
ATOM     32  C   UNL A   1      42.777  29.639  35.929  1.00  0.00     0.031 C 
ATOM     33  C   UNL A   1      38.082  32.584  33.395  1.00  0.00     0.029 A 
ATOM     34  C   UNL A   1      39.131  31.692  33.581  1.00  0.00     0.049 A 
ATOM     35  H   UNL A   1      39.890  30.255  32.242  1.00  0.00     0.167 HD
ATOM     36  C   UNL A   1      40.993  30.650  34.884  1.00  0.00     0.074 A 
ATOM     37  C   UNL A   1      41.815  30.538  36.077  1.00  0.00     0.031 C 
ATOM     38  C   UNL A   1      39.970  31.530  34.743  1.00  0.00     0.037 A 
BRANCH  25  39
ATOM     39  C   UNL A   1      37.032  31.349  29.272  1.00  0.00     0.057 A 
ATOM     40  C   UNL A   1      37.073  32.632  28.711  1.00  0.00     0.134 A 
ATOM     41  C   UNL A   1      35.897  30.569  29.012  1.00  0.00     0.134 A 
ATOM     42  F   UNL A   1      38.110  33.448  28.953  1.00  0.00    -0.206 F 
ATOM     43  C   UNL A   1      36.010  33.132  27.953  1.00  0.00     0.040 A 
ATOM     44  C   UNL A   1      34.841  31.047  28.235  1.00  0.00     0.040 A 
ATOM     45  F   UNL A   1      35.784  29.337  29.532  1.00  0.00    -0.206 F 
ATOM     46  C   UNL A   1      34.891  32.337  27.712  1.00  0.00     0.006 A 
ENDBRANCH  25  39
BRANCH  26  47
ATOM     47  C   UNL A   1      44.435  27.412  34.928  1.00  0.00     0.057 A 
ATOM     48  C   UNL A   1      45.744  27.906  34.915  1.00  0.00     0.134 A 
ATOM     49  C   UNL A   1      44.178  26.307  35.754  1.00  0.00     0.134 A 
ATOM     50  F   UNL A   1      46.063  28.950  34.137  1.00  0.00    -0.206 F 
ATOM     51  C   UNL A   1      46.759  27.316  35.673  1.00  0.00     0.040 A 
ATOM     52  C   UNL A   1      45.175  25.726  36.539  1.00  0.00     0.040 A 
ATOM     53  F   UNL A   1      42.947  25.779  35.817  1.00  0.00    -0.206 F 
ATOM     54  C   UNL A   1      46.474  26.225  36.492  1.00  0.00     0.006 A 
ENDBRANCH  26  47
BRANCH  38  55
ATOM     55  C   UNL A   1      39.665  32.392  35.929  1.00  0.00     0.057 A 
ATOM     56  C   UNL A   1      40.299  33.622  36.136  1.00  0.00     0.134 A 
ATOM     57  C   UNL A   1      38.690  31.995  36.854  1.00  0.00     0.134 A 
ATOM     58  F   UNL A   1      41.251  34.048  35.293  1.00  0.00    -0.206 F 
ATOM     59  C   UNL A   1      39.994  34.417  37.241  1.00  0.00     0.040 A 
ATOM     60  C   UNL A   1      38.353  32.796  37.942  1.00  0.00     0.040 A 
ATOM     61  F   UNL A   1      38.041  30.830  36.701  1.00  0.00    -0.206 F 
ATOM     62  C   UNL A   1      39.012  34.007  38.142  1.00  0.00     0.006 A 
ENDBRANCH  38  55
ENDBRANCH  12  13
ENDBRANCH   5   7
ENDBRANCH   4   5
ENDBRANCH   3   4
ENDBRANCH   2   3
ENDBRANCH   1   2
BRANCH   1  63
ATOM     63  C   UNL A   1      40.258  20.995  26.220  1.00  0.00     0.202 C 
BRANCH  63  64
ATOM     64  C   UNL A   1      39.275  22.154  26.395  1.00  0.00     0.261 C 
BRANCH  64  65
ATOM     65  O   UNL A   1      38.246  21.992  25.414  1.00  0.00    -0.463 OA
BRANCH  65  66
ATOM     66  C   UNL A   1      37.273  22.923  25.516  1.00  0.00     0.312 C 
ATOM     67  O   UNL A   1      37.449  24.080  25.886  1.00  0.00    -0.252 OA
BRANCH  66  68
ATOM     68  C   UNL A   1      35.934  22.417  25.067  1.00  0.00     0.143 C 
ATOM     69  C   UNL A   1      34.954  23.568  24.961  1.00  0.00     0.124 C 
ATOM     70  C   UNL A   1      35.243  21.492  26.079  1.00  0.00     0.133 C 
ATOM     71  C   UNL A   1      33.757  23.030  25.756  1.00  0.00     0.132 C 
ATOM     72  C   UNL A   1      34.155  20.709  25.348  1.00  0.00     0.036 C 
ATOM     73  O   UNL A   1      34.457  22.412  26.866  1.00  0.00    -0.373 OA
ATOM     74  C   UNL A   1      33.082  21.783  25.178  1.00  0.00     0.035 C 
BRANCH  69  75
ATOM     75  C   UNL A   1      34.660  24.029  23.551  1.00  0.00     0.229 C 
ATOM     76  O   UNL A   1      35.057  23.418  22.564  1.00  0.00    -0.274 OA
ATOM     77  N   UNL A   1      33.665  24.991  23.481  1.00  0.00    -0.339 N 
ATOM     78  C   UNL A   1      32.492  24.686  22.667  1.00  0.00     0.141 C 
ATOM     79  C   UNL A   1      33.898  26.436  23.665  1.00  0.00     0.141 C 
ATOM     80  C   UNL A   1      31.232  25.340  23.266  1.00  0.00     0.138 C 
ATOM     81  C   UNL A   1      32.646  27.162  24.207  1.00  0.00     0.138 C 
ATOM     82  N   UNL A   1      31.470  26.780  23.411  1.00  0.00    -0.368 N 
BRANCH  82  83
ATOM     83  C   UNL A   1      30.497  27.706  23.117  1.00  0.00     0.038 A 
ATOM     84  C   UNL A   1      30.836  28.859  22.395  1.00  0.00     0.026 A 
ATOM     85  C   UNL A   1      29.158  27.519  23.471  1.00  0.00     0.046 A 
ATOM     86  C   UNL A   1      29.866  29.781  22.000  1.00  0.00     0.004 A 
ATOM     87  C   UNL A   1      28.189  28.451  23.095  1.00  0.00     0.043 A 
ATOM     88  C   UNL A   1      28.536  29.576  22.350  1.00  0.00     0.020 A 
ATOM     89  Cl  UNL A   1      26.547  28.206  23.551  1.00  0.00    -0.084 Cl
ENDBRANCH  82  83
ENDBRANCH  69  75
ENDBRANCH  66  68
ENDBRANCH  65  66
ENDBRANCH  64  65
ENDBRANCH  63  64
ENDBRANCH   1  63
TORSDOF 16
ENDMDL
