MODEL 1
REMARK VINA RESULT:     -10.6      0.000      0.000
REMARK SMILES O=C(OCCOCCOC(=O)c1cc2ncc(Cl)cn2n1)c1ccc(-c2c3nc(c(-c4c(F)cccc4F)c4ccc([nH]4)c(-c4c(F)cccc4F)c4nc(c(-c5c(F)cccc5F)c5ccc2[nH]5)C=C4)C=C3)cc1
REMARK SMILES IDX 5 1 4 2 3 3 2 4 1 5 22 6 23 7 75 8 24 9 74 10 25 11 26 12
REMARK SMILES IDX 27 13 68 14 28 15 73 16 67 17 69 18 29 19 72 20 66 21 65 22
REMARK SMILES IDX 30 24 56 25 39 26 55 27 40 28 43 29 54 30 70 31 41 32 42 33
REMARK SMILES IDX 53 35 71 36 44 37 31 38 32 39 37 40 33 41 34 42 36 43 38 44
REMARK SMILES IDX 35 45 57 46 58 47 63 48 59 49 60 50 62 51 64 52 61 53 45 54
REMARK SMILES IDX 46 55 51 56 47 57 48 58 50 59 52 60 49 61 6 62 7 63 8 64
REMARK SMILES IDX 9 65 10 66 11 67 12 68 13 69 21 70 14 71 20 72 15 73 19 74
REMARK SMILES IDX 16 75 17 76 18 77
REMARK H PARENT 69 23 43 34
REMARK Flexibility Score: inf
ROOT
ATOM      1  C   UNL A   1      33.248  33.890  27.892  1.00  0.00     0.202 C 
ENDROOT
BRANCH   1   2
ATOM      2  C   UNL A   1      33.680  32.524  28.412  1.00  0.00     0.261 C 
BRANCH   2   3
ATOM      3  O   UNL A   1      34.682  32.535  29.450  1.00  0.00    -0.460 OA
BRANCH   3   4
ATOM      4  C   UNL A   1      35.960  32.924  29.224  1.00  0.00     0.338 C 
ATOM      5  O   UNL A   1      36.264  34.098  29.048  1.00  0.00    -0.246 OA
BRANCH   4   6
ATOM      6  C   UNL A   1      36.991  31.925  29.598  1.00  0.00     0.060 A 
ATOM      7  C   UNL A   1      38.306  32.265  29.898  1.00  0.00     0.016 A 
ATOM      8  C   UNL A   1      36.625  30.569  29.562  1.00  0.00     0.016 A 
ATOM      9  C   UNL A   1      39.272  31.281  29.992  1.00  0.00     0.010 A 
ATOM     10  C   UNL A   1      37.587  29.572  29.703  1.00  0.00     0.010 A 
ATOM     11  C   UNL A   1      38.922  29.935  29.852  1.00  0.00    -0.014 A 
BRANCH  11  12
ATOM     12  C   UNL A   1      40.030  28.988  29.893  1.00  0.00     0.031 A 
ATOM     13  C   UNL A   1      40.692  28.814  31.214  1.00  0.00     0.074 A 
ATOM     14  C   UNL A   1      40.497  28.312  28.828  1.00  0.00     0.049 A 
ATOM     15  N   UNL A   1      41.892  29.155  31.559  1.00  0.00    -0.248 NA
ATOM     16  C   UNL A   1      39.882  28.264  32.307  1.00  0.00     0.031 C 
ATOM     17  C   UNL A   1      39.885  28.124  27.514  1.00  0.00     0.029 A 
ATOM     18  N   UNL A   1      41.648  27.584  28.749  1.00  0.00    -0.354 N 
ATOM     19  C   UNL A   1      42.054  28.717  32.871  1.00  0.00     0.074 A 
ATOM     20  C   UNL A   1      40.759  28.266  33.312  1.00  0.00     0.031 C 
ATOM     21  C   UNL A   1      40.573  27.175  26.838  1.00  0.00     0.029 A 
ATOM     22  C   UNL A   1      41.749  26.808  27.610  1.00  0.00     0.049 A 
ATOM     23  H   UNL A   1      42.346  27.609  29.443  1.00  0.00     0.167 HD
ATOM     24  C   UNL A   1      43.283  28.597  33.444  1.00  0.00     0.037 A 
ATOM     25  C   UNL A   1      42.711  25.897  27.345  1.00  0.00     0.037 A 
ATOM     26  C   UNL A   1      44.268  29.404  32.775  1.00  0.00     0.049 A 
ATOM     27  C   UNL A   1      43.904  26.242  28.156  1.00  0.00     0.074 A 
ATOM     28  C   UNL A   1      44.428  30.754  32.528  1.00  0.00     0.029 A 
ATOM     29  N   UNL A   1      45.193  28.779  31.978  1.00  0.00    -0.354 N 
ATOM     30  N   UNL A   1      44.658  27.285  27.953  1.00  0.00    -0.248 NA
ATOM     31  C   UNL A   1      44.082  25.584  29.441  1.00  0.00     0.031 C 
ATOM     32  C   UNL A   1      45.089  30.831  31.267  1.00  0.00     0.029 A 
ATOM     33  C   UNL A   1      45.297  29.521  30.832  1.00  0.00     0.049 A 
ATOM     34  H   UNL A   1      45.688  27.954  32.189  1.00  0.00     0.167 HD
ATOM     35  C   UNL A   1      45.104  27.652  29.213  1.00  0.00     0.074 A 
ATOM     36  C   UNL A   1      44.827  26.501  30.064  1.00  0.00     0.031 C 
ATOM     37  C   UNL A   1      45.406  28.950  29.510  1.00  0.00     0.037 A 
BRANCH  24  38
ATOM     38  C   UNL A   1      43.663  27.497  34.408  1.00  0.00     0.057 A 
ATOM     39  C   UNL A   1      43.677  26.159  33.967  1.00  0.00     0.134 A 
ATOM     40  C   UNL A   1      43.724  27.663  35.806  1.00  0.00     0.134 A 
ATOM     41  F   UNL A   1      43.608  25.863  32.660  1.00  0.00    -0.206 F 
ATOM     42  C   UNL A   1      43.672  25.074  34.851  1.00  0.00     0.040 A 
ATOM     43  C   UNL A   1      43.771  26.586  36.696  1.00  0.00     0.040 A 
ATOM     44  F   UNL A   1      43.642  28.865  36.390  1.00  0.00    -0.206 F 
ATOM     45  C   UNL A   1      43.711  25.286  36.222  1.00  0.00     0.006 A 
ENDBRANCH  24  38
BRANCH  25  46
ATOM     46  C   UNL A   1      42.574  24.606  26.636  1.00  0.00     0.057 A 
ATOM     47  C   UNL A   1      43.280  24.354  25.452  1.00  0.00     0.134 A 
ATOM     48  C   UNL A   1      41.964  23.494  27.242  1.00  0.00     0.134 A 
ATOM     49  F   UNL A   1      43.930  25.343  24.821  1.00  0.00    -0.206 F 
ATOM     50  C   UNL A   1      43.397  23.066  24.918  1.00  0.00     0.040 A 
ATOM     51  C   UNL A   1      42.064  22.205  26.713  1.00  0.00     0.040 A 
ATOM     52  F   UNL A   1      41.326  23.602  28.417  1.00  0.00    -0.206 F 
ATOM     53  C   UNL A   1      42.796  21.984  25.554  1.00  0.00     0.006 A 
ENDBRANCH  25  46
BRANCH  37  54
ATOM     54  C   UNL A   1      45.551  29.918  28.372  1.00  0.00     0.057 A 
ATOM     55  C   UNL A   1      44.471  30.601  27.795  1.00  0.00     0.134 A 
ATOM     56  C   UNL A   1      46.835  30.296  27.963  1.00  0.00     0.134 A 
ATOM     57  F   UNL A   1      43.214  30.377  28.199  1.00  0.00    -0.206 F 
ATOM     58  C   UNL A   1      44.662  31.591  26.826  1.00  0.00     0.040 A 
ATOM     59  C   UNL A   1      47.040  31.304  27.018  1.00  0.00     0.040 A 
ATOM     60  F   UNL A   1      47.918  29.725  28.517  1.00  0.00    -0.206 F 
ATOM     61  C   UNL A   1      45.951  31.949  26.440  1.00  0.00     0.006 A 
ENDBRANCH  37  54
ENDBRANCH  11  12
ENDBRANCH   4   6
ENDBRANCH   3   4
ENDBRANCH   2   3
ENDBRANCH   1   2
BRANCH   1  62
ATOM     62  O   UNL A   1      32.766  34.782  28.893  1.00  0.00    -0.374 OA
BRANCH  62  63
ATOM     63  C   UNL A   1      33.417  36.063  28.917  1.00  0.00     0.202 C 
BRANCH  63  64
ATOM     64  C   UNL A   1      33.177  36.940  30.155  1.00  0.00     0.261 C 
BRANCH  64  65
ATOM     65  O   UNL A   1      32.119  36.413  30.980  1.00  0.00    -0.458 OA
BRANCH  65  66
ATOM     66  C   UNL A   1      32.369  36.419  32.327  1.00  0.00     0.359 C 
ATOM     67  O   UNL A   1      31.657  36.952  33.156  1.00  0.00    -0.244 OA
BRANCH  66  68
ATOM     68  C   UNL A   1      33.471  35.519  32.703  1.00  0.00     0.173 A 
ATOM     69  C   UNL A   1      34.662  35.957  33.331  1.00  0.00     0.087 A 
ATOM     70  N   UNL A   1      33.474  34.187  32.523  1.00  0.00    -0.159 NA
ATOM     71  C   UNL A   1      35.428  34.835  33.513  1.00  0.00     0.155 A 
ATOM     72  N   UNL A   1      34.702  33.782  32.943  1.00  0.00    -0.220 N 
ATOM     73  N   UNL A   1      36.669  34.669  34.062  1.00  0.00    -0.235 NA
ATOM     74  C   UNL A   1      35.273  32.518  32.836  1.00  0.00     0.137 A 
ATOM     75  C   UNL A   1      37.174  33.475  33.949  1.00  0.00     0.135 A 
ATOM     76  C   UNL A   1      36.512  32.311  33.297  1.00  0.00     0.077 A 
ATOM     77  Cl  UNL A   1      37.354  30.833  33.180  1.00  0.00    -0.081 Cl
ENDBRANCH  66  68
ENDBRANCH  65  66
ENDBRANCH  64  65
ENDBRANCH  63  64
ENDBRANCH  62  63
ENDBRANCH   1  62
TORSDOF 14
ENDMDL
MODEL 2
REMARK VINA RESULT:     -10.5      5.563     10.954
REMARK SMILES O=C(OCCOCCOC(=O)c1cc2ncc(Cl)cn2n1)c1ccc(-c2c3nc(c(-c4c(F)cccc4F)c4ccc([nH]4)c(-c4c(F)cccc4F)c4nc(c(-c5c(F)cccc5F)c5ccc2[nH]5)C=C4)C=C3)cc1
REMARK SMILES IDX 5 1 4 2 3 3 2 4 1 5 22 6 23 7 75 8 24 9 74 10 25 11 26 12
REMARK SMILES IDX 27 13 68 14 28 15 73 16 67 17 69 18 29 19 72 20 66 21 65 22
REMARK SMILES IDX 30 24 56 25 39 26 55 27 40 28 43 29 54 30 70 31 41 32 42 33
REMARK SMILES IDX 53 35 71 36 44 37 31 38 32 39 37 40 33 41 34 42 36 43 38 44
REMARK SMILES IDX 35 45 57 46 58 47 63 48 59 49 60 50 62 51 64 52 61 53 45 54
REMARK SMILES IDX 46 55 51 56 47 57 48 58 50 59 52 60 49 61 6 62 7 63 8 64
REMARK SMILES IDX 9 65 10 66 11 67 12 68 13 69 21 70 14 71 20 72 15 73 19 74
REMARK SMILES IDX 16 75 17 76 18 77
REMARK H PARENT 69 23 43 34
REMARK Flexibility Score: inf
ROOT
ATOM      1  C   UNL A   1      42.440  19.084  26.296  1.00  0.00     0.202 C 
ENDROOT
BRANCH   1   2
ATOM      2  C   UNL A   1      43.553  18.627  25.360  1.00  0.00     0.261 C 
BRANCH   2   3
ATOM      3  O   UNL A   1      44.049  19.624  24.440  1.00  0.00    -0.460 OA
BRANCH   3   4
ATOM      4  C   UNL A   1      45.215  20.282  24.640  1.00  0.00     0.338 C 
ATOM      5  O   UNL A   1      46.284  19.862  24.212  1.00  0.00    -0.246 OA
BRANCH   4   6
ATOM      6  C   UNL A   1      45.069  21.703  25.042  1.00  0.00     0.060 A 
ATOM      7  C   UNL A   1      45.712  22.251  26.147  1.00  0.00     0.016 A 
ATOM      8  C   UNL A   1      44.171  22.496  24.308  1.00  0.00     0.016 A 
ATOM      9  C   UNL A   1      45.344  23.498  26.614  1.00  0.00     0.010 A 
ATOM     10  C   UNL A   1      43.832  23.772  24.749  1.00  0.00     0.010 A 
ATOM     11  C   UNL A   1      44.374  24.244  25.941  1.00  0.00    -0.014 A 
BRANCH  11  12
ATOM     12  C   UNL A   1      44.009  25.511  26.563  1.00  0.00     0.031 A 
ATOM     13  C   UNL A   1      44.993  26.618  26.417  1.00  0.00     0.074 A 
ATOM     14  C   UNL A   1      42.884  25.720  27.271  1.00  0.00     0.049 A 
ATOM     15  N   UNL A   1      45.710  27.177  27.339  1.00  0.00    -0.248 NA
ATOM     16  C   UNL A   1      45.269  27.101  25.059  1.00  0.00     0.031 C 
ATOM     17  C   UNL A   1      41.678  24.897  27.349  1.00  0.00     0.029 A 
ATOM     18  N   UNL A   1      42.584  26.798  28.050  1.00  0.00    -0.354 N 
ATOM     19  C   UNL A   1      46.415  28.200  26.710  1.00  0.00     0.074 A 
ATOM     20  C   UNL A   1      46.181  28.045  25.296  1.00  0.00     0.031 C 
ATOM     21  C   UNL A   1      40.704  25.600  27.972  1.00  0.00     0.029 A 
ATOM     22  C   UNL A   1      41.265  26.848  28.462  1.00  0.00     0.049 A 
ATOM     23  H   UNL A   1      43.248  27.482  28.296  1.00  0.00     0.167 HD
ATOM     24  C   UNL A   1      47.003  29.207  27.411  1.00  0.00     0.037 A 
ATOM     25  C   UNL A   1      40.672  27.867  29.123  1.00  0.00     0.037 A 
ATOM     26  C   UNL A   1      47.240  28.840  28.782  1.00  0.00     0.049 A 
ATOM     27  C   UNL A   1      41.729  28.643  29.812  1.00  0.00     0.074 A 
ATOM     28  C   UNL A   1      47.973  27.860  29.422  1.00  0.00     0.029 A 
ATOM     29  N   UNL A   1      46.437  29.383  29.752  1.00  0.00    -0.354 N 
ATOM     30  N   UNL A   1      42.415  28.213  30.834  1.00  0.00    -0.248 NA
ATOM     31  C   UNL A   1      42.275  29.816  29.146  1.00  0.00     0.031 C 
ATOM     32  C   UNL A   1      47.236  27.548  30.602  1.00  0.00     0.029 A 
ATOM     33  C   UNL A   1      46.105  28.367  30.607  1.00  0.00     0.049 A 
ATOM     34  H   UNL A   1      46.153  30.323  29.820  1.00  0.00     0.167 HD
ATOM     35  C   UNL A   1      43.664  28.796  30.696  1.00  0.00     0.074 A 
ATOM     36  C   UNL A   1      43.478  29.866  29.723  1.00  0.00     0.031 C 
ATOM     37  C   UNL A   1      44.789  28.189  31.175  1.00  0.00     0.037 A 
BRANCH  24  38
ATOM     38  C   UNL A   1      47.065  30.642  26.939  1.00  0.00     0.057 A 
ATOM     39  C   UNL A   1      48.286  31.341  26.998  1.00  0.00     0.134 A 
ATOM     40  C   UNL A   1      45.929  31.446  26.713  1.00  0.00     0.134 A 
ATOM     41  F   UNL A   1      49.440  30.696  27.225  1.00  0.00    -0.206 F 
ATOM     42  C   UNL A   1      48.359  32.737  26.918  1.00  0.00     0.040 A 
ATOM     43  C   UNL A   1      45.998  32.835  26.579  1.00  0.00     0.040 A 
ATOM     44  F   UNL A   1      44.687  30.946  26.706  1.00  0.00    -0.206 F 
ATOM     45  C   UNL A   1      47.211  33.490  26.716  1.00  0.00     0.006 A 
ENDBRANCH  24  38
BRANCH  25  46
ATOM     46  C   UNL A   1      39.284  28.358  28.982  1.00  0.00     0.057 A 
ATOM     47  C   UNL A   1      38.399  28.345  30.069  1.00  0.00     0.134 A 
ATOM     48  C   UNL A   1      38.875  29.100  27.860  1.00  0.00     0.134 A 
ATOM     49  F   UNL A   1      38.717  27.698  31.200  1.00  0.00    -0.206 F 
ATOM     50  C   UNL A   1      37.192  29.053  30.053  1.00  0.00     0.040 A 
ATOM     51  C   UNL A   1      37.668  29.802  27.827  1.00  0.00     0.040 A 
ATOM     52  F   UNL A   1      39.673  29.246  26.792  1.00  0.00    -0.206 F 
ATOM     53  C   UNL A   1      36.828  29.794  28.932  1.00  0.00     0.006 A 
ENDBRANCH  25  46
BRANCH  37  54
ATOM     54  C   UNL A   1      44.619  27.040  32.126  1.00  0.00     0.057 A 
ATOM     55  C   UNL A   1      44.451  25.711  31.712  1.00  0.00     0.134 A 
ATOM     56  C   UNL A   1      44.801  27.262  33.496  1.00  0.00     0.134 A 
ATOM     57  F   UNL A   1      44.371  25.395  30.413  1.00  0.00    -0.206 F 
ATOM     58  C   UNL A   1      44.427  24.655  32.628  1.00  0.00     0.040 A 
ATOM     59  C   UNL A   1      44.809  26.211  34.417  1.00  0.00     0.040 A 
ATOM     60  F   UNL A   1      45.027  28.503  33.957  1.00  0.00    -0.206 F 
ATOM     61  C   UNL A   1      44.614  24.903  33.984  1.00  0.00     0.006 A 
ENDBRANCH  37  54
ENDBRANCH  11  12
ENDBRANCH   4   6
ENDBRANCH   3   4
ENDBRANCH   2   3
ENDBRANCH   1   2
BRANCH   1  62
ATOM     62  O   UNL A   1      41.529  20.019  25.724  1.00  0.00    -0.374 OA
BRANCH  62  63
ATOM     63  C   UNL A   1      41.464  21.283  26.404  1.00  0.00     0.202 C 
BRANCH  63  64
ATOM     64  C   UNL A   1      40.080  21.737  26.892  1.00  0.00     0.261 C 
BRANCH  64  65
ATOM     65  O   UNL A   1      39.075  21.560  25.873  1.00  0.00    -0.458 OA
BRANCH  65  66
ATOM     66  C   UNL A   1      38.049  22.468  25.898  1.00  0.00     0.359 C 
ATOM     67  O   UNL A   1      38.197  23.672  25.974  1.00  0.00    -0.244 OA
BRANCH  66  68
ATOM     68  C   UNL A   1      36.745  21.856  25.595  1.00  0.00     0.173 A 
ATOM     69  C   UNL A   1      35.505  22.507  25.806  1.00  0.00     0.087 A 
ATOM     70  N   UNL A   1      36.572  20.633  25.064  1.00  0.00    -0.159 NA
ATOM     71  C   UNL A   1      34.541  21.620  25.406  1.00  0.00     0.155 A 
ATOM     72  N   UNL A   1      35.224  20.459  25.025  1.00  0.00    -0.220 N 
ATOM     73  N   UNL A   1      33.176  21.715  25.394  1.00  0.00    -0.235 NA
ATOM     74  C   UNL A   1      34.517  19.307  24.699  1.00  0.00     0.137 A 
ATOM     75  C   UNL A   1      32.543  20.622  25.080  1.00  0.00     0.135 A 
ATOM     76  C   UNL A   1      33.179  19.321  24.732  1.00  0.00     0.077 A 
ATOM     77  Cl  UNL A   1      32.189  17.970  24.413  1.00  0.00    -0.081 Cl
ENDBRANCH  66  68
ENDBRANCH  65  66
ENDBRANCH  64  65
ENDBRANCH  63  64
ENDBRANCH  62  63
ENDBRANCH   1  62
TORSDOF 14
ENDMDL
MODEL 3
REMARK VINA RESULT:     -10.4      1.410      1.942
REMARK SMILES O=C(OCCOCCOC(=O)c1cc2ncc(Cl)cn2n1)c1ccc(-c2c3nc(c(-c4c(F)cccc4F)c4ccc([nH]4)c(-c4c(F)cccc4F)c4nc(c(-c5c(F)cccc5F)c5ccc2[nH]5)C=C4)C=C3)cc1
REMARK SMILES IDX 5 1 4 2 3 3 2 4 1 5 22 6 23 7 75 8 24 9 74 10 25 11 26 12
REMARK SMILES IDX 27 13 68 14 28 15 73 16 67 17 69 18 29 19 72 20 66 21 65 22
REMARK SMILES IDX 30 24 56 25 39 26 55 27 40 28 43 29 54 30 70 31 41 32 42 33
REMARK SMILES IDX 53 35 71 36 44 37 31 38 32 39 37 40 33 41 34 42 36 43 38 44
REMARK SMILES IDX 35 45 57 46 58 47 63 48 59 49 60 50 62 51 64 52 61 53 45 54
REMARK SMILES IDX 46 55 51 56 47 57 48 58 50 59 52 60 49 61 6 62 7 63 8 64
REMARK SMILES IDX 9 65 10 66 11 67 12 68 13 69 21 70 14 71 20 72 15 73 19 74
REMARK SMILES IDX 16 75 17 76 18 77
REMARK H PARENT 69 23 43 34
REMARK Flexibility Score: inf
ROOT
ATOM      1  C   UNL A   1      33.265  34.243  28.742  1.00  0.00     0.202 C 
ENDROOT
BRANCH   1   2
ATOM      2  C   UNL A   1      34.739  34.445  28.414  1.00  0.00     0.261 C 
BRANCH   2   3
ATOM      3  O   UNL A   1      35.359  33.399  27.636  1.00  0.00    -0.460 OA
BRANCH   3   4
ATOM      4  C   UNL A   1      35.083  32.087  27.828  1.00  0.00     0.338 C 
ATOM      5  O   UNL A   1      34.139  31.530  27.280  1.00  0.00    -0.246 OA
BRANCH   4   6
ATOM      6  C   UNL A   1      36.197  31.293  28.404  1.00  0.00     0.060 A 
ATOM      7  C   UNL A   1      37.374  31.865  28.876  1.00  0.00     0.016 A 
ATOM      8  C   UNL A   1      36.073  29.894  28.387  1.00  0.00     0.016 A 
ATOM      9  C   UNL A   1      38.465  31.067  29.164  1.00  0.00     0.010 A 
ATOM     10  C   UNL A   1      37.155  29.084  28.722  1.00  0.00     0.010 A 
ATOM     11  C   UNL A   1      38.371  29.678  29.047  1.00  0.00    -0.014 A 
BRANCH  11  12
ATOM     12  C   UNL A   1      39.603  28.940  29.302  1.00  0.00     0.031 A 
ATOM     13  C   UNL A   1      39.938  28.704  30.733  1.00  0.00     0.074 A 
ATOM     14  C   UNL A   1      40.445  28.505  28.348  1.00  0.00     0.049 A 
ATOM     15  N   UNL A   1      40.922  29.197  31.415  1.00  0.00    -0.248 NA
ATOM     16  C   UNL A   1      39.012  27.880  31.516  1.00  0.00     0.031 C 
ATOM     17  C   UNL A   1      40.227  28.395  26.906  1.00  0.00     0.029 A 
ATOM     18  N   UNL A   1      41.702  28.005  28.518  1.00  0.00    -0.354 N 
ATOM     19  C   UNL A   1      40.840  28.621  32.679  1.00  0.00     0.074 A 
ATOM     20  C   UNL A   1      39.595  27.897  32.716  1.00  0.00     0.031 C 
ATOM     21  C   UNL A   1      41.237  27.679  26.361  1.00  0.00     0.029 A 
ATOM     22  C   UNL A   1      42.236  27.420  27.385  1.00  0.00     0.049 A 
ATOM     23  H   UNL A   1      42.187  28.055  29.373  1.00  0.00     0.167 HD
ATOM     24  C   UNL A   1      41.888  28.637  33.548  1.00  0.00     0.037 A 
ATOM     25  C   UNL A   1      43.397  26.733  27.311  1.00  0.00     0.037 A 
ATOM     26  C   UNL A   1      42.824  29.686  33.240  1.00  0.00     0.049 A 
ATOM     27  C   UNL A   1      44.257  27.164  28.438  1.00  0.00     0.074 A 
ATOM     28  C   UNL A   1      42.763  31.064  33.163  1.00  0.00     0.029 A 
ATOM     29  N   UNL A   1      44.023  29.343  32.671  1.00  0.00    -0.354 N 
ATOM     30  N   UNL A   1      44.812  28.340  28.536  1.00  0.00    -0.248 NA
ATOM     31  C   UNL A   1      44.241  26.379  29.663  1.00  0.00     0.031 C 
ATOM     32  C   UNL A   1      43.686  31.424  32.137  1.00  0.00     0.029 A 
ATOM     33  C   UNL A   1      44.254  30.241  31.663  1.00  0.00     0.049 A 
ATOM     34  H   UNL A   1      44.607  28.596  32.935  1.00  0.00     0.167 HD
ATOM     35  C   UNL A   1      44.849  28.604  29.896  1.00  0.00     0.074 A 
ATOM     36  C   UNL A   1      44.609  27.317  30.539  1.00  0.00     0.031 C 
ATOM     37  C   UNL A   1      44.800  29.882  30.374  1.00  0.00     0.037 A 
BRANCH  24  38
ATOM     38  C   UNL A   1      42.232  27.498  34.481  1.00  0.00     0.057 A 
ATOM     39  C   UNL A   1      41.933  27.608  35.852  1.00  0.00     0.134 A 
ATOM     40  C   UNL A   1      43.100  26.441  34.143  1.00  0.00     0.134 A 
ATOM     41  F   UNL A   1      41.131  28.582  36.309  1.00  0.00    -0.206 F 
ATOM     42  C   UNL A   1      42.516  26.779  36.819  1.00  0.00     0.040 A 
ATOM     43  C   UNL A   1      43.647  25.575  35.095  1.00  0.00     0.040 A 
ATOM     44  F   UNL A   1      43.543  26.247  32.895  1.00  0.00    -0.206 F 
ATOM     45  C   UNL A   1      43.384  25.764  36.442  1.00  0.00     0.006 A 
ENDBRANCH  24  38
BRANCH  25  46
ATOM     46  C   UNL A   1      43.703  25.546  26.483  1.00  0.00     0.057 A 
ATOM     47  C   UNL A   1      44.737  25.572  25.537  1.00  0.00     0.134 A 
ATOM     48  C   UNL A   1      43.173  24.280  26.786  1.00  0.00     0.134 A 
ATOM     49  F   UNL A   1      45.335  26.727  25.211  1.00  0.00    -0.206 F 
ATOM     50  C   UNL A   1      45.236  24.403  24.950  1.00  0.00     0.040 A 
ATOM     51  C   UNL A   1      43.654  23.107  26.198  1.00  0.00     0.040 A 
ATOM     52  F   UNL A   1      42.233  24.124  27.730  1.00  0.00    -0.206 F 
ATOM     53  C   UNL A   1      44.700  23.164  25.288  1.00  0.00     0.006 A 
ENDBRANCH  25  46
BRANCH  37  54
ATOM     54  C   UNL A   1      45.023  31.006  29.404  1.00  0.00     0.057 A 
ATOM     55  C   UNL A   1      44.003  31.568  28.623  1.00  0.00     0.134 A 
ATOM     56  C   UNL A   1      46.266  31.648  29.386  1.00  0.00     0.134 A 
ATOM     57  F   UNL A   1      42.756  31.080  28.657  1.00  0.00    -0.206 F 
ATOM     58  C   UNL A   1      44.224  32.697  27.830  1.00  0.00     0.040 A 
ATOM     59  C   UNL A   1      46.490  32.795  28.621  1.00  0.00     0.040 A 
ATOM     60  F   UNL A   1      47.272  31.200  30.156  1.00  0.00    -0.206 F 
ATOM     61  C   UNL A   1      45.470  33.319  27.833  1.00  0.00     0.006 A 
ENDBRANCH  37  54
ENDBRANCH  11  12
ENDBRANCH   4   6
ENDBRANCH   3   4
ENDBRANCH   2   3
ENDBRANCH   1   2
BRANCH   1  62
ATOM     62  O   UNL A   1      32.540  35.445  28.984  1.00  0.00    -0.374 OA
BRANCH  62  63
ATOM     63  C   UNL A   1      33.325  36.516  29.535  1.00  0.00     0.202 C 
BRANCH  63  64
ATOM     64  C   UNL A   1      32.991  36.954  30.969  1.00  0.00     0.261 C 
BRANCH  64  65
ATOM     65  O   UNL A   1      33.840  36.301  31.933  1.00  0.00    -0.458 OA
BRANCH  65  66
ATOM     66  C   UNL A   1      33.357  35.121  32.436  1.00  0.00     0.359 C 
ATOM     67  O   UNL A   1      32.176  34.846  32.531  1.00  0.00    -0.244 OA
BRANCH  66  68
ATOM     68  C   UNL A   1      34.415  34.118  32.642  1.00  0.00     0.173 A 
ATOM     69  C   UNL A   1      34.493  32.901  31.922  1.00  0.00     0.087 A 
ATOM     70  N   UNL A   1      35.436  34.242  33.508  1.00  0.00    -0.159 NA
ATOM     71  C   UNL A   1      35.602  32.253  32.398  1.00  0.00     0.155 A 
ATOM     72  N   UNL A   1      36.113  33.066  33.416  1.00  0.00    -0.220 N 
ATOM     73  N   UNL A   1      36.149  31.043  32.069  1.00  0.00    -0.235 NA
ATOM     74  C   UNL A   1      37.168  32.620  34.204  1.00  0.00     0.137 A 
ATOM     75  C   UNL A   1      37.137  30.654  32.823  1.00  0.00     0.135 A 
ATOM     76  C   UNL A   1      37.703  31.415  33.972  1.00  0.00     0.077 A 
ATOM     77  Cl  UNL A   1      38.957  30.719  34.894  1.00  0.00    -0.081 Cl
ENDBRANCH  66  68
ENDBRANCH  65  66
ENDBRANCH  64  65
ENDBRANCH  63  64
ENDBRANCH  62  63
ENDBRANCH   1  62
TORSDOF 14
ENDMDL
