MODEL 1
REMARK VINA RESULT:     -11.6      0.000      0.000
REMARK SMILES Cc1ccc2nc(C(=O)OCCOCCOC(=O)c3ccc(-c4c5nc(c(-c6c(F)cccc6F)c6ccc([nH]6)c(-c6c(F)cccc6F)c6nc(c(-c7c(F)cccc7F)c7ccc4[nH]7)C=C6)C=C5)cc3)cc(N3CCOCC3)c2c1
REMARK SMILES IDX 14 1 13 2 12 3 11 4 10 5 8 6 9 7 7 8 1 9 2 10 3 11 82 12
REMARK SMILES IDX 4 13 81 14 5 15 74 16 6 17 73 18 75 19 76 20 80 21 77 22
REMARK SMILES IDX 79 23 78 24 15 25 16 26 17 27 18 28 19 29 20 30 72 31 21 32
REMARK SMILES IDX 71 33 22 34 23 35 24 36 65 37 25 38 70 39 64 40 66 41 26 42
REMARK SMILES IDX 69 43 63 44 62 45 27 47 53 48 36 49 52 50 37 51 40 52 51 53
REMARK SMILES IDX 67 54 38 55 39 56 50 58 68 59 41 60 28 61 29 62 34 63 30 64
REMARK SMILES IDX 31 65 33 66 35 67 32 68 54 69 55 70 60 71 56 72 57 73 59 74
REMARK SMILES IDX 61 75 58 76 42 77 43 78 48 79 44 80 45 81 47 82 49 83 46 84
REMARK H PARENT 66 46 40 57
REMARK Flexibility Score: inf
ROOT
ATOM      1  C   UNL A   1      43.724  20.827  25.504  1.00  0.00     0.202 C 
ENDROOT
BRANCH   1   2
ATOM      2  O   UNL A   1      42.683  21.144  26.430  1.00  0.00    -0.374 OA
BRANCH   2   3
ATOM      3  C   UNL A   1      41.416  20.520  26.229  1.00  0.00     0.202 C 
BRANCH   3   4
ATOM      4  C   UNL A   1      40.204  21.259  26.804  1.00  0.00     0.261 C 
BRANCH   4   5
ATOM      5  O   UNL A   1      39.113  21.265  25.865  1.00  0.00    -0.459 OA
BRANCH   5   6
ATOM      6  C   UNL A   1      38.326  22.372  25.930  1.00  0.00     0.357 C 
ATOM      7  O   UNL A   1      38.652  23.460  26.379  1.00  0.00    -0.244 OA
BRANCH   6   8
ATOM      8  C   UNL A   1      37.016  22.120  25.262  1.00  0.00     0.151 A 
ATOM      9  C   UNL A   1      31.068  23.310  23.138  1.00  0.00     0.044 C 
ATOM     10  C   UNL A   1      32.535  23.243  23.434  1.00  0.00    -0.050 A 
ATOM     11  C   UNL A   1      33.358  24.351  23.268  1.00  0.00     0.005 A 
ATOM     12  C   UNL A   1      33.096  22.061  23.936  1.00  0.00     0.016 A 
ATOM     13  C   UNL A   1      34.694  24.285  23.659  1.00  0.00     0.029 A 
ATOM     14  C   UNL A   1      34.465  21.960  24.289  1.00  0.00     0.024 A 
ATOM     15  C   UNL A   1      35.242  23.134  24.203  1.00  0.00     0.073 A 
ATOM     16  C   UNL A   1      35.086  20.772  24.791  1.00  0.00     0.049 A 
ATOM     17  N   UNL A   1      36.486  23.213  24.668  1.00  0.00    -0.241 NA
ATOM     18  C   UNL A   1      36.386  20.885  25.302  1.00  0.00     0.062 A 
BRANCH  16  19
ATOM     19  N   UNL A   1      34.410  19.558  24.817  1.00  0.00    -0.366 N 
ATOM     20  C   UNL A   1      35.107  18.312  24.433  1.00  0.00     0.145 C 
ATOM     21  C   UNL A   1      33.252  19.320  25.693  1.00  0.00     0.145 C 
ATOM     22  C   UNL A   1      34.091  17.353  23.787  1.00  0.00     0.181 C 
ATOM     23  C   UNL A   1      32.312  18.307  25.014  1.00  0.00     0.181 C 
ATOM     24  O   UNL A   1      32.992  17.085  24.675  1.00  0.00    -0.378 OA
ENDBRANCH  16  19
ENDBRANCH   6   8
ENDBRANCH   5   6
ENDBRANCH   4   5
ENDBRANCH   3   4
ENDBRANCH   2   3
ENDBRANCH   1   2
BRANCH   1  25
ATOM     25  C   UNL A   1      44.210  21.983  24.621  1.00  0.00     0.261 C 
BRANCH  25  26
ATOM     26  O   UNL A   1      43.438  23.181  24.831  1.00  0.00    -0.460 OA
BRANCH  26  27
ATOM     27  C   UNL A   1      44.164  24.280  25.139  1.00  0.00     0.338 C 
ATOM     28  O   UNL A   1      45.226  24.635  24.642  1.00  0.00    -0.246 OA
BRANCH  27  29
ATOM     29  C   UNL A   1      43.410  25.139  26.071  1.00  0.00     0.060 A 
ATOM     30  C   UNL A   1      43.779  26.488  26.151  1.00  0.00     0.016 A 
ATOM     31  C   UNL A   1      42.408  24.627  26.898  1.00  0.00     0.016 A 
ATOM     32  C   UNL A   1      43.180  27.321  27.094  1.00  0.00     0.010 A 
ATOM     33  C   UNL A   1      41.815  25.462  27.850  1.00  0.00     0.010 A 
ATOM     34  C   UNL A   1      42.221  26.803  27.974  1.00  0.00    -0.014 A 
BRANCH  34  35
ATOM     35  C   UNL A   1      41.752  27.629  29.113  1.00  0.00     0.031 A 
ATOM     36  C   UNL A   1      42.485  27.551  30.424  1.00  0.00     0.074 A 
ATOM     37  C   UNL A   1      40.704  28.459  28.976  1.00  0.00     0.049 A 
ATOM     38  N   UNL A   1      42.234  28.163  31.553  1.00  0.00    -0.248 NA
ATOM     39  C   UNL A   1      43.656  26.661  30.466  1.00  0.00     0.031 C 
ATOM     40  C   UNL A   1      39.935  28.652  27.749  1.00  0.00     0.029 A 
ATOM     41  N   UNL A   1      40.104  29.291  29.887  1.00  0.00    -0.354 N 
ATOM     42  C   UNL A   1      43.213  27.732  32.441  1.00  0.00     0.074 A 
ATOM     43  C   UNL A   1      44.041  26.783  31.728  1.00  0.00     0.031 C 
ATOM     44  C   UNL A   1      38.956  29.543  27.985  1.00  0.00     0.029 A 
ATOM     45  C   UNL A   1      39.015  29.959  29.385  1.00  0.00     0.049 A 
ATOM     46  H   UNL A   1      40.423  29.399  30.812  1.00  0.00     0.167 HD
ATOM     47  C   UNL A   1      43.408  28.099  33.729  1.00  0.00     0.037 A 
ATOM     48  C   UNL A   1      38.153  30.798  29.993  1.00  0.00     0.037 A 
ATOM     49  C   UNL A   1      42.585  29.042  34.438  1.00  0.00     0.049 A 
ATOM     50  C   UNL A   1      38.349  31.137  31.446  1.00  0.00     0.074 A 
ATOM     51  C   UNL A   1      42.717  29.498  35.738  1.00  0.00     0.029 A 
ATOM     52  N   UNL A   1      41.469  29.670  33.907  1.00  0.00    -0.354 N 
ATOM     53  N   UNL A   1      39.291  30.745  32.269  1.00  0.00    -0.248 NA
ATOM     54  C   UNL A   1      37.359  32.038  32.056  1.00  0.00     0.031 C 
ATOM     55  C   UNL A   1      41.654  30.366  36.008  1.00  0.00     0.029 A 
ATOM     56  C   UNL A   1      40.887  30.488  34.862  1.00  0.00     0.049 A 
ATOM     57  H   UNL A   1      41.138  29.553  32.986  1.00  0.00     0.167 HD
ATOM     58  C   UNL A   1      39.025  31.369  33.481  1.00  0.00     0.074 A 
ATOM     59  C   UNL A   1      37.838  32.174  33.284  1.00  0.00     0.031 C 
ATOM     60  C   UNL A   1      39.704  31.285  34.651  1.00  0.00     0.037 A 
BRANCH  47  61
ATOM     61  C   UNL A   1      44.548  27.455  34.461  1.00  0.00     0.057 A 
ATOM     62  C   UNL A   1      45.826  28.028  34.492  1.00  0.00     0.134 A 
ATOM     63  C   UNL A   1      44.360  26.256  35.161  1.00  0.00     0.134 A 
ATOM     64  F   UNL A   1      46.077  29.167  33.830  1.00  0.00    -0.206 F 
ATOM     65  C   UNL A   1      46.883  27.417  35.171  1.00  0.00     0.040 A 
ATOM     66  C   UNL A   1      45.402  25.650  35.863  1.00  0.00     0.040 A 
ATOM     67  F   UNL A   1      43.159  25.658  35.176  1.00  0.00    -0.206 F 
ATOM     68  C   UNL A   1      46.670  26.228  35.865  1.00  0.00     0.006 A 
ENDBRANCH  47  61
BRANCH  48  69
ATOM     69  C   UNL A   1      37.017  31.371  29.230  1.00  0.00     0.057 A 
ATOM     70  C   UNL A   1      35.860  30.625  28.984  1.00  0.00     0.134 A 
ATOM     71  C   UNL A   1      37.067  32.674  28.719  1.00  0.00     0.134 A 
ATOM     72  F   UNL A   1      35.764  29.363  29.427  1.00  0.00    -0.206 F 
ATOM     73  C   UNL A   1      34.796  31.148  28.247  1.00  0.00     0.040 A 
ATOM     74  C   UNL A   1      36.002  33.217  28.000  1.00  0.00     0.040 A 
ATOM     75  F   UNL A   1      38.150  33.440  28.922  1.00  0.00    -0.206 F 
ATOM     76  C   UNL A   1      34.865  32.452  27.757  1.00  0.00     0.006 A 
ENDBRANCH  48  69
BRANCH  60  77
ATOM     77  C   UNL A   1      39.199  32.105  35.801  1.00  0.00     0.057 A 
ATOM     78  C   UNL A   1      39.592  33.436  35.990  1.00  0.00     0.134 A 
ATOM     79  C   UNL A   1      38.275  31.569  36.708  1.00  0.00     0.134 A 
ATOM     80  F   UNL A   1      40.482  34.004  35.164  1.00  0.00    -0.206 F 
ATOM     81  C   UNL A   1      39.100  34.198  37.051  1.00  0.00     0.040 A 
ATOM     82  C   UNL A   1      37.758  32.328  37.759  1.00  0.00     0.040 A 
ATOM     83  F   UNL A   1      37.851  30.302  36.580  1.00  0.00    -0.206 F 
ATOM     84  C   UNL A   1      38.175  33.645  37.936  1.00  0.00     0.006 A 
ENDBRANCH  60  77
ENDBRANCH  34  35
ENDBRANCH  27  29
ENDBRANCH  26  27
ENDBRANCH  25  26
ENDBRANCH   1  25
TORSDOF 15
ENDMDL
MODEL 2
REMARK VINA RESULT:     -11.5      4.315      8.586
REMARK SMILES Cc1ccc2nc(C(=O)OCCOCCOC(=O)c3ccc(-c4c5nc(c(-c6c(F)cccc6F)c6ccc([nH]6)c(-c6c(F)cccc6F)c6nc(c(-c7c(F)cccc7F)c7ccc4[nH]7)C=C6)C=C5)cc3)cc(N3CCOCC3)c2c1
REMARK SMILES IDX 14 1 13 2 12 3 11 4 10 5 8 6 9 7 7 8 1 9 2 10 3 11 82 12
REMARK SMILES IDX 4 13 81 14 5 15 74 16 6 17 73 18 75 19 76 20 80 21 77 22
REMARK SMILES IDX 79 23 78 24 15 25 16 26 17 27 18 28 19 29 20 30 72 31 21 32
REMARK SMILES IDX 71 33 22 34 23 35 24 36 65 37 25 38 70 39 64 40 66 41 26 42
REMARK SMILES IDX 69 43 63 44 62 45 27 47 53 48 36 49 52 50 37 51 40 52 51 53
REMARK SMILES IDX 67 54 38 55 39 56 50 58 68 59 41 60 28 61 29 62 34 63 30 64
REMARK SMILES IDX 31 65 33 66 35 67 32 68 54 69 55 70 60 71 56 72 57 73 59 74
REMARK SMILES IDX 61 75 58 76 42 77 43 78 48 79 44 80 45 81 47 82 49 83 46 84
REMARK H PARENT 66 46 40 57
REMARK Flexibility Score: inf
ROOT
ATOM      1  C   UNL A   1      31.663  28.440  27.460  1.00  0.00     0.202 C 
ENDROOT
BRANCH   1   2
ATOM      2  O   UNL A   1      31.101  27.146  27.231  1.00  0.00    -0.374 OA
BRANCH   2   3
ATOM      3  C   UNL A   1      31.364  26.532  25.971  1.00  0.00     0.202 C 
BRANCH   3   4
ATOM      4  C   UNL A   1      30.205  25.747  25.351  1.00  0.00     0.261 C 
BRANCH   4   5
ATOM      5  O   UNL A   1      30.585  24.381  25.102  1.00  0.00    -0.459 OA
BRANCH   5   6
ATOM      6  C   UNL A   1      30.757  23.634  26.225  1.00  0.00     0.357 C 
ATOM      7  O   UNL A   1      30.025  23.629  27.203  1.00  0.00    -0.244 OA
BRANCH   6   8
ATOM      8  C   UNL A   1      31.920  22.713  26.066  1.00  0.00     0.151 A 
ATOM      9  C   UNL A   1      37.926  20.845  24.746  1.00  0.00     0.044 C 
ATOM     10  C   UNL A   1      36.655  21.432  25.278  1.00  0.00    -0.050 A 
ATOM     11  C   UNL A   1      36.644  22.656  25.937  1.00  0.00     0.005 A 
ATOM     12  C   UNL A   1      35.437  20.770  25.075  1.00  0.00     0.016 A 
ATOM     13  C   UNL A   1      35.430  23.224  26.321  1.00  0.00     0.029 A 
ATOM     14  C   UNL A   1      34.198  21.308  25.505  1.00  0.00     0.024 A 
ATOM     15  C   UNL A   1      34.218  22.597  26.076  1.00  0.00     0.073 A 
ATOM     16  C   UNL A   1      32.932  20.663  25.333  1.00  0.00     0.049 A 
ATOM     17  N   UNL A   1      33.111  23.281  26.358  1.00  0.00    -0.241 NA
ATOM     18  C   UNL A   1      31.779  21.411  25.609  1.00  0.00     0.062 A 
BRANCH  16  19
ATOM     19  N   UNL A   1      32.842  19.357  24.863  1.00  0.00    -0.366 N 
ATOM     20  C   UNL A   1      32.686  18.236  25.814  1.00  0.00     0.145 C 
ATOM     21  C   UNL A   1      32.351  19.038  23.514  1.00  0.00     0.145 C 
ATOM     22  C   UNL A   1      33.382  16.993  25.233  1.00  0.00     0.181 C 
ATOM     23  C   UNL A   1      33.040  17.752  23.023  1.00  0.00     0.181 C 
ATOM     24  O   UNL A   1      32.853  16.658  23.938  1.00  0.00    -0.378 OA
ENDBRANCH  16  19
ENDBRANCH   6   8
ENDBRANCH   5   6
ENDBRANCH   4   5
ENDBRANCH   3   4
ENDBRANCH   2   3
ENDBRANCH   1   2
BRANCH   1  25
ATOM     25  C   UNL A   1      32.977  28.738  26.728  1.00  0.00     0.261 C 
BRANCH  25  26
ATOM     26  O   UNL A   1      34.107  28.718  27.622  1.00  0.00    -0.460 OA
BRANCH  26  27
ATOM     27  C   UNL A   1      34.631  29.932  27.905  1.00  0.00     0.338 C 
ATOM     28  O   UNL A   1      34.036  30.999  27.990  1.00  0.00    -0.246 OA
BRANCH  27  29
ATOM     29  C   UNL A   1      36.049  29.793  28.287  1.00  0.00     0.060 A 
ATOM     30  C   UNL A   1      37.012  30.024  27.296  1.00  0.00     0.016 A 
ATOM     31  C   UNL A   1      36.431  29.382  29.566  1.00  0.00     0.016 A 
ATOM     32  C   UNL A   1      38.360  29.798  27.566  1.00  0.00     0.010 A 
ATOM     33  C   UNL A   1      37.785  29.146  29.832  1.00  0.00     0.010 A 
ATOM     34  C   UNL A   1      38.750  29.322  28.824  1.00  0.00    -0.014 A 
BRANCH  34  35
ATOM     35  C   UNL A   1      40.147  28.874  29.036  1.00  0.00     0.031 A 
ATOM     36  C   UNL A   1      41.120  29.804  29.707  1.00  0.00     0.074 A 
ATOM     37  C   UNL A   1      40.541  27.644  28.662  1.00  0.00     0.049 A 
ATOM     38  N   UNL A   1      42.390  29.629  29.970  1.00  0.00    -0.248 NA
ATOM     39  C   UNL A   1      40.589  31.107  30.137  1.00  0.00     0.031 C 
ATOM     40  C   UNL A   1      39.685  26.638  28.037  1.00  0.00     0.029 A 
ATOM     41  N   UNL A   1      41.768  27.038  28.751  1.00  0.00    -0.354 N 
ATOM     42  C   UNL A   1      42.811  30.798  30.592  1.00  0.00     0.074 A 
ATOM     43  C   UNL A   1      41.669  31.686  30.639  1.00  0.00     0.031 C 
ATOM     44  C   UNL A   1      40.417  25.538  27.790  1.00  0.00     0.029 A 
ATOM     45  C   UNL A   1      41.796  25.775  28.213  1.00  0.00     0.049 A 
ATOM     46  H   UNL A   1      42.554  27.467  29.159  1.00  0.00     0.167 HD
ATOM     47  C   UNL A   1      44.034  31.101  31.087  1.00  0.00     0.037 A 
ATOM     48  C   UNL A   1      42.823  24.915  28.066  1.00  0.00     0.037 A 
ATOM     49  C   UNL A   1      45.170  30.219  31.041  1.00  0.00     0.049 A 
ATOM     50  C   UNL A   1      44.191  25.301  28.561  1.00  0.00     0.074 A 
ATOM     51  C   UNL A   1      46.445  30.425  31.538  1.00  0.00     0.029 A 
ATOM     52  N   UNL A   1      45.168  28.962  30.456  1.00  0.00    -0.354 N 
ATOM     53  N   UNL A   1      44.572  26.398  29.170  1.00  0.00    -0.248 NA
ATOM     54  C   UNL A   1      45.273  24.329  28.346  1.00  0.00     0.031 C 
ATOM     55  C   UNL A   1      47.227  29.312  31.212  1.00  0.00     0.029 A 
ATOM     56  C   UNL A   1      46.427  28.392  30.555  1.00  0.00     0.049 A 
ATOM     57  H   UNL A   1      44.387  28.535  30.033  1.00  0.00     0.167 HD
ATOM     58  C   UNL A   1      45.926  26.237  29.436  1.00  0.00     0.074 A 
ATOM     59  C   UNL A   1      46.299  24.933  28.929  1.00  0.00     0.031 C 
ATOM     60  C   UNL A   1      46.784  27.092  30.046  1.00  0.00     0.037 A 
BRANCH  47  61
ATOM     61  C   UNL A   1      44.210  32.458  31.701  1.00  0.00     0.057 A 
ATOM     62  C   UNL A   1      44.607  33.568  30.943  1.00  0.00     0.134 A 
ATOM     63  C   UNL A   1      43.961  32.662  33.064  1.00  0.00     0.134 A 
ATOM     64  F   UNL A   1      44.876  33.436  29.635  1.00  0.00    -0.206 F 
ATOM     65  C   UNL A   1      44.775  34.826  31.525  1.00  0.00     0.040 A 
ATOM     66  C   UNL A   1      44.101  33.920  33.651  1.00  0.00     0.040 A 
ATOM     67  F   UNL A   1      43.573  31.643  33.846  1.00  0.00    -0.206 F 
ATOM     68  C   UNL A   1      44.515  35.006  32.882  1.00  0.00     0.006 A 
ENDBRANCH  47  61
BRANCH  48  69
ATOM     69  C   UNL A   1      42.600  23.602  27.412  1.00  0.00     0.057 A 
ATOM     70  C   UNL A   1      42.271  22.467  28.160  1.00  0.00     0.134 A 
ATOM     71  C   UNL A   1      42.723  23.449  26.025  1.00  0.00     0.134 A 
ATOM     72  F   UNL A   1      42.163  22.546  29.494  1.00  0.00    -0.206 F 
ATOM     73  C   UNL A   1      42.083  21.223  27.556  1.00  0.00     0.040 A 
ATOM     74  C   UNL A   1      42.517  22.216  25.406  1.00  0.00     0.040 A 
ATOM     75  F   UNL A   1      43.037  24.501  25.254  1.00  0.00    -0.206 F 
ATOM     76  C   UNL A   1      42.201  21.097  26.172  1.00  0.00     0.006 A 
ENDBRANCH  48  69
BRANCH  60  77
ATOM     77  C   UNL A   1      48.201  26.633  30.227  1.00  0.00     0.057 A 
ATOM     78  C   UNL A   1      48.603  25.895  31.347  1.00  0.00     0.134 A 
ATOM     79  C   UNL A   1      49.167  26.900  29.247  1.00  0.00     0.134 A 
ATOM     80  F   UNL A   1      47.729  25.618  32.326  1.00  0.00    -0.206 F 
ATOM     81  C   UNL A   1      49.918  25.455  31.496  1.00  0.00     0.040 A 
ATOM     82  C   UNL A   1      50.480  26.444  29.373  1.00  0.00     0.040 A 
ATOM     83  F   UNL A   1      48.846  27.595  28.146  1.00  0.00    -0.206 F 
ATOM     84  C   UNL A   1      50.860  25.724  30.504  1.00  0.00     0.006 A 
ENDBRANCH  60  77
ENDBRANCH  34  35
ENDBRANCH  27  29
ENDBRANCH  26  27
ENDBRANCH  25  26
ENDBRANCH   1  25
TORSDOF 15
ENDMDL
MODEL 3
REMARK VINA RESULT:     -11.3      4.303      8.591
REMARK SMILES Cc1ccc2nc(C(=O)OCCOCCOC(=O)c3ccc(-c4c5nc(c(-c6c(F)cccc6F)c6ccc([nH]6)c(-c6c(F)cccc6F)c6nc(c(-c7c(F)cccc7F)c7ccc4[nH]7)C=C6)C=C5)cc3)cc(N3CCOCC3)c2c1
REMARK SMILES IDX 14 1 13 2 12 3 11 4 10 5 8 6 9 7 7 8 1 9 2 10 3 11 82 12
REMARK SMILES IDX 4 13 81 14 5 15 74 16 6 17 73 18 75 19 76 20 80 21 77 22
REMARK SMILES IDX 79 23 78 24 15 25 16 26 17 27 18 28 19 29 20 30 72 31 21 32
REMARK SMILES IDX 71 33 22 34 23 35 24 36 65 37 25 38 70 39 64 40 66 41 26 42
REMARK SMILES IDX 69 43 63 44 62 45 27 47 53 48 36 49 52 50 37 51 40 52 51 53
REMARK SMILES IDX 67 54 38 55 39 56 50 58 68 59 41 60 28 61 29 62 34 63 30 64
REMARK SMILES IDX 31 65 33 66 35 67 32 68 54 69 55 70 60 71 56 72 57 73 59 74
REMARK SMILES IDX 61 75 58 76 42 77 43 78 48 79 44 80 45 81 47 82 49 83 46 84
REMARK H PARENT 66 46 40 57
REMARK Flexibility Score: inf
ROOT
ATOM      1  C   UNL A   1      35.212  20.528  25.001  1.00  0.00     0.202 C 
ENDROOT
BRANCH   1   2
ATOM      2  O   UNL A   1      34.843  21.680  25.761  1.00  0.00    -0.374 OA
BRANCH   2   3
ATOM      3  C   UNL A   1      34.087  21.465  26.951  1.00  0.00     0.202 C 
BRANCH   3   4
ATOM      4  C   UNL A   1      33.375  22.691  27.527  1.00  0.00     0.261 C 
BRANCH   4   5
ATOM      5  O   UNL A   1      32.778  23.478  26.480  1.00  0.00    -0.459 OA
BRANCH   5   6
ATOM      6  C   UNL A   1      31.515  23.902  26.749  1.00  0.00     0.357 C 
ATOM      7  O   UNL A   1      30.667  23.282  27.374  1.00  0.00    -0.244 OA
BRANCH   6   8
ATOM      8  C   UNL A   1      31.322  25.303  26.275  1.00  0.00     0.151 A 
ATOM      9  C   UNL A   1      29.811  30.100  22.273  1.00  0.00     0.044 C 
ATOM     10  C   UNL A   1      29.870  28.919  23.192  1.00  0.00    -0.050 A 
ATOM     11  C   UNL A   1      28.969  27.866  23.076  1.00  0.00     0.005 A 
ATOM     12  C   UNL A   1      30.876  28.835  24.163  1.00  0.00     0.016 A 
ATOM     13  C   UNL A   1      29.122  26.734  23.874  1.00  0.00     0.029 A 
ATOM     14  C   UNL A   1      31.015  27.714  25.019  1.00  0.00     0.024 A 
ATOM     15  C   UNL A   1      30.147  26.624  24.801  1.00  0.00     0.073 A 
ATOM     16  C   UNL A   1      32.017  27.588  26.034  1.00  0.00     0.049 A 
ATOM     17  N   UNL A   1      30.289  25.452  25.416  1.00  0.00    -0.241 NA
ATOM     18  C   UNL A   1      32.167  26.338  26.648  1.00  0.00     0.062 A 
BRANCH  16  19
ATOM     19  N   UNL A   1      32.846  28.654  26.368  1.00  0.00    -0.366 N 
ATOM     20  C   UNL A   1      34.309  28.539  26.188  1.00  0.00     0.145 C 
ATOM     21  C   UNL A   1      32.375  30.048  26.369  1.00  0.00     0.145 C 
ATOM     22  C   UNL A   1      35.009  29.377  27.273  1.00  0.00     0.181 C 
ATOM     23  C   UNL A   1      33.160  30.839  27.431  1.00  0.00     0.181 C 
ATOM     24  O   UNL A   1      34.582  30.750  27.227  1.00  0.00    -0.378 OA
ENDBRANCH  16  19
ENDBRANCH   6   8
ENDBRANCH   5   6
ENDBRANCH   4   5
ENDBRANCH   3   4
ENDBRANCH   2   3
ENDBRANCH   1   2
BRANCH   1  25
ATOM     25  C   UNL A   1      36.708  20.192  24.979  1.00  0.00     0.261 C 
BRANCH  25  26
ATOM     26  O   UNL A   1      37.521  21.337  25.301  1.00  0.00    -0.460 OA
BRANCH  26  27
ATOM     27  C   UNL A   1      38.727  21.046  25.840  1.00  0.00     0.338 C 
ATOM     28  O   UNL A   1      39.349  19.994  25.751  1.00  0.00    -0.246 OA
BRANCH  27  29
ATOM     29  C   UNL A   1      39.318  22.257  26.438  1.00  0.00     0.060 A 
ATOM     30  C   UNL A   1      38.774  23.494  26.067  1.00  0.00     0.016 A 
ATOM     31  C   UNL A   1      40.422  22.195  27.292  1.00  0.00     0.016 A 
ATOM     32  C   UNL A   1      39.361  24.677  26.511  1.00  0.00     0.010 A 
ATOM     33  C   UNL A   1      41.016  23.384  27.728  1.00  0.00     0.010 A 
ATOM     34  C   UNL A   1      40.508  24.629  27.313  1.00  0.00    -0.014 A 
BRANCH  34  35
ATOM     35  C   UNL A   1      41.256  25.877  27.597  1.00  0.00     0.031 A 
ATOM     36  C   UNL A   1      40.577  26.977  28.367  1.00  0.00     0.074 A 
ATOM     37  C   UNL A   1      42.532  26.022  27.200  1.00  0.00     0.049 A 
ATOM     38  N   UNL A   1      41.031  28.157  28.705  1.00  0.00    -0.248 NA
ATOM     39  C   UNL A   1      39.201  26.709  28.814  1.00  0.00     0.031 C 
ATOM     40  C   UNL A   1      43.311  25.017  26.481  1.00  0.00     0.029 A 
ATOM     41  N   UNL A   1      43.393  27.080  27.344  1.00  0.00    -0.354 N 
ATOM     42  C   UNL A   1      39.998  28.774  29.400  1.00  0.00     0.074 A 
ATOM     43  C   UNL A   1      38.884  27.850  29.408  1.00  0.00     0.031 C 
ATOM     44  C   UNL A   1      44.537  25.511  26.237  1.00  0.00     0.029 A 
ATOM     45  C   UNL A   1      44.618  26.874  26.759  1.00  0.00     0.049 A 
ATOM     46  H   UNL A   1      43.156  27.909  27.820  1.00  0.00     0.167 HD
ATOM     47  C   UNL A   1      39.982  29.994  29.985  1.00  0.00     0.037 A 
ATOM     48  C   UNL A   1      45.676  27.699  26.644  1.00  0.00     0.037 A 
ATOM     49  C   UNL A   1      41.089  30.913  29.978  1.00  0.00     0.049 A 
ATOM     50  C   UNL A   1      45.610  29.079  27.242  1.00  0.00     0.074 A 
ATOM     51  C   UNL A   1      41.178  32.163  30.565  1.00  0.00     0.029 A 
ATOM     52  N   UNL A   1      42.300  30.682  29.343  1.00  0.00    -0.354 N 
ATOM     53  N   UNL A   1      44.639  29.642  27.919  1.00  0.00    -0.248 NA
ATOM     54  C   UNL A   1      46.790  29.939  27.059  1.00  0.00     0.031 C 
ATOM     55  C   UNL A   1      42.426  32.709  30.246  1.00  0.00     0.029 A 
ATOM     56  C   UNL A   1      43.133  31.779  29.501  1.00  0.00     0.049 A 
ATOM     57  H   UNL A   1      42.535  29.861  28.854  1.00  0.00     0.167 HD
ATOM     58  C   UNL A   1      45.097  30.907  28.265  1.00  0.00     0.074 A 
ATOM     59  C   UNL A   1      46.438  31.026  27.731  1.00  0.00     0.031 C 
ATOM     60  C   UNL A   1      44.466  31.882  28.965  1.00  0.00     0.037 A 
BRANCH  47  61
ATOM     61  C   UNL A   1      38.712  30.414  30.664  1.00  0.00     0.057 A 
ATOM     62  C   UNL A   1      38.504  30.217  32.035  1.00  0.00     0.134 A 
ATOM     63  C   UNL A   1      37.689  31.040  29.939  1.00  0.00     0.134 A 
ATOM     64  F   UNL A   1      39.437  29.609  32.783  1.00  0.00    -0.206 F 
ATOM     65  C   UNL A   1      37.315  30.605  32.656  1.00  0.00     0.040 A 
ATOM     66  C   UNL A   1      36.508  31.455  30.553  1.00  0.00     0.040 A 
ATOM     67  F   UNL A   1      37.826  31.263  28.623  1.00  0.00    -0.206 F 
ATOM     68  C   UNL A   1      36.315  31.231  31.916  1.00  0.00     0.006 A 
ENDBRANCH  47  61
BRANCH  48  69
ATOM     69  C   UNL A   1      46.892  27.246  25.924  1.00  0.00     0.057 A 
ATOM     70  C   UNL A   1      47.914  26.560  26.590  1.00  0.00     0.134 A 
ATOM     71  C   UNL A   1      47.066  27.500  24.558  1.00  0.00     0.134 A 
ATOM     72  F   UNL A   1      47.815  26.310  27.903  1.00  0.00    -0.206 F 
ATOM     73  C   UNL A   1      49.072  26.151  25.925  1.00  0.00     0.040 A 
ATOM     74  C   UNL A   1      48.209  27.078  23.877  1.00  0.00     0.040 A 
ATOM     75  F   UNL A   1      46.122  28.153  23.865  1.00  0.00    -0.206 F 
ATOM     76  C   UNL A   1      49.218  26.406  24.563  1.00  0.00     0.006 A 
ENDBRANCH  48  69
BRANCH  60  77
ATOM     77  C   UNL A   1      45.227  33.150  29.218  1.00  0.00     0.057 A 
ATOM     78  C   UNL A   1      46.068  33.299  30.328  1.00  0.00     0.134 A 
ATOM     79  C   UNL A   1      45.148  34.221  28.318  1.00  0.00     0.134 A 
ATOM     80  F   UNL A   1      46.178  32.316  31.233  1.00  0.00    -0.206 F 
ATOM     81  C   UNL A   1      46.788  34.475  30.545  1.00  0.00     0.040 A 
ATOM     82  C   UNL A   1      45.882  35.393  28.511  1.00  0.00     0.040 A 
ATOM     83  F   UNL A   1      44.367  34.141  27.230  1.00  0.00    -0.206 F 
ATOM     84  C   UNL A   1      46.701  35.524  29.631  1.00  0.00     0.006 A 
ENDBRANCH  60  77
ENDBRANCH  34  35
ENDBRANCH  27  29
ENDBRANCH  26  27
ENDBRANCH  25  26
ENDBRANCH   1  25
TORSDOF 15
ENDMDL
