MODEL 1
REMARK VINA RESULT:     -11.2      0.000      0.000
REMARK SMILES O=C(CC(=O)c1ccccc1)Nc1cccc(C(=O)OCCOCCOC(=O)c2ccc(-c3c4nc(c(-c5c(F)cccc5F)c5ccc([nH]5)c(-c5c(F)cccc5F)c5nc(c(-c6c(F)cccc6F)c6ccc3[nH]6)C=C5)C=C4)cc2)c1
REMARK SMILES IDX 22 1 21 2 20 3 18 4 19 5 17 6 13 7 14 8 83 9 15 10 16 11
REMARK SMILES IDX 12 12 1 13 2 14 3 16 4 17 5 18 6 19 7 20 11 21 8 22 10 23
REMARK SMILES IDX 9 24 23 25 24 26 25 27 26 28 27 29 28 30 29 31 30 32 82 33
REMARK SMILES IDX 31 34 81 35 32 36 33 37 34 38 75 39 35 40 80 41 74 42 76 43
REMARK SMILES IDX 36 44 79 45 73 46 72 47 37 49 63 50 46 51 62 52 47 53 50 54
REMARK SMILES IDX 61 55 77 56 48 57 49 58 60 60 78 61 51 62 38 63 39 64 44 65
REMARK SMILES IDX 40 66 41 67 43 68 45 69 42 70 64 71 65 72 70 73 66 74 67 75
REMARK SMILES IDX 69 76 71 77 68 78 52 79 53 80 58 81 54 82 55 83 57 84 59 85
REMARK SMILES IDX 56 86
REMARK H PARENT 12 15 76 48 50 59
REMARK Flexibility Score: inf
ROOT
ATOM      1  C   UNL A   1      43.525  19.822  25.846  1.00  0.00     0.202 C 
ENDROOT
BRANCH   1   2
ATOM      2  C   UNL A   1      42.110  19.327  26.166  1.00  0.00     0.261 C 
BRANCH   2   3
ATOM      3  O   UNL A   1      41.198  20.425  26.317  1.00  0.00    -0.460 OA
BRANCH   3   4
ATOM      4  C   UNL A   1      39.951  20.229  25.826  1.00  0.00     0.338 C 
ATOM      5  O   UNL A   1      39.453  19.166  25.485  1.00  0.00    -0.246 OA
BRANCH   4   6
ATOM      6  C   UNL A   1      39.174  21.484  25.947  1.00  0.00     0.062 A 
ATOM      7  C   UNL A   1      37.287  22.891  25.366  1.00  0.00     0.042 A 
ATOM      8  C   UNL A   1      37.849  23.927  26.126  1.00  0.00     0.026 A 
ATOM      9  C   UNL A   1      37.971  21.678  25.258  1.00  0.00     0.041 A 
ATOM     10  C   UNL A   1      39.049  23.734  26.817  1.00  0.00     0.003 A 
ATOM     11  C   UNL A   1      39.704  22.509  26.738  1.00  0.00     0.016 A 
BRANCH   7  12
ATOM     12  N   UNL A   1      36.021  23.128  24.788  1.00  0.00    -0.326 N 
ATOM     13  O   UNL A   1      34.636  22.823  26.638  1.00  0.00    -0.274 OA
ATOM     14  C   UNL A   1      34.810  23.137  25.464  1.00  0.00     0.232 C 
ATOM     15  H   UNL A   1      35.994  23.301  23.820  1.00  0.00     0.169 HD
BRANCH  14  16
ATOM     16  C   UNL A   1      33.654  23.624  24.641  1.00  0.00     0.181 C 
BRANCH  16  17
ATOM     17  C   UNL A   1      33.900  24.856  23.809  1.00  0.00     0.172 C 
ATOM     18  O   UNL A   1      34.194  24.761  22.617  1.00  0.00    -0.294 OA
BRANCH  17  19
ATOM     19  C   UNL A   1      33.735  26.215  24.390  1.00  0.00     0.018 A 
ATOM     20  C   UNL A   1      33.696  27.299  23.503  1.00  0.00     0.012 A 
ATOM     21  C   UNL A   1      33.718  26.454  25.768  1.00  0.00     0.012 A 
ATOM     22  C   UNL A   1      33.631  28.606  23.991  1.00  0.00     0.001 A 
ATOM     23  C   UNL A   1      33.667  27.764  26.251  1.00  0.00     0.001 A 
ATOM     24  C   UNL A   1      33.622  28.837  25.364  1.00  0.00     0.000 A 
ENDBRANCH  17  19
ENDBRANCH  16  17
ENDBRANCH  14  16
ENDBRANCH   7  12
ENDBRANCH   4   6
ENDBRANCH   3   4
ENDBRANCH   2   3
ENDBRANCH   1   2
BRANCH   1  25
ATOM     25  O   UNL A   1      43.867  19.935  24.464  1.00  0.00    -0.374 OA
BRANCH  25  26
ATOM     26  C   UNL A   1      44.673  21.048  24.076  1.00  0.00     0.202 C 
BRANCH  26  27
ATOM     27  C   UNL A   1      44.865  22.164  25.109  1.00  0.00     0.261 C 
BRANCH  27  28
ATOM     28  O   UNL A   1      44.064  23.323  24.821  1.00  0.00    -0.460 OA
BRANCH  28  29
ATOM     29  C   UNL A   1      44.641  24.499  25.162  1.00  0.00     0.338 C 
ATOM     30  O   UNL A   1      45.691  24.958  24.742  1.00  0.00    -0.246 OA
BRANCH  29  31
ATOM     31  C   UNL A   1      43.737  25.278  26.026  1.00  0.00     0.060 A 
ATOM     32  C   UNL A   1      43.960  26.658  26.108  1.00  0.00     0.016 A 
ATOM     33  C   UNL A   1      42.762  24.666  26.818  1.00  0.00     0.016 A 
ATOM     34  C   UNL A   1      43.258  27.423  27.034  1.00  0.00     0.010 A 
ATOM     35  C   UNL A   1      42.059  25.437  27.751  1.00  0.00     0.010 A 
ATOM     36  C   UNL A   1      42.339  26.808  27.895  1.00  0.00    -0.014 A 
BRANCH  36  37
ATOM     37  C   UNL A   1      41.811  27.576  29.049  1.00  0.00     0.031 A 
ATOM     38  C   UNL A   1      42.522  27.487  30.373  1.00  0.00     0.074 A 
ATOM     39  C   UNL A   1      40.747  28.385  28.909  1.00  0.00     0.049 A 
ATOM     40  N   UNL A   1      42.248  28.080  31.507  1.00  0.00    -0.248 NA
ATOM     41  C   UNL A   1      43.703  26.610  30.423  1.00  0.00     0.031 C 
ATOM     42  C   UNL A   1      39.993  28.584  27.673  1.00  0.00     0.029 A 
ATOM     43  N   UNL A   1      40.120  29.196  29.821  1.00  0.00    -0.354 N 
ATOM     44  C   UNL A   1      43.213  27.643  32.405  1.00  0.00     0.074 A 
ATOM     45  C   UNL A   1      44.058  26.706  31.696  1.00  0.00     0.031 C 
ATOM     46  C   UNL A   1      39.002  29.461  27.904  1.00  0.00     0.029 A 
ATOM     47  C   UNL A   1      39.036  29.864  29.309  1.00  0.00     0.049 A 
ATOM     48  H   UNL A   1      40.420  29.290  30.754  1.00  0.00     0.167 HD
ATOM     49  C   UNL A   1      43.391  28.000  33.700  1.00  0.00     0.037 A 
ATOM     50  C   UNL A   1      38.164  30.695  29.910  1.00  0.00     0.037 A 
ATOM     51  C   UNL A   1      42.552  28.934  34.404  1.00  0.00     0.049 A 
ATOM     52  C   UNL A   1      38.348  31.034  31.366  1.00  0.00     0.074 A 
ATOM     53  C   UNL A   1      42.658  29.374  35.713  1.00  0.00     0.029 A 
ATOM     54  N   UNL A   1      41.444  29.568  33.858  1.00  0.00    -0.354 N 
ATOM     55  N   UNL A   1      39.280  30.636  32.199  1.00  0.00    -0.248 NA
ATOM     56  C   UNL A   1      37.362  31.947  31.961  1.00  0.00     0.031 C 
ATOM     57  C   UNL A   1      41.585  30.232  35.974  1.00  0.00     0.029 A 
ATOM     58  C   UNL A   1      40.846  30.377  34.811  1.00  0.00     0.049 A 
ATOM     59  H   UNL A   1      41.131  29.458  32.932  1.00  0.00     0.167 HD
ATOM     60  C   UNL A   1      39.012  31.275  33.404  1.00  0.00     0.074 A 
ATOM     61  C   UNL A   1      37.839  32.097  33.188  1.00  0.00     0.031 C 
ATOM     62  C   UNL A   1      39.680  31.194  34.582  1.00  0.00     0.037 A 
BRANCH  49  63
ATOM     63  C   UNL A   1      44.523  27.351  34.445  1.00  0.00     0.057 A 
ATOM     64  C   UNL A   1      45.800  27.924  34.503  1.00  0.00     0.134 A 
ATOM     65  C   UNL A   1      44.326  26.145  35.130  1.00  0.00     0.134 A 
ATOM     66  F   UNL A   1      46.061  29.071  33.858  1.00  0.00    -0.206 F 
ATOM     67  C   UNL A   1      46.848  27.307  35.189  1.00  0.00     0.040 A 
ATOM     68  C   UNL A   1      45.358  25.533  35.844  1.00  0.00     0.040 A 
ATOM     69  F   UNL A   1      43.127  25.543  35.120  1.00  0.00    -0.206 F 
ATOM     70  C   UNL A   1      46.626  26.111  35.868  1.00  0.00     0.006 A 
ENDBRANCH  49  63
BRANCH  50  71
ATOM     71  C   UNL A   1      37.033  31.269  29.137  1.00  0.00     0.057 A 
ATOM     72  C   UNL A   1      37.060  32.593  28.683  1.00  0.00     0.134 A 
ATOM     73  C   UNL A   1      35.888  30.514  28.854  1.00  0.00     0.134 A 
ATOM     74  F   UNL A   1      38.119  33.374  28.943  1.00  0.00    -0.206 F 
ATOM     75  C   UNL A   1      35.984  33.151  27.992  1.00  0.00     0.040 A 
ATOM     76  C   UNL A   1      34.816  31.051  28.140  1.00  0.00     0.040 A 
ATOM     77  F   UNL A   1      35.799  29.240  29.261  1.00  0.00    -0.206 F 
ATOM     78  C   UNL A   1      34.859  32.377  27.714  1.00  0.00     0.006 A 
ENDBRANCH  50  71
BRANCH  62  79
ATOM     79  C   UNL A   1      39.183  32.049  35.714  1.00  0.00     0.057 A 
ATOM     80  C   UNL A   1      38.288  31.567  36.677  1.00  0.00     0.134 A 
ATOM     81  C   UNL A   1      39.624  33.373  35.849  1.00  0.00     0.134 A 
ATOM     82  F   UNL A   1      37.817  30.312  36.600  1.00  0.00    -0.206 F 
ATOM     83  C   UNL A   1      37.819  32.379  37.711  1.00  0.00     0.040 A 
ATOM     84  C   UNL A   1      39.188  34.185  36.898  1.00  0.00     0.040 A 
ATOM     85  F   UNL A   1      40.492  33.896  34.971  1.00  0.00    -0.206 F 
ATOM     86  C   UNL A   1      38.274  33.692  37.826  1.00  0.00     0.006 A 
ENDBRANCH  62  79
ENDBRANCH  36  37
ENDBRANCH  29  31
ENDBRANCH  28  29
ENDBRANCH  27  28
ENDBRANCH  26  27
ENDBRANCH  25  26
ENDBRANCH   1  25
TORSDOF 18
ENDMDL
MODEL 2
REMARK VINA RESULT:     -10.9      4.766     10.958
REMARK SMILES O=C(CC(=O)c1ccccc1)Nc1cccc(C(=O)OCCOCCOC(=O)c2ccc(-c3c4nc(c(-c5c(F)cccc5F)c5ccc([nH]5)c(-c5c(F)cccc5F)c5nc(c(-c6c(F)cccc6F)c6ccc3[nH]6)C=C5)C=C4)cc2)c1
REMARK SMILES IDX 22 1 21 2 20 3 18 4 19 5 17 6 13 7 14 8 83 9 15 10 16 11
REMARK SMILES IDX 12 12 1 13 2 14 3 16 4 17 5 18 6 19 7 20 11 21 8 22 10 23
REMARK SMILES IDX 9 24 23 25 24 26 25 27 26 28 27 29 28 30 29 31 30 32 82 33
REMARK SMILES IDX 31 34 81 35 32 36 33 37 34 38 75 39 35 40 80 41 74 42 76 43
REMARK SMILES IDX 36 44 79 45 73 46 72 47 37 49 63 50 46 51 62 52 47 53 50 54
REMARK SMILES IDX 61 55 77 56 48 57 49 58 60 60 78 61 51 62 38 63 39 64 44 65
REMARK SMILES IDX 40 66 41 67 43 68 45 69 42 70 64 71 65 72 70 73 66 74 67 75
REMARK SMILES IDX 69 76 71 77 68 78 52 79 53 80 58 81 54 82 55 83 57 84 59 85
REMARK SMILES IDX 56 86
REMARK H PARENT 12 15 76 48 50 59
REMARK Flexibility Score: inf
ROOT
ATOM      1  C   UNL A   1      35.149  34.923  34.170  1.00  0.00     0.202 C 
ENDROOT
BRANCH   1   2
ATOM      2  C   UNL A   1      36.159  33.917  33.605  1.00  0.00     0.261 C 
BRANCH   2   3
ATOM      3  O   UNL A   1      36.371  32.828  34.517  1.00  0.00    -0.460 OA
BRANCH   3   4
ATOM      4  C   UNL A   1      37.664  32.530  34.791  1.00  0.00     0.338 C 
ATOM      5  O   UNL A   1      38.397  33.099  35.588  1.00  0.00    -0.246 OA
BRANCH   4   6
ATOM      6  C   UNL A   1      38.026  31.258  34.124  1.00  0.00     0.062 A 
ATOM      7  C   UNL A   1      39.589  29.469  33.646  1.00  0.00     0.042 A 
ATOM      8  C   UNL A   1      38.675  28.941  32.723  1.00  0.00     0.026 A 
ATOM      9  C   UNL A   1      39.269  30.647  34.324  1.00  0.00     0.041 A 
ATOM     10  C   UNL A   1      37.432  29.549  32.525  1.00  0.00     0.003 A 
ATOM     11  C   UNL A   1      37.102  30.700  33.235  1.00  0.00     0.016 A 
BRANCH   7  12
ATOM     12  N   UNL A   1      40.776  28.736  33.870  1.00  0.00    -0.326 N 
ATOM     13  O   UNL A   1      40.750  28.568  36.194  1.00  0.00    -0.274 OA
ATOM     14  C   UNL A   1      41.235  28.292  35.100  1.00  0.00     0.232 C 
ATOM     15  H   UNL A   1      41.327  28.523  33.082  1.00  0.00     0.169 HD
BRANCH  14  16
ATOM     16  C   UNL A   1      42.408  27.361  35.015  1.00  0.00     0.181 C 
BRANCH  16  17
ATOM     17  C   UNL A   1      42.105  25.892  35.158  1.00  0.00     0.172 C 
ATOM     18  O   UNL A   1      41.026  25.516  35.616  1.00  0.00    -0.294 OA
BRANCH  17  19
ATOM     19  C   UNL A   1      43.074  24.864  34.694  1.00  0.00     0.018 A 
ATOM     20  C   UNL A   1      43.981  25.233  33.693  1.00  0.00     0.012 A 
ATOM     21  C   UNL A   1      43.047  23.540  35.143  1.00  0.00     0.012 A 
ATOM     22  C   UNL A   1      44.857  24.288  33.153  1.00  0.00     0.001 A 
ATOM     23  C   UNL A   1      43.915  22.595  34.590  1.00  0.00     0.001 A 
ATOM     24  C   UNL A   1      44.819  22.969  33.598  1.00  0.00     0.000 A 
ENDBRANCH  17  19
ENDBRANCH  16  17
ENDBRANCH  14  16
ENDBRANCH   7  12
ENDBRANCH   4   6
ENDBRANCH   3   4
ENDBRANCH   2   3
ENDBRANCH   1   2
BRANCH   1  25
ATOM     25  O   UNL A   1      33.942  35.103  33.429  1.00  0.00    -0.374 OA
BRANCH  25  26
ATOM     26  C   UNL A   1      33.729  36.377  32.820  1.00  0.00     0.202 C 
BRANCH  26  27
ATOM     27  C   UNL A   1      33.090  36.387  31.427  1.00  0.00     0.261 C 
BRANCH  27  28
ATOM     28  O   UNL A   1      32.874  35.063  30.912  1.00  0.00    -0.460 OA
BRANCH  28  29
ATOM     29  C   UNL A   1      33.221  34.906  29.612  1.00  0.00     0.338 C 
ATOM     30  O   UNL A   1      32.724  35.454  28.642  1.00  0.00    -0.246 OA
BRANCH  29  31
ATOM     31  C   UNL A   1      34.432  34.074  29.505  1.00  0.00     0.060 A 
ATOM     32  C   UNL A   1      34.540  32.986  30.381  1.00  0.00     0.016 A 
ATOM     33  C   UNL A   1      35.483  34.404  28.646  1.00  0.00     0.016 A 
ATOM     34  C   UNL A   1      35.728  32.265  30.452  1.00  0.00     0.010 A 
ATOM     35  C   UNL A   1      36.678  33.679  28.722  1.00  0.00     0.010 A 
ATOM     36  C   UNL A   1      36.821  32.639  29.658  1.00  0.00    -0.014 A 
BRANCH  36  37
ATOM     37  C   UNL A   1      38.152  32.048  29.942  1.00  0.00     0.031 A 
ATOM     38  C   UNL A   1      39.110  32.796  30.829  1.00  0.00     0.074 A 
ATOM     39  C   UNL A   1      38.483  30.835  29.464  1.00  0.00     0.049 A 
ATOM     40  N   UNL A   1      40.313  32.466  31.221  1.00  0.00    -0.248 NA
ATOM     41  C   UNL A   1      38.647  34.097  31.342  1.00  0.00     0.031 C 
ATOM     42  C   UNL A   1      37.631  29.997  28.624  1.00  0.00     0.029 A 
ATOM     43  N   UNL A   1      39.628  30.099  29.626  1.00  0.00    -0.354 N 
ATOM     44  C   UNL A   1      40.754  33.515  32.018  1.00  0.00     0.074 A 
ATOM     45  C   UNL A   1      39.704  34.512  32.023  1.00  0.00     0.031 C 
ATOM     46  C   UNL A   1      38.285  28.858  28.341  1.00  0.00     0.029 A 
ATOM     47  C   UNL A   1      39.610  28.900  28.958  1.00  0.00     0.049 A 
ATOM     48  H   UNL A   1      40.392  30.401  30.169  1.00  0.00     0.167 HD
ATOM     49  C   UNL A   1      41.920  33.633  32.697  1.00  0.00     0.037 A 
ATOM     50  C   UNL A   1      40.559  27.952  28.848  1.00  0.00     0.037 A 
ATOM     51  C   UNL A   1      42.962  32.640  32.695  1.00  0.00     0.049 A 
ATOM     52  C   UNL A   1      41.871  28.131  29.566  1.00  0.00     0.074 A 
ATOM     53  C   UNL A   1      44.174  32.659  33.363  1.00  0.00     0.029 A 
ATOM     54  N   UNL A   1      42.918  31.451  31.981  1.00  0.00    -0.354 N 
ATOM     55  N   UNL A   1      42.266  29.115  30.337  1.00  0.00    -0.248 NA
ATOM     56  C   UNL A   1      42.864  27.060  29.404  1.00  0.00     0.031 C 
ATOM     57  C   UNL A   1      44.885  31.506  33.012  1.00  0.00     0.029 A 
ATOM     58  C   UNL A   1      44.090  30.739  32.175  1.00  0.00     0.049 A 
ATOM     59  H   UNL A   1      42.164  31.157  31.421  1.00  0.00     0.167 HD
ATOM     60  C   UNL A   1      43.537  28.766  30.779  1.00  0.00     0.074 A 
ATOM     61  C   UNL A   1      43.839  27.473  30.200  1.00  0.00     0.031 C 
ATOM     62  C   UNL A   1      44.377  29.451  31.595  1.00  0.00     0.037 A 
BRANCH  49  63
ATOM     63  C   UNL A   1      42.138  34.899  33.476  1.00  0.00     0.057 A 
ATOM     64  C   UNL A   1      42.768  36.019  32.917  1.00  0.00     0.134 A 
ATOM     65  C   UNL A   1      41.694  35.005  34.801  1.00  0.00     0.134 A 
ATOM     66  F   UNL A   1      43.230  35.980  31.658  1.00  0.00    -0.206 F 
ATOM     67  C   UNL A   1      42.975  37.186  33.654  1.00  0.00     0.040 A 
ATOM     68  C   UNL A   1      41.869  36.177  35.540  1.00  0.00     0.040 A 
ATOM     69  F   UNL A   1      41.078  33.974  35.398  1.00  0.00    -0.206 F 
ATOM     70  C   UNL A   1      42.519  37.270  34.968  1.00  0.00     0.006 A 
ENDBRANCH  49  63
BRANCH  50  71
ATOM     71  C   UNL A   1      40.308  26.743  28.023  1.00  0.00     0.057 A 
ATOM     72  C   UNL A   1      40.832  26.622  26.730  1.00  0.00     0.134 A 
ATOM     73  C   UNL A   1      39.518  25.689  28.499  1.00  0.00     0.134 A 
ATOM     74  F   UNL A   1      41.576  27.608  26.209  1.00  0.00    -0.206 F 
ATOM     75  C   UNL A   1      40.566  25.507  25.935  1.00  0.00     0.040 A 
ATOM     76  C   UNL A   1      39.266  24.556  27.725  1.00  0.00     0.040 A 
ATOM     77  F   UNL A   1      38.986  25.743  29.729  1.00  0.00    -0.206 F 
ATOM     78  C   UNL A   1      39.784  24.466  26.435  1.00  0.00     0.006 A 
ENDBRANCH  50  71
BRANCH  62  79
ATOM     79  C   UNL A   1      45.683  28.794  31.945  1.00  0.00     0.057 A 
ATOM     80  C   UNL A   1      45.906  28.189  33.188  1.00  0.00     0.134 A 
ATOM     81  C   UNL A   1      46.729  28.754  31.012  1.00  0.00     0.134 A 
ATOM     82  F   UNL A   1      44.951  28.201  34.131  1.00  0.00    -0.206 F 
ATOM     83  C   UNL A   1      47.132  27.600  33.505  1.00  0.00     0.040 A 
ATOM     84  C   UNL A   1      47.947  28.139  31.305  1.00  0.00     0.040 A 
ATOM     85  F   UNL A   1      46.581  29.302  29.797  1.00  0.00    -0.206 F 
ATOM     86  C   UNL A   1      48.155  27.570  32.560  1.00  0.00     0.006 A 
ENDBRANCH  62  79
ENDBRANCH  36  37
ENDBRANCH  29  31
ENDBRANCH  28  29
ENDBRANCH  27  28
ENDBRANCH  26  27
ENDBRANCH  25  26
ENDBRANCH   1  25
TORSDOF 18
ENDMDL
MODEL 3
REMARK VINA RESULT:     -10.9      4.778     11.161
REMARK SMILES O=C(CC(=O)c1ccccc1)Nc1cccc(C(=O)OCCOCCOC(=O)c2ccc(-c3c4nc(c(-c5c(F)cccc5F)c5ccc([nH]5)c(-c5c(F)cccc5F)c5nc(c(-c6c(F)cccc6F)c6ccc3[nH]6)C=C5)C=C4)cc2)c1
REMARK SMILES IDX 22 1 21 2 20 3 18 4 19 5 17 6 13 7 14 8 83 9 15 10 16 11
REMARK SMILES IDX 12 12 1 13 2 14 3 16 4 17 5 18 6 19 7 20 11 21 8 22 10 23
REMARK SMILES IDX 9 24 23 25 24 26 25 27 26 28 27 29 28 30 29 31 30 32 82 33
REMARK SMILES IDX 31 34 81 35 32 36 33 37 34 38 75 39 35 40 80 41 74 42 76 43
REMARK SMILES IDX 36 44 79 45 73 46 72 47 37 49 63 50 46 51 62 52 47 53 50 54
REMARK SMILES IDX 61 55 77 56 48 57 49 58 60 60 78 61 51 62 38 63 39 64 44 65
REMARK SMILES IDX 40 66 41 67 43 68 45 69 42 70 64 71 65 72 70 73 66 74 67 75
REMARK SMILES IDX 69 76 71 77 68 78 52 79 53 80 58 81 54 82 55 83 57 84 59 85
REMARK SMILES IDX 56 86
REMARK H PARENT 12 15 76 48 50 59
REMARK Flexibility Score: inf
ROOT
ATOM      1  C   UNL A   1      35.028  34.942  33.629  1.00  0.00     0.202 C 
ENDROOT
BRANCH   1   2
ATOM      2  C   UNL A   1      35.390  33.455  33.546  1.00  0.00     0.261 C 
BRANCH   2   3
ATOM      3  O   UNL A   1      36.098  33.027  34.720  1.00  0.00    -0.460 OA
BRANCH   3   4
ATOM      4  C   UNL A   1      37.442  32.922  34.593  1.00  0.00     0.338 C 
ATOM      5  O   UNL A   1      38.284  33.705  35.010  1.00  0.00    -0.246 OA
BRANCH   4   6
ATOM      6  C   UNL A   1      37.779  31.589  34.041  1.00  0.00     0.062 A 
ATOM      7  C   UNL A   1      39.324  29.755  33.683  1.00  0.00     0.042 A 
ATOM      8  C   UNL A   1      38.377  29.144  32.850  1.00  0.00     0.026 A 
ATOM      9  C   UNL A   1      39.028  30.995  34.255  1.00  0.00     0.041 A 
ATOM     10  C   UNL A   1      37.128  29.736  32.637  1.00  0.00     0.003 A 
ATOM     11  C   UNL A   1      36.824  30.951  33.243  1.00  0.00     0.016 A 
BRANCH   7  12
ATOM     12  N   UNL A   1      40.517  29.043  33.935  1.00  0.00    -0.326 N 
ATOM     13  O   UNL A   1      40.630  29.194  36.258  1.00  0.00    -0.274 OA
ATOM     14  C   UNL A   1      41.046  28.765  35.186  1.00  0.00     0.232 C 
ATOM     15  H   UNL A   1      41.018  28.716  33.154  1.00  0.00     0.169 HD
BRANCH  14  16
ATOM     16  C   UNL A   1      42.207  27.813  35.160  1.00  0.00     0.181 C 
BRANCH  16  17
ATOM     17  C   UNL A   1      41.865  26.346  35.130  1.00  0.00     0.172 C 
ATOM     18  O   UNL A   1      40.745  25.956  35.460  1.00  0.00    -0.294 OA
BRANCH  17  19
ATOM     19  C   UNL A   1      42.849  25.343  34.644  1.00  0.00     0.018 A 
ATOM     20  C   UNL A   1      43.799  25.769  33.707  1.00  0.00     0.012 A 
ATOM     21  C   UNL A   1      42.799  23.994  35.006  1.00  0.00     0.012 A 
ATOM     22  C   UNL A   1      44.694  24.855  33.146  1.00  0.00     0.001 A 
ATOM     23  C   UNL A   1      43.686  23.080  34.432  1.00  0.00     0.001 A 
ATOM     24  C   UNL A   1      44.633  23.510  33.505  1.00  0.00     0.000 A 
ENDBRANCH  17  19
ENDBRANCH  16  17
ENDBRANCH  14  16
ENDBRANCH   7  12
ENDBRANCH   4   6
ENDBRANCH   3   4
ENDBRANCH   2   3
ENDBRANCH   1   2
BRANCH   1  25
ATOM     25  O   UNL A   1      33.772  35.328  33.069  1.00  0.00    -0.374 OA
BRANCH  25  26
ATOM     26  C   UNL A   1      33.754  36.487  32.236  1.00  0.00     0.202 C 
BRANCH  26  27
ATOM     27  C   UNL A   1      33.111  36.343  30.852  1.00  0.00     0.261 C 
BRANCH  27  28
ATOM     28  O   UNL A   1      32.825  34.974  30.520  1.00  0.00    -0.460 OA
BRANCH  28  29
ATOM     29  C   UNL A   1      33.170  34.622  29.259  1.00  0.00     0.338 C 
ATOM     30  O   UNL A   1      32.624  34.958  28.220  1.00  0.00    -0.246 OA
BRANCH  29  31
ATOM     31  C   UNL A   1      34.439  33.873  29.268  1.00  0.00     0.060 A 
ATOM     32  C   UNL A   1      34.541  32.797  30.158  1.00  0.00     0.016 A 
ATOM     33  C   UNL A   1      35.539  34.272  28.505  1.00  0.00     0.016 A 
ATOM     34  C   UNL A   1      35.763  32.158  30.342  1.00  0.00     0.010 A 
ATOM     35  C   UNL A   1      36.769  33.630  28.694  1.00  0.00     0.010 A 
ATOM     36  C   UNL A   1      36.895  32.603  29.647  1.00  0.00    -0.014 A 
BRANCH  36  37
ATOM     37  C   UNL A   1      38.232  32.104  30.055  1.00  0.00     0.031 A 
ATOM     38  C   UNL A   1      38.706  30.776  29.530  1.00  0.00     0.074 A 
ATOM     39  C   UNL A   1      39.036  32.847  30.835  1.00  0.00     0.049 A 
ATOM     40  N   UNL A   1      39.838  30.153  29.741  1.00  0.00    -0.248 NA
ATOM     41  C   UNL A   1      37.777  30.051  28.648  1.00  0.00     0.031 C 
ATOM     42  C   UNL A   1      38.706  34.162  31.379  1.00  0.00     0.029 A 
ATOM     43  N   UNL A   1      40.302  32.596  31.300  1.00  0.00    -0.354 N 
ATOM     44  C   UNL A   1      39.755  28.964  29.027  1.00  0.00     0.074 A 
ATOM     45  C   UNL A   1      38.447  28.934  28.407  1.00  0.00     0.031 C 
ATOM     46  C   UNL A   1      39.744  34.605  32.107  1.00  0.00     0.029 A 
ATOM     47  C   UNL A   1      40.800  33.593  32.102  1.00  0.00     0.049 A 
ATOM     48  H   UNL A   1      40.806  31.779  31.080  1.00  0.00     0.167 HD
ATOM     49  C   UNL A   1      40.687  27.992  28.886  1.00  0.00     0.037 A 
ATOM     50  C   UNL A   1      41.968  33.672  32.765  1.00  0.00     0.037 A 
ATOM     51  C   UNL A   1      41.989  28.024  29.500  1.00  0.00     0.049 A 
ATOM     52  C   UNL A   1      42.968  32.552  32.640  1.00  0.00     0.074 A 
ATOM     53  C   UNL A   1      43.012  27.096  29.407  1.00  0.00     0.029 A 
ATOM     54  N   UNL A   1      42.446  29.039  30.330  1.00  0.00    -0.354 N 
ATOM     55  N   UNL A   1      42.889  31.445  31.941  1.00  0.00    -0.248 NA
ATOM     56  C   UNL A   1      44.223  32.700  33.390  1.00  0.00     0.031 C 
ATOM     57  C   UNL A   1      44.066  27.523  30.221  1.00  0.00     0.029 A 
ATOM     58  C   UNL A   1      43.726  28.747  30.773  1.00  0.00     0.049 A 
ATOM     59  H   UNL A   1      41.935  29.846  30.568  1.00  0.00     0.167 HD
ATOM     60  C   UNL A   1      44.096  30.783  32.139  1.00  0.00     0.074 A 
ATOM     61  C   UNL A   1      44.892  31.620  33.012  1.00  0.00     0.031 C 
ATOM     62  C   UNL A   1      44.510  29.591  31.640  1.00  0.00     0.037 A 
BRANCH  49  63
ATOM     63  C   UNL A   1      40.317  26.796  28.057  1.00  0.00     0.057 A 
ATOM     64  C   UNL A   1      40.796  26.618  26.751  1.00  0.00     0.134 A 
ATOM     65  C   UNL A   1      39.483  25.798  28.578  1.00  0.00     0.134 A 
ATOM     66  F   UNL A   1      41.586  27.543  26.186  1.00  0.00    -0.206 F 
ATOM     67  C   UNL A   1      40.435  25.508  25.985  1.00  0.00     0.040 A 
ATOM     68  C   UNL A   1      39.140  24.668  27.833  1.00  0.00     0.040 A 
ATOM     69  F   UNL A   1      38.993  25.901  29.822  1.00  0.00    -0.206 F 
ATOM     70  C   UNL A   1      39.610  24.525  26.529  1.00  0.00     0.006 A 
ENDBRANCH  49  63
BRANCH  50  71
ATOM     71  C   UNL A   1      42.263  34.856  33.612  1.00  0.00     0.057 A 
ATOM     72  C   UNL A   1      41.903  34.892  34.964  1.00  0.00     0.134 A 
ATOM     73  C   UNL A   1      42.891  35.990  33.082  1.00  0.00     0.134 A 
ATOM     74  F   UNL A   1      41.276  33.846  35.523  1.00  0.00    -0.206 F 
ATOM     75  C   UNL A   1      42.139  36.017  35.754  1.00  0.00     0.040 A 
ATOM     76  C   UNL A   1      43.158  37.112  33.868  1.00  0.00     0.040 A 
ATOM     77  F   UNL A   1      43.261  36.020  31.794  1.00  0.00    -0.206 F 
ATOM     78  C   UNL A   1      42.774  37.130  35.207  1.00  0.00     0.006 A 
ENDBRANCH  50  71
BRANCH  62  79
ATOM     79  C   UNL A   1      45.902  29.146  31.990  1.00  0.00     0.057 A 
ATOM     80  C   UNL A   1      46.978  29.291  31.105  1.00  0.00     0.134 A 
ATOM     81  C   UNL A   1      46.170  28.576  33.243  1.00  0.00     0.134 A 
ATOM     82  F   UNL A   1      46.788  29.818  29.886  1.00  0.00    -0.206 F 
ATOM     83  C   UNL A   1      48.261  28.854  31.437  1.00  0.00     0.040 A 
ATOM     84  C   UNL A   1      47.455  28.165  33.598  1.00  0.00     0.040 A 
ATOM     85  F   UNL A   1      45.190  28.418  34.144  1.00  0.00    -0.206 F 
ATOM     86  C   UNL A   1      48.504  28.293  32.690  1.00  0.00     0.006 A 
ENDBRANCH  62  79
ENDBRANCH  36  37
ENDBRANCH  29  31
ENDBRANCH  28  29
ENDBRANCH  27  28
ENDBRANCH  26  27
ENDBRANCH  25  26
ENDBRANCH   1  25
TORSDOF 18
ENDMDL
