MODEL 1
REMARK VINA RESULT:     -12.5      0.000      0.000
REMARK SMILES O=C1NC(=O)/C(=C/c2ccc(OCc3cn(-c4ccc(C(=O)OCCOCCOC(=O)c5ccc(-c6c7nc(c(-c8c(F)cccc8F)c8ccc([nH]8)c(-c8c(F)cccc8F)c8nc(c(-c9c(F)cccc9F)c9ccc6[nH]9)C=C8)C=C7)cc5)cc4)nn3)cc2)S1
REMARK SMILES IDX 24 1 23 2 21 3 22 4 20 5 17 6 18 7 87 8 19 9 86 10 16 11
REMARK SMILES IDX 14 12 15 13 89 14 88 15 13 16 12 17 11 18 8 19 9 20 91 21
REMARK SMILES IDX 10 22 90 23 7 24 1 25 2 26 3 27 92 28 4 29 6 31 5 32 25 33
REMARK SMILES IDX 26 34 27 35 28 36 29 37 30 38 31 39 32 40 33 41 85 42 34 43
REMARK SMILES IDX 84 44 35 45 36 46 37 47 78 48 38 49 83 50 77 51 79 52 39 53
REMARK SMILES IDX 82 54 76 55 75 56 40 58 66 59 49 60 65 61 50 62 53 63 64 64
REMARK SMILES IDX 80 65 51 66 52 67 63 69 81 70 54 71 41 72 42 73 47 74 43 75
REMARK SMILES IDX 44 76 46 77 48 78 45 79 67 80 68 81 73 82 69 83 70 84 72 85
REMARK SMILES IDX 74 86 71 87 55 88 56 89 61 90 57 91 58 92 60 93 62 94 59 95
REMARK H PARENT 3 30 79 57 53 68
REMARK Flexibility Score: inf
ROOT
ATOM      1  C   UNL A   1      33.992  32.221  28.590  1.00  0.00     0.261 C 
ENDROOT
BRANCH   1   2
ATOM      2  O   UNL A   1      33.906  31.614  27.293  1.00  0.00    -0.460 OA
BRANCH   2   3
ATOM      3  C   UNL A   1      32.677  31.128  26.999  1.00  0.00     0.338 C 
ATOM      4  O   UNL A   1      31.692  31.766  26.666  1.00  0.00    -0.246 OA
BRANCH   3   5
ATOM      5  C   UNL A   1      32.704  29.657  26.960  1.00  0.00     0.060 A 
ATOM      6  C   UNL A   1      32.697  26.925  26.490  1.00  0.00     0.066 A 
ATOM      7  C   UNL A   1      33.814  27.685  26.119  1.00  0.00     0.029 A 
ATOM      8  C   UNL A   1      31.632  27.510  27.190  1.00  0.00     0.029 A 
ATOM      9  C   UNL A   1      33.797  29.058  26.321  1.00  0.00     0.018 A 
ATOM     10  C   UNL A   1      31.651  28.883  27.452  1.00  0.00     0.018 A 
BRANCH   6  11
ATOM     11  N   UNL A   1      32.621  25.592  26.036  1.00  0.00    -0.220 N 
ATOM     12  C   UNL A   1      33.099  23.537  25.486  1.00  0.00     0.120 A 
ATOM     13  C   UNL A   1      33.635  24.807  25.537  1.00  0.00     0.144 A 
ATOM     14  N   UNL A   1      31.796  23.598  25.900  1.00  0.00    -0.131 NA
ATOM     15  N   UNL A   1      31.516  24.843  26.235  1.00  0.00    -0.062 NA
BRANCH  12  16
ATOM     16  C   UNL A   1      33.738  22.219  25.189  1.00  0.00     0.289 C 
BRANCH  16  17
ATOM     17  O   UNL A   1      34.818  22.261  24.243  1.00  0.00    -0.487 OA
BRANCH  17  18
ATOM     18  C   UNL A   1      36.096  22.322  24.727  1.00  0.00     0.119 A 
ATOM     19  C   UNL A   1      38.607  22.157  25.976  1.00  0.00    -0.024 A 
ATOM     20  C   UNL A   1      37.990  21.004  25.486  1.00  0.00     0.012 A 
ATOM     21  C   UNL A   1      38.005  23.398  25.754  1.00  0.00     0.012 A 
ATOM     22  C   UNL A   1      36.737  21.090  24.869  1.00  0.00     0.047 A 
ATOM     23  C   UNL A   1      36.771  23.480  25.109  1.00  0.00     0.047 A 
BRANCH  19  24
ATOM     24  C   UNL A   1      39.880  22.078  26.699  1.00  0.00     0.029 C 
ATOM     25  O   UNL A   1      42.589  17.871  26.092  1.00  0.00    -0.261 OA
ATOM     26  C   UNL A   1      42.107  18.957  26.389  1.00  0.00     0.290 C 
ATOM     27  N   UNL A   1      42.624  19.833  27.283  1.00  0.00    -0.282 N 
ATOM     28  S   UNL A   1      40.634  19.607  25.704  1.00  0.00    -0.022 SA
ATOM     29  C   UNL A   1      41.962  21.006  27.490  1.00  0.00     0.265 C 
ATOM     30  H   UNL A   1      43.454  19.627  27.771  1.00  0.00     0.174 HD
ATOM     31  C   UNL A   1      40.735  21.047  26.651  1.00  0.00     0.083 C 
ATOM     32  O   UNL A   1      42.320  21.882  28.260  1.00  0.00    -0.268 OA
ENDBRANCH  19  24
ENDBRANCH  17  18
ENDBRANCH  16  17
ENDBRANCH  12  16
ENDBRANCH   6  11
ENDBRANCH   3   5
ENDBRANCH   2   3
ENDBRANCH   1   2
BRANCH   1  33
ATOM     33  C   UNL A   1      34.048  33.747  28.532  1.00  0.00     0.202 C 
BRANCH  33  34
ATOM     34  O   UNL A   1      32.885  34.504  28.863  1.00  0.00    -0.374 OA
BRANCH  34  35
ATOM     35  C   UNL A   1      32.952  35.917  29.018  1.00  0.00     0.202 C 
BRANCH  35  36
ATOM     36  C   UNL A   1      32.736  36.520  30.398  1.00  0.00     0.261 C 
BRANCH  36  37
ATOM     37  O   UNL A   1      33.682  36.037  31.335  1.00  0.00    -0.460 OA
BRANCH  37  38
ATOM     38  C   UNL A   1      33.159  35.160  32.221  1.00  0.00     0.338 C 
ATOM     39  O   UNL A   1      31.988  35.025  32.531  1.00  0.00    -0.246 OA
BRANCH  38  40
ATOM     40  C   UNL A   1      34.264  34.481  32.900  1.00  0.00     0.060 A 
ATOM     41  C   UNL A   1      35.406  35.261  33.080  1.00  0.00     0.016 A 
ATOM     42  C   UNL A   1      34.296  33.080  32.894  1.00  0.00     0.016 A 
ATOM     43  C   UNL A   1      36.620  34.648  32.916  1.00  0.00     0.010 A 
ATOM     44  C   UNL A   1      35.508  32.474  32.703  1.00  0.00     0.010 A 
ATOM     45  C   UNL A   1      36.636  33.284  32.610  1.00  0.00    -0.014 A 
BRANCH  45  46
ATOM     46  C   UNL A   1      37.911  32.672  32.328  1.00  0.00     0.031 A 
ATOM     47  C   UNL A   1      38.751  32.639  33.542  1.00  0.00     0.074 A 
ATOM     48  C   UNL A   1      38.193  32.126  31.131  1.00  0.00     0.049 A 
ATOM     49  N   UNL A   1      39.804  33.343  33.786  1.00  0.00    -0.248 NA
ATOM     50  C   UNL A   1      38.206  31.941  34.721  1.00  0.00     0.031 C 
ATOM     51  C   UNL A   1      37.298  31.919  29.989  1.00  0.00     0.029 A 
ATOM     52  N   UNL A   1      39.349  31.538  30.723  1.00  0.00    -0.354 N 
ATOM     53  C   UNL A   1      40.192  32.970  35.068  1.00  0.00     0.074 A 
ATOM     54  C   UNL A   1      39.051  32.343  35.668  1.00  0.00     0.031 C 
ATOM     55  C   UNL A   1      37.873  31.055  29.121  1.00  0.00     0.029 A 
ATOM     56  C   UNL A   1      39.216  30.752  29.579  1.00  0.00     0.049 A 
ATOM     57  H   UNL A   1      40.206  31.657  31.193  1.00  0.00     0.167 HD
ATOM     58  C   UNL A   1      41.512  32.881  35.377  1.00  0.00     0.037 A 
ATOM     59  C   UNL A   1      40.140  29.860  29.135  1.00  0.00     0.037 A 
ATOM     60  C   UNL A   1      42.300  33.671  34.458  1.00  0.00     0.049 A 
ATOM     61  C   UNL A   1      41.432  30.209  29.783  1.00  0.00     0.074 A 
ATOM     62  C   UNL A   1      42.336  35.007  34.107  1.00  0.00     0.029 A 
ATOM     63  N   UNL A   1      42.954  33.001  33.453  1.00  0.00    -0.354 N 
ATOM     64  N   UNL A   1      42.100  31.298  29.520  1.00  0.00    -0.248 NA
ATOM     65  C   UNL A   1      41.719  29.598  31.074  1.00  0.00     0.031 C 
ATOM     66  C   UNL A   1      42.599  35.018  32.705  1.00  0.00     0.029 A 
ATOM     67  C   UNL A   1      42.783  33.700  32.287  1.00  0.00     0.049 A 
ATOM     68  H   UNL A   1      43.458  32.162  33.552  1.00  0.00     0.167 HD
ATOM     69  C   UNL A   1      42.543  31.748  30.756  1.00  0.00     0.074 A 
ATOM     70  C   UNL A   1      42.335  30.625  31.668  1.00  0.00     0.031 C 
ATOM     71  C   UNL A   1      42.752  33.078  30.983  1.00  0.00     0.037 A 
BRANCH  58  72
ATOM     72  C   UNL A   1      42.098  31.718  36.157  1.00  0.00     0.057 A 
ATOM     73  C   UNL A   1      43.005  32.010  37.191  1.00  0.00     0.134 A 
ATOM     74  C   UNL A   1      42.074  30.362  35.760  1.00  0.00     0.134 A 
ATOM     75  F   UNL A   1      43.115  33.253  37.681  1.00  0.00    -0.206 F 
ATOM     76  C   UNL A   1      43.906  31.062  37.690  1.00  0.00     0.040 A 
ATOM     77  C   UNL A   1      42.938  29.399  36.284  1.00  0.00     0.040 A 
ATOM     78  F   UNL A   1      41.285  29.889  34.791  1.00  0.00    -0.206 F 
ATOM     79  C   UNL A   1      43.887  29.755  37.221  1.00  0.00     0.006 A 
ENDBRANCH  58  72
BRANCH  59  80
ATOM     80  C   UNL A   1      39.920  28.541  28.495  1.00  0.00     0.057 A 
ATOM     81  C   UNL A   1      40.502  28.230  27.256  1.00  0.00     0.134 A 
ATOM     82  C   UNL A   1      39.381  27.457  29.209  1.00  0.00     0.134 A 
ATOM     83  F   UNL A   1      41.085  29.187  26.520  1.00  0.00    -0.206 F 
ATOM     84  C   UNL A   1      40.564  26.917  26.768  1.00  0.00     0.040 A 
ATOM     85  C   UNL A   1      39.433  26.142  28.731  1.00  0.00     0.040 A 
ATOM     86  F   UNL A   1      38.873  27.622  30.438  1.00  0.00    -0.206 F 
ATOM     87  C   UNL A   1      40.038  25.867  27.513  1.00  0.00     0.006 A 
ENDBRANCH  59  80
BRANCH  71  88
ATOM     88  C   UNL A   1      42.733  34.002  29.796  1.00  0.00     0.057 A 
ATOM     89  C   UNL A   1      41.598  34.698  29.353  1.00  0.00     0.134 A 
ATOM     90  C   UNL A   1      43.947  34.311  29.174  1.00  0.00     0.134 A 
ATOM     91  F   UNL A   1      40.410  34.539  29.951  1.00  0.00    -0.206 F 
ATOM     92  C   UNL A   1      41.664  35.630  28.311  1.00  0.00     0.040 A 
ATOM     93  C   UNL A   1      44.033  35.263  28.157  1.00  0.00     0.040 A 
ATOM     94  F   UNL A   1      45.083  33.723  29.583  1.00  0.00    -0.206 F 
ATOM     95  C   UNL A   1      42.888  35.920  27.716  1.00  0.00     0.006 A 
ENDBRANCH  71  88
ENDBRANCH  45  46
ENDBRANCH  38  40
ENDBRANCH  37  38
ENDBRANCH  36  37
ENDBRANCH  35  36
ENDBRANCH  34  35
ENDBRANCH  33  34
ENDBRANCH   1  33
TORSDOF 19
ENDMDL
MODEL 2
REMARK VINA RESULT:     -12.0      2.431      3.105
REMARK SMILES O=C1NC(=O)/C(=C/c2ccc(OCc3cn(-c4ccc(C(=O)OCCOCCOC(=O)c5ccc(-c6c7nc(c(-c8c(F)cccc8F)c8ccc([nH]8)c(-c8c(F)cccc8F)c8nc(c(-c9c(F)cccc9F)c9ccc6[nH]9)C=C8)C=C7)cc5)cc4)nn3)cc2)S1
REMARK SMILES IDX 24 1 23 2 21 3 22 4 20 5 17 6 18 7 87 8 19 9 86 10 16 11
REMARK SMILES IDX 14 12 15 13 89 14 88 15 13 16 12 17 11 18 8 19 9 20 91 21
REMARK SMILES IDX 10 22 90 23 7 24 1 25 2 26 3 27 92 28 4 29 6 31 5 32 25 33
REMARK SMILES IDX 26 34 27 35 28 36 29 37 30 38 31 39 32 40 33 41 85 42 34 43
REMARK SMILES IDX 84 44 35 45 36 46 37 47 78 48 38 49 83 50 77 51 79 52 39 53
REMARK SMILES IDX 82 54 76 55 75 56 40 58 66 59 49 60 65 61 50 62 53 63 64 64
REMARK SMILES IDX 80 65 51 66 52 67 63 69 81 70 54 71 41 72 42 73 47 74 43 75
REMARK SMILES IDX 44 76 46 77 48 78 45 79 67 80 68 81 73 82 69 83 70 84 72 85
REMARK SMILES IDX 74 86 71 87 55 88 56 89 61 90 57 91 58 92 60 93 62 94 59 95
REMARK H PARENT 3 30 79 57 53 68
REMARK Flexibility Score: inf
ROOT
ATOM      1  C   UNL A   1      34.030  32.523  28.968  1.00  0.00     0.261 C 
ENDROOT
BRANCH   1   2
ATOM      2  O   UNL A   1      33.835  32.126  27.604  1.00  0.00    -0.460 OA
BRANCH   2   3
ATOM      3  C   UNL A   1      32.540  32.152  27.208  1.00  0.00     0.338 C 
ATOM      4  O   UNL A   1      31.770  33.096  27.265  1.00  0.00    -0.246 OA
BRANCH   3   5
ATOM      5  C   UNL A   1      32.194  30.902  26.511  1.00  0.00     0.060 A 
ATOM      6  C   UNL A   1      31.876  28.611  24.984  1.00  0.00     0.066 A 
ATOM      7  C   UNL A   1      32.849  28.638  25.991  1.00  0.00     0.029 A 
ATOM      8  C   UNL A   1      30.993  29.687  24.811  1.00  0.00     0.029 A 
ATOM      9  C   UNL A   1      33.030  29.800  26.728  1.00  0.00     0.018 A 
ATOM     10  C   UNL A   1      31.136  30.830  25.602  1.00  0.00     0.018 A 
BRANCH   6  11
ATOM     11  N   UNL A   1      31.888  27.531  24.077  1.00  0.00    -0.220 N 
ATOM     12  C   UNL A   1      32.504  25.855  22.825  1.00  0.00     0.120 A 
ATOM     13  C   UNL A   1      32.949  27.056  23.338  1.00  0.00     0.144 A 
ATOM     14  N   UNL A   1      31.207  25.667  23.219  1.00  0.00    -0.131 NA
ATOM     15  N   UNL A   1      30.843  26.683  23.978  1.00  0.00    -0.062 NA
BRANCH  12  16
ATOM     16  C   UNL A   1      33.231  24.785  22.077  1.00  0.00     0.289 C 
BRANCH  16  17
ATOM     17  O   UNL A   1      34.258  24.110  22.819  1.00  0.00    -0.487 OA
BRANCH  17  18
ATOM     18  C   UNL A   1      33.999  22.845  23.274  1.00  0.00     0.119 A 
ATOM     19  C   UNL A   1      33.087  20.375  24.255  1.00  0.00    -0.024 A 
ATOM     20  C   UNL A   1      32.425  20.997  23.194  1.00  0.00     0.012 A 
ATOM     21  C   UNL A   1      34.257  20.950  24.756  1.00  0.00     0.012 A 
ATOM     22  C   UNL A   1      32.879  22.229  22.711  1.00  0.00     0.047 A 
ATOM     23  C   UNL A   1      34.724  22.162  24.248  1.00  0.00     0.047 A 
BRANCH  19  24
ATOM     24  C   UNL A   1      32.578  19.127  24.829  1.00  0.00     0.029 C 
ATOM     25  O   UNL A   1      35.780  15.239  25.027  1.00  0.00    -0.261 OA
ATOM     26  C   UNL A   1      34.845  16.028  25.074  1.00  0.00     0.290 C 
ATOM     27  N   UNL A   1      33.587  15.740  25.483  1.00  0.00    -0.282 N 
ATOM     28  S   UNL A   1      34.950  17.714  24.617  1.00  0.00    -0.022 SA
ATOM     29  C   UNL A   1      32.664  16.744  25.480  1.00  0.00     0.265 C 
ATOM     30  H   UNL A   1      33.345  14.831  25.775  1.00  0.00     0.174 HD
ATOM     31  C   UNL A   1      33.285  17.997  24.974  1.00  0.00     0.083 C 
ATOM     32  O   UNL A   1      31.502  16.622  25.829  1.00  0.00    -0.268 OA
ENDBRANCH  19  24
ENDBRANCH  17  18
ENDBRANCH  16  17
ENDBRANCH  12  16
ENDBRANCH   6  11
ENDBRANCH   3   5
ENDBRANCH   2   3
ENDBRANCH   1   2
BRANCH   1  33
ATOM     33  C   UNL A   1      34.285  34.023  29.122  1.00  0.00     0.202 C 
BRANCH  33  34
ATOM     34  O   UNL A   1      33.178  34.920  29.175  1.00  0.00    -0.374 OA
BRANCH  34  35
ATOM     35  C   UNL A   1      33.370  36.303  29.445  1.00  0.00     0.202 C 
BRANCH  35  36
ATOM     36  C   UNL A   1      32.940  36.860  30.794  1.00  0.00     0.261 C 
BRANCH  36  37
ATOM     37  O   UNL A   1      33.737  36.353  31.848  1.00  0.00    -0.460 OA
BRANCH  37  38
ATOM     38  C   UNL A   1      33.223  35.243  32.423  1.00  0.00     0.338 C 
ATOM     39  O   UNL A   1      32.048  34.933  32.524  1.00  0.00    -0.246 OA
BRANCH  38  40
ATOM     40  C   UNL A   1      34.314  34.517  33.075  1.00  0.00     0.060 A 
ATOM     41  C   UNL A   1      35.464  35.273  33.304  1.00  0.00     0.016 A 
ATOM     42  C   UNL A   1      34.331  33.117  32.997  1.00  0.00     0.016 A 
ATOM     43  C   UNL A   1      36.672  34.656  33.119  1.00  0.00     0.010 A 
ATOM     44  C   UNL A   1      35.537  32.508  32.785  1.00  0.00     0.010 A 
ATOM     45  C   UNL A   1      36.675  33.309  32.743  1.00  0.00    -0.014 A 
BRANCH  45  46
ATOM     46  C   UNL A   1      37.945  32.698  32.440  1.00  0.00     0.031 A 
ATOM     47  C   UNL A   1      38.805  32.664  33.641  1.00  0.00     0.074 A 
ATOM     48  C   UNL A   1      38.210  32.153  31.239  1.00  0.00     0.049 A 
ATOM     49  N   UNL A   1      39.861  33.367  33.869  1.00  0.00    -0.248 NA
ATOM     50  C   UNL A   1      38.278  31.963  34.828  1.00  0.00     0.031 C 
ATOM     51  C   UNL A   1      37.296  31.948  30.110  1.00  0.00     0.029 A 
ATOM     52  N   UNL A   1      39.359  31.567  30.811  1.00  0.00    -0.354 N 
ATOM     53  C   UNL A   1      40.269  32.993  35.145  1.00  0.00     0.074 A 
ATOM     54  C   UNL A   1      39.137  32.365  35.762  1.00  0.00     0.031 C 
ATOM     55  C   UNL A   1      37.858  31.085  29.232  1.00  0.00     0.029 A 
ATOM     56  C   UNL A   1      39.209  30.782  29.669  1.00  0.00     0.049 A 
ATOM     57  H   UNL A   1      40.223  31.685  31.268  1.00  0.00     0.167 HD
ATOM     58  C   UNL A   1      41.594  32.903  35.433  1.00  0.00     0.037 A 
ATOM     59  C   UNL A   1      40.125  29.891  29.210  1.00  0.00     0.037 A 
ATOM     60  C   UNL A   1      42.367  33.695  34.503  1.00  0.00     0.049 A 
ATOM     61  C   UNL A   1      41.427  30.240  29.838  1.00  0.00     0.074 A 
ATOM     62  C   UNL A   1      42.397  35.032  34.153  1.00  0.00     0.029 A 
ATOM     63  N   UNL A   1      43.005  33.027  33.487  1.00  0.00    -0.354 N 
ATOM     64  N   UNL A   1      42.090  31.329  29.565  1.00  0.00    -0.248 NA
ATOM     65  C   UNL A   1      41.734  29.627  31.124  1.00  0.00     0.031 C 
ATOM     66  C   UNL A   1      42.638  35.044  32.747  1.00  0.00     0.029 A 
ATOM     67  C   UNL A   1      42.816  33.727  32.325  1.00  0.00     0.049 A 
ATOM     68  H   UNL A   1      43.511  32.187  33.578  1.00  0.00     0.167 HD
ATOM     69  C   UNL A   1      42.553  31.777  30.795  1.00  0.00     0.074 A 
ATOM     70  C   UNL A   1      42.359  30.653  31.709  1.00  0.00     0.031 C 
ATOM     71  C   UNL A   1      42.765  33.107  31.021  1.00  0.00     0.037 A 
BRANCH  58  72
ATOM     72  C   UNL A   1      42.192  31.740  36.202  1.00  0.00     0.057 A 
ATOM     73  C   UNL A   1      43.122  32.029  37.216  1.00  0.00     0.134 A 
ATOM     74  C   UNL A   1      42.154  30.383  35.808  1.00  0.00     0.134 A 
ATOM     75  F   UNL A   1      43.247  33.274  37.702  1.00  0.00    -0.206 F 
ATOM     76  C   UNL A   1      44.029  31.079  37.698  1.00  0.00     0.040 A 
ATOM     77  C   UNL A   1      43.026  29.418  36.315  1.00  0.00     0.040 A 
ATOM     78  F   UNL A   1      41.343  29.912  34.857  1.00  0.00    -0.206 F 
ATOM     79  C   UNL A   1      43.997  29.772  37.232  1.00  0.00     0.006 A 
ENDBRANCH  58  72
BRANCH  59  80
ATOM     80  C   UNL A   1      39.896  28.572  28.571  1.00  0.00     0.057 A 
ATOM     81  C   UNL A   1      40.493  28.248  27.342  1.00  0.00     0.134 A 
ATOM     82  C   UNL A   1      39.330  27.500  29.281  1.00  0.00     0.134 A 
ATOM     83  F   UNL A   1      41.101  29.193  26.612  1.00  0.00    -0.206 F 
ATOM     84  C   UNL A   1      40.543  26.932  26.860  1.00  0.00     0.040 A 
ATOM     85  C   UNL A   1      39.369  26.183  28.809  1.00  0.00     0.040 A 
ATOM     86  F   UNL A   1      38.804  27.677  30.501  1.00  0.00    -0.206 F 
ATOM     87  C   UNL A   1      39.989  25.893  27.601  1.00  0.00     0.006 A 
ENDBRANCH  59  80
BRANCH  71  88
ATOM     88  C   UNL A   1      42.727  34.033  29.836  1.00  0.00     0.057 A 
ATOM     89  C   UNL A   1      41.582  34.719  29.404  1.00  0.00     0.134 A 
ATOM     90  C   UNL A   1      43.933  34.353  29.203  1.00  0.00     0.134 A 
ATOM     91  F   UNL A   1      40.401  34.548  30.012  1.00  0.00    -0.206 F 
ATOM     92  C   UNL A   1      41.631  35.654  28.363  1.00  0.00     0.040 A 
ATOM     93  C   UNL A   1      44.002  35.308  28.187  1.00  0.00     0.040 A 
ATOM     94  F   UNL A   1      45.077  33.775  29.602  1.00  0.00    -0.206 F 
ATOM     95  C   UNL A   1      42.847  35.955  27.757  1.00  0.00     0.006 A 
ENDBRANCH  71  88
ENDBRANCH  45  46
ENDBRANCH  38  40
ENDBRANCH  37  38
ENDBRANCH  36  37
ENDBRANCH  35  36
ENDBRANCH  34  35
ENDBRANCH  33  34
ENDBRANCH   1  33
TORSDOF 19
ENDMDL
MODEL 3
REMARK VINA RESULT:     -11.9      4.060     10.325
REMARK SMILES O=C1NC(=O)/C(=C/c2ccc(OCc3cn(-c4ccc(C(=O)OCCOCCOC(=O)c5ccc(-c6c7nc(c(-c8c(F)cccc8F)c8ccc([nH]8)c(-c8c(F)cccc8F)c8nc(c(-c9c(F)cccc9F)c9ccc6[nH]9)C=C8)C=C7)cc5)cc4)nn3)cc2)S1
REMARK SMILES IDX 24 1 23 2 21 3 22 4 20 5 17 6 18 7 87 8 19 9 86 10 16 11
REMARK SMILES IDX 14 12 15 13 89 14 88 15 13 16 12 17 11 18 8 19 9 20 91 21
REMARK SMILES IDX 10 22 90 23 7 24 1 25 2 26 3 27 92 28 4 29 6 31 5 32 25 33
REMARK SMILES IDX 26 34 27 35 28 36 29 37 30 38 31 39 32 40 33 41 85 42 34 43
REMARK SMILES IDX 84 44 35 45 36 46 37 47 78 48 38 49 83 50 77 51 79 52 39 53
REMARK SMILES IDX 82 54 76 55 75 56 40 58 66 59 49 60 65 61 50 62 53 63 64 64
REMARK SMILES IDX 80 65 51 66 52 67 63 69 81 70 54 71 41 72 42 73 47 74 43 75
REMARK SMILES IDX 44 76 46 77 48 78 45 79 67 80 68 81 73 82 69 83 70 84 72 85
REMARK SMILES IDX 74 86 71 87 55 88 56 89 61 90 57 91 58 92 60 93 62 94 59 95
REMARK H PARENT 3 30 79 57 53 68
REMARK Flexibility Score: inf
ROOT
ATOM      1  C   UNL A   1      33.588  23.466  26.155  1.00  0.00     0.261 C 
ENDROOT
BRANCH   1   2
ATOM      2  O   UNL A   1      33.407  24.867  26.403  1.00  0.00    -0.460 OA
BRANCH   2   3
ATOM      3  C   UNL A   1      32.562  25.469  25.533  1.00  0.00     0.338 C 
ATOM      4  O   UNL A   1      31.750  24.931  24.800  1.00  0.00    -0.246 OA
BRANCH   3   5
ATOM      5  C   UNL A   1      32.616  26.932  25.698  1.00  0.00     0.060 A 
ATOM      6  C   UNL A   1      32.646  29.613  26.400  1.00  0.00     0.066 A 
ATOM      7  C   UNL A   1      33.736  28.801  26.736  1.00  0.00     0.029 A 
ATOM      8  C   UNL A   1      31.591  29.112  25.622  1.00  0.00     0.029 A 
ATOM      9  C   UNL A   1      33.700  27.451  26.416  1.00  0.00     0.018 A 
ATOM     10  C   UNL A   1      31.593  27.767  25.245  1.00  0.00     0.018 A 
BRANCH   6  11
ATOM     11  N   UNL A   1      32.581  30.905  26.963  1.00  0.00    -0.220 N 
ATOM     12  C   UNL A   1      33.092  32.856  27.792  1.00  0.00     0.120 A 
ATOM     13  C   UNL A   1      33.538  31.553  27.711  1.00  0.00     0.144 A 
ATOM     14  N   UNL A   1      31.887  32.944  27.149  1.00  0.00    -0.131 NA
ATOM     15  N   UNL A   1      31.587  31.761  26.647  1.00  0.00    -0.062 NA
BRANCH  12  16
ATOM     16  C   UNL A   1      33.756  34.082  28.327  1.00  0.00     0.289 C 
BRANCH  16  17
ATOM     17  O   UNL A   1      34.186  33.998  29.695  1.00  0.00    -0.487 OA
BRANCH  17  18
ATOM     18  C   UNL A   1      35.512  33.764  29.940  1.00  0.00     0.119 A 
ATOM     19  C   UNL A   1      38.212  33.014  30.143  1.00  0.00    -0.024 A 
ATOM     20  C   UNL A   1      37.679  33.392  28.909  1.00  0.00     0.012 A 
ATOM     21  C   UNL A   1      37.413  33.105  31.285  1.00  0.00     0.012 A 
ATOM     22  C   UNL A   1      36.333  33.760  28.811  1.00  0.00     0.047 A 
ATOM     23  C   UNL A   1      36.080  33.505  31.186  1.00  0.00     0.047 A 
BRANCH  19  24
ATOM     24  C   UNL A   1      39.596  32.546  30.252  1.00  0.00     0.029 C 
ATOM     25  O   UNL A   1      43.224  35.918  29.314  1.00  0.00    -0.261 OA
ATOM     26  C   UNL A   1      42.525  34.946  29.573  1.00  0.00     0.290 C 
ATOM     27  N   UNL A   1      42.974  33.690  29.807  1.00  0.00    -0.282 N 
ATOM     28  S   UNL A   1      40.781  34.987  29.699  1.00  0.00    -0.022 SA
ATOM     29  C   UNL A   1      42.056  32.722  30.090  1.00  0.00     0.265 C 
ATOM     30  H   UNL A   1      43.935  33.482  29.773  1.00  0.00     0.174 HD
ATOM     31  C   UNL A   1      40.687  33.300  30.052  1.00  0.00     0.083 C 
ATOM     32  O   UNL A   1      42.325  31.556  30.326  1.00  0.00    -0.268 OA
ENDBRANCH  19  24
ENDBRANCH  17  18
ENDBRANCH  16  17
ENDBRANCH  12  16
ENDBRANCH   6  11
ENDBRANCH   3   5
ENDBRANCH   2   3
ENDBRANCH   1   2
BRANCH   1  33
ATOM     33  C   UNL A   1      35.048  23.089  25.903  1.00  0.00     0.202 C 
BRANCH  33  34
ATOM     34  O   UNL A   1      35.349  21.952  25.096  1.00  0.00    -0.374 OA
BRANCH  34  35
ATOM     35  C   UNL A   1      36.663  21.736  24.596  1.00  0.00     0.202 C 
BRANCH  35  36
ATOM     36  C   UNL A   1      37.590  20.786  25.340  1.00  0.00     0.261 C 
BRANCH  36  37
ATOM     37  O   UNL A   1      38.942  21.199  25.255  1.00  0.00    -0.460 OA
BRANCH  37  38
ATOM     38  C   UNL A   1      39.819  20.242  25.633  1.00  0.00     0.338 C 
ATOM     39  O   UNL A   1      39.679  19.033  25.560  1.00  0.00    -0.246 OA
BRANCH  38  40
ATOM     40  C   UNL A   1      40.938  20.891  26.318  1.00  0.00     0.060 A 
ATOM     41  C   UNL A   1      40.892  20.818  27.710  1.00  0.00     0.016 A 
ATOM     42  C   UNL A   1      41.663  21.877  25.635  1.00  0.00     0.016 A 
ATOM     43  C   UNL A   1      41.291  21.923  28.413  1.00  0.00     0.010 A 
ATOM     44  C   UNL A   1      42.035  22.991  26.335  1.00  0.00     0.010 A 
ATOM     45  C   UNL A   1      41.743  23.035  27.695  1.00  0.00    -0.014 A 
BRANCH  45  46
ATOM     46  C   UNL A   1      42.054  24.233  28.436  1.00  0.00     0.031 A 
ATOM     47  C   UNL A   1      41.013  25.259  28.223  1.00  0.00     0.074 A 
ATOM     48  C   UNL A   1      43.103  24.304  29.274  1.00  0.00     0.049 A 
ATOM     49  N   UNL A   1      41.117  26.353  27.549  1.00  0.00    -0.248 NA
ATOM     50  C   UNL A   1      39.627  24.898  28.577  1.00  0.00     0.031 C 
ATOM     51  C   UNL A   1      44.006  23.230  29.697  1.00  0.00     0.029 A 
ATOM     52  N   UNL A   1      43.522  25.364  30.015  1.00  0.00    -0.354 N 
ATOM     53  C   UNL A   1      39.857  26.937  27.621  1.00  0.00     0.074 A 
ATOM     54  C   UNL A   1      38.951  25.895  28.009  1.00  0.00     0.031 C 
ATOM     55  C   UNL A   1      44.707  23.636  30.782  1.00  0.00     0.029 A 
ATOM     56  C   UNL A   1      44.398  25.029  31.047  1.00  0.00     0.049 A 
ATOM     57  H   UNL A   1      43.233  26.289  29.838  1.00  0.00     0.167 HD
ATOM     58  C   UNL A   1      39.740  28.288  27.714  1.00  0.00     0.037 A 
ATOM     59  C   UNL A   1      44.738  25.847  32.076  1.00  0.00     0.037 A 
ATOM     60  C   UNL A   1      40.937  28.932  27.223  1.00  0.00     0.049 A 
ATOM     61  C   UNL A   1      44.404  27.236  31.661  1.00  0.00     0.074 A 
ATOM     62  C   UNL A   1      41.614  28.940  26.018  1.00  0.00     0.029 A 
ATOM     63  N   UNL A   1      41.829  29.398  28.158  1.00  0.00    -0.354 N 
ATOM     64  N   UNL A   1      45.031  27.875  30.713  1.00  0.00    -0.248 NA
ATOM     65  C   UNL A   1      43.060  27.715  31.955  1.00  0.00     0.031 C 
ATOM     66  C   UNL A   1      42.997  28.972  26.367  1.00  0.00     0.029 A 
ATOM     67  C   UNL A   1      43.093  29.056  27.756  1.00  0.00     0.049 A 
ATOM     68  H   UNL A   1      41.600  29.892  28.978  1.00  0.00     0.167 HD
ATOM     69  C   UNL A   1      44.030  28.525  30.004  1.00  0.00     0.074 A 
ATOM     70  C   UNL A   1      42.844  28.443  30.855  1.00  0.00     0.031 C 
ATOM     71  C   UNL A   1      44.179  28.797  28.674  1.00  0.00     0.037 A 
BRANCH  58  72
ATOM     72  C   UNL A   1      38.792  28.967  28.685  1.00  0.00     0.057 A 
ATOM     73  C   UNL A   1      38.900  28.638  30.048  1.00  0.00     0.134 A 
ATOM     74  C   UNL A   1      37.610  29.658  28.338  1.00  0.00     0.134 A 
ATOM     75  F   UNL A   1      39.982  28.001  30.520  1.00  0.00    -0.206 F 
ATOM     76  C   UNL A   1      37.860  28.858  30.959  1.00  0.00     0.040 A 
ATOM     77  C   UNL A   1      36.585  29.921  29.249  1.00  0.00     0.040 A 
ATOM     78  F   UNL A   1      37.321  30.050  27.094  1.00  0.00    -0.206 F 
ATOM     79  C   UNL A   1      36.688  29.483  30.555  1.00  0.00     0.006 A 
ENDBRANCH  58  72
BRANCH  59  80
ATOM     80  C   UNL A   1      44.986  25.497  33.496  1.00  0.00     0.057 A 
ATOM     81  C   UNL A   1      43.924  25.218  34.370  1.00  0.00     0.134 A 
ATOM     82  C   UNL A   1      46.267  25.143  33.953  1.00  0.00     0.134 A 
ATOM     83  F   UNL A   1      42.659  25.475  34.007  1.00  0.00    -0.206 F 
ATOM     84  C   UNL A   1      44.122  24.604  35.615  1.00  0.00     0.040 A 
ATOM     85  C   UNL A   1      46.479  24.534  35.195  1.00  0.00     0.040 A 
ATOM     86  F   UNL A   1      47.346  25.288  33.172  1.00  0.00    -0.206 F 
ATOM     87  C   UNL A   1      45.403  24.249  36.025  1.00  0.00     0.006 A 
ENDBRANCH  59  80
BRANCH  71  88
ATOM     88  C   UNL A   1      45.542  28.606  28.069  1.00  0.00     0.057 A 
ATOM     89  C   UNL A   1      46.023  27.385  27.572  1.00  0.00     0.134 A 
ATOM     90  C   UNL A   1      46.336  29.736  27.847  1.00  0.00     0.134 A 
ATOM     91  F   UNL A   1      45.290  26.267  27.654  1.00  0.00    -0.206 F 
ATOM     92  C   UNL A   1      47.257  27.290  26.918  1.00  0.00     0.040 A 
ATOM     93  C   UNL A   1      47.553  29.661  27.167  1.00  0.00     0.040 A 
ATOM     94  F   UNL A   1      45.914  30.946  28.247  1.00  0.00    -0.206 F 
ATOM     95  C   UNL A   1      48.022  28.433  26.708  1.00  0.00     0.006 A 
ENDBRANCH  71  88
ENDBRANCH  45  46
ENDBRANCH  38  40
ENDBRANCH  37  38
ENDBRANCH  36  37
ENDBRANCH  35  36
ENDBRANCH  34  35
ENDBRANCH  33  34
ENDBRANCH   1  33
TORSDOF 19
ENDMDL
