MODEL 1
REMARK VINA RESULT:     -10.8      0.000      0.000
REMARK SMILES C[C@H](NC(=O)c1ccncc1/C=C/C(=O)OCCOCCOC(=O)c1ccc(-c2c3nc(c(-c4c(F)cccc4F)c4ccc([nH]4)c(-c4c(F)cccc4F)c4nc(c(-c5c(F)cccc5F)c5ccc2[nH]5)C=C4)C=C3)cc1)c1ccco1
REMARK SMILES IDX 18 1 17 2 16 3 14 4 15 5 13 6 12 7 11 8 6 9 7 10 8 11 10 12
REMARK SMILES IDX 9 13 4 14 3 15 5 17 2 18 1 19 79 20 80 21 83 22 81 23 82 24
REMARK SMILES IDX 19 25 20 26 21 27 22 28 23 29 24 30 25 31 26 32 78 33 27 34
REMARK SMILES IDX 77 35 28 36 29 37 30 38 71 39 31 40 76 41 70 42 72 43 32 44
REMARK SMILES IDX 75 45 69 46 68 47 33 49 59 50 42 51 58 52 43 53 46 54 57 55
REMARK SMILES IDX 73 56 44 57 45 58 56 60 74 61 47 62 34 63 35 64 40 65 36 66
REMARK SMILES IDX 37 67 39 68 41 69 38 70 60 71 61 72 66 73 62 74 63 75 65 76
REMARK SMILES IDX 67 77 64 78 48 79 49 80 54 81 50 82 51 83 53 84 55 85 52 86
REMARK H PARENT 3 16 72 48 46 59
REMARK Flexibility Score: inf
ROOT
ATOM      1  C   UNL A   1      41.021  21.178  26.104  1.00  0.00     0.202 C 
ENDROOT
BRANCH   1   2
ATOM      2  C   UNL A   1      40.035  22.059  26.872  1.00  0.00     0.261 C 
BRANCH   2   3
ATOM      3  O   UNL A   1      38.841  22.301  26.107  1.00  0.00    -0.460 OA
BRANCH   3   4
ATOM      4  C   UNL A   1      38.366  23.564  26.187  1.00  0.00     0.330 C 
ATOM      5  O   UNL A   1      38.969  24.544  26.601  1.00  0.00    -0.247 OA
BRANCH   4   6
ATOM      6  C   UNL A   1      36.994  23.703  25.658  1.00  0.00     0.094 C 
ATOM      7  C   UNL A   1      35.827  23.686  26.329  1.00  0.00     0.018 C 
BRANCH   7   8
ATOM      8  C   UNL A   1      34.546  23.914  25.619  1.00  0.00     0.006 A 
ATOM      9  C   UNL A   1      33.343  23.256  25.920  1.00  0.00     0.050 A 
ATOM     10  C   UNL A   1      32.130  23.707  25.389  1.00  0.00     0.034 A 
ATOM     11  C   UNL A   1      32.171  24.699  24.430  1.00  0.00     0.112 A 
ATOM     12  C   UNL A   1      34.462  24.855  24.592  1.00  0.00     0.119 A 
ATOM     13  N   UNL A   1      33.316  25.247  23.984  1.00  0.00    -0.264 NA
BRANCH   9  14
ATOM     14  C   UNL A   1      33.313  22.083  26.808  1.00  0.00     0.252 C 
ATOM     15  N   UNL A   1      33.844  20.885  26.409  1.00  0.00    -0.342 N 
ATOM     16  H   UNL A   1      33.908  20.235  27.146  1.00  0.00     0.164 HD
ATOM     17  O   UNL A   1      32.846  22.199  27.937  1.00  0.00    -0.269 OA
BRANCH  15  18
ATOM     18  C   UNL A   1      34.340  20.343  25.136  1.00  0.00     0.145 C 
ATOM     19  C   UNL A   1      35.853  20.246  24.937  1.00  0.00     0.039 C 
BRANCH  18  20
ATOM     20  C   UNL A   1      33.771  18.963  24.995  1.00  0.00     0.125 A 
ATOM     21  C   UNL A   1      32.572  18.394  25.379  1.00  0.00     0.048 A 
ATOM     22  O   UNL A   1      34.590  18.010  24.465  1.00  0.00    -0.467 OA
ATOM     23  C   UNL A   1      32.677  17.013  25.096  1.00  0.00     0.042 A 
ATOM     24  C   UNL A   1      33.919  16.830  24.535  1.00  0.00     0.195 A 
ENDBRANCH  18  20
ENDBRANCH  15  18
ENDBRANCH   9  14
ENDBRANCH   7   8
ENDBRANCH   4   6
ENDBRANCH   3   4
ENDBRANCH   2   3
ENDBRANCH   1   2
BRANCH   1  25
ATOM     25  O   UNL A   1      42.344  21.118  26.635  1.00  0.00    -0.374 OA
BRANCH  25  26
ATOM     26  C   UNL A   1      43.379  20.685  25.750  1.00  0.00     0.202 C 
BRANCH  26  27
ATOM     27  C   UNL A   1      44.314  21.785  25.233  1.00  0.00     0.261 C 
BRANCH  27  28
ATOM     28  O   UNL A   1      44.463  22.855  26.186  1.00  0.00    -0.460 OA
BRANCH  28  29
ATOM     29  C   UNL A   1      44.433  24.100  25.658  1.00  0.00     0.338 C 
ATOM     30  O   UNL A   1      44.844  24.451  24.560  1.00  0.00    -0.246 OA
BRANCH  29  31
ATOM     31  C   UNL A   1      43.657  25.000  26.533  1.00  0.00     0.060 A 
ATOM     32  C   UNL A   1      44.078  26.333  26.628  1.00  0.00     0.016 A 
ATOM     33  C   UNL A   1      42.581  24.539  27.294  1.00  0.00     0.016 A 
ATOM     34  C   UNL A   1      43.454  27.199  27.522  1.00  0.00     0.010 A 
ATOM     35  C   UNL A   1      41.962  25.408  28.198  1.00  0.00     0.010 A 
ATOM     36  C   UNL A   1      42.418  26.732  28.342  1.00  0.00    -0.014 A 
BRANCH  36  37
ATOM     37  C   UNL A   1      41.911  27.585  29.442  1.00  0.00     0.031 A 
ATOM     38  C   UNL A   1      42.604  27.547  30.775  1.00  0.00     0.074 A 
ATOM     39  C   UNL A   1      40.862  28.404  29.250  1.00  0.00     0.049 A 
ATOM     40  N   UNL A   1      42.319  28.189  31.879  1.00  0.00    -0.248 NA
ATOM     41  C   UNL A   1      43.776  26.664  30.876  1.00  0.00     0.031 C 
ATOM     42  C   UNL A   1      40.129  28.558  27.997  1.00  0.00     0.029 A 
ATOM     43  N   UNL A   1      40.230  29.256  30.120  1.00  0.00    -0.354 N 
ATOM     44  C   UNL A   1      43.267  27.781  32.808  1.00  0.00     0.074 A 
ATOM     45  C   UNL A   1      44.119  26.815  32.147  1.00  0.00     0.031 C 
ATOM     46  C   UNL A   1      39.141  29.452  28.177  1.00  0.00     0.029 A 
ATOM     47  C   UNL A   1      39.156  29.907  29.567  1.00  0.00     0.049 A 
ATOM     48  H   UNL A   1      40.519  29.388  31.052  1.00  0.00     0.167 HD
ATOM     49  C   UNL A   1      43.422  28.182  34.093  1.00  0.00     0.037 A 
ATOM     50  C   UNL A   1      38.275  30.760  30.124  1.00  0.00     0.037 A 
ATOM     51  C   UNL A   1      42.576  29.144  34.749  1.00  0.00     0.049 A 
ATOM     52  C   UNL A   1      38.422  31.136  31.574  1.00  0.00     0.074 A 
ATOM     53  C   UNL A   1      42.669  29.639  36.038  1.00  0.00     0.029 A 
ATOM     54  N   UNL A   1      41.472  29.750  34.167  1.00  0.00    -0.354 N 
ATOM     55  N   UNL A   1      39.339  30.770  32.435  1.00  0.00    -0.248 NA
ATOM     56  C   UNL A   1      37.409  32.046  32.127  1.00  0.00     0.031 C 
ATOM     57  C   UNL A   1      41.592  30.507  36.253  1.00  0.00     0.029 A 
ATOM     58  C   UNL A   1      40.856  30.590  35.081  1.00  0.00     0.049 A 
ATOM     59  H   UNL A   1      41.171  29.606  33.242  1.00  0.00     0.167 HD
ATOM     60  C   UNL A   1      39.032  31.423  33.622  1.00  0.00     0.074 A 
ATOM     61  C   UNL A   1      37.846  32.216  33.368  1.00  0.00     0.031 C 
ATOM     62  C   UNL A   1      39.676  31.374  34.815  1.00  0.00     0.037 A 
BRANCH  49  63
ATOM     63  C   UNL A   1      44.534  27.551  34.879  1.00  0.00     0.057 A 
ATOM     64  C   UNL A   1      45.816  28.112  34.933  1.00  0.00     0.134 A 
ATOM     65  C   UNL A   1      44.314  26.369  35.598  1.00  0.00     0.134 A 
ATOM     66  F   UNL A   1      46.097  29.235  34.255  1.00  0.00    -0.206 F 
ATOM     67  C   UNL A   1      46.849  27.503  35.649  1.00  0.00     0.040 A 
ATOM     68  C   UNL A   1      45.332  25.765  36.338  1.00  0.00     0.040 A 
ATOM     69  F   UNL A   1      43.108  25.782  35.591  1.00  0.00    -0.206 F 
ATOM     70  C   UNL A   1      46.606  26.328  36.358  1.00  0.00     0.006 A 
ENDBRANCH  49  63
BRANCH  50  71
ATOM     71  C   UNL A   1      37.172  31.320  29.305  1.00  0.00     0.057 A 
ATOM     72  C   UNL A   1      36.019  30.575  29.039  1.00  0.00     0.134 A 
ATOM     73  C   UNL A   1      37.246  32.611  28.769  1.00  0.00     0.134 A 
ATOM     74  F   UNL A   1      35.903  29.322  29.506  1.00  0.00    -0.206 F 
ATOM     75  C   UNL A   1      34.978  31.089  28.264  1.00  0.00     0.040 A 
ATOM     76  C   UNL A   1      36.203  33.148  28.010  1.00  0.00     0.040 A 
ATOM     77  F   UNL A   1      38.327  33.375  28.985  1.00  0.00    -0.206 F 
ATOM     78  C   UNL A   1      35.067  32.383  27.753  1.00  0.00     0.006 A 
ENDBRANCH  50  71
BRANCH  62  79
ATOM     79  C   UNL A   1      39.133  32.225  35.926  1.00  0.00     0.057 A 
ATOM     80  C   UNL A   1      38.228  31.721  36.868  1.00  0.00     0.134 A 
ATOM     81  C   UNL A   1      39.553  33.552  36.078  1.00  0.00     0.134 A 
ATOM     82  F   UNL A   1      37.777  30.460  36.772  1.00  0.00    -0.206 F 
ATOM     83  C   UNL A   1      37.744  32.514  37.911  1.00  0.00     0.040 A 
ATOM     84  C   UNL A   1      39.096  34.347  37.131  1.00  0.00     0.040 A 
ATOM     85  F   UNL A   1      40.426  34.093  35.215  1.00  0.00    -0.206 F 
ATOM     86  C   UNL A   1      38.185  33.829  38.048  1.00  0.00     0.006 A 
ENDBRANCH  62  79
ENDBRANCH  36  37
ENDBRANCH  29  31
ENDBRANCH  28  29
ENDBRANCH  27  28
ENDBRANCH  26  27
ENDBRANCH  25  26
ENDBRANCH   1  25
TORSDOF 18
ENDMDL
MODEL 2
REMARK VINA RESULT:     -10.8      1.273      2.059
REMARK SMILES C[C@H](NC(=O)c1ccncc1/C=C/C(=O)OCCOCCOC(=O)c1ccc(-c2c3nc(c(-c4c(F)cccc4F)c4ccc([nH]4)c(-c4c(F)cccc4F)c4nc(c(-c5c(F)cccc5F)c5ccc2[nH]5)C=C4)C=C3)cc1)c1ccco1
REMARK SMILES IDX 18 1 17 2 16 3 14 4 15 5 13 6 12 7 11 8 6 9 7 10 8 11 10 12
REMARK SMILES IDX 9 13 4 14 3 15 5 17 2 18 1 19 79 20 80 21 83 22 81 23 82 24
REMARK SMILES IDX 19 25 20 26 21 27 22 28 23 29 24 30 25 31 26 32 78 33 27 34
REMARK SMILES IDX 77 35 28 36 29 37 30 38 71 39 31 40 76 41 70 42 72 43 32 44
REMARK SMILES IDX 75 45 69 46 68 47 33 49 59 50 42 51 58 52 43 53 46 54 57 55
REMARK SMILES IDX 73 56 44 57 45 58 56 60 74 61 47 62 34 63 35 64 40 65 36 66
REMARK SMILES IDX 37 67 39 68 41 69 38 70 60 71 61 72 66 73 62 74 63 75 65 76
REMARK SMILES IDX 67 77 64 78 48 79 49 80 54 81 50 82 51 83 53 84 55 85 52 86
REMARK H PARENT 3 16 72 48 46 59
REMARK Flexibility Score: inf
ROOT
ATOM      1  C   UNL A   1      40.481  20.543  26.561  1.00  0.00     0.202 C 
ENDROOT
BRANCH   1   2
ATOM      2  C   UNL A   1      39.945  21.974  26.520  1.00  0.00     0.261 C 
BRANCH   2   3
ATOM      3  O   UNL A   1      38.703  22.050  25.797  1.00  0.00    -0.460 OA
BRANCH   3   4
ATOM      4  C   UNL A   1      37.962  23.149  26.062  1.00  0.00     0.330 C 
ATOM      5  O   UNL A   1      38.219  24.019  26.882  1.00  0.00    -0.247 OA
BRANCH   4   6
ATOM      6  C   UNL A   1      36.766  23.263  25.204  1.00  0.00     0.094 C 
ATOM      7  C   UNL A   1      35.804  24.205  25.220  1.00  0.00     0.018 C 
BRANCH   7   8
ATOM      8  C   UNL A   1      34.710  24.182  24.221  1.00  0.00     0.006 A 
ATOM      9  C   UNL A   1      33.578  25.011  24.263  1.00  0.00     0.050 A 
ATOM     10  C   UNL A   1      32.727  25.115  23.157  1.00  0.00     0.034 A 
ATOM     11  C   UNL A   1      32.931  24.254  22.099  1.00  0.00     0.112 A 
ATOM     12  C   UNL A   1      34.767  23.319  23.125  1.00  0.00     0.119 A 
ATOM     13  N   UNL A   1      33.903  23.323  22.082  1.00  0.00    -0.264 NA
BRANCH   9  14
ATOM     14  C   UNL A   1      33.254  25.805  25.459  1.00  0.00     0.252 C 
ATOM     15  N   UNL A   1      32.474  25.284  26.458  1.00  0.00    -0.342 N 
ATOM     16  H   UNL A   1      32.468  25.846  27.266  1.00  0.00     0.164 HD
ATOM     17  O   UNL A   1      33.729  26.930  25.578  1.00  0.00    -0.269 OA
BRANCH  15  18
ATOM     18  C   UNL A   1      31.643  24.081  26.604  1.00  0.00     0.145 C 
ATOM     19  C   UNL A   1      30.673  23.736  25.473  1.00  0.00     0.039 C 
BRANCH  18  20
ATOM     20  C   UNL A   1      32.577  22.920  26.773  1.00  0.00     0.125 A 
ATOM     21  C   UNL A   1      33.556  22.626  27.703  1.00  0.00     0.048 A 
ATOM     22  O   UNL A   1      32.564  21.970  25.794  1.00  0.00    -0.467 OA
ATOM     23  C   UNL A   1      34.195  21.449  27.249  1.00  0.00     0.042 A 
ATOM     24  C   UNL A   1      33.552  21.085  26.090  1.00  0.00     0.195 A 
ENDBRANCH  18  20
ENDBRANCH  15  18
ENDBRANCH   9  14
ENDBRANCH   7   8
ENDBRANCH   4   6
ENDBRANCH   3   4
ENDBRANCH   2   3
ENDBRANCH   1   2
BRANCH   1  25
ATOM     25  O   UNL A   1      41.621  20.283  25.743  1.00  0.00    -0.374 OA
BRANCH  25  26
ATOM     26  C   UNL A   1      42.886  20.731  26.232  1.00  0.00     0.202 C 
BRANCH  26  27
ATOM     27  C   UNL A   1      43.627  21.732  25.338  1.00  0.00     0.261 C 
BRANCH  27  28
ATOM     28  O   UNL A   1      44.300  22.746  26.110  1.00  0.00    -0.460 OA
BRANCH  28  29
ATOM     29  C   UNL A   1      44.264  23.989  25.578  1.00  0.00     0.338 C 
ATOM     30  O   UNL A   1      44.656  24.334  24.471  1.00  0.00    -0.246 OA
BRANCH  29  31
ATOM     31  C   UNL A   1      43.509  24.895  26.464  1.00  0.00     0.060 A 
ATOM     32  C   UNL A   1      43.926  26.231  26.532  1.00  0.00     0.016 A 
ATOM     33  C   UNL A   1      42.457  24.438  27.260  1.00  0.00     0.016 A 
ATOM     34  C   UNL A   1      43.322  27.105  27.434  1.00  0.00     0.010 A 
ATOM     35  C   UNL A   1      41.859  25.314  28.171  1.00  0.00     0.010 A 
ATOM     36  C   UNL A   1      42.312  26.642  28.287  1.00  0.00    -0.014 A 
BRANCH  36  37
ATOM     37  C   UNL A   1      41.832  27.505  29.392  1.00  0.00     0.031 A 
ATOM     38  C   UNL A   1      42.537  27.454  30.718  1.00  0.00     0.074 A 
ATOM     39  C   UNL A   1      40.797  28.344  29.209  1.00  0.00     0.049 A 
ATOM     40  N   UNL A   1      42.274  28.102  31.824  1.00  0.00    -0.248 NA
ATOM     41  C   UNL A   1      43.692  26.549  30.809  1.00  0.00     0.031 C 
ATOM     42  C   UNL A   1      40.055  28.511  27.962  1.00  0.00     0.029 A 
ATOM     43  N   UNL A   1      40.190  29.208  30.084  1.00  0.00    -0.354 N 
ATOM     44  C   UNL A   1      43.223  27.677  32.745  1.00  0.00     0.074 A 
ATOM     45  C   UNL A   1      44.050  26.694  32.076  1.00  0.00     0.031 C 
ATOM     46  C   UNL A   1      39.087  29.424  28.151  1.00  0.00     0.029 A 
ATOM     47  C   UNL A   1      39.123  29.879  29.540  1.00  0.00     0.049 A 
ATOM     48  H   UNL A   1      40.490  29.335  31.014  1.00  0.00     0.167 HD
ATOM     49  C   UNL A   1      43.398  28.075  34.028  1.00  0.00     0.037 A 
ATOM     50  C   UNL A   1      38.265  30.749  30.105  1.00  0.00     0.037 A 
ATOM     51  C   UNL A   1      42.576  29.053  34.691  1.00  0.00     0.049 A 
ATOM     52  C   UNL A   1      38.432  31.123  31.553  1.00  0.00     0.074 A 
ATOM     53  C   UNL A   1      42.690  29.547  35.979  1.00  0.00     0.029 A 
ATOM     54  N   UNL A   1      41.479  29.681  34.119  1.00  0.00    -0.354 N 
ATOM     55  N   UNL A   1      39.350  30.740  32.406  1.00  0.00    -0.248 NA
ATOM     56  C   UNL A   1      37.441  32.053  32.115  1.00  0.00     0.031 C 
ATOM     57  C   UNL A   1      41.632  30.436  36.203  1.00  0.00     0.029 A 
ATOM     58  C   UNL A   1      40.888  30.533  35.039  1.00  0.00     0.049 A 
ATOM     59  H   UNL A   1      41.166  29.541  33.197  1.00  0.00     0.167 HD
ATOM     60  C   UNL A   1      39.066  31.400  33.596  1.00  0.00     0.074 A 
ATOM     61  C   UNL A   1      37.893  32.215  33.352  1.00  0.00     0.031 C 
ATOM     62  C   UNL A   1      39.721  31.339  34.782  1.00  0.00     0.037 A 
BRANCH  49  63
ATOM     63  C   UNL A   1      44.504  27.423  34.804  1.00  0.00     0.057 A 
ATOM     64  C   UNL A   1      45.793  27.969  34.861  1.00  0.00     0.134 A 
ATOM     65  C   UNL A   1      44.273  26.236  35.511  1.00  0.00     0.134 A 
ATOM     66  F   UNL A   1      46.085  29.096  34.193  1.00  0.00    -0.206 F 
ATOM     67  C   UNL A   1      46.820  27.340  35.567  1.00  0.00     0.040 A 
ATOM     68  C   UNL A   1      45.286  25.613  36.242  1.00  0.00     0.040 A 
ATOM     69  F   UNL A   1      43.060  25.663  35.502  1.00  0.00    -0.206 F 
ATOM     70  C   UNL A   1      46.566  26.161  36.264  1.00  0.00     0.006 A 
ENDBRANCH  49  63
BRANCH  50  71
ATOM     71  C   UNL A   1      37.165  31.330  29.296  1.00  0.00     0.057 A 
ATOM     72  C   UNL A   1      36.011  30.593  29.009  1.00  0.00     0.134 A 
ATOM     73  C   UNL A   1      37.242  32.633  28.790  1.00  0.00     0.134 A 
ATOM     74  F   UNL A   1      35.892  29.330  29.447  1.00  0.00    -0.206 F 
ATOM     75  C   UNL A   1      34.974  31.127  28.243  1.00  0.00     0.040 A 
ATOM     76  C   UNL A   1      36.203  33.189  28.041  1.00  0.00     0.040 A 
ATOM     77  F   UNL A   1      38.324  33.390  29.027  1.00  0.00    -0.206 F 
ATOM     78  C   UNL A   1      35.066  32.432  27.763  1.00  0.00     0.006 A 
ENDBRANCH  50  71
BRANCH  62  79
ATOM     79  C   UNL A   1      39.204  32.200  35.898  1.00  0.00     0.057 A 
ATOM     80  C   UNL A   1      39.620  33.527  36.062  1.00  0.00     0.134 A 
ATOM     81  C   UNL A   1      38.248  31.707  36.795  1.00  0.00     0.134 A 
ATOM     82  F   UNL A   1      40.543  34.056  35.243  1.00  0.00    -0.206 F 
ATOM     83  C   UNL A   1      39.119  34.327  37.091  1.00  0.00     0.040 A 
ATOM     84  C   UNL A   1      37.721  32.504  37.812  1.00  0.00     0.040 A 
ATOM     85  F   UNL A   1      37.800  30.447  36.688  1.00  0.00    -0.206 F 
ATOM     86  C   UNL A   1      38.160  33.817  37.965  1.00  0.00     0.006 A 
ENDBRANCH  62  79
ENDBRANCH  36  37
ENDBRANCH  29  31
ENDBRANCH  28  29
ENDBRANCH  27  28
ENDBRANCH  26  27
ENDBRANCH  25  26
ENDBRANCH   1  25
TORSDOF 18
ENDMDL
MODEL 3
REMARK VINA RESULT:     -10.7      1.164      2.701
REMARK SMILES C[C@H](NC(=O)c1ccncc1/C=C/C(=O)OCCOCCOC(=O)c1ccc(-c2c3nc(c(-c4c(F)cccc4F)c4ccc([nH]4)c(-c4c(F)cccc4F)c4nc(c(-c5c(F)cccc5F)c5ccc2[nH]5)C=C4)C=C3)cc1)c1ccco1
REMARK SMILES IDX 18 1 17 2 16 3 14 4 15 5 13 6 12 7 11 8 6 9 7 10 8 11 10 12
REMARK SMILES IDX 9 13 4 14 3 15 5 17 2 18 1 19 79 20 80 21 83 22 81 23 82 24
REMARK SMILES IDX 19 25 20 26 21 27 22 28 23 29 24 30 25 31 26 32 78 33 27 34
REMARK SMILES IDX 77 35 28 36 29 37 30 38 71 39 31 40 76 41 70 42 72 43 32 44
REMARK SMILES IDX 75 45 69 46 68 47 33 49 59 50 42 51 58 52 43 53 46 54 57 55
REMARK SMILES IDX 73 56 44 57 45 58 56 60 74 61 47 62 34 63 35 64 40 65 36 66
REMARK SMILES IDX 37 67 39 68 41 69 38 70 60 71 61 72 66 73 62 74 63 75 65 76
REMARK SMILES IDX 67 77 64 78 48 79 49 80 54 81 50 82 51 83 53 84 55 85 52 86
REMARK H PARENT 3 16 72 48 46 59
REMARK Flexibility Score: inf
ROOT
ATOM      1  C   UNL A   1      41.159  20.552  26.483  1.00  0.00     0.202 C 
ENDROOT
BRANCH   1   2
ATOM      2  C   UNL A   1      40.414  21.852  26.177  1.00  0.00     0.261 C 
BRANCH   2   3
ATOM      3  O   UNL A   1      39.069  21.597  25.734  1.00  0.00    -0.460 OA
BRANCH   3   4
ATOM      4  C   UNL A   1      38.204  22.614  25.941  1.00  0.00     0.330 C 
ATOM      5  O   UNL A   1      38.492  23.769  26.219  1.00  0.00    -0.247 OA
BRANCH   4   6
ATOM      6  C   UNL A   1      36.793  22.225  25.748  1.00  0.00     0.094 C 
ATOM      7  C   UNL A   1      36.144  21.954  24.600  1.00  0.00     0.018 C 
BRANCH   7   8
ATOM      8  C   UNL A   1      34.730  21.508  24.621  1.00  0.00     0.006 A 
ATOM      9  C   UNL A   1      33.696  22.108  23.885  1.00  0.00     0.050 A 
ATOM     10  C   UNL A   1      32.454  21.478  23.753  1.00  0.00     0.034 A 
ATOM     11  C   UNL A   1      32.218  20.347  24.507  1.00  0.00     0.112 A 
ATOM     12  C   UNL A   1      34.345  20.405  25.385  1.00  0.00     0.119 A 
ATOM     13  N   UNL A   1      33.121  19.826  25.358  1.00  0.00    -0.264 NA
BRANCH   9  14
ATOM     14  C   UNL A   1      33.885  23.407  23.218  1.00  0.00     0.252 C 
ATOM     15  N   UNL A   1      34.062  24.552  23.949  1.00  0.00    -0.342 N 
ATOM     16  H   UNL A   1      34.338  25.317  23.394  1.00  0.00     0.164 HD
ATOM     17  O   UNL A   1      33.929  23.450  21.993  1.00  0.00    -0.269 OA
BRANCH  15  18
ATOM     18  C   UNL A   1      33.934  24.906  25.370  1.00  0.00     0.145 C 
ATOM     19  C   UNL A   1      34.022  26.384  25.753  1.00  0.00     0.039 C 
BRANCH  18  20
ATOM     20  C   UNL A   1      32.603  24.394  25.831  1.00  0.00     0.125 A 
ATOM     21  C   UNL A   1      32.227  23.489  26.806  1.00  0.00     0.048 A 
ATOM     22  O   UNL A   1      31.507  24.803  25.129  1.00  0.00    -0.467 OA
ATOM     23  C   UNL A   1      30.831  23.313  26.670  1.00  0.00     0.042 A 
ATOM     24  C   UNL A   1      30.438  24.138  25.642  1.00  0.00     0.195 A 
ENDBRANCH  18  20
ENDBRANCH  15  18
ENDBRANCH   9  14
ENDBRANCH   7   8
ENDBRANCH   4   6
ENDBRANCH   3   4
ENDBRANCH   2   3
ENDBRANCH   1   2
BRANCH   1  25
ATOM     25  O   UNL A   1      42.119  20.142  25.511  1.00  0.00    -0.374 OA
BRANCH  25  26
ATOM     26  C   UNL A   1      43.478  20.517  25.744  1.00  0.00     0.202 C 
BRANCH  26  27
ATOM     27  C   UNL A   1      43.920  21.843  25.113  1.00  0.00     0.261 C 
BRANCH  27  28
ATOM     28  O   UNL A   1      44.319  22.804  26.110  1.00  0.00    -0.460 OA
BRANCH  28  29
ATOM     29  C   UNL A   1      44.414  24.080  25.669  1.00  0.00     0.338 C 
ATOM     30  O   UNL A   1      44.932  24.470  24.631  1.00  0.00    -0.246 OA
BRANCH  29  31
ATOM     31  C   UNL A   1      43.635  24.975  26.545  1.00  0.00     0.060 A 
ATOM     32  C   UNL A   1      44.032  26.317  26.618  1.00  0.00     0.016 A 
ATOM     33  C   UNL A   1      42.579  24.503  27.327  1.00  0.00     0.016 A 
ATOM     34  C   UNL A   1      43.405  27.181  27.512  1.00  0.00     0.010 A 
ATOM     35  C   UNL A   1      41.956  25.371  28.230  1.00  0.00     0.010 A 
ATOM     36  C   UNL A   1      42.390  26.704  28.352  1.00  0.00    -0.014 A 
BRANCH  36  37
ATOM     37  C   UNL A   1      41.883  27.561  29.450  1.00  0.00     0.031 A 
ATOM     38  C   UNL A   1      42.573  27.522  30.785  1.00  0.00     0.074 A 
ATOM     39  C   UNL A   1      40.837  28.383  29.255  1.00  0.00     0.049 A 
ATOM     40  N   UNL A   1      42.287  28.166  31.887  1.00  0.00    -0.248 NA
ATOM     41  C   UNL A   1      43.741  26.635  30.890  1.00  0.00     0.031 C 
ATOM     42  C   UNL A   1      40.108  28.538  27.999  1.00  0.00     0.029 A 
ATOM     43  N   UNL A   1      40.207  29.238  30.122  1.00  0.00    -0.354 N 
ATOM     44  C   UNL A   1      43.232  27.756  32.819  1.00  0.00     0.074 A 
ATOM     45  C   UNL A   1      44.082  26.787  32.161  1.00  0.00     0.031 C 
ATOM     46  C   UNL A   1      39.123  29.436  28.176  1.00  0.00     0.029 A 
ATOM     47  C   UNL A   1      39.136  29.892  29.565  1.00  0.00     0.049 A 
ATOM     48  H   UNL A   1      40.494  29.371  31.055  1.00  0.00     0.167 HD
ATOM     49  C   UNL A   1      43.385  28.159  34.104  1.00  0.00     0.037 A 
ATOM     50  C   UNL A   1      38.257  30.749  30.119  1.00  0.00     0.037 A 
ATOM     51  C   UNL A   1      42.540  29.124  34.757  1.00  0.00     0.049 A 
ATOM     52  C   UNL A   1      38.402  31.126  31.569  1.00  0.00     0.074 A 
ATOM     53  C   UNL A   1      42.632  29.621  36.045  1.00  0.00     0.029 A 
ATOM     54  N   UNL A   1      41.440  29.734  34.171  1.00  0.00    -0.354 N 
ATOM     55  N   UNL A   1      39.315  30.758  32.433  1.00  0.00    -0.248 NA
ATOM     56  C   UNL A   1      37.390  32.041  32.118  1.00  0.00     0.031 C 
ATOM     57  C   UNL A   1      41.557  30.492  36.256  1.00  0.00     0.029 A 
ATOM     58  C   UNL A   1      40.825  30.577  35.083  1.00  0.00     0.049 A 
ATOM     59  H   UNL A   1      41.140  29.589  33.245  1.00  0.00     0.167 HD
ATOM     60  C   UNL A   1      39.007  31.415  33.618  1.00  0.00     0.074 A 
ATOM     61  C   UNL A   1      37.825  32.211  33.360  1.00  0.00     0.031 C 
ATOM     62  C   UNL A   1      39.649  31.365  34.812  1.00  0.00     0.037 A 
BRANCH  49  63
ATOM     63  C   UNL A   1      44.492  27.525  34.893  1.00  0.00     0.057 A 
ATOM     64  C   UNL A   1      44.311  26.328  35.598  1.00  0.00     0.134 A 
ATOM     65  C   UNL A   1      45.761  28.117  34.942  1.00  0.00     0.134 A 
ATOM     66  F   UNL A   1      43.116  25.717  35.605  1.00  0.00    -0.206 F 
ATOM     67  C   UNL A   1      45.342  25.760  36.348  1.00  0.00     0.040 A 
ATOM     68  C   UNL A   1      46.807  27.544  35.667  1.00  0.00     0.040 A 
ATOM     69  F   UNL A   1      46.003  29.263  34.286  1.00  0.00    -0.206 F 
ATOM     70  C   UNL A   1      46.596  26.367  36.380  1.00  0.00     0.006 A 
ENDBRANCH  49  63
BRANCH  50  71
ATOM     71  C   UNL A   1      37.158  31.312  29.296  1.00  0.00     0.057 A 
ATOM     72  C   UNL A   1      37.237  32.608  28.774  1.00  0.00     0.134 A 
ATOM     73  C   UNL A   1      36.005  30.570  29.014  1.00  0.00     0.134 A 
ATOM     74  F   UNL A   1      38.307  33.375  29.031  1.00  0.00    -0.206 F 
ATOM     75  C   UNL A   1      36.206  33.149  28.004  1.00  0.00     0.040 A 
ATOM     76  C   UNL A   1      34.976  31.090  28.227  1.00  0.00     0.040 A 
ATOM     77  F   UNL A   1      35.868  29.323  29.489  1.00  0.00    -0.206 F 
ATOM     78  C   UNL A   1      35.074  32.386  27.724  1.00  0.00     0.006 A 
ENDBRANCH  50  71
BRANCH  62  79
ATOM     79  C   UNL A   1      39.106  32.218  35.921  1.00  0.00     0.057 A 
ATOM     80  C   UNL A   1      38.214  31.712  36.875  1.00  0.00     0.134 A 
ATOM     81  C   UNL A   1      39.512  33.552  36.059  1.00  0.00     0.134 A 
ATOM     82  F   UNL A   1      37.777  30.446  36.794  1.00  0.00    -0.206 F 
ATOM     83  C   UNL A   1      37.730  32.509  37.916  1.00  0.00     0.040 A 
ATOM     84  C   UNL A   1      39.055  34.350  37.109  1.00  0.00     0.040 A 
ATOM     85  F   UNL A   1      40.371  34.095  35.184  1.00  0.00    -0.206 F 
ATOM     86  C   UNL A   1      38.158  33.830  38.038  1.00  0.00     0.006 A 
ENDBRANCH  62  79
ENDBRANCH  36  37
ENDBRANCH  29  31
ENDBRANCH  28  29
ENDBRANCH  27  28
ENDBRANCH  26  27
ENDBRANCH  25  26
ENDBRANCH   1  25
TORSDOF 18
ENDMDL
