MODEL 1
REMARK VINA RESULT:     -11.0      0.000      0.000
REMARK SMILES CC[C@@H](C(=O)OCCOCCOC(=O)c1ccc(-c2c3nc(c(-c4c(F)cccc4F)c4ccc([nH]4)c(-c4c(F)cccc4F)c4nc(c(-c5c(F)cccc5F)c5ccc2[nH]5)C=C4)C=C3)cc1)[N@@H+]1CCc2ccc(N)cc2C1
REMARK SMILES IDX 9 1 8 2 7 3 6 4 4 5 5 6 3 7 2 8 1 9 69 10 70 11 79 12 71 14
REMARK SMILES IDX 78 15 72 16 77 17 73 18 75 19 74 20 76 21 10 24 11 25 12 26
REMARK SMILES IDX 13 27 14 28 15 29 16 30 68 31 17 32 67 33 18 34 19 35 20 36
REMARK SMILES IDX 61 37 21 38 66 39 60 40 62 41 22 42 65 43 59 44 58 45 23 47
REMARK SMILES IDX 49 48 32 49 48 50 33 51 36 52 47 53 63 54 34 55 35 56 46 58
REMARK SMILES IDX 64 59 37 60 24 61 25 62 30 63 26 64 27 65 29 66 31 67 28 68
REMARK SMILES IDX 50 69 51 70 56 71 52 72 53 73 55 74 57 75 54 76 38 77 39 78
REMARK SMILES IDX 44 79 40 80 41 81 43 82 45 83 42 84
REMARK H PARENT 69 13 76 22 76 23 62 46 36 57
REMARK Flexibility Score: inf
ROOT
ATOM      1  O   UNL A   1      41.394  21.581  25.582  1.00  0.00    -0.374 OA
ENDROOT
BRANCH   1   2
ATOM      2  C   UNL A   1      40.287  21.413  26.473  1.00  0.00     0.202 C 
BRANCH   2   3
ATOM      3  C   UNL A   1      38.991  22.077  25.891  1.00  0.00     0.261 C 
BRANCH   3   4
ATOM      4  O   UNL A   1      37.925  21.097  25.708  1.00  0.00    -0.459 OA
BRANCH   4   5
ATOM      5  C   UNL A   1      36.832  21.460  24.973  1.00  0.00     0.364 C 
ATOM      6  O   UNL A   1      36.939  21.974  23.861  1.00  0.00    -0.245 OA
BRANCH   5   7
ATOM      7  C   UNL A   1      35.432  21.115  25.637  1.00  0.00     0.295 C 
BRANCH   7   8
ATOM      8  C   UNL A   1      34.313  20.498  24.750  1.00  0.00     0.074 C 
ATOM      9  C   UNL A   1      34.180  18.991  24.626  1.00  0.00     0.011 C 
ENDBRANCH   7   8
BRANCH   7  10
ATOM     10  N   UNL A   1      35.004  22.095  26.720  1.00  0.00    -0.319 N 
ATOM     11  C   UNL A   1      33.762  21.773  27.472  1.00  0.00     0.268 C 
ATOM     12  C   UNL A   1      34.882  23.462  26.225  1.00  0.00     0.300 C 
ATOM     13  H   UNL A   1      35.777  22.001  27.380  1.00  0.00     0.349 HD
ATOM     14  C   UNL A   1      32.528  22.724  27.231  1.00  0.00     0.097 C 
ATOM     15  C   UNL A   1      33.730  23.561  25.262  1.00  0.00     0.012 A 
ATOM     16  C   UNL A   1      32.490  23.205  25.798  1.00  0.00    -0.033 A 
ATOM     17  C   UNL A   1      33.852  23.748  23.884  1.00  0.00     0.035 A 
ATOM     18  C   UNL A   1      31.364  23.182  24.981  1.00  0.00     0.006 A 
ATOM     19  C   UNL A   1      32.771  23.547  23.034  1.00  0.00     0.032 A 
ATOM     20  C   UNL A   1      31.517  23.330  23.596  1.00  0.00     0.026 A 
BRANCH  19  21
ATOM     21  N   UNL A   1      32.993  23.396  21.676  1.00  0.00    -0.399 N 
ATOM     22  H   UNL A   1      33.276  22.524  21.319  1.00  0.00     0.156 HD
ATOM     23  H   UNL A   1      32.868  24.160  21.070  1.00  0.00     0.156 HD
ENDBRANCH  19  21
ENDBRANCH   7  10
ENDBRANCH   5   7
ENDBRANCH   4   5
ENDBRANCH   3   4
ENDBRANCH   2   3
ENDBRANCH   1   2
BRANCH   1  24
ATOM     24  C   UNL A   1      42.713  21.301  26.055  1.00  0.00     0.202 C 
BRANCH  24  25
ATOM     25  C   UNL A   1      43.858  22.092  25.411  1.00  0.00     0.261 C 
BRANCH  25  26
ATOM     26  O   UNL A   1      43.364  23.317  24.858  1.00  0.00    -0.460 OA
BRANCH  26  27
ATOM     27  C   UNL A   1      44.145  24.404  25.026  1.00  0.00     0.338 C 
ATOM     28  O   UNL A   1      45.258  24.608  24.586  1.00  0.00    -0.246 OA
BRANCH  27  29
ATOM     29  C   UNL A   1      43.443  25.309  25.949  1.00  0.00     0.060 A 
ATOM     30  C   UNL A   1      43.957  26.573  26.240  1.00  0.00     0.016 A 
ATOM     31  C   UNL A   1      42.266  24.860  26.551  1.00  0.00     0.016 A 
ATOM     32  C   UNL A   1      43.314  27.372  27.189  1.00  0.00     0.010 A 
ATOM     33  C   UNL A   1      41.593  25.686  27.452  1.00  0.00     0.010 A 
ATOM     34  C   UNL A   1      42.140  26.926  27.820  1.00  0.00    -0.014 A 
BRANCH  34  35
ATOM     35  C   UNL A   1      41.591  27.667  28.986  1.00  0.00     0.031 A 
ATOM     36  C   UNL A   1      42.286  27.537  30.317  1.00  0.00     0.074 A 
ATOM     37  C   UNL A   1      40.523  28.476  28.866  1.00  0.00     0.049 A 
ATOM     38  N   UNL A   1      42.019  28.129  31.454  1.00  0.00    -0.248 NA
ATOM     39  C   UNL A   1      43.431  26.614  30.378  1.00  0.00     0.031 C 
ATOM     40  C   UNL A   1      39.753  28.694  27.642  1.00  0.00     0.029 A 
ATOM     41  N   UNL A   1      39.906  29.279  29.795  1.00  0.00    -0.354 N 
ATOM     42  C   UNL A   1      42.962  27.652  32.355  1.00  0.00     0.074 A 
ATOM     43  C   UNL A   1      43.769  26.679  31.655  1.00  0.00     0.031 C 
ATOM     44  C   UNL A   1      38.778  29.586  27.891  1.00  0.00     0.029 A 
ATOM     45  C   UNL A   1      38.841  29.988  29.296  1.00  0.00     0.049 A 
ATOM     46  H   UNL A   1      40.201  29.339  30.733  1.00  0.00     0.167 HD
ATOM     47  C   UNL A   1      43.165  28.011  33.644  1.00  0.00     0.037 A 
ATOM     48  C   UNL A   1      38.014  30.862  29.902  1.00  0.00     0.037 A 
ATOM     49  C   UNL A   1      42.385  28.989  34.347  1.00  0.00     0.049 A 
ATOM     50  C   UNL A   1      38.225  31.206  31.355  1.00  0.00     0.074 A 
ATOM     51  C   UNL A   1      42.540  29.445  35.644  1.00  0.00     0.029 A 
ATOM     52  N   UNL A   1      41.298  29.660  33.812  1.00  0.00    -0.354 N 
ATOM     53  N   UNL A   1      39.160  30.793  32.176  1.00  0.00    -0.248 NA
ATOM     54  C   UNL A   1      37.267  32.143  31.963  1.00  0.00     0.031 C 
ATOM     55  C   UNL A   1      41.519  30.362  35.908  1.00  0.00     0.029 A 
ATOM     56  C   UNL A   1      40.755  30.509  34.761  1.00  0.00     0.049 A 
ATOM     57  H   UNL A   1      40.961  29.551  32.892  1.00  0.00     0.167 HD
ATOM     58  C   UNL A   1      38.923  31.443  33.382  1.00  0.00     0.074 A 
ATOM     59  C   UNL A   1      37.760  32.282  33.186  1.00  0.00     0.031 C 
ATOM     60  C   UNL A   1      39.608  31.352  34.547  1.00  0.00     0.037 A 
BRANCH  47  61
ATOM     61  C   UNL A   1      44.285  27.332  34.374  1.00  0.00     0.057 A 
ATOM     62  C   UNL A   1      45.574  27.879  34.414  1.00  0.00     0.134 A 
ATOM     63  C   UNL A   1      44.068  26.129  35.054  1.00  0.00     0.134 A 
ATOM     64  F   UNL A   1      45.850  29.021  33.767  1.00  0.00    -0.206 F 
ATOM     65  C   UNL A   1      46.616  27.237  35.086  1.00  0.00     0.040 A 
ATOM     66  C   UNL A   1      45.095  25.491  35.751  1.00  0.00     0.040 A 
ATOM     67  F   UNL A   1      42.855  25.556  35.054  1.00  0.00    -0.206 F 
ATOM     68  C   UNL A   1      46.375  26.043  35.763  1.00  0.00     0.006 A 
ENDBRANCH  47  61
BRANCH  48  69
ATOM     69  C   UNL A   1      36.904  31.491  29.144  1.00  0.00     0.057 A 
ATOM     70  C   UNL A   1      36.986  32.817  28.700  1.00  0.00     0.134 A 
ATOM     71  C   UNL A   1      35.717  30.796  28.880  1.00  0.00     0.134 A 
ATOM     72  F   UNL A   1      38.087  33.543  28.944  1.00  0.00    -0.206 F 
ATOM     73  C   UNL A   1      35.921  33.435  28.041  1.00  0.00     0.040 A 
ATOM     74  C   UNL A   1      34.654  31.395  28.203  1.00  0.00     0.040 A 
ATOM     75  F   UNL A   1      35.576  29.524  29.281  1.00  0.00    -0.206 F 
ATOM     76  C   UNL A   1      34.752  32.722  27.789  1.00  0.00     0.006 A 
ENDBRANCH  48  69
BRANCH  60  77
ATOM     77  C   UNL A   1      39.151  32.204  35.693  1.00  0.00     0.057 A 
ATOM     78  C   UNL A   1      39.565  33.534  35.837  1.00  0.00     0.134 A 
ATOM     79  C   UNL A   1      38.226  31.710  36.624  1.00  0.00     0.134 A 
ATOM     80  F   UNL A   1      40.456  34.064  34.984  1.00  0.00    -0.206 F 
ATOM     81  C   UNL A   1      39.088  34.337  36.874  1.00  0.00     0.040 A 
ATOM     82  C   UNL A   1      37.724  32.511  37.650  1.00  0.00     0.040 A 
ATOM     83  F   UNL A   1      37.781  30.448  36.535  1.00  0.00    -0.206 F 
ATOM     84  C   UNL A   1      38.157  33.828  37.778  1.00  0.00     0.006 A 
ENDBRANCH  60  77
ENDBRANCH  34  35
ENDBRANCH  27  29
ENDBRANCH  26  27
ENDBRANCH  25  26
ENDBRANCH  24  25
ENDBRANCH   1  24
TORSDOF 17
ENDMDL
MODEL 2
REMARK VINA RESULT:     -10.7      3.831      6.501
REMARK SMILES CC[C@@H](C(=O)OCCOCCOC(=O)c1ccc(-c2c3nc(c(-c4c(F)cccc4F)c4ccc([nH]4)c(-c4c(F)cccc4F)c4nc(c(-c5c(F)cccc5F)c5ccc2[nH]5)C=C4)C=C3)cc1)[N@@H+]1CCc2ccc(N)cc2C1
REMARK SMILES IDX 9 1 8 2 7 3 6 4 4 5 5 6 3 7 2 8 1 9 69 10 70 11 79 12 71 14
REMARK SMILES IDX 78 15 72 16 77 17 73 18 75 19 74 20 76 21 10 24 11 25 12 26
REMARK SMILES IDX 13 27 14 28 15 29 16 30 68 31 17 32 67 33 18 34 19 35 20 36
REMARK SMILES IDX 61 37 21 38 66 39 60 40 62 41 22 42 65 43 59 44 58 45 23 47
REMARK SMILES IDX 49 48 32 49 48 50 33 51 36 52 47 53 63 54 34 55 35 56 46 58
REMARK SMILES IDX 64 59 37 60 24 61 25 62 30 63 26 64 27 65 29 66 31 67 28 68
REMARK SMILES IDX 50 69 51 70 56 71 52 72 53 73 55 74 57 75 54 76 38 77 39 78
REMARK SMILES IDX 44 79 40 80 41 81 43 82 45 83 42 84
REMARK H PARENT 69 13 76 22 76 23 62 46 36 57
REMARK Flexibility Score: inf
ROOT
ATOM      1  O   UNL A   1      35.287  21.476  25.946  1.00  0.00    -0.374 OA
ENDROOT
BRANCH   1   2
ATOM      2  C   UNL A   1      33.950  21.480  26.456  1.00  0.00     0.202 C 
BRANCH   2   3
ATOM      3  C   UNL A   1      33.654  22.800  27.247  1.00  0.00     0.261 C 
BRANCH   3   4
ATOM      4  O   UNL A   1      33.391  23.916  26.343  1.00  0.00    -0.459 OA
BRANCH   4   5
ATOM      5  C   UNL A   1      32.323  24.727  26.609  1.00  0.00     0.364 C 
ATOM      6  O   UNL A   1      31.404  24.369  27.343  1.00  0.00    -0.245 OA
BRANCH   5   7
ATOM      7  C   UNL A   1      32.395  26.169  25.950  1.00  0.00     0.295 C 
BRANCH   7   8
ATOM      8  C   UNL A   1      32.635  27.402  26.868  1.00  0.00     0.074 C 
ATOM      9  C   UNL A   1      31.464  28.093  27.541  1.00  0.00     0.011 C 
ENDBRANCH   7   8
BRANCH   7  10
ATOM     10  N   UNL A   1      31.460  26.353  24.763  1.00  0.00    -0.319 N 
ATOM     11  C   UNL A   1      30.378  25.348  24.590  1.00  0.00     0.268 C 
ATOM     12  C   UNL A   1      32.175  26.458  23.495  1.00  0.00     0.300 C 
ATOM     13  H   UNL A   1      31.004  27.231  25.013  1.00  0.00     0.349 HD
ATOM     14  C   UNL A   1      30.496  24.395  23.340  1.00  0.00     0.097 C 
ATOM     15  C   UNL A   1      32.826  25.144  23.160  1.00  0.00     0.012 A 
ATOM     16  C   UNL A   1      31.942  24.068  23.046  1.00  0.00    -0.033 A 
ATOM     17  C   UNL A   1      34.200  24.902  23.186  1.00  0.00     0.035 A 
ATOM     18  C   UNL A   1      32.437  22.788  22.816  1.00  0.00     0.006 A 
ATOM     19  C   UNL A   1      34.701  23.606  23.142  1.00  0.00     0.032 A 
ATOM     20  C   UNL A   1      33.818  22.561  22.890  1.00  0.00     0.026 A 
BRANCH  19  21
ATOM     21  N   UNL A   1      36.013  23.372  23.515  1.00  0.00    -0.399 N 
ATOM     22  H   UNL A   1      36.261  23.381  24.468  1.00  0.00     0.156 HD
ATOM     23  H   UNL A   1      36.696  23.197  22.830  1.00  0.00     0.156 HD
ENDBRANCH  19  21
ENDBRANCH   7  10
ENDBRANCH   5   7
ENDBRANCH   4   5
ENDBRANCH   3   4
ENDBRANCH   2   3
ENDBRANCH   1   2
BRANCH   1  24
ATOM     24  C   UNL A   1      35.705  20.399  25.105  1.00  0.00     0.202 C 
BRANCH  24  25
ATOM     25  C   UNL A   1      37.217  20.184  24.961  1.00  0.00     0.261 C 
BRANCH  25  26
ATOM     26  O   UNL A   1      37.926  21.354  25.386  1.00  0.00    -0.460 OA
BRANCH  26  27
ATOM     27  C   UNL A   1      39.135  21.146  25.947  1.00  0.00     0.338 C 
ATOM     28  O   UNL A   1      39.755  20.106  26.039  1.00  0.00    -0.246 OA
BRANCH  27  29
ATOM     29  C   UNL A   1      39.564  22.420  26.544  1.00  0.00     0.060 A 
ATOM     30  C   UNL A   1      38.966  23.623  26.167  1.00  0.00     0.016 A 
ATOM     31  C   UNL A   1      40.605  22.400  27.473  1.00  0.00     0.016 A 
ATOM     32  C   UNL A   1      39.458  24.824  26.685  1.00  0.00     0.010 A 
ATOM     33  C   UNL A   1      41.052  23.596  28.035  1.00  0.00     0.010 A 
ATOM     34  C   UNL A   1      40.520  24.822  27.606  1.00  0.00    -0.014 A 
BRANCH  34  35
ATOM     35  C   UNL A   1      41.190  26.097  27.976  1.00  0.00     0.031 A 
ATOM     36  C   UNL A   1      42.604  26.331  27.511  1.00  0.00     0.074 A 
ATOM     37  C   UNL A   1      40.548  27.053  28.673  1.00  0.00     0.049 A 
ATOM     38  N   UNL A   1      43.365  27.385  27.667  1.00  0.00    -0.248 NA
ATOM     39  C   UNL A   1      43.250  25.231  26.776  1.00  0.00     0.031 C 
ATOM     40  C   UNL A   1      39.182  26.960  29.187  1.00  0.00     0.029 A 
ATOM     41  N   UNL A   1      40.966  28.303  29.060  1.00  0.00    -0.354 N 
ATOM     42  C   UNL A   1      44.570  27.072  27.050  1.00  0.00     0.074 A 
ATOM     43  C   UNL A   1      44.464  25.713  26.569  1.00  0.00     0.031 C 
ATOM     44  C   UNL A   1      38.869  28.112  29.806  1.00  0.00     0.029 A 
ATOM     45  C   UNL A   1      40.017  29.016  29.751  1.00  0.00     0.049 A 
ATOM     46  H   UNL A   1      41.864  28.655  28.861  1.00  0.00     0.167 HD
ATOM     47  C   UNL A   1      45.660  27.852  26.867  1.00  0.00     0.037 A 
ATOM     48  C   UNL A   1      40.068  30.256  30.275  1.00  0.00     0.037 A 
ATOM     49  C   UNL A   1      45.773  29.210  27.321  1.00  0.00     0.049 A 
ATOM     50  C   UNL A   1      41.313  31.088  30.106  1.00  0.00     0.074 A 
ATOM     51  C   UNL A   1      46.826  30.091  27.150  1.00  0.00     0.029 A 
ATOM     52  N   UNL A   1      44.799  29.881  28.042  1.00  0.00    -0.354 N 
ATOM     53  N   UNL A   1      42.420  30.801  29.466  1.00  0.00    -0.248 NA
ATOM     54  C   UNL A   1      41.314  32.421  30.731  1.00  0.00     0.031 C 
ATOM     55  C   UNL A   1      46.505  31.283  27.804  1.00  0.00     0.029 A 
ATOM     56  C   UNL A   1      45.236  31.158  28.346  1.00  0.00     0.049 A 
ATOM     57  H   UNL A   1      43.925  29.506  28.299  1.00  0.00     0.167 HD
ATOM     58  C   UNL A   1      43.231  31.924  29.581  1.00  0.00     0.074 A 
ATOM     59  C   UNL A   1      42.488  32.901  30.348  1.00  0.00     0.031 C 
ATOM     60  C   UNL A   1      44.480  32.128  29.095  1.00  0.00     0.037 A 
BRANCH  47  61
ATOM     61  C   UNL A   1      46.820  27.245  26.138  1.00  0.00     0.057 A 
ATOM     62  C   UNL A   1      47.814  26.521  26.811  1.00  0.00     0.134 A 
ATOM     63  C   UNL A   1      46.937  27.372  24.750  1.00  0.00     0.134 A 
ATOM     64  F   UNL A   1      47.768  26.379  28.144  1.00  0.00    -0.206 F 
ATOM     65  C   UNL A   1      48.898  25.966  26.129  1.00  0.00     0.040 A 
ATOM     66  C   UNL A   1      48.003  26.801  24.053  1.00  0.00     0.040 A 
ATOM     67  F   UNL A   1      46.018  28.052  24.049  1.00  0.00    -0.206 F 
ATOM     68  C   UNL A   1      48.991  26.100  24.745  1.00  0.00     0.006 A 
ENDBRANCH  47  61
BRANCH  48  69
ATOM     69  C   UNL A   1      38.901  30.807  31.009  1.00  0.00     0.057 A 
ATOM     70  C   UNL A   1      38.719  30.561  32.375  1.00  0.00     0.134 A 
ATOM     71  C   UNL A   1      37.917  31.557  30.353  1.00  0.00     0.134 A 
ATOM     72  F   UNL A   1      39.614  29.827  33.054  1.00  0.00    -0.206 F 
ATOM     73  C   UNL A   1      37.592  31.021  33.059  1.00  0.00     0.040 A 
ATOM     74  C   UNL A   1      36.797  32.044  31.029  1.00  0.00     0.040 A 
ATOM     75  F   UNL A   1      38.032  31.826  29.045  1.00  0.00    -0.206 F 
ATOM     76  C   UNL A   1      36.628  31.768  32.385  1.00  0.00     0.006 A 
ENDBRANCH  48  69
BRANCH  60  77
ATOM     77  C   UNL A   1      45.113  33.465  29.338  1.00  0.00     0.057 A 
ATOM     78  C   UNL A   1      44.910  34.547  28.474  1.00  0.00     0.134 A 
ATOM     79  C   UNL A   1      45.878  33.690  30.491  1.00  0.00     0.134 A 
ATOM     80  F   UNL A   1      44.195  34.393  27.349  1.00  0.00    -0.206 F 
ATOM     81  C   UNL A   1      45.456  35.804  28.741  1.00  0.00     0.040 A 
ATOM     82  C   UNL A   1      46.409  34.948  30.780  1.00  0.00     0.040 A 
ATOM     83  F   UNL A   1      46.101  32.698  31.365  1.00  0.00    -0.206 F 
ATOM     84  C   UNL A   1      46.200  36.009  29.901  1.00  0.00     0.006 A 
ENDBRANCH  60  77
ENDBRANCH  34  35
ENDBRANCH  27  29
ENDBRANCH  26  27
ENDBRANCH  25  26
ENDBRANCH  24  25
ENDBRANCH   1  24
TORSDOF 17
ENDMDL
MODEL 3
REMARK VINA RESULT:     -10.7      4.121      6.711
REMARK SMILES CC[C@@H](C(=O)OCCOCCOC(=O)c1ccc(-c2c3nc(c(-c4c(F)cccc4F)c4ccc([nH]4)c(-c4c(F)cccc4F)c4nc(c(-c5c(F)cccc5F)c5ccc2[nH]5)C=C4)C=C3)cc1)[N@@H+]1CCc2ccc(N)cc2C1
REMARK SMILES IDX 9 1 8 2 7 3 6 4 4 5 5 6 3 7 2 8 1 9 69 10 70 11 79 12 71 14
REMARK SMILES IDX 78 15 72 16 77 17 73 18 75 19 74 20 76 21 10 24 11 25 12 26
REMARK SMILES IDX 13 27 14 28 15 29 16 30 68 31 17 32 67 33 18 34 19 35 20 36
REMARK SMILES IDX 61 37 21 38 66 39 60 40 62 41 22 42 65 43 59 44 58 45 23 47
REMARK SMILES IDX 49 48 32 49 48 50 33 51 36 52 47 53 63 54 34 55 35 56 46 58
REMARK SMILES IDX 64 59 37 60 24 61 25 62 30 63 26 64 27 65 29 66 31 67 28 68
REMARK SMILES IDX 50 69 51 70 56 71 52 72 53 73 55 74 57 75 54 76 38 77 39 78
REMARK SMILES IDX 44 79 40 80 41 81 43 82 45 83 42 84
REMARK H PARENT 69 13 76 22 76 23 62 46 36 57
REMARK Flexibility Score: inf
ROOT
ATOM      1  O   UNL A   1      35.406  21.430  25.498  1.00  0.00    -0.374 OA
ENDROOT
BRANCH   1   2
ATOM      2  C   UNL A   1      34.048  21.495  25.947  1.00  0.00     0.202 C 
BRANCH   2   3
ATOM      3  C   UNL A   1      33.319  22.749  25.351  1.00  0.00     0.261 C 
BRANCH   3   4
ATOM      4  O   UNL A   1      33.429  23.902  26.240  1.00  0.00    -0.459 OA
BRANCH   4   5
ATOM      5  C   UNL A   1      32.322  24.682  26.427  1.00  0.00     0.364 C 
ATOM      6  O   UNL A   1      31.244  24.205  26.773  1.00  0.00    -0.245 OA
BRANCH   5   7
ATOM      7  C   UNL A   1      32.556  26.238  26.221  1.00  0.00     0.295 C 
BRANCH   7   8
ATOM      8  C   UNL A   1      31.450  27.231  26.682  1.00  0.00     0.074 C 
ATOM      9  C   UNL A   1      31.816  28.463  27.488  1.00  0.00     0.011 C 
ENDBRANCH   7   8
BRANCH   7  10
ATOM     10  N   UNL A   1      33.321  26.586  24.952  1.00  0.00    -0.319 N 
ATOM     11  C   UNL A   1      33.564  28.027  24.680  1.00  0.00     0.268 C 
ATOM     12  C   UNL A   1      32.719  26.004  23.756  1.00  0.00     0.300 C 
ATOM     13  H   UNL A   1      34.230  26.170  25.156  1.00  0.00     0.349 HD
ATOM     14  C   UNL A   1      32.802  28.649  23.447  1.00  0.00     0.097 C 
ATOM     15  C   UNL A   1      31.385  26.646  23.485  1.00  0.00     0.012 A 
ATOM     16  C   UNL A   1      31.433  28.028  23.291  1.00  0.00    -0.033 A 
ATOM     17  C   UNL A   1      30.149  26.018  23.641  1.00  0.00     0.035 A 
ATOM     18  C   UNL A   1      30.252  28.742  23.110  1.00  0.00     0.006 A 
ATOM     19  C   UNL A   1      28.968  26.750  23.646  1.00  0.00     0.032 A 
ATOM     20  C   UNL A   1      29.023  28.101  23.314  1.00  0.00     0.026 A 
BRANCH  19  21
ATOM     21  N   UNL A   1      27.812  26.173  24.142  1.00  0.00    -0.399 N 
ATOM     22  H   UNL A   1      27.519  25.294  23.806  1.00  0.00     0.156 HD
ATOM     23  H   UNL A   1      27.283  26.639  24.828  1.00  0.00     0.156 HD
ENDBRANCH  19  21
ENDBRANCH   7  10
ENDBRANCH   5   7
ENDBRANCH   4   5
ENDBRANCH   3   4
ENDBRANCH   2   3
ENDBRANCH   1   2
BRANCH   1  24
ATOM     24  C   UNL A   1      35.909  20.193  24.991  1.00  0.00     0.202 C 
BRANCH  24  25
ATOM     25  C   UNL A   1      37.433  20.021  24.982  1.00  0.00     0.261 C 
BRANCH  25  26
ATOM     26  O   UNL A   1      38.068  21.199  25.492  1.00  0.00    -0.460 OA
BRANCH  26  27
ATOM     27  C   UNL A   1      39.296  21.032  26.022  1.00  0.00     0.338 C 
ATOM     28  O   UNL A   1      39.948  20.011  26.106  1.00  0.00    -0.246 OA
BRANCH  27  29
ATOM     29  C   UNL A   1      39.704  22.323  26.596  1.00  0.00     0.060 A 
ATOM     30  C   UNL A   1      39.101  23.511  26.182  1.00  0.00     0.016 A 
ATOM     31  C   UNL A   1      40.731  22.334  27.542  1.00  0.00     0.016 A 
ATOM     32  C   UNL A   1      39.573  24.729  26.680  1.00  0.00     0.010 A 
ATOM     33  C   UNL A   1      41.158  23.547  28.083  1.00  0.00     0.010 A 
ATOM     34  C   UNL A   1      40.621  24.758  27.617  1.00  0.00    -0.014 A 
BRANCH  34  35
ATOM     35  C   UNL A   1      41.272  26.047  27.967  1.00  0.00     0.031 A 
ATOM     36  C   UNL A   1      42.678  26.301  27.485  1.00  0.00     0.074 A 
ATOM     37  C   UNL A   1      40.622  26.999  28.662  1.00  0.00     0.049 A 
ATOM     38  N   UNL A   1      43.422  27.369  27.624  1.00  0.00    -0.248 NA
ATOM     39  C   UNL A   1      43.335  25.205  26.754  1.00  0.00     0.031 C 
ATOM     40  C   UNL A   1      39.264  26.888  29.192  1.00  0.00     0.029 A 
ATOM     41  N   UNL A   1      41.023  28.260  29.033  1.00  0.00    -0.354 N 
ATOM     42  C   UNL A   1      44.626  27.070  26.997  1.00  0.00     0.074 A 
ATOM     43  C   UNL A   1      44.538  25.706  26.530  1.00  0.00     0.031 C 
ATOM     44  C   UNL A   1      38.937  28.040  29.803  1.00  0.00     0.029 A 
ATOM     45  C   UNL A   1      40.069  28.963  29.727  1.00  0.00     0.049 A 
ATOM     46  H   UNL A   1      41.913  28.625  28.821  1.00  0.00     0.167 HD
ATOM     47  C   UNL A   1      45.700  27.867  26.795  1.00  0.00     0.037 A 
ATOM     48  C   UNL A   1      40.104  30.209  30.239  1.00  0.00     0.037 A 
ATOM     49  C   UNL A   1      45.795  29.231  27.234  1.00  0.00     0.049 A 
ATOM     50  C   UNL A   1      41.334  31.060  30.050  1.00  0.00     0.074 A 
ATOM     51  C   UNL A   1      46.831  30.128  27.044  1.00  0.00     0.029 A 
ATOM     52  N   UNL A   1      44.817  29.892  27.960  1.00  0.00    -0.354 N 
ATOM     53  N   UNL A   1      42.439  30.786  29.400  1.00  0.00    -0.248 NA
ATOM     54  C   UNL A   1      41.318  32.399  30.662  1.00  0.00     0.031 C 
ATOM     55  C   UNL A   1      46.497  31.321  27.691  1.00  0.00     0.029 A 
ATOM     56  C   UNL A   1      45.236  31.180  28.247  1.00  0.00     0.049 A 
ATOM     57  H   UNL A   1      43.953  29.505  28.230  1.00  0.00     0.167 HD
ATOM     58  C   UNL A   1      43.232  31.924  29.496  1.00  0.00     0.074 A 
ATOM     59  C   UNL A   1      42.480  32.895  30.262  1.00  0.00     0.031 C 
ATOM     60  C   UNL A   1      44.471  32.143  28.994  1.00  0.00     0.037 A 
BRANCH  47  61
ATOM     61  C   UNL A   1      46.863  27.273  26.060  1.00  0.00     0.057 A 
ATOM     62  C   UNL A   1      47.014  27.425  24.675  1.00  0.00     0.134 A 
ATOM     63  C   UNL A   1      47.849  26.553  26.745  1.00  0.00     0.134 A 
ATOM     64  F   UNL A   1      46.094  28.089  23.959  1.00  0.00    -0.206 F 
ATOM     65  C   UNL A   1      48.093  26.860  23.993  1.00  0.00     0.040 A 
ATOM     66  C   UNL A   1      48.945  26.005  26.079  1.00  0.00     0.040 A 
ATOM     67  F   UNL A   1      47.762  26.373  28.071  1.00  0.00    -0.206 F 
ATOM     68  C   UNL A   1      49.066  26.153  24.697  1.00  0.00     0.006 A 
ENDBRANCH  47  61
BRANCH  48  69
ATOM     69  C   UNL A   1      38.936  30.747  30.980  1.00  0.00     0.057 A 
ATOM     70  C   UNL A   1      37.963  31.523  30.339  1.00  0.00     0.134 A 
ATOM     71  C   UNL A   1      38.786  30.532  32.356  1.00  0.00     0.134 A 
ATOM     72  F   UNL A   1      38.064  31.786  29.028  1.00  0.00    -0.206 F 
ATOM     73  C   UNL A   1      36.895  32.085  31.042  1.00  0.00     0.040 A 
ATOM     74  C   UNL A   1      37.711  31.068  33.066  1.00  0.00     0.040 A 
ATOM     75  F   UNL A   1      39.685  29.799  33.027  1.00  0.00    -0.206 F 
ATOM     76  C   UNL A   1      36.766  31.855  32.410  1.00  0.00     0.006 A 
ENDBRANCH  48  69
BRANCH  60  77
ATOM     77  C   UNL A   1      45.085  33.493  29.219  1.00  0.00     0.057 A 
ATOM     78  C   UNL A   1      45.933  33.748  30.302  1.00  0.00     0.134 A 
ATOM     79  C   UNL A   1      44.881  34.530  28.298  1.00  0.00     0.134 A 
ATOM     80  F   UNL A   1      46.162  32.799  31.224  1.00  0.00    -0.206 F 
ATOM     81  C   UNL A   1      46.547  34.991  30.470  1.00  0.00     0.040 A 
ATOM     82  C   UNL A   1      45.508  35.768  28.442  1.00  0.00     0.040 A 
ATOM     83  F   UNL A   1      44.087  34.347  27.232  1.00  0.00    -0.206 F 
ATOM     84  C   UNL A   1      46.342  36.001  29.533  1.00  0.00     0.006 A 
ENDBRANCH  60  77
ENDBRANCH  34  35
ENDBRANCH  27  29
ENDBRANCH  26  27
ENDBRANCH  25  26
ENDBRANCH  24  25
ENDBRANCH   1  24
TORSDOF 17
ENDMDL
