MODEL 1
REMARK VINA RESULT:     -11.2      0.000      0.000
REMARK SMILES COc1ccc(CCN2/C(=[NH+]/C(=O)CCC(=O)OCCOCCOC(=O)c3ccc(-c4c5nc(c(-c6c(F)cccc6F)c6ccc([nH]6)c(-c6c(F)cccc6F)c6nc(c(-c7c(F)cccc7F)c7ccc4[nH]7)C=C6)C=C5)cc3)S[C@@H]3CS(=O)(=O)C[C@@H]32)cc1
REMARK SMILES IDX 19 1 18 2 16 3 17 4 15 5 14 6 12 7 9 8 10 9 88 10 11 11
REMARK SMILES IDX 81 12 82 13 87 14 83 16 84 17 13 18 85 19 86 20 8 21 7 22
REMARK SMILES IDX 6 23 3 24 4 25 90 26 5 27 89 28 2 29 1 30 20 31 21 32 22 33
REMARK SMILES IDX 23 34 24 35 25 36 26 37 27 38 28 39 80 40 29 41 79 42 30 43
REMARK SMILES IDX 31 44 32 45 73 46 33 47 78 48 72 49 74 50 34 51 77 52 71 53
REMARK SMILES IDX 70 54 35 56 61 57 44 58 60 59 45 60 48 61 59 62 75 63 46 64
REMARK SMILES IDX 47 65 58 67 76 68 49 69 36 70 37 71 42 72 38 73 39 74 41 75
REMARK SMILES IDX 43 76 40 77 62 78 63 79 68 80 64 81 65 82 67 83 69 84 66 85
REMARK SMILES IDX 50 86 51 87 56 88 52 89 53 90 55 91 57 92 54 93
REMARK H PARENT 11 15 74 55 48 66
REMARK Flexibility Score: inf
ROOT
ATOM      1  C   UNL A   1      35.451  32.767  28.236  1.00  0.00     0.261 C 
ENDROOT
BRANCH   1   2
ATOM      2  O   UNL A   1      34.573  31.687  28.595  1.00  0.00    -0.463 OA
BRANCH   2   3
ATOM      3  C   UNL A   1      33.739  31.191  27.650  1.00  0.00     0.306 C 
ATOM      4  O   UNL A   1      32.730  31.739  27.232  1.00  0.00    -0.252 OA
BRANCH   3   5
ATOM      5  C   UNL A   1      34.249  29.863  27.133  1.00  0.00     0.135 C 
BRANCH   5   6
ATOM      6  C   UNL A   1      33.163  28.796  27.100  1.00  0.00     0.139 C 
BRANCH   6   7
ATOM      7  C   UNL A   1      32.965  28.058  25.778  1.00  0.00     0.308 C 
ATOM      8  N   UNL A   1      29.811  27.359  24.095  1.00  0.00    -0.251 N 
ATOM      9  C   UNL A   1      31.113  27.773  24.409  1.00  0.00     0.314 C 
ATOM     10  C   UNL A   1      29.269  27.965  22.867  1.00  0.00     0.206 C 
ATOM     11  N   UNL A   1      31.703  27.573  25.539  1.00  0.00    -0.205 N 
ATOM     12  S   UNL A   1      31.827  28.655  23.057  1.00  0.00    -0.030 SA
ATOM     13  C   UNL A   1      30.218  29.063  22.377  1.00  0.00     0.120 C 
ATOM     14  C   UNL A   1      27.860  28.522  22.992  1.00  0.00     0.187 C 
ATOM     15  H   UNL A   1      31.240  27.063  26.242  1.00  0.00     0.316 HD
ATOM     16  C   UNL A   1      29.742  30.382  22.936  1.00  0.00     0.156 C 
ATOM     17  S   UNL A   1      27.987  30.272  22.763  1.00  0.00     0.155 S 
ATOM     18  O   UNL A   1      33.945  27.809  25.077  1.00  0.00    -0.247 OA
ATOM     19  O   UNL A   1      27.357  30.945  23.876  1.00  0.00    -0.229 OA
ATOM     20  O   UNL A   1      27.658  30.563  21.383  1.00  0.00    -0.229 OA
BRANCH   8  21
ATOM     21  C   UNL A   1      29.498  25.915  24.305  1.00  0.00     0.242 C 
BRANCH  21  22
ATOM     22  C   UNL A   1      30.282  24.856  23.501  1.00  0.00     0.081 C 
BRANCH  22  23
ATOM     23  C   UNL A   1      31.159  23.891  24.298  1.00  0.00    -0.044 A 
ATOM     24  C   UNL A   1      32.872  22.229  25.854  1.00  0.00     0.118 A 
ATOM     25  C   UNL A   1      31.639  22.626  26.343  1.00  0.00     0.046 A 
ATOM     26  C   UNL A   1      33.235  22.624  24.566  1.00  0.00     0.046 A 
ATOM     27  C   UNL A   1      30.813  23.458  25.579  1.00  0.00     0.007 A 
ATOM     28  C   UNL A   1      32.393  23.448  23.797  1.00  0.00     0.007 A 
BRANCH  24  29
ATOM     29  O   UNL A   1      33.785  21.476  26.539  1.00  0.00    -0.497 OA
ATOM     30  C   UNL A   1      35.111  21.458  26.007  1.00  0.00     0.278 C 
ENDBRANCH  24  29
ENDBRANCH  22  23
ENDBRANCH  21  22
ENDBRANCH   8  21
ENDBRANCH   6   7
ENDBRANCH   5   6
ENDBRANCH   3   5
ENDBRANCH   2   3
ENDBRANCH   1   2
BRANCH   1  31
ATOM     31  C   UNL A   1      35.353  33.937  29.228  1.00  0.00     0.202 C 
BRANCH  31  32
ATOM     32  O   UNL A   1      34.776  35.116  28.672  1.00  0.00    -0.374 OA
BRANCH  32  33
ATOM     33  C   UNL A   1      33.348  35.155  28.710  1.00  0.00     0.202 C 
BRANCH  33  34
ATOM     34  C   UNL A   1      32.778  36.173  29.703  1.00  0.00     0.261 C 
BRANCH  34  35
ATOM     35  O   UNL A   1      32.178  35.522  30.848  1.00  0.00    -0.460 OA
BRANCH  35  36
ATOM     36  C   UNL A   1      32.625  35.911  32.064  1.00  0.00     0.338 C 
ATOM     37  O   UNL A   1      32.122  36.759  32.786  1.00  0.00    -0.246 OA
BRANCH  36  38
ATOM     38  C   UNL A   1      33.796  35.100  32.496  1.00  0.00     0.060 A 
ATOM     39  C   UNL A   1      35.046  35.731  32.512  1.00  0.00     0.016 A 
ATOM     40  C   UNL A   1      33.708  33.752  32.873  1.00  0.00     0.016 A 
ATOM     41  C   UNL A   1      36.186  35.033  32.928  1.00  0.00     0.010 A 
ATOM     42  C   UNL A   1      34.866  33.038  33.246  1.00  0.00     0.010 A 
ATOM     43  C   UNL A   1      36.119  33.670  33.284  1.00  0.00    -0.014 A 
BRANCH  43  44
ATOM     44  C   UNL A   1      37.400  32.948  33.568  1.00  0.00     0.031 A 
ATOM     45  C   UNL A   1      37.960  33.018  34.954  1.00  0.00     0.074 A 
ATOM     46  C   UNL A   1      38.056  32.200  32.657  1.00  0.00     0.049 A 
ATOM     47  N   UNL A   1      39.008  32.414  35.447  1.00  0.00    -0.248 NA
ATOM     48  C   UNL A   1      37.295  33.946  35.881  1.00  0.00     0.031 C 
ATOM     49  C   UNL A   1      37.747  32.170  31.244  1.00  0.00     0.029 A 
ATOM     50  N   UNL A   1      39.079  31.285  32.773  1.00  0.00    -0.354 N 
ATOM     51  C   UNL A   1      39.183  32.958  36.708  1.00  0.00     0.074 A 
ATOM     52  C   UNL A   1      38.080  33.864  36.943  1.00  0.00     0.031 C 
ATOM     53  C   UNL A   1      38.392  31.146  30.658  1.00  0.00     0.029 A 
ATOM     54  C   UNL A   1      39.271  30.521  31.638  1.00  0.00     0.049 A 
ATOM     55  H   UNL A   1      39.622  31.183  33.588  1.00  0.00     0.167 HD
ATOM     56  C   UNL A   1      40.227  32.795  37.550  1.00  0.00     0.037 A 
ATOM     57  C   UNL A   1      40.067  29.453  31.414  1.00  0.00     0.037 A 
ATOM     58  C   UNL A   1      41.356  31.948  37.287  1.00  0.00     0.049 A 
ATOM     59  C   UNL A   1      41.107  29.132  32.454  1.00  0.00     0.074 A 
ATOM     60  C   UNL A   1      42.507  31.786  38.035  1.00  0.00     0.029 A 
ATOM     61  N   UNL A   1      41.479  31.125  36.177  1.00  0.00    -0.354 N 
ATOM     62  N   UNL A   1      41.270  29.668  33.638  1.00  0.00    -0.248 NA
ATOM     63  C   UNL A   1      42.133  28.138  32.097  1.00  0.00     0.031 C 
ATOM     64  C   UNL A   1      43.339  30.883  37.366  1.00  0.00     0.029 A 
ATOM     65  C   UNL A   1      42.684  30.446  36.225  1.00  0.00     0.049 A 
ATOM     66  H   UNL A   1      40.808  31.037  35.461  1.00  0.00     0.167 HD
ATOM     67  C   UNL A   1      42.451  29.134  34.134  1.00  0.00     0.074 A 
ATOM     68  C   UNL A   1      42.914  28.161  33.169  1.00  0.00     0.031 C 
ATOM     69  C   UNL A   1      43.121  29.472  35.260  1.00  0.00     0.037 A 
BRANCH  56  70
ATOM     70  C   UNL A   1      40.238  33.678  38.756  1.00  0.00     0.057 A 
ATOM     71  C   UNL A   1      39.538  33.355  39.924  1.00  0.00     0.134 A 
ATOM     72  C   UNL A   1      40.895  34.914  38.707  1.00  0.00     0.134 A 
ATOM     73  F   UNL A   1      38.854  32.205  40.010  1.00  0.00    -0.206 F 
ATOM     74  C   UNL A   1      39.470  34.247  40.994  1.00  0.00     0.040 A 
ATOM     75  C   UNL A   1      40.852  35.803  39.779  1.00  0.00     0.040 A 
ATOM     76  F   UNL A   1      41.565  35.286  37.605  1.00  0.00    -0.206 F 
ATOM     77  C   UNL A   1      40.129  35.474  40.923  1.00  0.00     0.006 A 
ENDBRANCH  56  70
BRANCH  57  78
ATOM     78  C   UNL A   1      39.981  28.626  30.173  1.00  0.00     0.057 A 
ATOM     79  C   UNL A   1      39.218  27.446  30.164  1.00  0.00     0.134 A 
ATOM     80  C   UNL A   1      40.683  28.929  29.001  1.00  0.00     0.134 A 
ATOM     81  F   UNL A   1      38.537  27.078  31.262  1.00  0.00    -0.206 F 
ATOM     82  C   UNL A   1      39.172  26.598  29.054  1.00  0.00     0.040 A 
ATOM     83  C   UNL A   1      40.614  28.111  27.868  1.00  0.00     0.040 A 
ATOM     84  F   UNL A   1      41.449  30.027  28.935  1.00  0.00    -0.206 F 
ATOM     85  C   UNL A   1      39.868  26.936  27.897  1.00  0.00     0.006 A 
ENDBRANCH  57  78
BRANCH  69  86
ATOM     86  C   UNL A   1      44.434  28.798  35.509  1.00  0.00     0.057 A 
ATOM     87  C   UNL A   1      45.635  29.335  35.026  1.00  0.00     0.134 A 
ATOM     88  C   UNL A   1      44.506  27.652  36.308  1.00  0.00     0.134 A 
ATOM     89  F   UNL A   1      45.627  30.427  34.246  1.00  0.00    -0.206 F 
ATOM     90  C   UNL A   1      46.865  28.754  35.331  1.00  0.00     0.040 A 
ATOM     91  C   UNL A   1      45.732  27.072  36.634  1.00  0.00     0.040 A 
ATOM     92  F   UNL A   1      43.389  27.096  36.800  1.00  0.00    -0.206 F 
ATOM     93  C   UNL A   1      46.916  27.624  36.147  1.00  0.00     0.006 A 
ENDBRANCH  69  86
ENDBRANCH  43  44
ENDBRANCH  36  38
ENDBRANCH  35  36
ENDBRANCH  34  35
ENDBRANCH  33  34
ENDBRANCH  32  33
ENDBRANCH  31  32
ENDBRANCH   1  31
TORSDOF 20
ENDMDL
MODEL 2
REMARK VINA RESULT:     -11.1      1.299      3.889
REMARK SMILES COc1ccc(CCN2/C(=[NH+]/C(=O)CCC(=O)OCCOCCOC(=O)c3ccc(-c4c5nc(c(-c6c(F)cccc6F)c6ccc([nH]6)c(-c6c(F)cccc6F)c6nc(c(-c7c(F)cccc7F)c7ccc4[nH]7)C=C6)C=C5)cc3)S[C@@H]3CS(=O)(=O)C[C@@H]32)cc1
REMARK SMILES IDX 19 1 18 2 16 3 17 4 15 5 14 6 12 7 9 8 10 9 88 10 11 11
REMARK SMILES IDX 81 12 82 13 87 14 83 16 84 17 13 18 85 19 86 20 8 21 7 22
REMARK SMILES IDX 6 23 3 24 4 25 90 26 5 27 89 28 2 29 1 30 20 31 21 32 22 33
REMARK SMILES IDX 23 34 24 35 25 36 26 37 27 38 28 39 80 40 29 41 79 42 30 43
REMARK SMILES IDX 31 44 32 45 73 46 33 47 78 48 72 49 74 50 34 51 77 52 71 53
REMARK SMILES IDX 70 54 35 56 61 57 44 58 60 59 45 60 48 61 59 62 75 63 46 64
REMARK SMILES IDX 47 65 58 67 76 68 49 69 36 70 37 71 42 72 38 73 39 74 41 75
REMARK SMILES IDX 43 76 40 77 62 78 63 79 68 80 64 81 65 82 67 83 69 84 66 85
REMARK SMILES IDX 50 86 51 87 56 88 52 89 53 90 55 91 57 92 54 93
REMARK H PARENT 11 15 74 55 48 66
REMARK Flexibility Score: inf
ROOT
ATOM      1  C   UNL A   1      35.475  32.615  28.271  1.00  0.00     0.261 C 
ENDROOT
BRANCH   1   2
ATOM      2  O   UNL A   1      34.489  31.649  28.671  1.00  0.00    -0.463 OA
BRANCH   2   3
ATOM      3  C   UNL A   1      33.824  30.967  27.709  1.00  0.00     0.306 C 
ATOM      4  O   UNL A   1      32.812  31.346  27.137  1.00  0.00    -0.252 OA
BRANCH   3   5
ATOM      5  C   UNL A   1      34.529  29.667  27.393  1.00  0.00     0.135 C 
BRANCH   5   6
ATOM      6  C   UNL A   1      34.043  29.043  26.092  1.00  0.00     0.139 C 
BRANCH   6   7
ATOM      7  C   UNL A   1      32.950  27.981  26.204  1.00  0.00     0.308 C 
ATOM      8  N   UNL A   1      32.317  25.218  23.917  1.00  0.00    -0.251 N 
ATOM      9  C   UNL A   1      32.566  26.005  25.050  1.00  0.00     0.314 C 
ATOM     10  C   UNL A   1      32.560  23.780  24.123  1.00  0.00     0.206 C 
ATOM     11  N   UNL A   1      32.655  27.292  25.054  1.00  0.00    -0.205 N 
ATOM     12  S   UNL A   1      32.789  24.989  26.476  1.00  0.00    -0.030 SA
ATOM     13  C   UNL A   1      33.232  23.563  25.482  1.00  0.00     0.120 C 
ATOM     14  C   UNL A   1      33.376  23.103  23.033  1.00  0.00     0.187 C 
ATOM     15  H   UNL A   1      32.508  27.790  24.217  1.00  0.00     0.316 HD
ATOM     16  C   UNL A   1      34.726  23.528  25.269  1.00  0.00     0.156 C 
ATOM     17  S   UNL A   1      34.890  22.582  23.787  1.00  0.00     0.155 S 
ATOM     18  O   UNL A   1      32.302  27.897  27.246  1.00  0.00    -0.247 OA
ATOM     19  O   UNL A   1      36.004  23.089  23.019  1.00  0.00    -0.229 OA
ATOM     20  O   UNL A   1      34.752  21.182  24.135  1.00  0.00    -0.229 OA
BRANCH   8  21
ATOM     21  C   UNL A   1      31.115  25.569  23.107  1.00  0.00     0.242 C 
BRANCH  21  22
ATOM     22  C   UNL A   1      29.819  25.987  23.835  1.00  0.00     0.081 C 
BRANCH  22  23
ATOM     23  C   UNL A   1      29.198  27.323  23.431  1.00  0.00    -0.044 A 
ATOM     24  C   UNL A   1      28.007  29.747  22.520  1.00  0.00     0.118 A 
ATOM     25  C   UNL A   1      27.243  28.776  23.147  1.00  0.00     0.046 A 
ATOM     26  C   UNL A   1      29.378  29.529  22.387  1.00  0.00     0.046 A 
ATOM     27  C   UNL A   1      27.832  27.582  23.573  1.00  0.00     0.007 A 
ATOM     28  C   UNL A   1      29.968  28.331  22.831  1.00  0.00     0.007 A 
BRANCH  24  29
ATOM     29  O   UNL A   1      27.524  30.917  22.004  1.00  0.00    -0.497 OA
ATOM     30  C   UNL A   1      28.278  31.492  20.936  1.00  0.00     0.278 C 
ENDBRANCH  24  29
ENDBRANCH  22  23
ENDBRANCH  21  22
ENDBRANCH   8  21
ENDBRANCH   6   7
ENDBRANCH   5   6
ENDBRANCH   3   5
ENDBRANCH   2   3
ENDBRANCH   1   2
BRANCH   1  31
ATOM     31  C   UNL A   1      35.458  33.859  29.173  1.00  0.00     0.202 C 
BRANCH  31  32
ATOM     32  O   UNL A   1      34.740  34.961  28.621  1.00  0.00    -0.374 OA
BRANCH  32  33
ATOM     33  C   UNL A   1      33.327  34.912  28.824  1.00  0.00     0.202 C 
BRANCH  33  34
ATOM     34  C   UNL A   1      32.794  36.000  29.762  1.00  0.00     0.261 C 
BRANCH  34  35
ATOM     35  O   UNL A   1      32.177  35.432  30.941  1.00  0.00    -0.460 OA
BRANCH  35  36
ATOM     36  C   UNL A   1      32.655  35.854  32.134  1.00  0.00     0.338 C 
ATOM     37  O   UNL A   1      32.170  36.722  32.844  1.00  0.00    -0.246 OA
BRANCH  36  38
ATOM     38  C   UNL A   1      33.837  35.055  32.558  1.00  0.00     0.060 A 
ATOM     39  C   UNL A   1      35.086  35.686  32.526  1.00  0.00     0.016 A 
ATOM     40  C   UNL A   1      33.758  33.717  32.975  1.00  0.00     0.016 A 
ATOM     41  C   UNL A   1      36.236  34.999  32.932  1.00  0.00     0.010 A 
ATOM     42  C   UNL A   1      34.925  33.014  33.338  1.00  0.00     0.010 A 
ATOM     43  C   UNL A   1      36.179  33.646  33.327  1.00  0.00    -0.014 A 
BRANCH  43  44
ATOM     44  C   UNL A   1      37.466  32.932  33.599  1.00  0.00     0.031 A 
ATOM     45  C   UNL A   1      38.044  33.012  34.977  1.00  0.00     0.074 A 
ATOM     46  C   UNL A   1      38.115  32.182  32.683  1.00  0.00     0.049 A 
ATOM     47  N   UNL A   1      39.101  32.415  35.460  1.00  0.00    -0.248 NA
ATOM     48  C   UNL A   1      37.386  33.942  35.907  1.00  0.00     0.031 C 
ATOM     49  C   UNL A   1      37.787  32.143  31.274  1.00  0.00     0.029 A 
ATOM     50  N   UNL A   1      39.144  31.272  32.792  1.00  0.00    -0.354 N 
ATOM     51  C   UNL A   1      39.289  32.967  36.715  1.00  0.00     0.074 A 
ATOM     52  C   UNL A   1      38.185  33.870  36.959  1.00  0.00     0.031 C 
ATOM     53  C   UNL A   1      38.430  31.119  30.686  1.00  0.00     0.029 A 
ATOM     54  C   UNL A   1      39.324  30.503  31.657  1.00  0.00     0.049 A 
ATOM     55  H   UNL A   1      39.697  31.178  33.600  1.00  0.00     0.167 HD
ATOM     56  C   UNL A   1      40.345  32.813  37.545  1.00  0.00     0.037 A 
ATOM     57  C   UNL A   1      40.123  29.437  31.430  1.00  0.00     0.037 A 
ATOM     58  C   UNL A   1      41.474  31.970  37.272  1.00  0.00     0.049 A 
ATOM     59  C   UNL A   1      41.177  29.127  32.458  1.00  0.00     0.074 A 
ATOM     60  C   UNL A   1      42.635  31.818  38.007  1.00  0.00     0.029 A 
ATOM     61  N   UNL A   1      41.587  31.142  36.165  1.00  0.00    -0.354 N 
ATOM     62  N   UNL A   1      41.353  29.670  33.637  1.00  0.00    -0.248 NA
ATOM     63  C   UNL A   1      42.203  28.136  32.093  1.00  0.00     0.031 C 
ATOM     64  C   UNL A   1      43.463  30.915  37.331  1.00  0.00     0.029 A 
ATOM     65  C   UNL A   1      42.795  30.469  36.201  1.00  0.00     0.049 A 
ATOM     66  H   UNL A   1      40.908  31.047  35.458  1.00  0.00     0.167 HD
ATOM     67  C   UNL A   1      42.542  29.145  34.121  1.00  0.00     0.074 A 
ATOM     68  C   UNL A   1      42.998  28.168  33.154  1.00  0.00     0.031 C 
ATOM     69  C   UNL A   1      43.225  29.492  35.236  1.00  0.00     0.037 A 
BRANCH  56  70
ATOM     70  C   UNL A   1      40.367  33.704  38.746  1.00  0.00     0.057 A 
ATOM     71  C   UNL A   1      39.666  33.394  39.917  1.00  0.00     0.134 A 
ATOM     72  C   UNL A   1      41.036  34.932  38.689  1.00  0.00     0.134 A 
ATOM     73  F   UNL A   1      38.970  32.252  40.010  1.00  0.00    -0.206 F 
ATOM     74  C   UNL A   1      39.608  34.293  40.982  1.00  0.00     0.040 A 
ATOM     75  C   UNL A   1      41.005  35.827  39.756  1.00  0.00     0.040 A 
ATOM     76  F   UNL A   1      41.708  35.291  37.584  1.00  0.00    -0.206 F 
ATOM     77  C   UNL A   1      40.280  35.512  40.903  1.00  0.00     0.006 A 
ENDBRANCH  56  70
BRANCH  57  78
ATOM     78  C   UNL A   1      40.025  28.603  30.194  1.00  0.00     0.057 A 
ATOM     79  C   UNL A   1      39.252  27.429  30.196  1.00  0.00     0.134 A 
ATOM     80  C   UNL A   1      40.724  28.893  29.017  1.00  0.00     0.134 A 
ATOM     81  F   UNL A   1      38.574  27.074  31.299  1.00  0.00    -0.206 F 
ATOM     82  C   UNL A   1      39.195  26.574  29.092  1.00  0.00     0.040 A 
ATOM     83  C   UNL A   1      40.644  28.069  27.890  1.00  0.00     0.040 A 
ATOM     84  F   UNL A   1      41.498  29.985  28.941  1.00  0.00    -0.206 F 
ATOM     85  C   UNL A   1      39.888  26.899  27.929  1.00  0.00     0.006 A 
ENDBRANCH  57  78
BRANCH  69  86
ATOM     86  C   UNL A   1      44.545  28.825  35.471  1.00  0.00     0.057 A 
ATOM     87  C   UNL A   1      44.639  27.628  36.193  1.00  0.00     0.134 A 
ATOM     88  C   UNL A   1      45.714  29.337  34.899  1.00  0.00     0.134 A 
ATOM     89  F   UNL A   1      43.553  27.095  36.773  1.00  0.00    -0.206 F 
ATOM     90  C   UNL A   1      45.856  26.962  36.338  1.00  0.00     0.040 A 
ATOM     91  C   UNL A   1      46.933  28.670  35.022  1.00  0.00     0.040 A 
ATOM     92  F   UNL A   1      45.682  30.478  34.195  1.00  0.00    -0.206 F 
ATOM     93  C   UNL A   1      47.005  27.479  35.742  1.00  0.00     0.006 A 
ENDBRANCH  69  86
ENDBRANCH  43  44
ENDBRANCH  36  38
ENDBRANCH  35  36
ENDBRANCH  34  35
ENDBRANCH  33  34
ENDBRANCH  32  33
ENDBRANCH  31  32
ENDBRANCH   1  31
TORSDOF 20
ENDMDL
MODEL 3
REMARK VINA RESULT:     -11.0      1.333      6.968
REMARK SMILES COc1ccc(CCN2/C(=[NH+]/C(=O)CCC(=O)OCCOCCOC(=O)c3ccc(-c4c5nc(c(-c6c(F)cccc6F)c6ccc([nH]6)c(-c6c(F)cccc6F)c6nc(c(-c7c(F)cccc7F)c7ccc4[nH]7)C=C6)C=C5)cc3)S[C@@H]3CS(=O)(=O)C[C@@H]32)cc1
REMARK SMILES IDX 19 1 18 2 16 3 17 4 15 5 14 6 12 7 9 8 10 9 88 10 11 11
REMARK SMILES IDX 81 12 82 13 87 14 83 16 84 17 13 18 85 19 86 20 8 21 7 22
REMARK SMILES IDX 6 23 3 24 4 25 90 26 5 27 89 28 2 29 1 30 20 31 21 32 22 33
REMARK SMILES IDX 23 34 24 35 25 36 26 37 27 38 28 39 80 40 29 41 79 42 30 43
REMARK SMILES IDX 31 44 32 45 73 46 33 47 78 48 72 49 74 50 34 51 77 52 71 53
REMARK SMILES IDX 70 54 35 56 61 57 44 58 60 59 45 60 48 61 59 62 75 63 46 64
REMARK SMILES IDX 47 65 58 67 76 68 49 69 36 70 37 71 42 72 38 73 39 74 41 75
REMARK SMILES IDX 43 76 40 77 62 78 63 79 68 80 64 81 65 82 67 83 69 84 66 85
REMARK SMILES IDX 50 86 51 87 56 88 52 89 53 90 55 91 57 92 54 93
REMARK H PARENT 11 15 74 55 48 66
REMARK Flexibility Score: inf
ROOT
ATOM      1  C   UNL A   1      35.371  32.279  28.675  1.00  0.00     0.261 C 
ENDROOT
BRANCH   1   2
ATOM      2  O   UNL A   1      34.162  31.509  28.793  1.00  0.00    -0.463 OA
BRANCH   2   3
ATOM      3  C   UNL A   1      33.690  30.875  27.693  1.00  0.00     0.306 C 
ATOM      4  O   UNL A   1      32.910  31.347  26.879  1.00  0.00    -0.252 OA
BRANCH   3   5
ATOM      5  C   UNL A   1      34.295  29.495  27.573  1.00  0.00     0.135 C 
BRANCH   5   6
ATOM      6  C   UNL A   1      33.964  28.828  26.245  1.00  0.00     0.139 C 
BRANCH   6   7
ATOM      7  C   UNL A   1      32.761  27.886  26.229  1.00  0.00     0.308 C 
ATOM      8  N   UNL A   1      32.086  25.214  23.848  1.00  0.00    -0.251 N 
ATOM      9  C   UNL A   1      32.296  25.965  25.012  1.00  0.00     0.314 C 
ATOM     10  C   UNL A   1      32.157  23.757  24.055  1.00  0.00     0.206 C 
ATOM     11  N   UNL A   1      32.517  27.237  25.044  1.00  0.00    -0.205 N 
ATOM     12  S   UNL A   1      32.266  24.925  26.437  1.00  0.00    -0.030 SA
ATOM     13  C   UNL A   1      32.659  23.465  25.472  1.00  0.00     0.120 C 
ATOM     14  C   UNL A   1      33.007  23.005  23.043  1.00  0.00     0.187 C 
ATOM     15  H   UNL A   1      32.509  27.750  24.205  1.00  0.00     0.316 HD
ATOM     16  C   UNL A   1      34.156  23.276  25.412  1.00  0.00     0.156 C 
ATOM     17  S   UNL A   1      34.373  22.325  23.939  1.00  0.00     0.155 S 
ATOM     18  O   UNL A   1      32.004  27.864  27.199  1.00  0.00    -0.247 OA
ATOM     19  O   UNL A   1      35.606  22.718  23.297  1.00  0.00    -0.229 OA
ATOM     20  O   UNL A   1      34.056  20.946  24.250  1.00  0.00    -0.229 OA
BRANCH   8  21
ATOM     21  C   UNL A   1      31.015  25.692  22.925  1.00  0.00     0.242 C 
BRANCH  21  22
ATOM     22  C   UNL A   1      29.625  26.029  23.505  1.00  0.00     0.081 C 
BRANCH  22  23
ATOM     23  C   UNL A   1      29.095  27.440  23.256  1.00  0.00    -0.044 A 
ATOM     24  C   UNL A   1      28.062  30.023  22.633  1.00  0.00     0.118 A 
ATOM     25  C   UNL A   1      27.251  29.058  23.208  1.00  0.00     0.046 A 
ATOM     26  C   UNL A   1      29.404  29.716  22.409  1.00  0.00     0.046 A 
ATOM     27  C   UNL A   1      27.762  27.787  23.492  1.00  0.00     0.007 A 
ATOM     28  C   UNL A   1      29.916  28.440  22.711  1.00  0.00     0.007 A 
BRANCH  24  29
ATOM     29  O   UNL A   1      27.651  31.270  22.252  1.00  0.00    -0.497 OA
ATOM     30  C   UNL A   1      28.657  32.122  21.700  1.00  0.00     0.278 C 
ENDBRANCH  24  29
ENDBRANCH  22  23
ENDBRANCH  21  22
ENDBRANCH   8  21
ENDBRANCH   6   7
ENDBRANCH   5   6
ENDBRANCH   3   5
ENDBRANCH   2   3
ENDBRANCH   1   2
BRANCH   1  31
ATOM     31  C   UNL A   1      35.334  33.540  29.552  1.00  0.00     0.202 C 
BRANCH  31  32
ATOM     32  O   UNL A   1      34.899  34.710  28.862  1.00  0.00    -0.374 OA
BRANCH  32  33
ATOM     33  C   UNL A   1      33.481  34.837  28.742  1.00  0.00     0.202 C 
BRANCH  33  34
ATOM     34  C   UNL A   1      32.875  35.930  29.629  1.00  0.00     0.261 C 
BRANCH  34  35
ATOM     35  O   UNL A   1      32.309  35.379  30.842  1.00  0.00    -0.460 OA
BRANCH  35  36
ATOM     36  C   UNL A   1      32.749  35.909  32.006  1.00  0.00     0.338 C 
ATOM     37  O   UNL A   1      32.286  36.883  32.580  1.00  0.00    -0.246 OA
BRANCH  36  38
ATOM     38  C   UNL A   1      33.848  35.094  32.592  1.00  0.00     0.060 A 
ATOM     39  C   UNL A   1      35.129  35.658  32.607  1.00  0.00     0.016 A 
ATOM     40  C   UNL A   1      33.663  33.805  33.114  1.00  0.00     0.016 A 
ATOM     41  C   UNL A   1      36.205  34.955  33.162  1.00  0.00     0.010 A 
ATOM     42  C   UNL A   1      34.758  33.082  33.630  1.00  0.00     0.010 A 
ATOM     43  C   UNL A   1      36.043  33.648  33.666  1.00  0.00    -0.014 A 
BRANCH  43  44
ATOM     44  C   UNL A   1      37.263  32.899  34.102  1.00  0.00     0.031 A 
ATOM     45  C   UNL A   1      37.953  32.024  33.102  1.00  0.00     0.074 A 
ATOM     46  C   UNL A   1      37.804  33.000  35.334  1.00  0.00     0.049 A 
ATOM     47  N   UNL A   1      39.062  31.346  33.232  1.00  0.00    -0.248 NA
ATOM     48  C   UNL A   1      37.264  31.832  31.817  1.00  0.00     0.031 C 
ATOM     49  C   UNL A   1      37.171  33.658  36.456  1.00  0.00     0.029 A 
ATOM     50  N   UNL A   1      39.020  32.606  35.847  1.00  0.00    -0.354 N 
ATOM     51  C   UNL A   1      39.154  30.576  32.085  1.00  0.00     0.074 A 
ATOM     52  C   UNL A   1      38.047  30.943  31.229  1.00  0.00     0.031 C 
ATOM     53  C   UNL A   1      38.061  33.821  37.451  1.00  0.00     0.029 A 
ATOM     54  C   UNL A   1      39.304  33.156  37.083  1.00  0.00     0.049 A 
ATOM     55  H   UNL A   1      39.630  31.992  35.378  1.00  0.00     0.167 HD
ATOM     56  C   UNL A   1      40.025  29.578  31.818  1.00  0.00     0.037 A 
ATOM     57  C   UNL A   1      40.429  33.118  37.830  1.00  0.00     0.037 A 
ATOM     58  C   UNL A   1      41.082  29.167  32.698  1.00  0.00     0.049 A 
ATOM     59  C   UNL A   1      41.505  32.150  37.417  1.00  0.00     0.074 A 
ATOM     60  C   UNL A   1      41.959  28.108  32.558  1.00  0.00     0.029 A 
ATOM     61  N   UNL A   1      41.398  29.796  33.893  1.00  0.00    -0.354 N 
ATOM     62  N   UNL A   1      41.571  31.415  36.335  1.00  0.00    -0.248 NA
ATOM     63  C   UNL A   1      42.608  31.924  38.366  1.00  0.00     0.031 C 
ATOM     64  C   UNL A   1      42.791  28.080  33.682  1.00  0.00     0.029 A 
ATOM     65  C   UNL A   1      42.463  29.151  34.497  1.00  0.00     0.049 A 
ATOM     66  H   UNL A   1      40.933  30.584  34.258  1.00  0.00     0.167 HD
ATOM     67  C   UNL A   1      42.674  30.591  36.505  1.00  0.00     0.074 A 
ATOM     68  C   UNL A   1      43.307  30.981  37.747  1.00  0.00     0.031 C 
ATOM     69  C   UNL A   1      43.085  29.561  35.728  1.00  0.00     0.037 A 
BRANCH  56  70
ATOM     70  C   UNL A   1      39.748  28.783  30.582  1.00  0.00     0.057 A 
ATOM     71  C   UNL A   1      39.032  27.581  30.614  1.00  0.00     0.134 A 
ATOM     72  C   UNL A   1      40.286  29.192  29.356  1.00  0.00     0.134 A 
ATOM     73  F   UNL A   1      38.533  27.117  31.770  1.00  0.00    -0.206 F 
ATOM     74  C   UNL A   1      38.883  26.799  29.468  1.00  0.00     0.040 A 
ATOM     75  C   UNL A   1      40.124  28.431  28.201  1.00  0.00     0.040 A 
ATOM     76  F   UNL A   1      41.000  30.325  29.270  1.00  0.00    -0.206 F 
ATOM     77  C   UNL A   1      39.429  27.225  28.258  1.00  0.00     0.006 A 
ENDBRANCH  56  70
BRANCH  57  78
ATOM     78  C   UNL A   1      40.616  33.955  39.053  1.00  0.00     0.057 A 
ATOM     79  C   UNL A   1      40.112  33.518  40.290  1.00  0.00     0.134 A 
ATOM     80  C   UNL A   1      41.227  35.214  39.033  1.00  0.00     0.134 A 
ATOM     81  F   UNL A   1      39.490  32.331  40.380  1.00  0.00    -0.206 F 
ATOM     82  C   UNL A   1      40.191  34.302  41.445  1.00  0.00     0.040 A 
ATOM     83  C   UNL A   1      41.350  35.992  40.189  1.00  0.00     0.040 A 
ATOM     84  F   UNL A   1      41.717  35.711  37.889  1.00  0.00    -0.206 F 
ATOM     85  C   UNL A   1      40.820  35.542  41.396  1.00  0.00     0.006 A 
ENDBRANCH  57  78
BRANCH  69  86
ATOM     86  C   UNL A   1      44.266  28.771  36.201  1.00  0.00     0.057 A 
ATOM     87  C   UNL A   1      44.107  27.569  36.903  1.00  0.00     0.134 A 
ATOM     88  C   UNL A   1      45.566  29.171  35.876  1.00  0.00     0.134 A 
ATOM     89  F   UNL A   1      42.884  27.142  37.252  1.00  0.00    -0.206 F 
ATOM     90  C   UNL A   1      45.205  26.791  37.267  1.00  0.00     0.040 A 
ATOM     91  C   UNL A   1      46.671  28.391  36.219  1.00  0.00     0.040 A 
ATOM     92  F   UNL A   1      45.778  30.311  35.202  1.00  0.00    -0.206 F 
ATOM     93  C   UNL A   1      46.491  27.197  36.915  1.00  0.00     0.006 A 
ENDBRANCH  69  86
ENDBRANCH  43  44
ENDBRANCH  36  38
ENDBRANCH  35  36
ENDBRANCH  34  35
ENDBRANCH  33  34
ENDBRANCH  32  33
ENDBRANCH  31  32
ENDBRANCH   1  31
TORSDOF 20
ENDMDL
