MODEL 1
REMARK VINA RESULT:     -12.4      0.000      0.000
REMARK SMILES NS(=O)(=O)c1ccc(-n2nc(C(=O)OCCOCCOC(=O)c3ccc(-c4c5nc(c(-c6c(F)cccc6F)c6ccc([nH]6)c(-c6c(F)cccc6F)c6nc(c(-c7c(F)cccc7F)c7ccc4[nH]7)C=C6)C=C5)cc3)cc2-c2cc3ccccc3s2)cc1
REMARK SMILES IDX 16 1 15 2 14 3 12 4 13 5 11 6 9 7 10 8 78 9 77 10 8 11 5 12
REMARK SMILES IDX 6 13 89 14 7 15 88 16 2 17 3 18 4 19 1 20 79 23 80 24 87 25
REMARK SMILES IDX 81 26 86 27 82 28 85 29 83 30 84 31 17 32 18 33 19 34 20 35
REMARK SMILES IDX 21 36 22 37 23 38 24 39 76 40 25 41 75 42 26 43 27 44 28 45
REMARK SMILES IDX 69 46 29 47 74 48 68 49 70 50 30 51 73 52 67 53 66 54 31 56
REMARK SMILES IDX 57 57 40 58 56 59 41 60 44 61 55 62 71 63 42 64 43 65 54 67
REMARK SMILES IDX 72 68 45 69 32 70 33 71 38 72 34 73 35 74 37 75 39 76 36 77
REMARK SMILES IDX 58 78 59 79 64 80 60 81 61 82 63 83 65 84 62 85 46 86 47 87
REMARK SMILES IDX 52 88 48 89 49 90 51 91 53 92 50 93
REMARK H PARENT 1 21 1 22 70 55 44 66
REMARK Flexibility Score: inf
ROOT
ATOM      1  C   UNL A   1      40.885  21.164  26.185  1.00  0.00     0.202 C 
ENDROOT
BRANCH   1   2
ATOM      2  C   UNL A   1      39.508  21.689  26.588  1.00  0.00     0.261 C 
BRANCH   2   3
ATOM      3  O   UNL A   1      38.747  22.082  25.440  1.00  0.00    -0.458 OA
BRANCH   3   4
ATOM      4  C   UNL A   1      37.769  21.205  25.051  1.00  0.00     0.358 C 
ATOM      5  O   UNL A   1      37.911  19.991  24.982  1.00  0.00    -0.244 OA
BRANCH   4   6
ATOM      6  C   UNL A   1      36.510  21.908  24.779  1.00  0.00     0.171 A 
ATOM      7  N   UNL A   1      35.052  23.455  24.871  1.00  0.00    -0.231 N 
ATOM      8  N   UNL A   1      36.383  23.247  24.707  1.00  0.00    -0.160 NA
ATOM      9  C   UNL A   1      34.377  22.270  25.035  1.00  0.00     0.085 A 
ATOM     10  C   UNL A   1      35.255  21.300  24.583  1.00  0.00     0.068 A 
BRANCH   7  11
ATOM     11  C   UNL A   1      34.520  24.748  24.778  1.00  0.00     0.065 A 
ATOM     12  C   UNL A   1      33.481  27.300  24.539  1.00  0.00     0.082 A 
ATOM     13  C   UNL A   1      33.976  26.862  25.776  1.00  0.00     0.024 A 
ATOM     14  C   UNL A   1      33.494  26.462  23.420  1.00  0.00     0.024 A 
ATOM     15  C   UNL A   1      34.487  25.572  25.903  1.00  0.00     0.030 A 
ATOM     16  C   UNL A   1      34.041  25.185  23.534  1.00  0.00     0.030 A 
BRANCH  12  17
ATOM     17  S   UNL A   1      32.842  28.944  24.430  1.00  0.00     0.238 S 
ATOM     18  O   UNL A   1      33.300  29.689  25.572  1.00  0.00    -0.207 OA
ATOM     19  O   UNL A   1      31.446  28.866  24.048  1.00  0.00    -0.207 OA
BRANCH  17  20
ATOM     20  N   UNL A   1      33.618  29.614  23.095  1.00  0.00    -0.225 NA
ATOM     21  H   UNL A   1      33.266  30.557  22.936  1.00  0.00     0.137 HD
ATOM     22  H   UNL A   1      33.434  29.039  22.273  1.00  0.00     0.137 HD
ENDBRANCH  17  20
ENDBRANCH  12  17
ENDBRANCH   7  11
BRANCH   9  23
ATOM     23  C   UNL A   1      33.171  21.992  25.770  1.00  0.00     0.054 A 
ATOM     24  C   UNL A   1      32.465  22.874  26.582  1.00  0.00     0.031 A 
ATOM     25  S   UNL A   1      31.916  21.195  24.833  1.00  0.00    -0.134 S 
ATOM     26  C   UNL A   1      31.514  23.551  25.710  1.00  0.00    -0.007 A 
ATOM     27  C   UNL A   1      31.274  22.790  24.555  1.00  0.00     0.035 A 
ATOM     28  C   UNL A   1      30.970  24.852  25.771  1.00  0.00     0.009 A 
ATOM     29  C   UNL A   1      30.668  23.323  23.409  1.00  0.00     0.019 A 
ATOM     30  C   UNL A   1      30.391  25.405  24.622  1.00  0.00     0.001 A 
ATOM     31  C   UNL A   1      30.285  24.665  23.447  1.00  0.00     0.001 A 
ENDBRANCH   9  23
ENDBRANCH   4   6
ENDBRANCH   3   4
ENDBRANCH   2   3
ENDBRANCH   1   2
BRANCH   1  32
ATOM     32  O   UNL A   1      41.137  19.764  26.297  1.00  0.00    -0.374 OA
BRANCH  32  33
ATOM     33  C   UNL A   1      42.427  19.274  26.643  1.00  0.00     0.202 C 
BRANCH  33  34
ATOM     34  C   UNL A   1      43.346  18.767  25.544  1.00  0.00     0.261 C 
BRANCH  34  35
ATOM     35  O   UNL A   1      43.519  19.708  24.498  1.00  0.00    -0.460 OA
BRANCH  35  36
ATOM     36  C   UNL A   1      44.818  19.920  24.180  1.00  0.00     0.338 C 
ATOM     37  O   UNL A   1      45.669  19.080  23.945  1.00  0.00    -0.246 OA
BRANCH  36  38
ATOM     38  C   UNL A   1      45.111  21.343  24.366  1.00  0.00     0.060 A 
ATOM     39  C   UNL A   1      46.052  21.641  25.354  1.00  0.00     0.016 A 
ATOM     40  C   UNL A   1      44.203  22.296  23.881  1.00  0.00     0.016 A 
ATOM     41  C   UNL A   1      45.893  22.810  26.058  1.00  0.00     0.010 A 
ATOM     42  C   UNL A   1      44.032  23.449  24.599  1.00  0.00     0.010 A 
ATOM     43  C   UNL A   1      44.810  23.635  25.737  1.00  0.00    -0.014 A 
BRANCH  43  44
ATOM     44  C   UNL A   1      44.569  24.793  26.561  1.00  0.00     0.031 A 
ATOM     45  C   UNL A   1      45.682  25.756  26.467  1.00  0.00     0.074 A 
ATOM     46  C   UNL A   1      43.421  24.993  27.231  1.00  0.00     0.049 A 
ATOM     47  N   UNL A   1      46.622  25.943  27.328  1.00  0.00    -0.248 NA
ATOM     48  C   UNL A   1      45.919  26.393  25.161  1.00  0.00     0.031 C 
ATOM     49  C   UNL A   1      42.169  24.238  27.164  1.00  0.00     0.029 A 
ATOM     50  N   UNL A   1      43.121  26.007  28.086  1.00  0.00    -0.354 N 
ATOM     51  C   UNL A   1      47.434  26.916  26.762  1.00  0.00     0.074 A 
ATOM     52  C   UNL A   1      47.116  26.944  25.361  1.00  0.00     0.031 C 
ATOM     53  C   UNL A   1      41.186  24.948  27.769  1.00  0.00     0.029 A 
ATOM     54  C   UNL A   1      41.768  26.131  28.382  1.00  0.00     0.049 A 
ATOM     55  H   UNL A   1      43.807  26.604  28.464  1.00  0.00     0.167 HD
ATOM     56  C   UNL A   1      48.051  27.840  27.547  1.00  0.00     0.037 A 
ATOM     57  C   UNL A   1      41.205  27.187  29.023  1.00  0.00     0.037 A 
ATOM     58  C   UNL A   1      48.084  27.405  28.924  1.00  0.00     0.049 A 
ATOM     59  C   UNL A   1      42.298  27.895  29.745  1.00  0.00     0.074 A 
ATOM     60  C   UNL A   1      48.608  26.310  29.584  1.00  0.00     0.029 A 
ATOM     61  N   UNL A   1      47.159  27.951  29.781  1.00  0.00    -0.354 N 
ATOM     62  N   UNL A   1      42.933  27.388  30.765  1.00  0.00    -0.248 NA
ATOM     63  C   UNL A   1      43.010  28.942  29.025  1.00  0.00     0.031 C 
ATOM     64  C   UNL A   1      47.645  25.983  30.584  1.00  0.00     0.029 A 
ATOM     65  C   UNL A   1      46.626  26.935  30.531  1.00  0.00     0.049 A 
ATOM     66  H   UNL A   1      46.920  28.904  29.845  1.00  0.00     0.167 HD
ATOM     67  C   UNL A   1      44.264  27.722  30.556  1.00  0.00     0.074 A 
ATOM     68  C   UNL A   1      44.241  28.736  29.502  1.00  0.00     0.031 C 
ATOM     69  C   UNL A   1      45.272  26.936  31.036  1.00  0.00     0.037 A 
BRANCH  56  70
ATOM     70  C   UNL A   1      48.213  29.288  27.151  1.00  0.00     0.057 A 
ATOM     71  C   UNL A   1      49.484  29.876  27.271  1.00  0.00     0.134 A 
ATOM     72  C   UNL A   1      47.155  30.199  26.940  1.00  0.00     0.134 A 
ATOM     73  F   UNL A   1      50.573  29.122  27.480  1.00  0.00    -0.206 F 
ATOM     74  C   UNL A   1      49.671  31.262  27.273  1.00  0.00     0.040 A 
ATOM     75  C   UNL A   1      47.338  31.581  26.887  1.00  0.00     0.040 A 
ATOM     76  F   UNL A   1      45.871  29.827  26.875  1.00  0.00    -0.206 F 
ATOM     77  C   UNL A   1      48.595  32.121  27.089  1.00  0.00     0.006 A 
ENDBRANCH  56  70
BRANCH  57  78
ATOM     78  C   UNL A   1      39.894  27.830  28.770  1.00  0.00     0.057 A 
ATOM     79  C   UNL A   1      38.916  27.905  29.774  1.00  0.00     0.134 A 
ATOM     80  C   UNL A   1      39.681  28.644  27.644  1.00  0.00     0.134 A 
ATOM     81  F   UNL A   1      39.050  27.202  30.908  1.00  0.00    -0.206 F 
ATOM     82  C   UNL A   1      37.806  28.757  29.674  1.00  0.00     0.040 A 
ATOM     83  C   UNL A   1      38.576  29.496  27.530  1.00  0.00     0.040 A 
ATOM     84  F   UNL A   1      40.587  28.711  26.658  1.00  0.00    -0.206 F 
ATOM     85  C   UNL A   1      37.640  29.566  28.554  1.00  0.00     0.006 A 
ENDBRANCH  57  78
BRANCH  69  86
ATOM     86  C   UNL A   1      44.907  25.839  32.000  1.00  0.00     0.057 A 
ATOM     87  C   UNL A   1      44.550  24.535  31.618  1.00  0.00     0.134 A 
ATOM     88  C   UNL A   1      45.074  26.071  33.369  1.00  0.00     0.134 A 
ATOM     89  F   UNL A   1      44.460  24.191  30.328  1.00  0.00    -0.206 F 
ATOM     90  C   UNL A   1      44.329  23.525  32.561  1.00  0.00     0.040 A 
ATOM     91  C   UNL A   1      44.889  25.063  34.318  1.00  0.00     0.040 A 
ATOM     92  F   UNL A   1      45.468  27.278  33.806  1.00  0.00    -0.206 F 
ATOM     93  C   UNL A   1      44.506  23.787  33.915  1.00  0.00     0.006 A 
ENDBRANCH  69  86
ENDBRANCH  43  44
ENDBRANCH  36  38
ENDBRANCH  35  36
ENDBRANCH  34  35
ENDBRANCH  33  34
ENDBRANCH  32  33
ENDBRANCH   1  32
TORSDOF 18
ENDMDL
MODEL 2
REMARK VINA RESULT:     -12.1      1.162      1.869
REMARK SMILES NS(=O)(=O)c1ccc(-n2nc(C(=O)OCCOCCOC(=O)c3ccc(-c4c5nc(c(-c6c(F)cccc6F)c6ccc([nH]6)c(-c6c(F)cccc6F)c6nc(c(-c7c(F)cccc7F)c7ccc4[nH]7)C=C6)C=C5)cc3)cc2-c2cc3ccccc3s2)cc1
REMARK SMILES IDX 16 1 15 2 14 3 12 4 13 5 11 6 9 7 10 8 78 9 77 10 8 11 5 12
REMARK SMILES IDX 6 13 89 14 7 15 88 16 2 17 3 18 4 19 1 20 79 23 80 24 87 25
REMARK SMILES IDX 81 26 86 27 82 28 85 29 83 30 84 31 17 32 18 33 19 34 20 35
REMARK SMILES IDX 21 36 22 37 23 38 24 39 76 40 25 41 75 42 26 43 27 44 28 45
REMARK SMILES IDX 69 46 29 47 74 48 68 49 70 50 30 51 73 52 67 53 66 54 31 56
REMARK SMILES IDX 57 57 40 58 56 59 41 60 44 61 55 62 71 63 42 64 43 65 54 67
REMARK SMILES IDX 72 68 45 69 32 70 33 71 38 72 34 73 35 74 37 75 39 76 36 77
REMARK SMILES IDX 58 78 59 79 64 80 60 81 61 82 63 83 65 84 62 85 46 86 47 87
REMARK SMILES IDX 52 88 48 89 49 90 51 91 53 92 50 93
REMARK H PARENT 1 21 1 22 70 55 44 66
REMARK Flexibility Score: inf
ROOT
ATOM      1  C   UNL A   1      41.186  21.645  26.099  1.00  0.00     0.202 C 
ENDROOT
BRANCH   1   2
ATOM      2  C   UNL A   1      39.838  21.749  26.812  1.00  0.00     0.261 C 
BRANCH   2   3
ATOM      3  O   UNL A   1      38.834  22.289  25.945  1.00  0.00    -0.458 OA
BRANCH   3   4
ATOM      4  C   UNL A   1      38.045  21.368  25.308  1.00  0.00     0.358 C 
ATOM      5  O   UNL A   1      38.306  20.176  25.214  1.00  0.00    -0.244 OA
BRANCH   4   6
ATOM      6  C   UNL A   1      36.818  21.990  24.798  1.00  0.00     0.171 A 
ATOM      7  N   UNL A   1      35.217  23.384  24.670  1.00  0.00    -0.231 N 
ATOM      8  N   UNL A   1      36.563  23.312  24.825  1.00  0.00    -0.160 NA
ATOM      9  C   UNL A   1      34.659  22.136  24.544  1.00  0.00     0.085 A 
ATOM     10  C   UNL A   1      35.723  21.305  24.236  1.00  0.00     0.068 A 
BRANCH   7  11
ATOM     11  C   UNL A   1      34.581  24.630  24.572  1.00  0.00     0.065 A 
ATOM     12  C   UNL A   1      33.312  27.083  24.432  1.00  0.00     0.082 A 
ATOM     13  C   UNL A   1      33.469  26.313  23.270  1.00  0.00     0.024 A 
ATOM     14  C   UNL A   1      33.795  26.636  25.664  1.00  0.00     0.024 A 
ATOM     15  C   UNL A   1      34.121  25.083  23.335  1.00  0.00     0.030 A 
ATOM     16  C   UNL A   1      34.412  25.388  25.740  1.00  0.00     0.030 A 
BRANCH  12  17
ATOM     17  S   UNL A   1      32.480  28.637  24.296  1.00  0.00     0.238 S 
ATOM     18  O   UNL A   1      32.527  29.293  25.575  1.00  0.00    -0.207 OA
ATOM     19  O   UNL A   1      31.249  28.432  23.560  1.00  0.00    -0.207 OA
BRANCH  17  20
ATOM     20  N   UNL A   1      33.451  29.549  23.268  1.00  0.00    -0.225 NA
ATOM     21  H   UNL A   1      34.138  30.063  23.818  1.00  0.00     0.137 HD
ATOM     22  H   UNL A   1      32.869  30.206  22.748  1.00  0.00     0.137 HD
ENDBRANCH  17  20
ENDBRANCH  12  17
ENDBRANCH   7  11
BRANCH   9  23
ATOM     23  C   UNL A   1      33.351  21.669  24.924  1.00  0.00     0.054 A 
ATOM     24  C   UNL A   1      32.316  21.300  24.071  1.00  0.00     0.031 A 
ATOM     25  S   UNL A   1      33.355  20.405  26.144  1.00  0.00    -0.134 S 
ATOM     26  C   UNL A   1      32.502  19.879  23.804  1.00  0.00    -0.007 A 
ATOM     27  C   UNL A   1      33.273  19.283  24.814  1.00  0.00     0.035 A 
ATOM     28  C   UNL A   1      32.188  19.106  22.666  1.00  0.00     0.009 A 
ATOM     29  C   UNL A   1      33.876  18.027  24.664  1.00  0.00     0.019 A 
ATOM     30  C   UNL A   1      32.810  17.863  22.492  1.00  0.00     0.001 A 
ATOM     31  C   UNL A   1      33.677  17.355  23.457  1.00  0.00     0.001 A 
ENDBRANCH   9  23
ENDBRANCH   4   6
ENDBRANCH   3   4
ENDBRANCH   2   3
ENDBRANCH   1   2
BRANCH   1  32
ATOM     32  O   UNL A   1      42.129  20.683  26.569  1.00  0.00    -0.374 OA
BRANCH  32  33
ATOM     33  C   UNL A   1      42.111  19.342  26.092  1.00  0.00     0.202 C 
BRANCH  33  34
ATOM     34  C   UNL A   1      43.385  18.741  25.523  1.00  0.00     0.261 C 
BRANCH  34  35
ATOM     35  O   UNL A   1      44.467  19.657  25.520  1.00  0.00    -0.460 OA
BRANCH  35  36
ATOM     36  C   UNL A   1      44.655  20.256  24.321  1.00  0.00     0.338 C 
ATOM     37  O   UNL A   1      44.701  19.724  23.226  1.00  0.00    -0.246 OA
BRANCH  36  38
ATOM     38  C   UNL A   1      45.011  21.658  24.557  1.00  0.00     0.060 A 
ATOM     39  C   UNL A   1      45.845  21.892  25.652  1.00  0.00     0.016 A 
ATOM     40  C   UNL A   1      44.226  22.667  23.981  1.00  0.00     0.016 A 
ATOM     41  C   UNL A   1      45.675  23.065  26.347  1.00  0.00     0.010 A 
ATOM     42  C   UNL A   1      44.042  23.826  24.688  1.00  0.00     0.010 A 
ATOM     43  C   UNL A   1      44.690  23.957  25.912  1.00  0.00    -0.014 A 
BRANCH  43  44
ATOM     44  C   UNL A   1      44.425  25.123  26.716  1.00  0.00     0.031 A 
ATOM     45  C   UNL A   1      45.496  26.126  26.571  1.00  0.00     0.074 A 
ATOM     46  C   UNL A   1      43.287  25.294  27.412  1.00  0.00     0.049 A 
ATOM     47  N   UNL A   1      46.450  26.370  27.403  1.00  0.00    -0.248 NA
ATOM     48  C   UNL A   1      45.674  26.742  25.246  1.00  0.00     0.031 C 
ATOM     49  C   UNL A   1      42.065  24.489  27.395  1.00  0.00     0.029 A 
ATOM     50  N   UNL A   1      42.969  26.314  28.252  1.00  0.00    -0.354 N 
ATOM     51  C   UNL A   1      47.207  27.361  26.795  1.00  0.00     0.074 A 
ATOM     52  C   UNL A   1      46.852  27.343  25.403  1.00  0.00     0.031 C 
ATOM     53  C   UNL A   1      41.070  25.174  28.010  1.00  0.00     0.029 A 
ATOM     54  C   UNL A   1      41.620  26.392  28.581  1.00  0.00     0.049 A 
ATOM     55  H   UNL A   1      43.640  26.946  28.599  1.00  0.00     0.167 HD
ATOM     56  C   UNL A   1      47.807  28.326  27.542  1.00  0.00     0.037 A 
ATOM     57  C   UNL A   1      41.033  27.440  29.214  1.00  0.00     0.037 A 
ATOM     58  C   UNL A   1      47.893  27.924  28.927  1.00  0.00     0.049 A 
ATOM     59  C   UNL A   1      42.114  28.207  29.891  1.00  0.00     0.074 A 
ATOM     60  C   UNL A   1      48.476  26.866  29.597  1.00  0.00     0.029 A 
ATOM     61  N   UNL A   1      46.969  28.453  29.796  1.00  0.00    -0.354 N 
ATOM     62  N   UNL A   1      42.795  27.748  30.904  1.00  0.00    -0.248 NA
ATOM     63  C   UNL A   1      42.766  29.263  29.129  1.00  0.00     0.031 C 
ATOM     64  C   UNL A   1      47.553  26.524  30.629  1.00  0.00     0.029 A 
ATOM     65  C   UNL A   1      46.496  27.434  30.582  1.00  0.00     0.049 A 
ATOM     66  H   UNL A   1      46.694  29.397  29.846  1.00  0.00     0.167 HD
ATOM     67  C   UNL A   1      44.106  28.129  30.653  1.00  0.00     0.074 A 
ATOM     68  C   UNL A   1      44.016  29.117  29.578  1.00  0.00     0.031 C 
ATOM     69  C   UNL A   1      45.156  27.394  31.123  1.00  0.00     0.037 A 
BRANCH  56  70
ATOM     70  C   UNL A   1      47.902  29.769  27.110  1.00  0.00     0.057 A 
ATOM     71  C   UNL A   1      49.140  30.423  27.228  1.00  0.00     0.134 A 
ATOM     72  C   UNL A   1      46.801  30.621  26.865  1.00  0.00     0.134 A 
ATOM     73  F   UNL A   1      50.263  29.730  27.467  1.00  0.00    -0.206 F 
ATOM     74  C   UNL A   1      49.258  31.816  27.195  1.00  0.00     0.040 A 
ATOM     75  C   UNL A   1      46.916  32.008  26.778  1.00  0.00     0.040 A 
ATOM     76  F   UNL A   1      45.539  30.184  26.797  1.00  0.00    -0.206 F 
ATOM     77  C   UNL A   1      48.142  32.616  26.979  1.00  0.00     0.006 A 
ENDBRANCH  56  70
BRANCH  57  78
ATOM     78  C   UNL A   1      39.691  28.025  28.981  1.00  0.00     0.057 A 
ATOM     79  C   UNL A   1      38.731  28.071  30.005  1.00  0.00     0.134 A 
ATOM     80  C   UNL A   1      39.422  28.817  27.852  1.00  0.00     0.134 A 
ATOM     81  F   UNL A   1      38.918  27.387  31.143  1.00  0.00    -0.206 F 
ATOM     82  C   UNL A   1      37.585  28.875  29.919  1.00  0.00     0.040 A 
ATOM     83  C   UNL A   1      38.280  29.620  27.752  1.00  0.00     0.040 A 
ATOM     84  F   UNL A   1      40.303  28.910  26.846  1.00  0.00    -0.206 F 
ATOM     85  C   UNL A   1      37.363  29.663  28.795  1.00  0.00     0.006 A 
ENDBRANCH  57  78
BRANCH  69  86
ATOM     86  C   UNL A   1      44.860  26.306  32.120  1.00  0.00     0.057 A 
ATOM     87  C   UNL A   1      44.570  24.975  31.778  1.00  0.00     0.134 A 
ATOM     88  C   UNL A   1      45.026  26.585  33.480  1.00  0.00     0.134 A 
ATOM     89  F   UNL A   1      44.488  24.591  30.498  1.00  0.00    -0.206 F 
ATOM     90  C   UNL A   1      44.413  23.981  32.749  1.00  0.00     0.040 A 
ATOM     91  C   UNL A   1      44.906  25.595  34.458  1.00  0.00     0.040 A 
ATOM     92  F   UNL A   1      45.359  27.822  33.880  1.00  0.00    -0.206 F 
ATOM     93  C   UNL A   1      44.588  24.289  34.095  1.00  0.00     0.006 A 
ENDBRANCH  69  86
ENDBRANCH  43  44
ENDBRANCH  36  38
ENDBRANCH  35  36
ENDBRANCH  34  35
ENDBRANCH  33  34
ENDBRANCH  32  33
ENDBRANCH   1  32
TORSDOF 18
ENDMDL
MODEL 3
REMARK VINA RESULT:     -12.1      5.038     10.558
REMARK SMILES NS(=O)(=O)c1ccc(-n2nc(C(=O)OCCOCCOC(=O)c3ccc(-c4c5nc(c(-c6c(F)cccc6F)c6ccc([nH]6)c(-c6c(F)cccc6F)c6nc(c(-c7c(F)cccc7F)c7ccc4[nH]7)C=C6)C=C5)cc3)cc2-c2cc3ccccc3s2)cc1
REMARK SMILES IDX 16 1 15 2 14 3 12 4 13 5 11 6 9 7 10 8 78 9 77 10 8 11 5 12
REMARK SMILES IDX 6 13 89 14 7 15 88 16 2 17 3 18 4 19 1 20 79 23 80 24 87 25
REMARK SMILES IDX 81 26 86 27 82 28 85 29 83 30 84 31 17 32 18 33 19 34 20 35
REMARK SMILES IDX 21 36 22 37 23 38 24 39 76 40 25 41 75 42 26 43 27 44 28 45
REMARK SMILES IDX 69 46 29 47 74 48 68 49 70 50 30 51 73 52 67 53 66 54 31 56
REMARK SMILES IDX 57 57 40 58 56 59 41 60 44 61 55 62 71 63 42 64 43 65 54 67
REMARK SMILES IDX 72 68 45 69 32 70 33 71 38 72 34 73 35 74 37 75 39 76 36 77
REMARK SMILES IDX 58 78 59 79 64 80 60 81 61 82 63 83 65 84 62 85 46 86 47 87
REMARK SMILES IDX 52 88 48 89 49 90 51 91 53 92 50 93
REMARK H PARENT 1 21 1 22 70 55 44 66
REMARK Flexibility Score: inf
ROOT
ATOM      1  C   UNL A   1      34.039  32.650  27.925  1.00  0.00     0.202 C 
ENDROOT
BRANCH   1   2
ATOM      2  C   UNL A   1      33.852  31.133  27.938  1.00  0.00     0.261 C 
BRANCH   2   3
ATOM      3  O   UNL A   1      33.627  30.627  26.618  1.00  0.00    -0.458 OA
BRANCH   3   4
ATOM      4  C   UNL A   1      32.326  30.330  26.311  1.00  0.00     0.358 C 
ATOM      5  O   UNL A   1      31.426  31.154  26.228  1.00  0.00    -0.244 OA
BRANCH   4   6
ATOM      6  C   UNL A   1      32.164  28.896  26.044  1.00  0.00     0.171 A 
ATOM      7  N   UNL A   1      32.651  26.953  25.327  1.00  0.00    -0.231 N 
ATOM      8  N   UNL A   1      33.174  28.007  26.004  1.00  0.00    -0.160 NA
ATOM      9  C   UNL A   1      31.348  27.188  24.964  1.00  0.00     0.085 A 
ATOM     10  C   UNL A   1      30.947  28.246  25.762  1.00  0.00     0.068 A 
BRANCH   7  11
ATOM     11  C   UNL A   1      33.401  25.781  25.152  1.00  0.00     0.065 A 
ATOM     12  C   UNL A   1      34.893  23.471  24.860  1.00  0.00     0.082 A 
ATOM     13  C   UNL A   1      34.665  24.298  23.751  1.00  0.00     0.024 A 
ATOM     14  C   UNL A   1      34.368  23.789  26.116  1.00  0.00     0.024 A 
ATOM     15  C   UNL A   1      33.901  25.456  23.892  1.00  0.00     0.030 A 
ATOM     16  C   UNL A   1      33.638  24.967  26.269  1.00  0.00     0.030 A 
BRANCH  12  17
ATOM     17  S   UNL A   1      35.865  22.014  24.629  1.00  0.00     0.238 S 
ATOM     18  O   UNL A   1      36.799  22.251  23.561  1.00  0.00    -0.207 OA
ATOM     19  O   UNL A   1      34.981  20.866  24.662  1.00  0.00    -0.207 OA
BRANCH  17  20
ATOM     20  N   UNL A   1      36.785  21.890  26.033  1.00  0.00    -0.225 NA
ATOM     21  H   UNL A   1      36.174  21.681  26.822  1.00  0.00     0.137 HD
ATOM     22  H   UNL A   1      37.268  22.773  26.200  1.00  0.00     0.137 HD
ENDBRANCH  17  20
ENDBRANCH  12  17
ENDBRANCH   7  11
BRANCH   9  23
ATOM     23  C   UNL A   1      30.606  26.701  23.831  1.00  0.00     0.054 A 
ATOM     24  C   UNL A   1      29.222  26.639  23.702  1.00  0.00     0.031 A 
ATOM     25  S   UNL A   1      31.139  27.342  22.284  1.00  0.00    -0.134 S 
ATOM     26  C   UNL A   1      28.812  27.920  23.140  1.00  0.00    -0.007 A 
ATOM     27  C   UNL A   1      29.886  28.536  22.479  1.00  0.00     0.035 A 
ATOM     28  C   UNL A   1      27.621  28.660  23.302  1.00  0.00     0.009 A 
ATOM     29  C   UNL A   1      29.882  29.893  22.128  1.00  0.00     0.019 A 
ATOM     30  C   UNL A   1      27.616  30.023  22.985  1.00  0.00     0.001 A 
ATOM     31  C   UNL A   1      28.746  30.638  22.449  1.00  0.00     0.001 A 
ENDBRANCH   9  23
ENDBRANCH   4   6
ENDBRANCH   3   4
ENDBRANCH   2   3
ENDBRANCH   1   2
BRANCH   1  32
ATOM     32  O   UNL A   1      34.018  33.347  29.169  1.00  0.00    -0.374 OA
BRANCH  32  33
ATOM     33  C   UNL A   1      34.166  34.761  29.223  1.00  0.00     0.202 C 
BRANCH  33  34
ATOM     34  C   UNL A   1      33.134  35.587  29.974  1.00  0.00     0.261 C 
BRANCH  34  35
ATOM     35  O   UNL A   1      32.647  34.930  31.132  1.00  0.00    -0.460 OA
BRANCH  35  36
ATOM     36  C   UNL A   1      33.021  35.533  32.285  1.00  0.00     0.338 C 
ATOM     37  O   UNL A   1      32.651  36.614  32.709  1.00  0.00    -0.246 OA
BRANCH  36  38
ATOM     38  C   UNL A   1      34.126  34.768  32.867  1.00  0.00     0.060 A 
ATOM     39  C   UNL A   1      35.315  35.475  33.058  1.00  0.00     0.016 A 
ATOM     40  C   UNL A   1      34.084  33.367  32.823  1.00  0.00     0.016 A 
ATOM     41  C   UNL A   1      36.497  34.790  32.915  1.00  0.00     0.010 A 
ATOM     42  C   UNL A   1      35.263  32.690  32.658  1.00  0.00     0.010 A 
ATOM     43  C   UNL A   1      36.441  33.428  32.601  1.00  0.00    -0.014 A 
BRANCH  43  44
ATOM     44  C   UNL A   1      37.678  32.742  32.325  1.00  0.00     0.031 A 
ATOM     45  C   UNL A   1      38.534  32.680  33.524  1.00  0.00     0.074 A 
ATOM     46  C   UNL A   1      37.943  32.150  31.147  1.00  0.00     0.049 A 
ATOM     47  N   UNL A   1      39.564  33.411  33.782  1.00  0.00    -0.248 NA
ATOM     48  C   UNL A   1      38.039  31.901  34.670  1.00  0.00     0.031 C 
ATOM     49  C   UNL A   1      37.054  31.922  30.007  1.00  0.00     0.029 A 
ATOM     50  N   UNL A   1      39.096  31.543  30.761  1.00  0.00    -0.354 N 
ATOM     51  C   UNL A   1      39.989  32.994  35.036  1.00  0.00     0.074 A 
ATOM     52  C   UNL A   1      38.885  32.289  35.624  1.00  0.00     0.031 C 
ATOM     53  C   UNL A   1      37.632  31.038  29.158  1.00  0.00     0.029 A 
ATOM     54  C   UNL A   1      38.978  30.751  29.624  1.00  0.00     0.049 A 
ATOM     55  H   UNL A   1      39.946  31.656  31.246  1.00  0.00     0.167 HD
ATOM     56  C   UNL A   1      41.314  32.974  35.341  1.00  0.00     0.037 A 
ATOM     57  C   UNL A   1      39.922  29.881  29.180  1.00  0.00     0.037 A 
ATOM     58  C   UNL A   1      42.066  33.795  34.421  1.00  0.00     0.049 A 
ATOM     59  C   UNL A   1      41.214  30.278  29.805  1.00  0.00     0.074 A 
ATOM     60  C   UNL A   1      42.040  35.129  34.064  1.00  0.00     0.029 A 
ATOM     61  N   UNL A   1      42.747  33.152  33.414  1.00  0.00    -0.354 N 
ATOM     62  N   UNL A   1      41.843  31.383  29.515  1.00  0.00    -0.248 NA
ATOM     63  C   UNL A   1      41.541  29.695  31.099  1.00  0.00     0.031 C 
ATOM     64  C   UNL A   1      42.280  35.144  32.658  1.00  0.00     0.029 A 
ATOM     65  C   UNL A   1      42.514  33.832  32.246  1.00  0.00     0.049 A 
ATOM     66  H   UNL A   1      43.303  32.346  33.513  1.00  0.00     0.167 HD
ATOM     67  C   UNL A   1      42.297  31.863  30.736  1.00  0.00     0.074 A 
ATOM     68  C   UNL A   1      42.138  30.747  31.667  1.00  0.00     0.031 C 
ATOM     69  C   UNL A   1      42.474  33.201  30.946  1.00  0.00     0.037 A 
BRANCH  56  70
ATOM     70  C   UNL A   1      41.958  31.889  36.170  1.00  0.00     0.057 A 
ATOM     71  C   UNL A   1      42.803  32.266  37.227  1.00  0.00     0.134 A 
ATOM     72  C   UNL A   1      42.025  30.523  35.814  1.00  0.00     0.134 A 
ATOM     73  F   UNL A   1      42.839  33.535  37.659  1.00  0.00    -0.206 F 
ATOM     74  C   UNL A   1      43.706  31.377  37.818  1.00  0.00     0.040 A 
ATOM     75  C   UNL A   1      42.884  29.616  36.434  1.00  0.00     0.040 A 
ATOM     76  F   UNL A   1      41.348  30.001  34.785  1.00  0.00    -0.206 F 
ATOM     77  C   UNL A   1      43.756  30.048  37.417  1.00  0.00     0.006 A 
ENDBRANCH  56  70
BRANCH  57  78
ATOM     78  C   UNL A   1      39.732  28.545  28.565  1.00  0.00     0.057 A 
ATOM     79  C   UNL A   1      40.293  28.235  27.317  1.00  0.00     0.134 A 
ATOM     80  C   UNL A   1      39.255  27.455  29.313  1.00  0.00     0.134 A 
ATOM     81  F   UNL A   1      40.817  29.200  26.547  1.00  0.00    -0.206 F 
ATOM     82  C   UNL A   1      40.395  26.915  26.851  1.00  0.00     0.040 A 
ATOM     83  C   UNL A   1      39.348  26.135  28.858  1.00  0.00     0.040 A 
ATOM     84  F   UNL A   1      38.769  27.625  30.551  1.00  0.00    -0.206 F 
ATOM     85  C   UNL A   1      39.932  25.859  27.629  1.00  0.00     0.006 A 
ENDBRANCH  57  78
BRANCH  69  86
ATOM     86  C   UNL A   1      42.399  34.114  29.752  1.00  0.00     0.057 A 
ATOM     87  C   UNL A   1      41.231  34.767  29.326  1.00  0.00     0.134 A 
ATOM     88  C   UNL A   1      43.588  34.463  29.104  1.00  0.00     0.134 A 
ATOM     89  F   UNL A   1      40.062  34.571  29.948  1.00  0.00    -0.206 F 
ATOM     90  C   UNL A   1      41.244  35.692  28.276  1.00  0.00     0.040 A 
ATOM     91  C   UNL A   1      43.620  35.410  28.077  1.00  0.00     0.040 A 
ATOM     92  F   UNL A   1      44.753  33.922  29.493  1.00  0.00    -0.206 F 
ATOM     93  C   UNL A   1      42.443  36.021  27.654  1.00  0.00     0.006 A 
ENDBRANCH  69  86
ENDBRANCH  43  44
ENDBRANCH  36  38
ENDBRANCH  35  36
ENDBRANCH  34  35
ENDBRANCH  33  34
ENDBRANCH  32  33
ENDBRANCH   1  32
TORSDOF 18
ENDMDL
