MODEL 1
REMARK VINA RESULT:      -9.8      0.000      0.000
REMARK SMILES Cc1csc(C[NH2+]C2(C(=O)OCCOCCOC(=O)c3ccc(-c4c5nc(c(-c6c(F)cccc6F)c6ccc([nH]6)c(-c6c(F)cccc6F)c6nc(c(-c7c(F)cccc7F)c7ccc4[nH]7)C=C6)C=C5)cc3)CC2)n1
REMARK SMILES IDX 13 1 12 2 11 3 9 4 10 5 8 6 74 7 75 8 7 9 6 12 5 13 1 14
REMARK SMILES IDX 2 15 3 16 76 17 4 18 14 19 15 20 16 21 17 22 18 23 19 24
REMARK SMILES IDX 20 25 21 26 73 27 22 28 72 29 23 30 24 31 25 32 66 33 26 34
REMARK SMILES IDX 71 35 65 36 67 37 27 38 70 39 64 40 63 41 28 43 54 44 37 45
REMARK SMILES IDX 53 46 38 47 41 48 52 49 68 50 39 51 40 52 51 54 69 55 42 56
REMARK SMILES IDX 29 57 30 58 35 59 31 60 32 61 34 62 36 63 33 64 55 65 56 66
REMARK SMILES IDX 61 67 57 68 58 69 60 70 62 71 59 72 43 73 44 74 49 75 45 76
REMARK SMILES IDX 46 77 48 78 50 79 47 80
REMARK H PARENT 7 10 7 11 67 42 41 53
REMARK Flexibility Score: inf
ROOT
ATOM      1  C   UNL A   1      37.266  22.053  24.825  1.00  0.00     0.202 C 
ENDROOT
BRANCH   1   2
ATOM      2  C   UNL A   1      35.851  21.460  24.740  1.00  0.00     0.261 C 
BRANCH   2   3
ATOM      3  O   UNL A   1      34.980  22.079  25.692  1.00  0.00    -0.459 OA
BRANCH   3   4
ATOM      4  C   UNL A   1      33.901  22.700  25.142  1.00  0.00     0.368 C 
ATOM      5  O   UNL A   1      33.919  23.432  24.160  1.00  0.00    -0.245 OA
BRANCH   4   6
ATOM      6  C   UNL A   1      32.603  22.170  25.725  1.00  0.00     0.195 C 
ATOM      7  C   UNL A   1      31.310  22.914  25.477  1.00  0.00     0.088 C 
ATOM      8  C   UNL A   1      31.961  23.014  26.822  1.00  0.00     0.088 C 
BRANCH   6   9
ATOM      9  N   UNL A   1      32.558  20.672  25.931  1.00  0.00    -0.326 N 
ATOM     10  H   UNL A   1      33.430  20.386  26.376  1.00  0.00     0.347 HD
ATOM     11  H   UNL A   1      31.735  20.484  26.502  1.00  0.00     0.347 HD
BRANCH   9  12
ATOM     12  C   UNL A   1      32.396  19.885  24.693  1.00  0.00     0.330 C 
BRANCH  12  13
ATOM     13  C   UNL A   1      32.780  18.425  24.766  1.00  0.00     0.147 A 
ATOM     14  C   UNL A   1      32.283  15.010  25.831  1.00  0.00     0.067 C 
ATOM     15  C   UNL A   1      32.855  16.265  25.279  1.00  0.00     0.049 A 
ATOM     16  C   UNL A   1      34.151  16.424  24.830  1.00  0.00     0.090 A 
ATOM     17  N   UNL A   1      32.064  17.410  25.212  1.00  0.00    -0.240 NA
ATOM     18  S   UNL A   1      34.404  18.026  24.311  1.00  0.00    -0.121 S 
ENDBRANCH  12  13
ENDBRANCH   9  12
ENDBRANCH   6   9
ENDBRANCH   4   6
ENDBRANCH   3   4
ENDBRANCH   2   3
ENDBRANCH   1   2
BRANCH   1  19
ATOM     19  O   UNL A   1      38.274  21.321  25.516  1.00  0.00    -0.374 OA
BRANCH  19  20
ATOM     20  C   UNL A   1      38.567  19.986  25.092  1.00  0.00     0.202 C 
BRANCH  20  21
ATOM     21  C   UNL A   1      39.644  19.190  25.832  1.00  0.00     0.261 C 
BRANCH  21  22
ATOM     22  O   UNL A   1      40.964  19.518  25.370  1.00  0.00    -0.460 OA
BRANCH  22  23
ATOM     23  C   UNL A   1      41.862  19.740  26.354  1.00  0.00     0.338 C 
ATOM     24  O   UNL A   1      42.759  19.000  26.727  1.00  0.00    -0.246 OA
BRANCH  23  25
ATOM     25  C   UNL A   1      41.750  21.135  26.806  1.00  0.00     0.060 A 
ATOM     26  C   UNL A   1      41.471  22.104  25.833  1.00  0.00     0.016 A 
ATOM     27  C   UNL A   1      41.982  21.495  28.134  1.00  0.00     0.016 A 
ATOM     28  C   UNL A   1      41.498  23.450  26.168  1.00  0.00     0.010 A 
ATOM     29  C   UNL A   1      42.025  22.848  28.468  1.00  0.00     0.010 A 
ATOM     30  C   UNL A   1      41.836  23.825  27.473  1.00  0.00    -0.014 A 
BRANCH  30  31
ATOM     31  C   UNL A   1      42.217  25.230  27.730  1.00  0.00     0.031 A 
ATOM     32  C   UNL A   1      43.570  25.694  27.268  1.00  0.00     0.074 A 
ATOM     33  C   UNL A   1      41.353  26.081  28.307  1.00  0.00     0.049 A 
ATOM     34  N   UNL A   1      44.135  26.867  27.397  1.00  0.00    -0.248 NA
ATOM     35  C   UNL A   1      44.401  24.699  26.572  1.00  0.00     0.031 C 
ATOM     36  C   UNL A   1      39.999  25.744  28.743  1.00  0.00     0.029 A 
ATOM     37  N   UNL A   1      41.495  27.405  28.625  1.00  0.00    -0.354 N 
ATOM     38  C   UNL A   1      45.387  26.744  26.808  1.00  0.00     0.074 A 
ATOM     39  C   UNL A   1      45.517  25.377  26.358  1.00  0.00     0.031 C 
ATOM     40  C   UNL A   1      39.434  26.838  29.282  1.00  0.00     0.029 A 
ATOM     41  C   UNL A   1      40.397  27.936  29.254  1.00  0.00     0.049 A 
ATOM     42  H   UNL A   1      42.304  27.926  28.421  1.00  0.00     0.167 HD
ATOM     43  C   UNL A   1      46.339  27.694  26.647  1.00  0.00     0.037 A 
ATOM     44  C   UNL A   1      40.209  29.166  29.766  1.00  0.00     0.037 A 
ATOM     45  C   UNL A   1      46.197  29.051  27.102  1.00  0.00     0.049 A 
ATOM     46  C   UNL A   1      41.309  30.186  29.638  1.00  0.00     0.074 A 
ATOM     47  C   UNL A   1      47.093  30.099  26.988  1.00  0.00     0.029 A 
ATOM     48  N   UNL A   1      45.082  29.546  27.764  1.00  0.00    -0.354 N 
ATOM     49  N   UNL A   1      42.487  30.069  29.070  1.00  0.00    -0.248 NA
ATOM     50  C   UNL A   1      41.050  31.512  30.214  1.00  0.00     0.031 C 
ATOM     51  C   UNL A   1      46.544  31.212  27.632  1.00  0.00     0.029 A 
ATOM     52  C   UNL A   1      45.278  30.878  28.087  1.00  0.00     0.049 A 
ATOM     53  H   UNL A   1      44.273  29.027  27.974  1.00  0.00     0.167 HD
ATOM     54  C   UNL A   1      43.092  31.314  29.185  1.00  0.00     0.074 A 
ATOM     55  C   UNL A   1      42.145  32.173  29.869  1.00  0.00     0.031 C 
ATOM     56  C   UNL A   1      44.317  31.717  28.760  1.00  0.00     0.037 A 
BRANCH  43  57
ATOM     57  C   UNL A   1      47.623  27.279  25.986  1.00  0.00     0.057 A 
ATOM     58  C   UNL A   1      47.810  27.366  24.599  1.00  0.00     0.134 A 
ATOM     59  C   UNL A   1      48.692  26.793  26.749  1.00  0.00     0.134 A 
ATOM     60  F   UNL A   1      46.821  27.807  23.806  1.00  0.00    -0.206 F 
ATOM     61  C   UNL A   1      49.000  26.956  23.994  1.00  0.00     0.040 A 
ATOM     62  C   UNL A   1      49.898  26.410  26.159  1.00  0.00     0.040 A 
ATOM     63  F   UNL A   1      48.584  26.684  28.082  1.00  0.00    -0.206 F 
ATOM     64  C   UNL A   1      50.051  26.483  24.776  1.00  0.00     0.006 A 
ENDBRANCH  43  57
BRANCH  44  65
ATOM     65  C   UNL A   1      38.931  29.502  30.442  1.00  0.00     0.057 A 
ATOM     66  C   UNL A   1      37.895  30.151  29.759  1.00  0.00     0.134 A 
ATOM     67  C   UNL A   1      38.717  29.193  31.792  1.00  0.00     0.134 A 
ATOM     68  F   UNL A   1      38.047  30.490  28.471  1.00  0.00    -0.206 F 
ATOM     69  C   UNL A   1      36.703  30.498  30.396  1.00  0.00     0.040 A 
ATOM     70  C   UNL A   1      37.520  29.508  32.434  1.00  0.00     0.040 A 
ATOM     71  F   UNL A   1      39.667  28.567  32.502  1.00  0.00    -0.206 F 
ATOM     72  C   UNL A   1      36.511  30.172  31.737  1.00  0.00     0.006 A 
ENDBRANCH  44  65
BRANCH  56  73
ATOM     73  C   UNL A   1      44.676  33.160  28.972  1.00  0.00     0.057 A 
ATOM     74  C   UNL A   1      44.393  34.147  28.020  1.00  0.00     0.134 A 
ATOM     75  C   UNL A   1      45.290  33.569  30.163  1.00  0.00     0.134 A 
ATOM     76  F   UNL A   1      43.815  33.824  26.853  1.00  0.00    -0.206 F 
ATOM     77  C   UNL A   1      44.742  35.483  28.230  1.00  0.00     0.040 A 
ATOM     78  C   UNL A   1      45.613  34.905  30.399  1.00  0.00     0.040 A 
ATOM     79  F   UNL A   1      45.576  32.676  31.124  1.00  0.00    -0.206 F 
ATOM     80  C   UNL A   1      45.348  35.865  29.425  1.00  0.00     0.006 A 
ENDBRANCH  56  73
ENDBRANCH  30  31
ENDBRANCH  23  25
ENDBRANCH  22  23
ENDBRANCH  21  22
ENDBRANCH  20  21
ENDBRANCH  19  20
ENDBRANCH   1  19
TORSDOF 17
ENDMDL
MODEL 2
REMARK VINA RESULT:      -9.8      4.210      8.947
REMARK SMILES Cc1csc(C[NH2+]C2(C(=O)OCCOCCOC(=O)c3ccc(-c4c5nc(c(-c6c(F)cccc6F)c6ccc([nH]6)c(-c6c(F)cccc6F)c6nc(c(-c7c(F)cccc7F)c7ccc4[nH]7)C=C6)C=C5)cc3)CC2)n1
REMARK SMILES IDX 13 1 12 2 11 3 9 4 10 5 8 6 74 7 75 8 7 9 6 12 5 13 1 14
REMARK SMILES IDX 2 15 3 16 76 17 4 18 14 19 15 20 16 21 17 22 18 23 19 24
REMARK SMILES IDX 20 25 21 26 73 27 22 28 72 29 23 30 24 31 25 32 66 33 26 34
REMARK SMILES IDX 71 35 65 36 67 37 27 38 70 39 64 40 63 41 28 43 54 44 37 45
REMARK SMILES IDX 53 46 38 47 41 48 52 49 68 50 39 51 40 52 51 54 69 55 42 56
REMARK SMILES IDX 29 57 30 58 35 59 31 60 32 61 34 62 36 63 33 64 55 65 56 66
REMARK SMILES IDX 61 67 57 68 58 69 60 70 62 71 59 72 43 73 44 74 49 75 45 76
REMARK SMILES IDX 46 77 48 78 50 79 47 80
REMARK H PARENT 7 10 7 11 67 42 41 53
REMARK Flexibility Score: inf
ROOT
ATOM      1  C   UNL A   1      33.714  33.663  28.250  1.00  0.00     0.202 C 
ENDROOT
BRANCH   1   2
ATOM      2  C   UNL A   1      34.428  32.303  28.198  1.00  0.00     0.261 C 
BRANCH   2   3
ATOM      3  O   UNL A   1      33.518  31.263  27.831  1.00  0.00    -0.459 OA
BRANCH   3   4
ATOM      4  C   UNL A   1      34.110  30.173  27.270  1.00  0.00     0.368 C 
ATOM      5  O   UNL A   1      35.102  29.597  27.699  1.00  0.00    -0.245 OA
BRANCH   4   6
ATOM      6  C   UNL A   1      33.240  29.570  26.181  1.00  0.00     0.195 C 
ATOM      7  C   UNL A   1      31.920  30.220  25.830  1.00  0.00     0.088 C 
ATOM      8  C   UNL A   1      31.919  28.957  26.635  1.00  0.00     0.088 C 
BRANCH   6   9
ATOM      9  N   UNL A   1      33.990  28.810  25.111  1.00  0.00    -0.326 N 
ATOM     10  H   UNL A   1      34.944  29.170  25.074  1.00  0.00     0.347 HD
ATOM     11  H   UNL A   1      33.943  27.825  25.370  1.00  0.00     0.347 HD
BRANCH   9  12
ATOM     12  C   UNL A   1      33.409  28.913  23.759  1.00  0.00     0.330 C 
BRANCH  12  13
ATOM     13  C   UNL A   1      33.044  27.614  23.078  1.00  0.00     0.147 A 
ATOM     14  C   UNL A   1      32.803  25.435  20.208  1.00  0.00     0.067 C 
ATOM     15  C   UNL A   1      32.669  26.037  21.559  1.00  0.00     0.049 A 
ATOM     16  C   UNL A   1      31.878  25.545  22.579  1.00  0.00     0.090 A 
ATOM     17  N   UNL A   1      33.359  27.208  21.862  1.00  0.00    -0.240 NA
ATOM     18  S   UNL A   1      31.986  26.553  23.948  1.00  0.00    -0.121 S 
ENDBRANCH  12  13
ENDBRANCH   9  12
ENDBRANCH   6   9
ENDBRANCH   4   6
ENDBRANCH   3   4
ENDBRANCH   2   3
ENDBRANCH   1   2
BRANCH   1  19
ATOM     19  O   UNL A   1      33.480  34.264  29.520  1.00  0.00    -0.374 OA
BRANCH  19  20
ATOM     20  C   UNL A   1      34.557  34.325  30.461  1.00  0.00     0.202 C 
BRANCH  20  21
ATOM     21  C   UNL A   1      34.335  33.800  31.881  1.00  0.00     0.261 C 
BRANCH  21  22
ATOM     22  O   UNL A   1      34.724  32.424  32.010  1.00  0.00    -0.460 OA
BRANCH  22  23
ATOM     23  C   UNL A   1      35.837  32.225  32.749  1.00  0.00     0.338 C 
ATOM     24  O   UNL A   1      36.028  32.545  33.912  1.00  0.00    -0.246 OA
BRANCH  23  25
ATOM     25  C   UNL A   1      36.759  31.349  32.010  1.00  0.00     0.060 A 
ATOM     26  C   UNL A   1      37.797  30.750  32.737  1.00  0.00     0.016 A 
ATOM     27  C   UNL A   1      36.655  31.176  30.629  1.00  0.00     0.016 A 
ATOM     28  C   UNL A   1      38.783  30.032  32.075  1.00  0.00     0.010 A 
ATOM     29  C   UNL A   1      37.655  30.468  29.962  1.00  0.00     0.010 A 
ATOM     30  C   UNL A   1      38.745  29.944  30.680  1.00  0.00    -0.014 A 
BRANCH  30  31
ATOM     31  C   UNL A   1      39.964  29.507  29.966  1.00  0.00     0.031 A 
ATOM     32  C   UNL A   1      41.085  30.494  29.805  1.00  0.00     0.074 A 
ATOM     33  C   UNL A   1      40.085  28.244  29.525  1.00  0.00     0.049 A 
ATOM     34  N   UNL A   1      42.238  30.353  29.203  1.00  0.00    -0.248 NA
ATOM     35  C   UNL A   1      40.877  31.824  30.402  1.00  0.00     0.031 C 
ATOM     36  C   UNL A   1      39.079  27.195  29.677  1.00  0.00     0.029 A 
ATOM     37  N   UNL A   1      41.115  27.635  28.857  1.00  0.00    -0.354 N 
ATOM     38  C   UNL A   1      42.882  31.577  29.339  1.00  0.00     0.074 A 
ATOM     39  C   UNL A   1      41.981  32.459  30.044  1.00  0.00     0.031 C 
ATOM     40  C   UNL A   1      39.540  26.068  29.108  1.00  0.00     0.029 A 
ATOM     41  C   UNL A   1      40.855  26.329  28.530  1.00  0.00     0.049 A 
ATOM     42  H   UNL A   1      41.958  28.090  28.635  1.00  0.00     0.167 HD
ATOM     43  C   UNL A   1      44.122  31.926  28.922  1.00  0.00     0.037 A 
ATOM     44  C   UNL A   1      41.595  25.455  27.823  1.00  0.00     0.037 A 
ATOM     45  C   UNL A   1      45.008  31.037  28.219  1.00  0.00     0.049 A 
ATOM     46  C   UNL A   1      42.942  25.889  27.307  1.00  0.00     0.074 A 
ATOM     47  C   UNL A   1      46.287  31.282  27.753  1.00  0.00     0.029 A 
ATOM     48  N   UNL A   1      44.699  29.728  27.876  1.00  0.00    -0.354 N 
ATOM     49  N   UNL A   1      43.552  27.042  27.448  1.00  0.00    -0.248 NA
ATOM     50  C   UNL A   1      43.706  24.895  26.543  1.00  0.00     0.031 C 
ATOM     51  C   UNL A   1      46.731  30.140  27.079  1.00  0.00     0.029 A 
ATOM     52  C   UNL A   1      45.755  29.160  27.183  1.00  0.00     0.049 A 
ATOM     53  H   UNL A   1      43.855  29.272  28.092  1.00  0.00     0.167 HD
ATOM     54  C   UNL A   1      44.786  26.900  26.826  1.00  0.00     0.074 A 
ATOM     55  C   UNL A   1      44.838  25.545  26.315  1.00  0.00     0.031 C 
ATOM     56  C   UNL A   1      45.789  27.805  26.692  1.00  0.00     0.037 A 
BRANCH  43  57
ATOM     57  C   UNL A   1      44.567  33.337  29.186  1.00  0.00     0.057 A 
ATOM     58  C   UNL A   1      45.313  33.684  30.321  1.00  0.00     0.134 A 
ATOM     59  C   UNL A   1      44.250  34.364  28.287  1.00  0.00     0.134 A 
ATOM     60  F   UNL A   1      45.636  32.754  31.233  1.00  0.00    -0.206 F 
ATOM     61  C   UNL A   1      45.701  35.003  30.566  1.00  0.00     0.040 A 
ATOM     62  C   UNL A   1      44.660  35.680  28.505  1.00  0.00     0.040 A 
ATOM     63  F   UNL A   1      43.539  34.104  27.179  1.00  0.00    -0.206 F 
ATOM     64  C   UNL A   1      45.380  36.004  29.653  1.00  0.00     0.006 A 
ENDBRANCH  43  57
BRANCH  44  65
ATOM     65  C   UNL A   1      41.082  24.087  27.562  1.00  0.00     0.057 A 
ATOM     66  C   UNL A   1      41.596  22.976  28.243  1.00  0.00     0.134 A 
ATOM     67  C   UNL A   1      40.073  23.853  26.619  1.00  0.00     0.134 A 
ATOM     68  F   UNL A   1      42.576  23.132  29.144  1.00  0.00    -0.206 F 
ATOM     69  C   UNL A   1      41.141  21.683  27.981  1.00  0.00     0.040 A 
ATOM     70  C   UNL A   1      39.588  22.569  26.368  1.00  0.00     0.040 A 
ATOM     71  F   UNL A   1      39.534  24.875  25.937  1.00  0.00    -0.206 F 
ATOM     72  C   UNL A   1      40.130  21.477  27.044  1.00  0.00     0.006 A 
ENDBRANCH  44  65
BRANCH  56  73
ATOM     73  C   UNL A   1      47.047  27.338  26.017  1.00  0.00     0.057 A 
ATOM     74  C   UNL A   1      47.260  27.497  24.642  1.00  0.00     0.134 A 
ATOM     75  C   UNL A   1      48.073  26.745  26.764  1.00  0.00     0.134 A 
ATOM     76  F   UNL A   1      46.315  28.049  23.865  1.00  0.00    -0.206 F 
ATOM     77  C   UNL A   1      48.432  27.050  24.029  1.00  0.00     0.040 A 
ATOM     78  C   UNL A   1      49.262  26.324  26.170  1.00  0.00     0.040 A 
ATOM     79  F   UNL A   1      47.940  26.574  28.089  1.00  0.00    -0.206 F 
ATOM     80  C   UNL A   1      49.440  26.467  24.795  1.00  0.00     0.006 A 
ENDBRANCH  56  73
ENDBRANCH  30  31
ENDBRANCH  23  25
ENDBRANCH  22  23
ENDBRANCH  21  22
ENDBRANCH  20  21
ENDBRANCH  19  20
ENDBRANCH   1  19
TORSDOF 17
ENDMDL
MODEL 3
REMARK VINA RESULT:      -9.6      1.560      2.173
REMARK SMILES Cc1csc(C[NH2+]C2(C(=O)OCCOCCOC(=O)c3ccc(-c4c5nc(c(-c6c(F)cccc6F)c6ccc([nH]6)c(-c6c(F)cccc6F)c6nc(c(-c7c(F)cccc7F)c7ccc4[nH]7)C=C6)C=C5)cc3)CC2)n1
REMARK SMILES IDX 13 1 12 2 11 3 9 4 10 5 8 6 74 7 75 8 7 9 6 12 5 13 1 14
REMARK SMILES IDX 2 15 3 16 76 17 4 18 14 19 15 20 16 21 17 22 18 23 19 24
REMARK SMILES IDX 20 25 21 26 73 27 22 28 72 29 23 30 24 31 25 32 66 33 26 34
REMARK SMILES IDX 71 35 65 36 67 37 27 38 70 39 64 40 63 41 28 43 54 44 37 45
REMARK SMILES IDX 53 46 38 47 41 48 52 49 68 50 39 51 40 52 51 54 69 55 42 56
REMARK SMILES IDX 29 57 30 58 35 59 31 60 32 61 34 62 36 63 33 64 55 65 56 66
REMARK SMILES IDX 61 67 57 68 58 69 60 70 62 71 59 72 43 73 44 74 49 75 45 76
REMARK SMILES IDX 46 77 48 78 50 79 47 80
REMARK H PARENT 7 10 7 11 67 42 41 53
REMARK Flexibility Score: inf
ROOT
ATOM      1  C   UNL A   1      36.012  22.576  24.475  1.00  0.00     0.202 C 
ENDROOT
BRANCH   1   2
ATOM      2  C   UNL A   1      35.733  22.800  25.970  1.00  0.00     0.261 C 
BRANCH   2   3
ATOM      3  O   UNL A   1      34.383  23.226  26.178  1.00  0.00    -0.459 OA
BRANCH   3   4
ATOM      4  C   UNL A   1      33.571  22.272  26.709  1.00  0.00     0.368 C 
ATOM      5  O   UNL A   1      33.630  21.837  27.853  1.00  0.00    -0.245 OA
BRANCH   4   6
ATOM      6  C   UNL A   1      32.388  21.986  25.802  1.00  0.00     0.195 C 
ATOM      7  C   UNL A   1      31.971  23.006  24.767  1.00  0.00     0.088 C 
ATOM      8  C   UNL A   1      31.150  22.854  26.010  1.00  0.00     0.088 C 
BRANCH   6   9
ATOM      9  N   UNL A   1      32.131  20.520  25.530  1.00  0.00    -0.326 N 
ATOM     10  H   UNL A   1      32.041  20.042  26.426  1.00  0.00     0.347 HD
ATOM     11  H   UNL A   1      31.283  20.476  24.965  1.00  0.00     0.347 HD
BRANCH   9  12
ATOM     12  C   UNL A   1      33.186  19.843  24.752  1.00  0.00     0.330 C 
BRANCH  12  13
ATOM     13  C   UNL A   1      33.217  18.334  24.826  1.00  0.00     0.147 A 
ATOM     14  C   UNL A   1      32.020  15.138  26.008  1.00  0.00     0.067 C 
ATOM     15  C   UNL A   1      32.822  16.220  25.381  1.00  0.00     0.049 A 
ATOM     16  C   UNL A   1      34.075  16.063  24.820  1.00  0.00     0.090 A 
ATOM     17  N   UNL A   1      32.323  17.519  25.354  1.00  0.00    -0.240 NA
ATOM     18  S   UNL A   1      34.654  17.559  24.245  1.00  0.00    -0.121 S 
ENDBRANCH  12  13
ENDBRANCH   9  12
ENDBRANCH   6   9
ENDBRANCH   4   6
ENDBRANCH   3   4
ENDBRANCH   2   3
ENDBRANCH   1   2
BRANCH   1  19
ATOM     19  O   UNL A   1      36.979  21.600  24.099  1.00  0.00    -0.374 OA
BRANCH  19  20
ATOM     20  C   UNL A   1      37.111  20.419  24.896  1.00  0.00     0.202 C 
BRANCH  20  21
ATOM     21  C   UNL A   1      38.484  19.757  25.023  1.00  0.00     0.261 C 
BRANCH  21  22
ATOM     22  O   UNL A   1      39.222  20.264  26.146  1.00  0.00    -0.460 OA
BRANCH  22  23
ATOM     23  C   UNL A   1      40.537  19.957  26.136  1.00  0.00     0.338 C 
ATOM     24  O   UNL A   1      41.068  18.966  25.656  1.00  0.00    -0.246 OA
BRANCH  23  25
ATOM     25  C   UNL A   1      41.309  21.114  26.613  1.00  0.00     0.060 A 
ATOM     26  C   UNL A   1      41.268  21.390  27.986  1.00  0.00     0.016 A 
ATOM     27  C   UNL A   1      41.997  21.948  25.732  1.00  0.00     0.016 A 
ATOM     28  C   UNL A   1      41.853  22.548  28.478  1.00  0.00     0.010 A 
ATOM     29  C   UNL A   1      42.572  23.120  26.223  1.00  0.00     0.010 A 
ATOM     30  C   UNL A   1      42.451  23.445  27.587  1.00  0.00    -0.014 A 
BRANCH  30  31
ATOM     31  C   UNL A   1      42.740  24.818  28.051  1.00  0.00     0.031 A 
ATOM     32  C   UNL A   1      44.177  25.215  28.244  1.00  0.00     0.074 A 
ATOM     33  C   UNL A   1      41.747  25.702  28.239  1.00  0.00     0.049 A 
ATOM     34  N   UNL A   1      44.678  26.349  28.661  1.00  0.00    -0.248 NA
ATOM     35  C   UNL A   1      45.186  24.191  27.928  1.00  0.00     0.031 C 
ATOM     36  C   UNL A   1      40.326  25.434  28.029  1.00  0.00     0.029 A 
ATOM     37  N   UNL A   1      41.791  27.008  28.651  1.00  0.00    -0.354 N 
ATOM     38  C   UNL A   1      46.055  26.169  28.667  1.00  0.00     0.074 A 
ATOM     39  C   UNL A   1      46.311  24.809  28.252  1.00  0.00     0.031 C 
ATOM     40  C   UNL A   1      39.628  26.545  28.322  1.00  0.00     0.029 A 
ATOM     41  C   UNL A   1      40.552  27.585  28.768  1.00  0.00     0.049 A 
ATOM     42  H   UNL A   1      42.629  27.486  28.843  1.00  0.00     0.167 HD
ATOM     43  C   UNL A   1      47.020  27.065  28.980  1.00  0.00     0.037 A 
ATOM     44  C   UNL A   1      40.210  28.811  29.207  1.00  0.00     0.037 A 
ATOM     45  C   UNL A   1      46.751  28.417  29.395  1.00  0.00     0.049 A 
ATOM     46  C   UNL A   1      41.298  29.767  29.617  1.00  0.00     0.074 A 
ATOM     47  C   UNL A   1      47.649  29.413  29.731  1.00  0.00     0.029 A 
ATOM     48  N   UNL A   1      45.480  28.958  29.532  1.00  0.00    -0.354 N 
ATOM     49  N   UNL A   1      42.599  29.597  29.610  1.00  0.00    -0.248 NA
ATOM     50  C   UNL A   1      40.868  31.091  30.088  1.00  0.00     0.031 C 
ATOM     51  C   UNL A   1      46.921  30.539  30.127  1.00  0.00     0.029 A 
ATOM     52  C   UNL A   1      45.571  30.268  29.972  1.00  0.00     0.049 A 
ATOM     53  H   UNL A   1      44.640  28.482  29.346  1.00  0.00     0.167 HD
ATOM     54  C   UNL A   1      43.145  30.802  30.036  1.00  0.00     0.074 A 
ATOM     55  C   UNL A   1      42.031  31.696  30.284  1.00  0.00     0.031 C 
ATOM     56  C   UNL A   1      44.448  31.143  30.203  1.00  0.00     0.037 A 
BRANCH  43  57
ATOM     57  C   UNL A   1      48.446  26.594  28.921  1.00  0.00     0.057 A 
ATOM     58  C   UNL A   1      49.232  26.741  27.769  1.00  0.00     0.134 A 
ATOM     59  C   UNL A   1      49.044  25.992  30.035  1.00  0.00     0.134 A 
ATOM     60  F   UNL A   1      48.718  27.293  26.660  1.00  0.00    -0.206 F 
ATOM     61  C   UNL A   1      50.549  26.278  27.719  1.00  0.00     0.040 A 
ATOM     62  C   UNL A   1      50.369  25.554  30.007  1.00  0.00     0.040 A 
ATOM     63  F   UNL A   1      48.351  25.820  31.171  1.00  0.00    -0.206 F 
ATOM     64  C   UNL A   1      51.123  25.689  28.843  1.00  0.00     0.006 A 
ENDBRANCH  43  57
BRANCH  44  65
ATOM     65  C   UNL A   1      38.780  29.202  29.279  1.00  0.00     0.057 A 
ATOM     66  C   UNL A   1      38.050  29.071  30.467  1.00  0.00     0.134 A 
ATOM     67  C   UNL A   1      38.105  29.707  28.161  1.00  0.00     0.134 A 
ATOM     68  F   UNL A   1      38.636  28.576  31.566  1.00  0.00    -0.206 F 
ATOM     69  C   UNL A   1      36.697  29.407  30.534  1.00  0.00     0.040 A 
ATOM     70  C   UNL A   1      36.761  30.075  28.221  1.00  0.00     0.040 A 
ATOM     71  F   UNL A   1      38.749  29.863  26.994  1.00  0.00    -0.206 F 
ATOM     72  C   UNL A   1      36.050  29.916  29.410  1.00  0.00     0.006 A 
ENDBRANCH  44  65
BRANCH  56  73
ATOM     73  C   UNL A   1      44.738  32.557  30.619  1.00  0.00     0.057 A 
ATOM     74  C   UNL A   1      44.888  33.593  29.689  1.00  0.00     0.134 A 
ATOM     75  C   UNL A   1      44.841  32.888  31.977  1.00  0.00     0.134 A 
ATOM     76  F   UNL A   1      44.811  33.345  28.373  1.00  0.00    -0.206 F 
ATOM     77  C   UNL A   1      45.167  34.900  30.094  1.00  0.00     0.040 A 
ATOM     78  C   UNL A   1      45.086  34.196  32.395  1.00  0.00     0.040 A 
ATOM     79  F   UNL A   1      44.695  31.945  32.921  1.00  0.00    -0.206 F 
ATOM     80  C   UNL A   1      45.259  35.205  31.450  1.00  0.00     0.006 A 
ENDBRANCH  56  73
ENDBRANCH  30  31
ENDBRANCH  23  25
ENDBRANCH  22  23
ENDBRANCH  21  22
ENDBRANCH  20  21
ENDBRANCH  19  20
ENDBRANCH   1  19
TORSDOF 17
ENDMDL
