MODEL 1
REMARK VINA RESULT:     -10.2      0.000      0.000
REMARK SMILES CC[C@H](C(=O)OCCOCCOC(=O)c1ccc(-c2c3nc(c(-c4c(F)cccc4F)c4ccc([nH]4)c(-c4c(F)cccc4F)c4nc(c(-c5c(F)cccc5F)c5ccc2[nH]5)C=C4)C=C3)cc1)N1C(=O)/C(=C\c2cccs2)SC1=S
REMARK SMILES IDX 9 1 8 2 7 3 6 4 4 5 5 6 3 7 2 8 1 9 69 10 70 11 80 12 71 13
REMARK SMILES IDX 72 14 79 15 81 16 73 17 74 18 75 19 78 20 76 21 77 22 10 23
REMARK SMILES IDX 11 24 12 25 13 26 14 27 15 28 16 29 68 30 17 31 67 32 18 33
REMARK SMILES IDX 19 34 20 35 61 36 21 37 66 38 60 39 62 40 22 41 65 42 59 43
REMARK SMILES IDX 58 44 23 46 49 47 32 48 48 49 33 50 36 51 47 52 63 53 34 54
REMARK SMILES IDX 35 55 46 57 64 58 37 59 24 60 25 61 30 62 26 63 27 64 29 65
REMARK SMILES IDX 31 66 28 67 50 68 51 69 56 70 52 71 53 72 55 73 57 74 54 75
REMARK SMILES IDX 38 76 39 77 44 78 40 79 41 80 43 81 45 82 42 83
REMARK H PARENT 62 45 36 56
REMARK Flexibility Score: inf
ROOT
ATOM      1  O   UNL A   1      32.125  30.560  27.250  1.00  0.00    -0.374 OA
ENDROOT
BRANCH   1   2
ATOM      2  C   UNL A   1      33.291  29.854  26.839  1.00  0.00     0.202 C 
BRANCH   2   3
ATOM      3  C   UNL A   1      33.292  28.346  27.083  1.00  0.00     0.261 C 
BRANCH   3   4
ATOM      4  O   UNL A   1      32.410  27.643  26.194  1.00  0.00    -0.462 OA
BRANCH   4   5
ATOM      5  C   UNL A   1      32.998  27.129  25.082  1.00  0.00     0.329 C 
ATOM      6  O   UNL A   1      33.948  26.349  25.084  1.00  0.00    -0.250 OA
BRANCH   5   7
ATOM      7  C   UNL A   1      32.420  27.699  23.777  1.00  0.00     0.201 C 
BRANCH   7   8
ATOM      8  C   UNL A   1      33.045  27.259  22.448  1.00  0.00     0.034 C 
ATOM      9  C   UNL A   1      34.155  28.203  21.997  1.00  0.00     0.007 C 
ENDBRANCH   7   8
BRANCH   7  10
ATOM     10  N   UNL A   1      30.972  27.419  23.846  1.00  0.00    -0.278 N 
ATOM     11  C   UNL A   1      30.100  28.492  23.903  1.00  0.00     0.267 C 
ATOM     12  C   UNL A   1      30.395  26.171  23.893  1.00  0.00     0.149 C 
ATOM     13  O   UNL A   1      30.407  29.643  24.176  1.00  0.00    -0.268 OA
ATOM     14  C   UNL A   1      28.728  28.029  23.587  1.00  0.00     0.081 C 
ATOM     15  S   UNL A   1      28.636  26.333  23.876  1.00  0.00    -0.054 SA
ATOM     16  S   UNL A   1      31.154  24.689  23.975  1.00  0.00    -0.052 S 
ATOM     17  C   UNL A   1      27.755  28.747  23.013  1.00  0.00     0.040 C 
BRANCH  17  18
ATOM     18  C   UNL A   1      27.975  30.061  22.513  1.00  0.00     0.028 A 
ATOM     19  C   UNL A   1      28.400  30.444  21.251  1.00  0.00     0.020 A 
ATOM     20  S   UNL A   1      27.668  31.433  23.498  1.00  0.00    -0.144 S 
ATOM     21  C   UNL A   1      28.504  31.858  21.108  1.00  0.00     0.012 A 
ATOM     22  C   UNL A   1      28.151  32.515  22.263  1.00  0.00     0.065 A 
ENDBRANCH  17  18
ENDBRANCH   7  10
ENDBRANCH   5   7
ENDBRANCH   4   5
ENDBRANCH   3   4
ENDBRANCH   2   3
ENDBRANCH   1   2
BRANCH   1  23
ATOM     23  C   UNL A   1      31.728  31.696  26.481  1.00  0.00     0.202 C 
BRANCH  23  24
ATOM     24  C   UNL A   1      31.699  33.043  27.215  1.00  0.00     0.261 C 
BRANCH  24  25
ATOM     25  O   UNL A   1      32.997  33.669  27.249  1.00  0.00    -0.460 OA
BRANCH  25  26
ATOM     26  C   UNL A   1      33.244  34.422  28.346  1.00  0.00     0.338 C 
ATOM     27  O   UNL A   1      32.600  35.386  28.744  1.00  0.00    -0.246 OA
BRANCH  26  28
ATOM     28  C   UNL A   1      34.326  33.823  29.144  1.00  0.00     0.060 A 
ATOM     29  C   UNL A   1      35.642  34.201  28.846  1.00  0.00     0.016 A 
ATOM     30  C   UNL A   1      34.071  32.839  30.101  1.00  0.00     0.016 A 
ATOM     31  C   UNL A   1      36.711  33.573  29.483  1.00  0.00     0.010 A 
ATOM     32  C   UNL A   1      35.147  32.202  30.731  1.00  0.00     0.010 A 
ATOM     33  C   UNL A   1      36.472  32.547  30.406  1.00  0.00    -0.014 A 
BRANCH  33  34
ATOM     34  C   UNL A   1      37.612  31.772  30.955  1.00  0.00     0.031 A 
ATOM     35  C   UNL A   1      38.106  32.062  32.345  1.00  0.00     0.074 A 
ATOM     36  C   UNL A   1      38.185  30.797  30.228  1.00  0.00     0.049 A 
ATOM     37  N   UNL A   1      39.105  31.525  32.998  1.00  0.00    -0.248 NA
ATOM     38  C   UNL A   1      37.376  33.092  33.099  1.00  0.00     0.031 C 
ATOM     39  C   UNL A   1      37.773  30.390  28.886  1.00  0.00     0.029 A 
ATOM     40  N   UNL A   1      39.246  29.975  30.518  1.00  0.00    -0.354 N 
ATOM     41  C   UNL A   1      39.125  32.149  34.239  1.00  0.00     0.074 A 
ATOM     42  C   UNL A   1      38.055  33.125  34.238  1.00  0.00     0.031 C 
ATOM     43  C   UNL A   1      38.579  29.403  28.463  1.00  0.00     0.029 A 
ATOM     44  C   UNL A   1      39.584  29.132  29.489  1.00  0.00     0.049 A 
ATOM     45  H   UNL A   1      39.718  29.990  31.381  1.00  0.00     0.167 HD
ATOM     46  C   UNL A   1      39.953  31.924  35.286  1.00  0.00     0.037 A 
ATOM     47  C   UNL A   1      40.604  28.258  29.379  1.00  0.00     0.037 A 
ATOM     48  C   UNL A   1      41.020  30.956  35.288  1.00  0.00     0.049 A 
ATOM     49  C   UNL A   1      41.568  28.093  30.522  1.00  0.00     0.074 A 
ATOM     50  C   UNL A   1      41.894  30.637  36.313  1.00  0.00     0.029 A 
ATOM     51  N   UNL A   1      41.366  30.160  34.207  1.00  0.00    -0.354 N 
ATOM     52  N   UNL A   1      41.562  28.668  31.700  1.00  0.00    -0.248 NA
ATOM     53  C   UNL A   1      42.686  27.160  30.317  1.00  0.00     0.031 C 
ATOM     54  C   UNL A   1      42.801  29.685  35.836  1.00  0.00     0.029 A 
ATOM     55  C   UNL A   1      42.463  29.376  34.528  1.00  0.00     0.049 A 
ATOM     56  H   UNL A   1      40.901  30.153  33.340  1.00  0.00     0.167 HD
ATOM     57  C   UNL A   1      42.659  28.156  32.381  1.00  0.00     0.074 A 
ATOM     58  C   UNL A   1      43.299  27.210  31.491  1.00  0.00     0.031 C 
ATOM     59  C   UNL A   1      43.097  28.445  33.632  1.00  0.00     0.037 A 
BRANCH  46  60
ATOM     60  C   UNL A   1      39.756  32.758  36.517  1.00  0.00     0.057 A 
ATOM     61  C   UNL A   1      40.522  33.905  36.764  1.00  0.00     0.134 A 
ATOM     62  C   UNL A   1      38.759  32.433  37.446  1.00  0.00     0.134 A 
ATOM     63  F   UNL A   1      41.500  34.263  35.920  1.00  0.00    -0.206 F 
ATOM     64  C   UNL A   1      40.314  34.689  37.900  1.00  0.00     0.040 A 
ATOM     65  C   UNL A   1      38.527  33.222  38.573  1.00  0.00     0.040 A 
ATOM     66  F   UNL A   1      37.987  31.351  37.266  1.00  0.00    -0.206 F 
ATOM     67  C   UNL A   1      39.309  34.352  38.806  1.00  0.00     0.006 A 
ENDBRANCH  46  60
BRANCH  47  68
ATOM     68  C   UNL A   1      40.787  27.490  28.122  1.00  0.00     0.057 A 
ATOM     69  C   UNL A   1      40.211  26.227  27.953  1.00  0.00     0.134 A 
ATOM     70  C   UNL A   1      41.561  27.994  27.069  1.00  0.00     0.134 A 
ATOM     71  F   UNL A   1      39.481  25.681  28.937  1.00  0.00    -0.206 F 
ATOM     72  C   UNL A   1      40.406  25.485  26.787  1.00  0.00     0.040 A 
ATOM     73  C   UNL A   1      41.745  27.274  25.888  1.00  0.00     0.040 A 
ATOM     74  F   UNL A   1      42.144  29.197  27.173  1.00  0.00    -0.206 F 
ATOM     75  C   UNL A   1      41.171  26.012  25.747  1.00  0.00     0.006 A 
ENDBRANCH  47  68
BRANCH  59  76
ATOM     76  C   UNL A   1      44.319  27.720  34.116  1.00  0.00     0.057 A 
ATOM     77  C   UNL A   1      44.249  26.415  34.620  1.00  0.00     0.134 A 
ATOM     78  C   UNL A   1      45.583  28.318  34.042  1.00  0.00     0.134 A 
ATOM     79  F   UNL A   1      43.066  25.791  34.729  1.00  0.00    -0.206 F 
ATOM     80  C   UNL A   1      45.391  25.738  35.053  1.00  0.00     0.040 A 
ATOM     81  C   UNL A   1      46.735  27.642  34.449  1.00  0.00     0.040 A 
ATOM     82  F   UNL A   1      45.722  29.562  33.562  1.00  0.00    -0.206 F 
ATOM     83  C   UNL A   1      46.639  26.350  34.962  1.00  0.00     0.006 A 
ENDBRANCH  59  76
ENDBRANCH  33  34
ENDBRANCH  26  28
ENDBRANCH  25  26
ENDBRANCH  24  25
ENDBRANCH  23  24
ENDBRANCH   1  23
TORSDOF 17
ENDMDL
MODEL 2
REMARK VINA RESULT:     -10.2      0.813      6.289
REMARK SMILES CC[C@H](C(=O)OCCOCCOC(=O)c1ccc(-c2c3nc(c(-c4c(F)cccc4F)c4ccc([nH]4)c(-c4c(F)cccc4F)c4nc(c(-c5c(F)cccc5F)c5ccc2[nH]5)C=C4)C=C3)cc1)N1C(=O)/C(=C\c2cccs2)SC1=S
REMARK SMILES IDX 9 1 8 2 7 3 6 4 4 5 5 6 3 7 2 8 1 9 69 10 70 11 80 12 71 13
REMARK SMILES IDX 72 14 79 15 81 16 73 17 74 18 75 19 78 20 76 21 77 22 10 23
REMARK SMILES IDX 11 24 12 25 13 26 14 27 15 28 16 29 68 30 17 31 67 32 18 33
REMARK SMILES IDX 19 34 20 35 61 36 21 37 66 38 60 39 62 40 22 41 65 42 59 43
REMARK SMILES IDX 58 44 23 46 49 47 32 48 48 49 33 50 36 51 47 52 63 53 34 54
REMARK SMILES IDX 35 55 46 57 64 58 37 59 24 60 25 61 30 62 26 63 27 64 29 65
REMARK SMILES IDX 31 66 28 67 50 68 51 69 56 70 52 71 53 72 55 73 57 74 54 75
REMARK SMILES IDX 38 76 39 77 44 78 40 79 41 80 43 81 45 82 42 83
REMARK H PARENT 62 45 36 56
REMARK Flexibility Score: inf
ROOT
ATOM      1  O   UNL A   1      32.518  30.205  26.894  1.00  0.00    -0.374 OA
ENDROOT
BRANCH   1   2
ATOM      2  C   UNL A   1      32.016  28.877  27.000  1.00  0.00     0.202 C 
BRANCH   2   3
ATOM      3  C   UNL A   1      32.937  27.763  26.502  1.00  0.00     0.261 C 
BRANCH   3   4
ATOM      4  O   UNL A   1      32.462  27.157  25.290  1.00  0.00    -0.462 OA
BRANCH   4   5
ATOM      5  C   UNL A   1      32.940  27.706  24.142  1.00  0.00     0.329 C 
ATOM      6  O   UNL A   1      33.828  28.553  24.083  1.00  0.00    -0.250 OA
BRANCH   5   7
ATOM      7  C   UNL A   1      32.185  27.235  22.889  1.00  0.00     0.201 C 
BRANCH   7   8
ATOM      8  C   UNL A   1      32.664  25.960  22.185  1.00  0.00     0.034 C 
ATOM      9  C   UNL A   1      32.425  26.014  20.679  1.00  0.00     0.007 C 
ENDBRANCH   7   8
BRANCH   7  10
ATOM     10  N   UNL A   1      30.769  27.160  23.302  1.00  0.00    -0.278 N 
ATOM     11  C   UNL A   1      30.066  28.343  23.445  1.00  0.00     0.267 C 
ATOM     12  C   UNL A   1      30.077  26.008  23.597  1.00  0.00     0.149 C 
ATOM     13  O   UNL A   1      30.560  29.457  23.529  1.00  0.00    -0.268 OA
ATOM     14  C   UNL A   1      28.613  28.050  23.484  1.00  0.00     0.081 C 
ATOM     15  S   UNL A   1      28.392  26.406  23.951  1.00  0.00    -0.054 SA
ATOM     16  S   UNL A   1      30.656  24.446  23.654  1.00  0.00    -0.052 S 
ATOM     17  C   UNL A   1      27.624  28.853  23.072  1.00  0.00     0.040 C 
BRANCH  17  18
ATOM     18  C   UNL A   1      27.875  30.087  22.410  1.00  0.00     0.028 A 
ATOM     19  C   UNL A   1      28.049  30.320  21.055  1.00  0.00     0.020 A 
ATOM     20  S   UNL A   1      27.955  31.553  23.298  1.00  0.00    -0.144 S 
ATOM     21  C   UNL A   1      28.278  31.694  20.755  1.00  0.00     0.012 A 
ATOM     22  C   UNL A   1      28.269  32.471  21.888  1.00  0.00     0.065 A 
ENDBRANCH  17  18
ENDBRANCH   7  10
ENDBRANCH   5   7
ENDBRANCH   4   5
ENDBRANCH   3   4
ENDBRANCH   2   3
ENDBRANCH   1   2
BRANCH   1  23
ATOM     23  C   UNL A   1      31.685  31.184  26.272  1.00  0.00     0.202 C 
BRANCH  23  24
ATOM     24  C   UNL A   1      31.518  32.514  27.018  1.00  0.00     0.261 C 
BRANCH  24  25
ATOM     25  O   UNL A   1      32.650  33.387  26.829  1.00  0.00    -0.460 OA
BRANCH  25  26
ATOM     26  C   UNL A   1      33.133  33.954  27.959  1.00  0.00     0.338 C 
ATOM     27  O   UNL A   1      32.605  34.831  28.633  1.00  0.00    -0.246 OA
BRANCH  26  28
ATOM     28  C   UNL A   1      34.344  33.247  28.409  1.00  0.00     0.060 A 
ATOM     29  C   UNL A   1      34.176  32.096  29.189  1.00  0.00     0.016 A 
ATOM     30  C   UNL A   1      35.622  33.751  28.155  1.00  0.00     0.016 A 
ATOM     31  C   UNL A   1      35.284  31.461  29.746  1.00  0.00     0.010 A 
ATOM     32  C   UNL A   1      36.733  33.118  28.725  1.00  0.00     0.010 A 
ATOM     33  C   UNL A   1      36.568  31.986  29.545  1.00  0.00    -0.014 A 
BRANCH  33  34
ATOM     34  C   UNL A   1      37.722  31.404  30.272  1.00  0.00     0.031 A 
ATOM     35  C   UNL A   1      38.611  30.409  29.581  1.00  0.00     0.074 A 
ATOM     36  C   UNL A   1      37.992  31.782  31.534  1.00  0.00     0.049 A 
ATOM     37  N   UNL A   1      39.648  29.760  30.046  1.00  0.00    -0.248 NA
ATOM     38  C   UNL A   1      38.290  30.107  28.177  1.00  0.00     0.031 C 
ATOM     39  C   UNL A   1      37.233  32.768  32.301  1.00  0.00     0.029 A 
ATOM     40  N   UNL A   1      38.979  31.372  32.396  1.00  0.00    -0.354 N 
ATOM     41  C   UNL A   1      40.105  28.974  28.996  1.00  0.00     0.074 A 
ATOM     42  C   UNL A   1      39.216  29.206  27.877  1.00  0.00     0.031 C 
ATOM     43  C   UNL A   1      37.775  32.880  33.525  1.00  0.00     0.029 A 
ATOM     44  C   UNL A   1      38.896  31.949  33.639  1.00  0.00     0.049 A 
ATOM     45  H   UNL A   1      39.678  30.727  32.146  1.00  0.00     0.167 HD
ATOM     46  C   UNL A   1      41.173  28.141  28.964  1.00  0.00     0.037 A 
ATOM     47  C   UNL A   1      39.627  31.732  34.750  1.00  0.00     0.037 A 
ATOM     48  C   UNL A   1      42.057  27.907  30.077  1.00  0.00     0.049 A 
ATOM     49  C   UNL A   1      40.751  30.732  34.717  1.00  0.00     0.074 A 
ATOM     50  C   UNL A   1      43.182  27.102  30.131  1.00  0.00     0.029 A 
ATOM     51  N   UNL A   1      41.907  28.468  31.336  1.00  0.00    -0.354 N 
ATOM     52  N   UNL A   1      41.191  30.014  33.712  1.00  0.00    -0.248 NA
ATOM     53  C   UNL A   1      41.476  30.507  35.976  1.00  0.00     0.031 C 
ATOM     54  C   UNL A   1      43.683  27.136  31.436  1.00  0.00     0.029 A 
ATOM     55  C   UNL A   1      42.898  27.999  32.184  1.00  0.00     0.049 A 
ATOM     56  H   UNL A   1      41.201  29.105  31.590  1.00  0.00     0.167 HD
ATOM     57  C   UNL A   1      42.252  29.269  34.210  1.00  0.00     0.074 A 
ATOM     58  C   UNL A   1      42.401  29.634  35.603  1.00  0.00     0.031 C 
ATOM     59  C   UNL A   1      43.032  28.362  33.571  1.00  0.00     0.037 A 
BRANCH  46  60
ATOM     60  C   UNL A   1      41.434  27.399  27.687  1.00  0.00     0.057 A 
ATOM     61  C   UNL A   1      42.201  27.951  26.654  1.00  0.00     0.134 A 
ATOM     62  C   UNL A   1      40.947  26.097  27.507  1.00  0.00     0.134 A 
ATOM     63  F   UNL A   1      42.687  29.197  26.759  1.00  0.00    -0.206 F 
ATOM     64  C   UNL A   1      42.460  27.243  25.479  1.00  0.00     0.040 A 
ATOM     65  C   UNL A   1      41.218  25.371  26.347  1.00  0.00     0.040 A 
ATOM     66  F   UNL A   1      40.209  25.508  28.460  1.00  0.00    -0.206 F 
ATOM     67  C   UNL A   1      41.973  25.945  25.326  1.00  0.00     0.006 A 
ENDBRANCH  46  60
BRANCH  47  68
ATOM     68  C   UNL A   1      39.300  32.455  36.004  1.00  0.00     0.057 A 
ATOM     69  C   UNL A   1      39.892  33.686  36.307  1.00  0.00     0.134 A 
ATOM     70  C   UNL A   1      38.403  31.922  36.937  1.00  0.00     0.134 A 
ATOM     71  F   UNL A   1      40.780  34.234  35.464  1.00  0.00    -0.206 F 
ATOM     72  C   UNL A   1      39.614  34.356  37.500  1.00  0.00     0.040 A 
ATOM     73  C   UNL A   1      38.096  32.592  38.122  1.00  0.00     0.040 A 
ATOM     74  F   UNL A   1      37.807  30.744  36.706  1.00  0.00    -0.206 F 
ATOM     75  C   UNL A   1      38.708  33.811  38.408  1.00  0.00     0.006 A 
ENDBRANCH  47  68
BRANCH  59  76
ATOM     76  C   UNL A   1      44.124  27.712  34.368  1.00  0.00     0.057 A 
ATOM     77  C   UNL A   1      45.383  28.307  34.513  1.00  0.00     0.134 A 
ATOM     78  C   UNL A   1      43.903  26.497  35.030  1.00  0.00     0.134 A 
ATOM     79  F   UNL A   1      45.663  29.465  33.894  1.00  0.00    -0.206 F 
ATOM     80  C   UNL A   1      46.392  27.707  35.271  1.00  0.00     0.040 A 
ATOM     81  C   UNL A   1      44.895  25.900  35.810  1.00  0.00     0.040 A 
ATOM     82  F   UNL A   1      42.718  25.877  34.939  1.00  0.00    -0.206 F 
ATOM     83  C   UNL A   1      46.146  26.503  35.927  1.00  0.00     0.006 A 
ENDBRANCH  59  76
ENDBRANCH  33  34
ENDBRANCH  26  28
ENDBRANCH  25  26
ENDBRANCH  24  25
ENDBRANCH  23  24
ENDBRANCH   1  23
TORSDOF 17
ENDMDL
MODEL 3
REMARK VINA RESULT:     -10.2      5.826     10.693
REMARK SMILES CC[C@H](C(=O)OCCOCCOC(=O)c1ccc(-c2c3nc(c(-c4c(F)cccc4F)c4ccc([nH]4)c(-c4c(F)cccc4F)c4nc(c(-c5c(F)cccc5F)c5ccc2[nH]5)C=C4)C=C3)cc1)N1C(=O)/C(=C\c2cccs2)SC1=S
REMARK SMILES IDX 9 1 8 2 7 3 6 4 4 5 5 6 3 7 2 8 1 9 69 10 70 11 80 12 71 13
REMARK SMILES IDX 72 14 79 15 81 16 73 17 74 18 75 19 78 20 76 21 77 22 10 23
REMARK SMILES IDX 11 24 12 25 13 26 14 27 15 28 16 29 68 30 17 31 67 32 18 33
REMARK SMILES IDX 19 34 20 35 61 36 21 37 66 38 60 39 62 40 22 41 65 42 59 43
REMARK SMILES IDX 58 44 23 46 49 47 32 48 48 49 33 50 36 51 47 52 63 53 34 54
REMARK SMILES IDX 35 55 46 57 64 58 37 59 24 60 25 61 30 62 26 63 27 64 29 65
REMARK SMILES IDX 31 66 28 67 50 68 51 69 56 70 52 71 53 72 55 73 57 74 54 75
REMARK SMILES IDX 38 76 39 77 44 78 40 79 41 80 43 81 45 82 42 83
REMARK H PARENT 62 45 36 56
REMARK Flexibility Score: inf
ROOT
ATOM      1  O   UNL A   1      38.936  21.859  25.372  1.00  0.00    -0.374 OA
ENDROOT
BRANCH   1   2
ATOM      2  C   UNL A   1      38.757  22.758  26.462  1.00  0.00     0.202 C 
BRANCH   2   3
ATOM      3  C   UNL A   1      38.071  24.084  26.141  1.00  0.00     0.261 C 
BRANCH   3   4
ATOM      4  O   UNL A   1      36.658  24.050  26.395  1.00  0.00    -0.462 OA
BRANCH   4   5
ATOM      5  C   UNL A   1      35.923  23.356  25.485  1.00  0.00     0.329 C 
ATOM      6  O   UNL A   1      36.052  23.437  24.266  1.00  0.00    -0.250 OA
BRANCH   5   7
ATOM      7  C   UNL A   1      34.814  22.509  26.129  1.00  0.00     0.201 C 
BRANCH   7   8
ATOM      8  C   UNL A   1      34.057  23.088  27.330  1.00  0.00     0.034 C 
ATOM      9  C   UNL A   1      33.156  22.051  27.993  1.00  0.00     0.007 C 
ENDBRANCH   7   8
BRANCH   7  10
ATOM     10  N   UNL A   1      33.919  22.139  25.015  1.00  0.00    -0.278 N 
ATOM     11  C   UNL A   1      34.087  20.899  24.424  1.00  0.00     0.267 C 
ATOM     12  C   UNL A   1      32.937  22.936  24.474  1.00  0.00     0.149 C 
ATOM     13  O   UNL A   1      35.070  20.183  24.544  1.00  0.00    -0.268 OA
ATOM     14  C   UNL A   1      32.888  20.572  23.617  1.00  0.00     0.081 C 
ATOM     15  S   UNL A   1      32.067  22.036  23.227  1.00  0.00    -0.054 SA
ATOM     16  S   UNL A   1      32.565  24.515  24.858  1.00  0.00    -0.052 S 
ATOM     17  C   UNL A   1      32.406  19.350  23.360  1.00  0.00     0.040 C 
BRANCH  17  18
ATOM     18  C   UNL A   1      32.949  18.179  23.959  1.00  0.00     0.028 A 
ATOM     19  C   UNL A   1      33.847  17.270  23.420  1.00  0.00     0.020 A 
ATOM     20  S   UNL A   1      32.544  17.755  25.572  1.00  0.00    -0.144 S 
ATOM     21  C   UNL A   1      34.172  16.214  24.320  1.00  0.00     0.012 A 
ATOM     22  C   UNL A   1      33.517  16.349  25.522  1.00  0.00     0.065 A 
ENDBRANCH  17  18
ENDBRANCH   7  10
ENDBRANCH   5   7
ENDBRANCH   4   5
ENDBRANCH   3   4
ENDBRANCH   2   3
ENDBRANCH   1   2
BRANCH   1  23
ATOM     23  C   UNL A   1      38.362  20.556  25.481  1.00  0.00     0.202 C 
BRANCH  23  24
ATOM     24  C   UNL A   1      39.343  19.376  25.502  1.00  0.00     0.261 C 
BRANCH  24  25
ATOM     25  O   UNL A   1      40.262  19.455  26.610  1.00  0.00    -0.460 OA
BRANCH  25  26
ATOM     26  C   UNL A   1      41.572  19.467  26.270  1.00  0.00     0.338 C 
ATOM     27  O   UNL A   1      42.203  18.574  25.717  1.00  0.00    -0.246 OA
BRANCH  26  28
ATOM     28  C   UNL A   1      42.146  20.805  26.494  1.00  0.00     0.060 A 
ATOM     29  C   UNL A   1      42.289  21.239  27.818  1.00  0.00     0.016 A 
ATOM     30  C   UNL A   1      42.450  21.658  25.432  1.00  0.00     0.016 A 
ATOM     31  C   UNL A   1      42.707  22.541  28.085  1.00  0.00     0.010 A 
ATOM     32  C   UNL A   1      42.860  22.969  25.703  1.00  0.00     0.010 A 
ATOM     33  C   UNL A   1      42.965  23.426  27.029  1.00  0.00    -0.014 A 
BRANCH  33  34
ATOM     34  C   UNL A   1      43.249  24.852  27.318  1.00  0.00     0.031 A 
ATOM     35  C   UNL A   1      44.619  25.407  27.045  1.00  0.00     0.074 A 
ATOM     36  C   UNL A   1      42.282  25.656  27.796  1.00  0.00     0.049 A 
ATOM     37  N   UNL A   1      45.082  26.613  27.256  1.00  0.00    -0.248 NA
ATOM     38  C   UNL A   1      45.596  24.481  26.453  1.00  0.00     0.031 C 
ATOM     39  C   UNL A   1      40.903  25.251  28.064  1.00  0.00     0.029 A 
ATOM     40  N   UNL A   1      42.318  26.982  28.149  1.00  0.00    -0.354 N 
ATOM     41  C   UNL A   1      46.402  26.592  26.823  1.00  0.00     0.074 A 
ATOM     42  C   UNL A   1      46.674  25.247  26.363  1.00  0.00     0.031 C 
ATOM     43  C   UNL A   1      40.226  26.305  28.550  1.00  0.00     0.029 A 
ATOM     44  C   UNL A   1      41.132  27.447  28.659  1.00  0.00     0.049 A 
ATOM     45  H   UNL A   1      43.118  27.546  28.045  1.00  0.00     0.167 HD
ATOM     46  C   UNL A   1      47.302  27.604  26.804  1.00  0.00     0.037 A 
ATOM     47  C   UNL A   1      40.819  28.650  29.179  1.00  0.00     0.037 A 
ATOM     48  C   UNL A   1      47.034  28.943  27.263  1.00  0.00     0.049 A 
ATOM     49  C   UNL A   1      41.865  29.731  29.232  1.00  0.00     0.074 A 
ATOM     50  C   UNL A   1      47.875  30.043  27.257  1.00  0.00     0.029 A 
ATOM     51  N   UNL A   1      45.837  29.360  27.825  1.00  0.00    -0.354 N 
ATOM     52  N   UNL A   1      43.101  29.709  28.796  1.00  0.00    -0.248 NA
ATOM     53  C   UNL A   1      41.473  31.003  29.856  1.00  0.00     0.031 C 
ATOM     54  C   UNL A   1      47.204  31.111  27.861  1.00  0.00     0.029 A 
ATOM     55  C   UNL A   1      45.929  30.690  28.202  1.00  0.00     0.049 A 
ATOM     56  H   UNL A   1      45.040  28.793  27.940  1.00  0.00     0.167 HD
ATOM     57  C   UNL A   1      43.627  30.964  29.075  1.00  0.00     0.074 A 
ATOM     58  C   UNL A   1      42.570  31.730  29.702  1.00  0.00     0.031 C 
ATOM     59  C   UNL A   1      44.874  31.439  28.834  1.00  0.00     0.037 A 
BRANCH  46  60
ATOM     60  C   UNL A   1      48.676  27.299  26.287  1.00  0.00     0.057 A 
ATOM     61  C   UNL A   1      48.992  27.392  24.926  1.00  0.00     0.134 A 
ATOM     62  C   UNL A   1      49.707  26.946  27.168  1.00  0.00     0.134 A 
ATOM     63  F   UNL A   1      48.049  27.713  24.029  1.00  0.00    -0.206 F 
ATOM     64  C   UNL A   1      50.282  27.129  24.457  1.00  0.00     0.040 A 
ATOM     65  C   UNL A   1      51.004  26.704  26.714  1.00  0.00     0.040 A 
ATOM     66  F   UNL A   1      49.472  26.844  28.485  1.00  0.00    -0.206 F 
ATOM     67  C   UNL A   1      51.293  26.790  25.354  1.00  0.00     0.006 A 
ENDBRANCH  46  60
BRANCH  47  68
ATOM     68  C   UNL A   1      39.460  28.891  29.722  1.00  0.00     0.057 A 
ATOM     69  C   UNL A   1      39.147  28.596  31.054  1.00  0.00     0.134 A 
ATOM     70  C   UNL A   1      38.436  29.403  28.916  1.00  0.00     0.134 A 
ATOM     71  F   UNL A   1      40.080  28.078  31.867  1.00  0.00    -0.206 F 
ATOM     72  C   UNL A   1      37.862  28.789  31.563  1.00  0.00     0.040 A 
ATOM     73  C   UNL A   1      37.152  29.625  29.418  1.00  0.00     0.040 A 
ATOM     74  F   UNL A   1      38.671  29.701  27.631  1.00  0.00    -0.206 F 
ATOM     75  C   UNL A   1      36.861  29.311  30.744  1.00  0.00     0.006 A 
ENDBRANCH  47  68
BRANCH  59  76
ATOM     76  C   UNL A   1      45.159  32.856  29.238  1.00  0.00     0.057 A 
ATOM     77  C   UNL A   1      45.766  33.164  30.463  1.00  0.00     0.134 A 
ATOM     78  C   UNL A   1      44.860  33.921  28.380  1.00  0.00     0.134 A 
ATOM     79  F   UNL A   1      46.067  32.190  31.336  1.00  0.00    -0.206 F 
ATOM     80  C   UNL A   1      46.045  34.482  30.828  1.00  0.00     0.040 A 
ATOM     81  C   UNL A   1      45.157  35.241  28.723  1.00  0.00     0.040 A 
ATOM     82  F   UNL A   1      44.285  33.696  27.189  1.00  0.00    -0.206 F 
ATOM     83  C   UNL A   1      45.746  35.525  29.954  1.00  0.00     0.006 A 
ENDBRANCH  59  76
ENDBRANCH  33  34
ENDBRANCH  26  28
ENDBRANCH  25  26
ENDBRANCH  24  25
ENDBRANCH  23  24
ENDBRANCH   1  23
TORSDOF 17
ENDMDL
