MODEL 1
REMARK VINA RESULT:     -11.0      0.000      0.000
REMARK SMILES Cc1ccc(S(=O)(=O)Nc2cccc(F)c2C(=O)OCCOCCOC(=O)c2ccc(-c3c4nc(c(-c5c(F)cccc5F)c5ccc([nH]5)c(-c5c(F)cccc5F)c5nc(c(-c6c(F)cccc6F)c6ccc3[nH]6)C=C5)C=C4)cc2)cc1Cl
REMARK SMILES IDX 21 1 20 2 19 3 17 4 18 5 16 6 10 7 11 8 12 9 14 10 13 11
REMARK SMILES IDX 15 12 9 13 6 15 7 16 8 17 5 18 1 19 2 20 3 21 83 22 4 23
REMARK SMILES IDX 82 24 84 25 22 26 23 27 24 28 25 29 26 30 27 31 28 32 29 33
REMARK SMILES IDX 81 34 30 35 80 36 31 37 32 38 33 39 74 40 34 41 79 42 73 43
REMARK SMILES IDX 75 44 35 45 78 46 72 47 71 48 36 50 62 51 45 52 61 53 46 54
REMARK SMILES IDX 49 55 60 56 76 57 47 58 48 59 59 61 77 62 50 63 37 64 38 65
REMARK SMILES IDX 43 66 39 67 40 68 42 69 44 70 41 71 63 72 64 73 69 74 65 75
REMARK SMILES IDX 66 76 68 77 70 78 67 79 51 80 52 81 57 82 53 83 54 84 56 85
REMARK SMILES IDX 58 86 55 87
REMARK H PARENT 9 14 75 49 49 60
REMARK Flexibility Score: inf
ROOT
ATOM      1  C   UNL A   1      36.538  23.153  25.364  1.00  0.00     0.202 C 
ENDROOT
BRANCH   1   2
ATOM      2  C   UNL A   1      35.301  23.802  24.739  1.00  0.00     0.261 C 
BRANCH   2   3
ATOM      3  O   UNL A   1      34.858  24.924  25.521  1.00  0.00    -0.460 OA
BRANCH   3   4
ATOM      4  C   UNL A   1      34.150  25.849  24.838  1.00  0.00     0.343 C 
ATOM      5  O   UNL A   1      34.041  25.942  23.623  1.00  0.00    -0.246 OA
BRANCH   4   6
ATOM      6  C   UNL A   1      33.251  26.577  25.746  1.00  0.00     0.119 A 
ATOM      7  C   UNL A   1      31.977  26.033  26.029  1.00  0.00     0.066 A 
ATOM      8  C   UNL A   1      31.122  26.716  26.899  1.00  0.00     0.028 A 
ATOM      9  C   UNL A   1      31.492  27.973  27.393  1.00  0.00     0.005 A 
ATOM     10  C   UNL A   1      33.616  27.816  26.255  1.00  0.00     0.139 A 
ATOM     11  C   UNL A   1      32.732  28.526  27.062  1.00  0.00     0.040 A 
ATOM     12  F   UNL A   1      34.790  28.374  25.932  1.00  0.00    -0.206 F 
BRANCH   7  13
ATOM     13  N   UNL A   1      31.589  24.811  25.392  1.00  0.00    -0.279 N 
ATOM     14  H   UNL A   1      31.324  24.850  24.444  1.00  0.00     0.180 HD
BRANCH  13  15
ATOM     15  S   UNL A   1      31.554  23.317  26.156  1.00  0.00     0.261 S 
ATOM     16  O   UNL A   1      30.175  23.039  26.493  1.00  0.00    -0.201 OA
ATOM     17  O   UNL A   1      32.576  23.389  27.180  1.00  0.00    -0.201 OA
BRANCH  15  18
ATOM     18  C   UNL A   1      32.059  22.029  25.036  1.00  0.00     0.089 A 
ATOM     19  C   UNL A   1      32.378  18.536  22.535  1.00  0.00     0.046 C 
ATOM     20  C   UNL A   1      32.334  19.743  23.428  1.00  0.00    -0.032 A 
ATOM     21  C   UNL A   1      32.170  21.008  22.850  1.00  0.00     0.006 A 
ATOM     22  C   UNL A   1      32.490  19.657  24.819  1.00  0.00     0.045 A 
ATOM     23  C   UNL A   1      32.077  22.149  23.650  1.00  0.00     0.022 A 
ATOM     24  C   UNL A   1      32.325  20.788  25.621  1.00  0.00     0.043 A 
ATOM     25  Cl  UNL A   1      32.858  18.164  25.599  1.00  0.00    -0.084 Cl
ENDBRANCH  15  18
ENDBRANCH  13  15
ENDBRANCH   7  13
ENDBRANCH   4   6
ENDBRANCH   3   4
ENDBRANCH   2   3
ENDBRANCH   1   2
BRANCH   1  26
ATOM     26  O   UNL A   1      37.308  22.275  24.544  1.00  0.00    -0.374 OA
BRANCH  26  27
ATOM     27  C   UNL A   1      37.856  21.099  25.136  1.00  0.00     0.202 C 
BRANCH  27  28
ATOM     28  C   UNL A   1      39.295  21.144  25.667  1.00  0.00     0.261 C 
BRANCH  28  29
ATOM     29  O   UNL A   1      39.801  19.857  26.055  1.00  0.00    -0.460 OA
BRANCH  29  30
ATOM     30  C   UNL A   1      41.153  19.774  26.056  1.00  0.00     0.338 C 
ATOM     31  O   UNL A   1      41.842  18.892  25.565  1.00  0.00    -0.246 OA
BRANCH  30  32
ATOM     32  C   UNL A   1      41.740  21.015  26.590  1.00  0.00     0.060 A 
ATOM     33  C   UNL A   1      41.596  21.256  27.962  1.00  0.00     0.016 A 
ATOM     34  C   UNL A   1      42.341  21.962  25.759  1.00  0.00     0.016 A 
ATOM     35  C   UNL A   1      42.006  22.470  28.501  1.00  0.00     0.010 A 
ATOM     36  C   UNL A   1      42.747  23.186  26.304  1.00  0.00     0.010 A 
ATOM     37  C   UNL A   1      42.548  23.459  27.669  1.00  0.00    -0.014 A 
BRANCH  37  38
ATOM     38  C   UNL A   1      42.793  24.812  28.221  1.00  0.00     0.031 A 
ATOM     39  C   UNL A   1      44.192  25.213  28.602  1.00  0.00     0.074 A 
ATOM     40  C   UNL A   1      41.785  25.696  28.325  1.00  0.00     0.049 A 
ATOM     41  N   UNL A   1      44.623  26.346  29.094  1.00  0.00    -0.248 NA
ATOM     42  C   UNL A   1      45.246  24.205  28.402  1.00  0.00     0.031 C 
ATOM     43  C   UNL A   1      40.396  25.435  27.949  1.00  0.00     0.029 A 
ATOM     44  N   UNL A   1      41.776  26.993  28.772  1.00  0.00    -0.354 N 
ATOM     45  C   UNL A   1      45.993  26.188  29.264  1.00  0.00     0.074 A 
ATOM     46  C   UNL A   1      46.318  24.839  28.856  1.00  0.00     0.031 C 
ATOM     47  C   UNL A   1      39.668  26.542  28.178  1.00  0.00     0.029 A 
ATOM     48  C   UNL A   1      40.532  27.574  28.747  1.00  0.00     0.049 A 
ATOM     49  H   UNL A   1      42.584  27.463  29.081  1.00  0.00     0.167 HD
ATOM     50  C   UNL A   1      46.896  27.094  29.707  1.00  0.00     0.037 A 
ATOM     51  C   UNL A   1      40.132  28.796  29.152  1.00  0.00     0.037 A 
ATOM     52  C   UNL A   1      46.569  28.439  30.099  1.00  0.00     0.049 A 
ATOM     53  C   UNL A   1      41.147  29.760  29.702  1.00  0.00     0.074 A 
ATOM     54  C   UNL A   1      47.423  29.438  30.538  1.00  0.00     0.029 A 
ATOM     55  N   UNL A   1      45.291  28.975  30.106  1.00  0.00    -0.354 N 
ATOM     56  N   UNL A   1      42.442  29.607  29.840  1.00  0.00    -0.248 NA
ATOM     57  C   UNL A   1      40.648  31.068  30.150  1.00  0.00     0.031 C 
ATOM     58  C   UNL A   1      46.654  30.557  30.865  1.00  0.00     0.029 A 
ATOM     59  C   UNL A   1      45.329  30.280  30.570  1.00  0.00     0.049 A 
ATOM     60  H   UNL A   1      44.476  28.500  29.822  1.00  0.00     0.167 HD
ATOM     61  C   UNL A   1      42.914  30.802  30.368  1.00  0.00     0.074 A 
ATOM     62  C   UNL A   1      41.770  31.678  30.509  1.00  0.00     0.031 C 
ATOM     63  C   UNL A   1      44.183  31.142  30.708  1.00  0.00     0.037 A 
BRANCH  50  64
ATOM     64  C   UNL A   1      48.333  26.668  29.803  1.00  0.00     0.057 A 
ATOM     65  C   UNL A   1      49.215  26.896  28.739  1.00  0.00     0.134 A 
ATOM     66  C   UNL A   1      48.819  25.952  30.905  1.00  0.00     0.134 A 
ATOM     67  F   UNL A   1      48.813  27.571  27.653  1.00  0.00    -0.206 F 
ATOM     68  C   UNL A   1      50.523  26.407  28.758  1.00  0.00     0.040 A 
ATOM     69  C   UNL A   1      50.133  25.480  30.946  1.00  0.00     0.040 A 
ATOM     70  F   UNL A   1      48.029  25.710  31.961  1.00  0.00    -0.206 F 
ATOM     71  C   UNL A   1      50.985  25.697  29.864  1.00  0.00     0.006 A 
ENDBRANCH  50  64
BRANCH  51  72
ATOM     72  C   UNL A   1      38.698  29.171  29.051  1.00  0.00     0.057 A 
ATOM     73  C   UNL A   1      37.838  29.060  30.151  1.00  0.00     0.134 A 
ATOM     74  C   UNL A   1      38.152  29.638  27.851  1.00  0.00     0.134 A 
ATOM     75  F   UNL A   1      38.299  28.618  31.330  1.00  0.00    -0.206 F 
ATOM     76  C   UNL A   1      36.483  29.380  30.055  1.00  0.00     0.040 A 
ATOM     77  C   UNL A   1      36.805  29.988  27.749  1.00  0.00     0.040 A 
ATOM     78  F   UNL A   1      38.929  29.787  26.769  1.00  0.00    -0.206 F 
ATOM     79  C   UNL A   1      35.963  29.850  28.851  1.00  0.00     0.006 A 
ENDBRANCH  51  72
BRANCH  63  80
ATOM     80  C   UNL A   1      44.412  32.523  31.251  1.00  0.00     0.057 A 
ATOM     81  C   UNL A   1      44.646  33.602  30.387  1.00  0.00     0.134 A 
ATOM     82  C   UNL A   1      44.473  32.775  32.628  1.00  0.00     0.134 A 
ATOM     83  F   UNL A   1      44.617  33.428  29.057  1.00  0.00    -0.206 F 
ATOM     84  C   UNL A   1      44.943  34.876  30.873  1.00  0.00     0.040 A 
ATOM     85  C   UNL A   1      44.739  34.052  33.125  1.00  0.00     0.040 A 
ATOM     86  F   UNL A   1      44.250  31.789  33.510  1.00  0.00    -0.206 F 
ATOM     87  C   UNL A   1      44.986  35.105  32.245  1.00  0.00     0.006 A 
ENDBRANCH  63  80
ENDBRANCH  37  38
ENDBRANCH  30  32
ENDBRANCH  29  30
ENDBRANCH  28  29
ENDBRANCH  27  28
ENDBRANCH  26  27
ENDBRANCH   1  26
TORSDOF 17
ENDMDL
MODEL 2
REMARK VINA RESULT:     -10.9      4.120      8.606
REMARK SMILES Cc1ccc(S(=O)(=O)Nc2cccc(F)c2C(=O)OCCOCCOC(=O)c2ccc(-c3c4nc(c(-c5c(F)cccc5F)c5ccc([nH]5)c(-c5c(F)cccc5F)c5nc(c(-c6c(F)cccc6F)c6ccc3[nH]6)C=C5)C=C4)cc2)cc1Cl
REMARK SMILES IDX 21 1 20 2 19 3 17 4 18 5 16 6 10 7 11 8 12 9 14 10 13 11
REMARK SMILES IDX 15 12 9 13 6 15 7 16 8 17 5 18 1 19 2 20 3 21 83 22 4 23
REMARK SMILES IDX 82 24 84 25 22 26 23 27 24 28 25 29 26 30 27 31 28 32 29 33
REMARK SMILES IDX 81 34 30 35 80 36 31 37 32 38 33 39 74 40 34 41 79 42 73 43
REMARK SMILES IDX 75 44 35 45 78 46 72 47 71 48 36 50 62 51 45 52 61 53 46 54
REMARK SMILES IDX 49 55 60 56 76 57 47 58 48 59 59 61 77 62 50 63 37 64 38 65
REMARK SMILES IDX 43 66 39 67 40 68 42 69 44 70 41 71 63 72 64 73 69 74 65 75
REMARK SMILES IDX 66 76 68 77 70 78 67 79 51 80 52 81 57 82 53 83 54 84 56 85
REMARK SMILES IDX 58 86 55 87
REMARK H PARENT 9 14 75 49 49 60
REMARK Flexibility Score: inf
ROOT
ATOM      1  C   UNL A   1      32.805  30.046  27.358  1.00  0.00     0.202 C 
ENDROOT
BRANCH   1   2
ATOM      2  C   UNL A   1      32.178  28.651  27.416  1.00  0.00     0.261 C 
BRANCH   2   3
ATOM      3  O   UNL A   1      32.629  27.839  26.319  1.00  0.00    -0.460 OA
BRANCH   3   4
ATOM      4  C   UNL A   1      31.829  26.791  26.022  1.00  0.00     0.343 C 
ATOM      5  O   UNL A   1      30.782  26.486  26.575  1.00  0.00    -0.246 OA
BRANCH   4   6
ATOM      6  C   UNL A   1      32.210  26.209  24.726  1.00  0.00     0.119 A 
ATOM      7  C   UNL A   1      32.791  24.921  24.699  1.00  0.00     0.066 A 
ATOM      8  C   UNL A   1      33.147  24.358  23.470  1.00  0.00     0.028 A 
ATOM      9  C   UNL A   1      33.022  25.115  22.298  1.00  0.00     0.005 A 
ATOM     10  C   UNL A   1      32.074  26.944  23.556  1.00  0.00     0.139 A 
ATOM     11  C   UNL A   1      32.497  26.409  22.344  1.00  0.00     0.040 A 
ATOM     12  F   UNL A   1      31.595  28.194  23.581  1.00  0.00    -0.206 F 
BRANCH   7  13
ATOM     13  N   UNL A   1      33.025  24.240  25.938  1.00  0.00    -0.279 N 
ATOM     14  H   UNL A   1      33.684  24.628  26.559  1.00  0.00     0.180 HD
BRANCH  13  15
ATOM     15  S   UNL A   1      32.250  22.825  26.399  1.00  0.00     0.261 S 
ATOM     16  O   UNL A   1      30.866  22.941  25.993  1.00  0.00    -0.201 OA
ATOM     17  O   UNL A   1      32.609  22.630  27.789  1.00  0.00    -0.201 OA
BRANCH  15  18
ATOM     18  C   UNL A   1      32.911  21.431  25.511  1.00  0.00     0.089 A 
ATOM     19  C   UNL A   1      34.765  17.745  24.275  1.00  0.00     0.046 C 
ATOM     20  C   UNL A   1      34.151  19.062  24.651  1.00  0.00    -0.032 A 
ATOM     21  C   UNL A   1      32.759  19.201  24.596  1.00  0.00     0.006 A 
ATOM     22  C   UNL A   1      34.920  20.176  25.019  1.00  0.00     0.045 A 
ATOM     23  C   UNL A   1      32.146  20.396  24.983  1.00  0.00     0.022 A 
ATOM     24  C   UNL A   1      34.305  21.343  25.473  1.00  0.00     0.043 A 
ATOM     25  Cl  UNL A   1      36.644  20.146  24.957  1.00  0.00    -0.084 Cl
ENDBRANCH  15  18
ENDBRANCH  13  15
ENDBRANCH   7  13
ENDBRANCH   4   6
ENDBRANCH   3   4
ENDBRANCH   2   3
ENDBRANCH   1   2
BRANCH   1  26
ATOM     26  O   UNL A   1      32.308  30.953  26.375  1.00  0.00    -0.374 OA
BRANCH  26  27
ATOM     27  C   UNL A   1      31.529  32.065  26.808  1.00  0.00     0.202 C 
BRANCH  27  28
ATOM     28  C   UNL A   1      32.211  33.433  26.947  1.00  0.00     0.261 C 
BRANCH  28  29
ATOM     29  O   UNL A   1      32.245  33.919  28.297  1.00  0.00    -0.460 OA
BRANCH  29  30
ATOM     30  C   UNL A   1      33.332  34.675  28.584  1.00  0.00     0.338 C 
ATOM     31  O   UNL A   1      33.372  35.886  28.742  1.00  0.00    -0.246 OA
BRANCH  30  32
ATOM     32  C   UNL A   1      34.491  33.814  28.871  1.00  0.00     0.060 A 
ATOM     33  C   UNL A   1      34.271  32.683  29.666  1.00  0.00     0.016 A 
ATOM     34  C   UNL A   1      35.779  34.146  28.446  1.00  0.00     0.016 A 
ATOM     35  C   UNL A   1      35.346  31.907  30.086  1.00  0.00     0.010 A 
ATOM     36  C   UNL A   1      36.860  33.367  28.875  1.00  0.00     0.010 A 
ATOM     37  C   UNL A   1      36.652  32.267  29.725  1.00  0.00    -0.014 A 
BRANCH  37  38
ATOM     38  C   UNL A   1      37.794  31.551  30.341  1.00  0.00     0.031 A 
ATOM     39  C   UNL A   1      38.155  31.830  31.774  1.00  0.00     0.074 A 
ATOM     40  C   UNL A   1      38.467  30.618  29.644  1.00  0.00     0.049 A 
ATOM     41  N   UNL A   1      39.110  31.310  32.503  1.00  0.00    -0.248 NA
ATOM     42  C   UNL A   1      37.331  32.824  32.482  1.00  0.00     0.031 C 
ATOM     43  C   UNL A   1      38.182  30.234  28.262  1.00  0.00     0.029 A 
ATOM     44  N   UNL A   1      39.522  29.820  30.006  1.00  0.00    -0.354 N 
ATOM     45  C   UNL A   1      39.003  31.913  33.750  1.00  0.00     0.074 A 
ATOM     46  C   UNL A   1      37.915  32.863  33.672  1.00  0.00     0.031 C 
ATOM     47  C   UNL A   1      39.042  29.269  27.893  1.00  0.00     0.029 A 
ATOM     48  C   UNL A   1      39.956  28.993  28.999  1.00  0.00     0.049 A 
ATOM     49  H   UNL A   1      39.930  29.839  30.902  1.00  0.00     0.167 HD
ATOM     50  C   UNL A   1      39.740  31.682  34.863  1.00  0.00     0.037 A 
ATOM     51  C   UNL A   1      40.984  28.122  28.968  1.00  0.00     0.037 A 
ATOM     52  C   UNL A   1      40.813  30.726  34.939  1.00  0.00     0.049 A 
ATOM     53  C   UNL A   1      41.828  27.934  30.199  1.00  0.00     0.074 A 
ATOM     54  C   UNL A   1      41.601  30.405  36.032  1.00  0.00     0.029 A 
ATOM     55  N   UNL A   1      41.255  29.942  33.885  1.00  0.00    -0.354 N 
ATOM     56  N   UNL A   1      41.708  28.494  31.379  1.00  0.00    -0.248 NA
ATOM     57  C   UNL A   1      42.951  26.990  30.098  1.00  0.00     0.031 C 
ATOM     58  C   UNL A   1      42.555  29.471  35.623  1.00  0.00     0.029 A 
ATOM     59  C   UNL A   1      42.323  29.162  34.293  1.00  0.00     0.049 A 
ATOM     60  H   UNL A   1      40.866  29.941  32.980  1.00  0.00     0.167 HD
ATOM     61  C   UNL A   1      42.720  27.957  32.164  1.00  0.00     0.074 A 
ATOM     62  C   UNL A   1      43.435  27.011  31.332  1.00  0.00     0.031 C 
ATOM     63  C   UNL A   1      43.029  28.224  33.456  1.00  0.00     0.037 A 
BRANCH  50  64
ATOM     64  C   UNL A   1      39.424  32.478  36.096  1.00  0.00     0.057 A 
ATOM     65  C   UNL A   1      40.101  33.675  36.362  1.00  0.00     0.134 A 
ATOM     66  C   UNL A   1      38.521  32.018  37.062  1.00  0.00     0.134 A 
ATOM     67  F   UNL A   1      40.983  34.170  35.481  1.00  0.00    -0.206 F 
ATOM     68  C   UNL A   1      39.909  34.373  37.556  1.00  0.00     0.040 A 
ATOM     69  C   UNL A   1      38.300  32.721  38.249  1.00  0.00     0.040 A 
ATOM     70  F   UNL A   1      37.830  30.885  36.863  1.00  0.00    -0.206 F 
ATOM     71  C   UNL A   1      39.006  33.895  38.503  1.00  0.00     0.006 A 
ENDBRANCH  50  64
BRANCH  51  72
ATOM     72  C   UNL A   1      41.270  27.365  27.723  1.00  0.00     0.057 A 
ATOM     73  C   UNL A   1      40.814  26.052  27.549  1.00  0.00     0.134 A 
ATOM     74  C   UNL A   1      42.013  27.932  26.682  1.00  0.00     0.134 A 
ATOM     75  F   UNL A   1      40.097  25.450  28.509  1.00  0.00    -0.206 F 
ATOM     76  C   UNL A   1      41.106  25.323  26.395  1.00  0.00     0.040 A 
ATOM     77  C   UNL A   1      42.288  27.224  25.511  1.00  0.00     0.040 A 
ATOM     78  F   UNL A   1      42.458  29.193  26.779  1.00  0.00    -0.206 F 
ATOM     79  C   UNL A   1      41.841  25.912  25.369  1.00  0.00     0.006 A 
ENDBRANCH  51  72
BRANCH  63  80
ATOM     80  C   UNL A   1      44.181  27.478  34.066  1.00  0.00     0.057 A 
ATOM     81  C   UNL A   1      43.974  26.256  34.723  1.00  0.00     0.134 A 
ATOM     82  C   UNL A   1      45.481  27.998  34.067  1.00  0.00     0.134 A 
ATOM     83  F   UNL A   1      42.752  25.707  34.772  1.00  0.00    -0.206 F 
ATOM     84  C   UNL A   1      45.017  25.588  35.367  1.00  0.00     0.040 A 
ATOM     85  C   UNL A   1      46.537  27.324  34.682  1.00  0.00     0.040 A 
ATOM     86  F   UNL A   1      45.750  29.159  33.449  1.00  0.00    -0.206 F 
ATOM     87  C   UNL A   1      46.304  26.119  35.344  1.00  0.00     0.006 A 
ENDBRANCH  63  80
ENDBRANCH  37  38
ENDBRANCH  30  32
ENDBRANCH  29  30
ENDBRANCH  28  29
ENDBRANCH  27  28
ENDBRANCH  26  27
ENDBRANCH   1  26
TORSDOF 17
ENDMDL
MODEL 3
REMARK VINA RESULT:     -10.9      4.156      8.809
REMARK SMILES Cc1ccc(S(=O)(=O)Nc2cccc(F)c2C(=O)OCCOCCOC(=O)c2ccc(-c3c4nc(c(-c5c(F)cccc5F)c5ccc([nH]5)c(-c5c(F)cccc5F)c5nc(c(-c6c(F)cccc6F)c6ccc3[nH]6)C=C5)C=C4)cc2)cc1Cl
REMARK SMILES IDX 21 1 20 2 19 3 17 4 18 5 16 6 10 7 11 8 12 9 14 10 13 11
REMARK SMILES IDX 15 12 9 13 6 15 7 16 8 17 5 18 1 19 2 20 3 21 83 22 4 23
REMARK SMILES IDX 82 24 84 25 22 26 23 27 24 28 25 29 26 30 27 31 28 32 29 33
REMARK SMILES IDX 81 34 30 35 80 36 31 37 32 38 33 39 74 40 34 41 79 42 73 43
REMARK SMILES IDX 75 44 35 45 78 46 72 47 71 48 36 50 62 51 45 52 61 53 46 54
REMARK SMILES IDX 49 55 60 56 76 57 47 58 48 59 59 61 77 62 50 63 37 64 38 65
REMARK SMILES IDX 43 66 39 67 40 68 42 69 44 70 41 71 63 72 64 73 69 74 65 75
REMARK SMILES IDX 66 76 68 77 70 78 67 79 51 80 52 81 57 82 53 83 54 84 56 85
REMARK SMILES IDX 58 86 55 87
REMARK H PARENT 9 14 75 49 49 60
REMARK Flexibility Score: inf
ROOT
ATOM      1  C   UNL A   1      31.575  29.206  25.648  1.00  0.00     0.202 C 
ENDROOT
BRANCH   1   2
ATOM      2  C   UNL A   1      32.233  27.830  25.515  1.00  0.00     0.261 C 
BRANCH   2   3
ATOM      3  O   UNL A   1      31.914  27.229  24.249  1.00  0.00    -0.460 OA
BRANCH   3   4
ATOM      4  C   UNL A   1      30.689  26.661  24.183  1.00  0.00     0.343 C 
ATOM      5  O   UNL A   1      29.728  27.061  23.541  1.00  0.00    -0.246 OA
BRANCH   4   6
ATOM      6  C   UNL A   1      30.724  25.304  24.747  1.00  0.00     0.119 A 
ATOM      7  C   UNL A   1      31.242  24.249  23.960  1.00  0.00     0.066 A 
ATOM      8  C   UNL A   1      31.287  22.958  24.494  1.00  0.00     0.028 A 
ATOM      9  C   UNL A   1      30.725  22.707  25.753  1.00  0.00     0.005 A 
ATOM     10  C   UNL A   1      30.187  25.047  26.001  1.00  0.00     0.139 A 
ATOM     11  C   UNL A   1      30.167  23.748  26.499  1.00  0.00     0.040 A 
ATOM     12  F   UNL A   1      29.626  26.026  26.722  1.00  0.00    -0.206 F 
BRANCH   7  13
ATOM     13  N   UNL A   1      31.680  24.531  22.626  1.00  0.00    -0.279 N 
ATOM     14  H   UNL A   1      30.997  24.786  21.962  1.00  0.00     0.180 HD
BRANCH  13  15
ATOM     15  S   UNL A   1      33.278  24.454  22.120  1.00  0.00     0.261 S 
ATOM     16  O   UNL A   1      33.643  25.772  21.647  1.00  0.00    -0.201 OA
ATOM     17  O   UNL A   1      33.346  23.300  21.248  1.00  0.00    -0.201 OA
BRANCH  15  18
ATOM     18  C   UNL A   1      34.354  24.107  23.494  1.00  0.00     0.089 A 
ATOM     19  C   UNL A   1      37.669  23.583  26.195  1.00  0.00     0.046 C 
ATOM     20  C   UNL A   1      36.488  23.703  25.276  1.00  0.00    -0.032 A 
ATOM     21  C   UNL A   1      35.573  24.744  25.479  1.00  0.00     0.006 A 
ATOM     22  C   UNL A   1      36.241  22.789  24.241  1.00  0.00     0.045 A 
ATOM     23  C   UNL A   1      34.487  24.917  24.618  1.00  0.00     0.022 A 
ATOM     24  C   UNL A   1      35.198  23.004  23.339  1.00  0.00     0.043 A 
ATOM     25  Cl  UNL A   1      37.221  21.386  24.019  1.00  0.00    -0.084 Cl
ENDBRANCH  15  18
ENDBRANCH  13  15
ENDBRANCH   7  13
ENDBRANCH   4   6
ENDBRANCH   3   4
ENDBRANCH   2   3
ENDBRANCH   1   2
BRANCH   1  26
ATOM     26  O   UNL A   1      31.770  29.914  26.871  1.00  0.00    -0.374 OA
BRANCH  26  27
ATOM     27  C   UNL A   1      32.672  31.018  26.881  1.00  0.00     0.202 C 
BRANCH  27  28
ATOM     28  C   UNL A   1      32.129  32.411  27.230  1.00  0.00     0.261 C 
BRANCH  28  29
ATOM     29  O   UNL A   1      33.110  33.452  27.111  1.00  0.00    -0.460 OA
BRANCH  29  30
ATOM     30  C   UNL A   1      33.260  34.199  28.231  1.00  0.00     0.338 C 
ATOM     31  O   UNL A   1      32.528  35.093  28.630  1.00  0.00    -0.246 OA
BRANCH  30  32
ATOM     32  C   UNL A   1      34.364  33.672  29.052  1.00  0.00     0.060 A 
ATOM     33  C   UNL A   1      35.662  34.083  28.725  1.00  0.00     0.016 A 
ATOM     34  C   UNL A   1      34.147  32.732  30.061  1.00  0.00     0.016 A 
ATOM     35  C   UNL A   1      36.754  33.516  29.371  1.00  0.00     0.010 A 
ATOM     36  C   UNL A   1      35.249  32.158  30.705  1.00  0.00     0.010 A 
ATOM     37  C   UNL A   1      36.557  32.521  30.339  1.00  0.00    -0.014 A 
BRANCH  37  38
ATOM     38  C   UNL A   1      37.731  31.789  30.871  1.00  0.00     0.031 A 
ATOM     39  C   UNL A   1      38.191  32.055  32.277  1.00  0.00     0.074 A 
ATOM     40  C   UNL A   1      38.343  30.853  30.124  1.00  0.00     0.049 A 
ATOM     41  N   UNL A   1      39.187  31.520  32.937  1.00  0.00    -0.248 NA
ATOM     42  C   UNL A   1      37.429  33.053  33.045  1.00  0.00     0.031 C 
ATOM     43  C   UNL A   1      37.961  30.481  28.763  1.00  0.00     0.029 A 
ATOM     44  N   UNL A   1      39.412  30.041  30.409  1.00  0.00    -0.354 N 
ATOM     45  C   UNL A   1      39.173  32.116  34.192  1.00  0.00     0.074 A 
ATOM     46  C   UNL A   1      38.093  33.078  34.193  1.00  0.00     0.031 C 
ATOM     47  C   UNL A   1      38.782  29.509  28.331  1.00  0.00     0.029 A 
ATOM     48  C   UNL A   1      39.767  29.215  29.371  1.00  0.00     0.049 A 
ATOM     49  H   UNL A   1      39.879  30.049  31.276  1.00  0.00     0.167 HD
ATOM     50  C   UNL A   1      39.981  31.870  35.250  1.00  0.00     0.037 A 
ATOM     51  C   UNL A   1      40.780  28.334  29.265  1.00  0.00     0.037 A 
ATOM     52  C   UNL A   1      41.046  30.902  35.248  1.00  0.00     0.049 A 
ATOM     53  C   UNL A   1      41.704  28.128  30.434  1.00  0.00     0.074 A 
ATOM     54  C   UNL A   1      41.902  30.565  36.283  1.00  0.00     0.029 A 
ATOM     55  N   UNL A   1      41.405  30.120  34.162  1.00  0.00    -0.354 N 
ATOM     56  N   UNL A   1      41.670  28.682  31.622  1.00  0.00    -0.248 NA
ATOM     57  C   UNL A   1      42.806  27.173  30.252  1.00  0.00     0.031 C 
ATOM     58  C   UNL A   1      42.816  29.623  35.805  1.00  0.00     0.029 A 
ATOM     59  C   UNL A   1      42.490  29.324  34.492  1.00  0.00     0.049 A 
ATOM     60  H   UNL A   1      40.956  30.128  33.285  1.00  0.00     0.167 HD
ATOM     61  C   UNL A   1      42.727  28.129  32.333  1.00  0.00     0.074 A 
ATOM     62  C   UNL A   1      43.374  27.181  31.450  1.00  0.00     0.031 C 
ATOM     63  C   UNL A   1      43.127  28.385  33.604  1.00  0.00     0.037 A 
BRANCH  50  64
ATOM     64  C   UNL A   1      39.759  32.661  36.506  1.00  0.00     0.057 A 
ATOM     65  C   UNL A   1      38.718  32.328  37.383  1.00  0.00     0.134 A 
ATOM     66  C   UNL A   1      40.511  33.806  36.802  1.00  0.00     0.134 A 
ATOM     67  F   UNL A   1      37.956  31.247  37.156  1.00  0.00    -0.206 F 
ATOM     68  C   UNL A   1      38.419  33.116  38.495  1.00  0.00     0.040 A 
ATOM     69  C   UNL A   1      40.237  34.588  37.926  1.00  0.00     0.040 A 
ATOM     70  F   UNL A   1      41.529  34.173  36.011  1.00  0.00    -0.206 F 
ATOM     71  C   UNL A   1      39.180  34.250  38.769  1.00  0.00     0.006 A 
ENDBRANCH  50  64
BRANCH  51  72
ATOM     72  C   UNL A   1      40.971  27.582  27.999  1.00  0.00     0.057 A 
ATOM     73  C   UNL A   1      40.422  26.306  27.820  1.00  0.00     0.134 A 
ATOM     74  C   UNL A   1      41.717  28.115  26.942  1.00  0.00     0.134 A 
ATOM     75  F   UNL A   1      39.698  25.737  28.795  1.00  0.00    -0.206 F 
ATOM     76  C   UNL A   1      40.624  25.579  26.646  1.00  0.00     0.040 A 
ATOM     77  C   UNL A   1      41.903  27.412  25.751  1.00  0.00     0.040 A 
ATOM     78  F   UNL A   1      42.249  29.342  27.043  1.00  0.00    -0.206 F 
ATOM     79  C   UNL A   1      41.363  26.135  25.604  1.00  0.00     0.006 A 
ENDBRANCH  51  72
BRANCH  63  80
ATOM     80  C   UNL A   1      44.309  27.622  34.129  1.00  0.00     0.057 A 
ATOM     81  C   UNL A   1      44.140  26.367  34.732  1.00  0.00     0.134 A 
ATOM     82  C   UNL A   1      45.603  28.156  34.105  1.00  0.00     0.134 A 
ATOM     83  F   UNL A   1      42.925  25.803  34.802  1.00  0.00    -0.206 F 
ATOM     84  C   UNL A   1      45.213  25.679  35.300  1.00  0.00     0.040 A 
ATOM     85  C   UNL A   1      46.689  27.463  34.644  1.00  0.00     0.040 A 
ATOM     86  F   UNL A   1      45.836  29.348  33.536  1.00  0.00    -0.206 F 
ATOM     87  C   UNL A   1      46.493  26.225  35.253  1.00  0.00     0.006 A 
ENDBRANCH  63  80
ENDBRANCH  37  38
ENDBRANCH  30  32
ENDBRANCH  29  30
ENDBRANCH  28  29
ENDBRANCH  27  28
ENDBRANCH  26  27
ENDBRANCH   1  26
TORSDOF 17
ENDMDL
