MODEL 1
REMARK VINA RESULT:      -9.2      0.000      0.000
REMARK SMILES CCC[N@H+]1CCC[C@H](CC(=O)OCCOCCOC(=O)c2ccc(-c3c4nc(c(-c5c(F)cccc5F)c5ccc([nH]5)c(-c5c(F)cccc5F)c5nc(c(-c6c(F)cccc6F)c6ccc3[nH]6)C=C5)C=C4)cc2)C1
REMARK SMILES IDX 14 1 13 2 12 3 10 4 11 5 9 6 8 7 4 8 5 9 75 10 6 12 7 13
REMARK SMILES IDX 3 14 2 15 1 16 15 17 16 18 17 19 18 20 19 21 20 22 21 23
REMARK SMILES IDX 22 24 74 25 23 26 73 27 24 28 25 29 26 30 67 31 27 32 72 33
REMARK SMILES IDX 66 34 68 35 28 36 71 37 65 38 64 39 29 41 55 42 38 43 54 44
REMARK SMILES IDX 39 45 42 46 53 47 69 48 40 49 41 50 52 52 70 53 43 54 30 55
REMARK SMILES IDX 31 56 36 57 32 58 33 59 35 60 37 61 34 62 56 63 57 64 62 65
REMARK SMILES IDX 58 66 59 67 61 68 63 69 60 70 44 71 45 72 50 73 46 74 47 75
REMARK SMILES IDX 49 76 51 77 48 78
REMARK H PARENT 4 11 68 40 42 51
REMARK Flexibility Score: inf
ROOT
ATOM      1  C   UNL A   1      42.665  18.712  25.826  1.00  0.00     0.202 C 
ENDROOT
BRANCH   1   2
ATOM      2  C   UNL A   1      43.692  19.756  25.386  1.00  0.00     0.261 C 
BRANCH   2   3
ATOM      3  O   UNL A   1      44.882  19.103  24.906  1.00  0.00    -0.463 OA
BRANCH   3   4
ATOM      4  C   UNL A   1      46.045  19.779  25.066  1.00  0.00     0.306 C 
ATOM      5  O   UNL A   1      47.160  19.276  25.004  1.00  0.00    -0.252 OA
BRANCH   4   6
ATOM      6  C   UNL A   1      45.838  21.243  25.372  1.00  0.00     0.132 C 
BRANCH   6   7
ATOM      7  C   UNL A   1      45.900  22.255  24.201  1.00  0.00     0.055 C 
ATOM      8  N   UNL A   1      45.821  24.159  25.771  1.00  0.00    -0.335 N 
ATOM      9  C   UNL A   1      44.498  24.579  25.264  1.00  0.00     0.262 C 
ATOM     10  C   UNL A   1      46.595  23.544  24.683  1.00  0.00     0.266 C 
ATOM     11  H   UNL A   1      45.714  23.453  26.499  1.00  0.00     0.348 HD
ATOM     12  C   UNL A   1      43.706  23.425  24.639  1.00  0.00     0.062 C 
ATOM     13  C   UNL A   1      44.533  22.647  23.622  1.00  0.00     0.016 C 
BRANCH   8  14
ATOM     14  C   UNL A   1      46.509  25.305  26.391  1.00  0.00     0.261 C 
BRANCH  14  15
ATOM     15  C   UNL A   1      47.259  25.002  27.700  1.00  0.00     0.058 C 
ATOM     16  C   UNL A   1      46.452  25.160  28.980  1.00  0.00     0.010 C 
ENDBRANCH  14  15
ENDBRANCH   8  14
ENDBRANCH   6   7
ENDBRANCH   4   6
ENDBRANCH   3   4
ENDBRANCH   2   3
ENDBRANCH   1   2
BRANCH   1  17
ATOM     17  O   UNL A   1      41.338  19.203  26.029  1.00  0.00    -0.374 OA
BRANCH  17  18
ATOM     18  C   UNL A   1      41.037  19.752  27.311  1.00  0.00     0.202 C 
BRANCH  18  19
ATOM     19  C   UNL A   1      41.214  21.270  27.441  1.00  0.00     0.261 C 
BRANCH  19  20
ATOM     20  O   UNL A   1      40.821  21.968  26.244  1.00  0.00    -0.460 OA
BRANCH  20  21
ATOM     21  C   UNL A   1      39.579  22.502  26.285  1.00  0.00     0.338 C 
ATOM     22  O   UNL A   1      38.515  21.924  26.109  1.00  0.00    -0.246 OA
BRANCH  21  23
ATOM     23  C   UNL A   1      39.636  23.902  26.746  1.00  0.00     0.060 A 
ATOM     24  C   UNL A   1      40.266  24.829  25.905  1.00  0.00     0.016 A 
ATOM     25  C   UNL A   1      39.167  24.290  28.004  1.00  0.00     0.016 A 
ATOM     26  C   UNL A   1      40.476  26.135  26.339  1.00  0.00     0.010 A 
ATOM     27  C   UNL A   1      39.388  25.603  28.441  1.00  0.00     0.010 A 
ATOM     28  C   UNL A   1      40.076  26.520  27.624  1.00  0.00    -0.014 A 
BRANCH  28  29
ATOM     29  C   UNL A   1      40.514  27.834  28.154  1.00  0.00     0.031 A 
ATOM     30  C   UNL A   1      41.982  28.162  28.180  1.00  0.00     0.074 A 
ATOM     31  C   UNL A   1      39.615  28.749  28.557  1.00  0.00     0.049 A 
ATOM     32  N   UNL A   1      42.584  29.251  28.587  1.00  0.00    -0.248 NA
ATOM     33  C   UNL A   1      42.894  27.123  27.675  1.00  0.00     0.031 C 
ATOM     34  C   UNL A   1      38.164  28.572  28.545  1.00  0.00     0.029 A 
ATOM     35  N   UNL A   1      39.797  30.016  29.055  1.00  0.00    -0.354 N 
ATOM     36  C   UNL A   1      43.940  29.031  28.387  1.00  0.00     0.074 A 
ATOM     37  C   UNL A   1      44.078  27.693  27.851  1.00  0.00     0.031 C 
ATOM     38  C   UNL A   1      37.586  29.689  29.019  1.00  0.00     0.029 A 
ATOM     39  C   UNL A   1      38.625  30.649  29.390  1.00  0.00     0.049 A 
ATOM     40  H   UNL A   1      40.683  30.431  29.161  1.00  0.00     0.167 HD
ATOM     41  C   UNL A   1      44.978  29.869  28.616  1.00  0.00     0.037 A 
ATOM     42  C   UNL A   1      38.417  31.857  29.946  1.00  0.00     0.037 A 
ATOM     43  C   UNL A   1      44.847  31.201  29.145  1.00  0.00     0.049 A 
ATOM     44  C   UNL A   1      39.593  32.744  30.261  1.00  0.00     0.074 A 
ATOM     45  C   UNL A   1      45.839  32.133  29.392  1.00  0.00     0.029 A 
ATOM     46  N   UNL A   1      43.646  31.788  29.515  1.00  0.00    -0.354 N 
ATOM     47  N   UNL A   1      40.868  32.535  30.043  1.00  0.00    -0.248 NA
ATOM     48  C   UNL A   1      39.298  34.035  30.900  1.00  0.00     0.031 C 
ATOM     49  C   UNL A   1      45.244  33.269  29.953  1.00  0.00     0.029 A 
ATOM     50  C   UNL A   1      43.876  33.059  30.015  1.00  0.00     0.049 A 
ATOM     51  H   UNL A   1      42.761  31.363  29.435  1.00  0.00     0.167 HD
ATOM     52  C   UNL A   1      41.524  33.673  30.494  1.00  0.00     0.074 A 
ATOM     53  C   UNL A   1      40.505  34.576  30.987  1.00  0.00     0.031 C 
ATOM     54  C   UNL A   1      42.852  33.948  30.500  1.00  0.00     0.037 A 
BRANCH  41  55
ATOM     55  C   UNL A   1      46.355  29.361  28.313  1.00  0.00     0.057 A 
ATOM     56  C   UNL A   1      47.153  28.761  29.295  1.00  0.00     0.134 A 
ATOM     57  C   UNL A   1      46.875  29.441  27.015  1.00  0.00     0.134 A 
ATOM     58  F   UNL A   1      46.718  28.667  30.561  1.00  0.00    -0.206 F 
ATOM     59  C   UNL A   1      48.429  28.277  29.002  1.00  0.00     0.040 A 
ATOM     60  C   UNL A   1      48.140  28.940  26.705  1.00  0.00     0.040 A 
ATOM     61  F   UNL A   1      46.159  30.000  26.028  1.00  0.00    -0.206 F 
ATOM     62  C   UNL A   1      48.923  28.360  27.701  1.00  0.00     0.006 A 
ENDBRANCH  41  55
BRANCH  42  63
ATOM     63  C   UNL A   1      37.036  32.304  30.259  1.00  0.00     0.057 A 
ATOM     64  C   UNL A   1      36.306  33.089  29.361  1.00  0.00     0.134 A 
ATOM     65  C   UNL A   1      36.428  31.976  31.476  1.00  0.00     0.134 A 
ATOM     66  F   UNL A   1      36.847  33.457  28.191  1.00  0.00    -0.206 F 
ATOM     67  C   UNL A   1      35.022  33.546  29.668  1.00  0.00     0.040 A 
ATOM     68  C   UNL A   1      35.137  32.406  31.787  1.00  0.00     0.040 A 
ATOM     69  F   UNL A   1      37.077  31.226  32.379  1.00  0.00    -0.206 F 
ATOM     70  C   UNL A   1      34.434  33.201  30.883  1.00  0.00     0.006 A 
ENDBRANCH  42  63
BRANCH  54  71
ATOM     71  C   UNL A   1      43.278  35.284  31.033  1.00  0.00     0.057 A 
ATOM     72  C   UNL A   1      43.425  36.398  30.197  1.00  0.00     0.134 A 
ATOM     73  C   UNL A   1      43.504  35.467  32.403  1.00  0.00     0.134 A 
ATOM     74  F   UNL A   1      43.235  36.285  28.874  1.00  0.00    -0.206 F 
ATOM     75  C   UNL A   1      43.801  37.644  30.703  1.00  0.00     0.040 A 
ATOM     76  C   UNL A   1      43.857  36.713  32.924  1.00  0.00     0.040 A 
ATOM     77  F   UNL A   1      43.372  34.442  33.258  1.00  0.00    -0.206 F 
ATOM     78  C   UNL A   1      44.011  37.804  32.072  1.00  0.00     0.006 A 
ENDBRANCH  54  71
ENDBRANCH  28  29
ENDBRANCH  21  23
ENDBRANCH  20  21
ENDBRANCH  19  20
ENDBRANCH  18  19
ENDBRANCH  17  18
ENDBRANCH   1  17
TORSDOF 17
ENDMDL
MODEL 2
REMARK VINA RESULT:      -9.0      3.682      7.155
REMARK SMILES CCC[N@H+]1CCC[C@H](CC(=O)OCCOCCOC(=O)c2ccc(-c3c4nc(c(-c5c(F)cccc5F)c5ccc([nH]5)c(-c5c(F)cccc5F)c5nc(c(-c6c(F)cccc6F)c6ccc3[nH]6)C=C5)C=C4)cc2)C1
REMARK SMILES IDX 14 1 13 2 12 3 10 4 11 5 9 6 8 7 4 8 5 9 75 10 6 12 7 13
REMARK SMILES IDX 3 14 2 15 1 16 15 17 16 18 17 19 18 20 19 21 20 22 21 23
REMARK SMILES IDX 22 24 74 25 23 26 73 27 24 28 25 29 26 30 67 31 27 32 72 33
REMARK SMILES IDX 66 34 68 35 28 36 71 37 65 38 64 39 29 41 55 42 38 43 54 44
REMARK SMILES IDX 39 45 42 46 53 47 69 48 40 49 41 50 52 52 70 53 43 54 30 55
REMARK SMILES IDX 31 56 36 57 32 58 33 59 35 60 37 61 34 62 56 63 57 64 62 65
REMARK SMILES IDX 58 66 59 67 61 68 63 69 60 70 44 71 45 72 50 73 46 74 47 75
REMARK SMILES IDX 49 76 51 77 48 78
REMARK H PARENT 4 11 68 40 42 51
REMARK Flexibility Score: inf
ROOT
ATOM      1  C   UNL A   1      34.462  22.420  26.476  1.00  0.00     0.202 C 
ENDROOT
BRANCH   1   2
ATOM      2  C   UNL A   1      34.764  23.737  25.761  1.00  0.00     0.261 C 
BRANCH   2   3
ATOM      3  O   UNL A   1      33.550  24.488  25.579  1.00  0.00    -0.463 OA
BRANCH   3   4
ATOM      4  C   UNL A   1      33.687  25.744  25.091  1.00  0.00     0.306 C 
ATOM      5  O   UNL A   1      34.026  26.017  23.947  1.00  0.00    -0.252 OA
BRANCH   4   6
ATOM      6  C   UNL A   1      33.410  26.810  26.124  1.00  0.00     0.132 C 
BRANCH   6   7
ATOM      7  C   UNL A   1      31.937  27.102  26.505  1.00  0.00     0.055 C 
ATOM      8  N   UNL A   1      31.695  28.655  24.600  1.00  0.00    -0.335 N 
ATOM      9  C   UNL A   1      31.522  29.809  25.507  1.00  0.00     0.262 C 
ATOM     10  C   UNL A   1      31.143  27.446  25.228  1.00  0.00     0.266 C 
ATOM     11  H   UNL A   1      32.687  28.480  24.434  1.00  0.00     0.348 HD
ATOM     12  C   UNL A   1      32.163  29.588  26.882  1.00  0.00     0.062 C 
ATOM     13  C   UNL A   1      31.750  28.256  27.498  1.00  0.00     0.016 C 
BRANCH   8  14
ATOM     14  C   UNL A   1      31.092  28.950  23.290  1.00  0.00     0.261 C 
BRANCH  14  15
ATOM     15  C   UNL A   1      29.750  29.703  23.329  1.00  0.00     0.058 C 
ATOM     16  C   UNL A   1      29.255  30.247  21.998  1.00  0.00     0.010 C 
ENDBRANCH  14  15
ENDBRANCH   8  14
ENDBRANCH   6   7
ENDBRANCH   4   6
ENDBRANCH   3   4
ENDBRANCH   2   3
ENDBRANCH   1   2
BRANCH   1  17
ATOM     17  O   UNL A   1      35.514  21.452  26.455  1.00  0.00    -0.374 OA
BRANCH  17  18
ATOM     18  C   UNL A   1      35.752  20.778  25.221  1.00  0.00     0.202 C 
BRANCH  18  19
ATOM     19  C   UNL A   1      37.187  20.282  25.001  1.00  0.00     0.261 C 
BRANCH  19  20
ATOM     20  O   UNL A   1      38.154  21.343  25.118  1.00  0.00    -0.460 OA
BRANCH  20  21
ATOM     21  C   UNL A   1      39.173  21.084  25.969  1.00  0.00     0.338 C 
ATOM     22  O   UNL A   1      39.763  20.023  26.122  1.00  0.00    -0.246 OA
BRANCH  21  23
ATOM     23  C   UNL A   1      39.629  22.327  26.619  1.00  0.00     0.060 A 
ATOM     24  C   UNL A   1      39.009  23.520  26.226  1.00  0.00     0.016 A 
ATOM     25  C   UNL A   1      40.694  22.345  27.524  1.00  0.00     0.016 A 
ATOM     26  C   UNL A   1      39.484  24.742  26.697  1.00  0.00     0.010 A 
ATOM     27  C   UNL A   1      41.175  23.576  27.988  1.00  0.00     0.010 A 
ATOM     28  C   UNL A   1      40.595  24.781  27.548  1.00  0.00    -0.014 A 
BRANCH  28  29
ATOM     29  C   UNL A   1      41.230  26.087  27.849  1.00  0.00     0.031 A 
ATOM     30  C   UNL A   1      42.629  26.351  27.365  1.00  0.00     0.074 A 
ATOM     31  C   UNL A   1      40.550  27.050  28.497  1.00  0.00     0.049 A 
ATOM     32  N   UNL A   1      43.368  27.423  27.503  1.00  0.00    -0.248 NA
ATOM     33  C   UNL A   1      43.282  25.261  26.621  1.00  0.00     0.031 C 
ATOM     34  C   UNL A   1      39.176  26.936  28.982  1.00  0.00     0.029 A 
ATOM     35  N   UNL A   1      40.931  28.319  28.855  1.00  0.00    -0.354 N 
ATOM     36  C   UNL A   1      44.569  27.139  26.866  1.00  0.00     0.074 A 
ATOM     37  C   UNL A   1      44.473  25.784  26.366  1.00  0.00     0.031 C 
ATOM     38  C   UNL A   1      38.830  28.088  29.581  1.00  0.00     0.029 A 
ATOM     39  C   UNL A   1      39.963  29.011  29.543  1.00  0.00     0.049 A 
ATOM     40  H   UNL A   1      41.814  28.699  28.640  1.00  0.00     0.167 HD
ATOM     41  C   UNL A   1      45.649  27.937  26.699  1.00  0.00     0.037 A 
ATOM     42  C   UNL A   1      39.996  30.240  30.089  1.00  0.00     0.037 A 
ATOM     43  C   UNL A   1      45.749  29.286  27.190  1.00  0.00     0.049 A 
ATOM     44  C   UNL A   1      41.237  31.083  29.955  1.00  0.00     0.074 A 
ATOM     45  C   UNL A   1      46.796  30.180  27.052  1.00  0.00     0.029 A 
ATOM     46  N   UNL A   1      44.764  29.934  27.921  1.00  0.00    -0.354 N 
ATOM     47  N   UNL A   1      42.356  30.813  29.328  1.00  0.00    -0.248 NA
ATOM     48  C   UNL A   1      41.218  32.401  30.606  1.00  0.00     0.031 C 
ATOM     49  C   UNL A   1      46.463  31.354  27.737  1.00  0.00     0.029 A 
ATOM     50  C   UNL A   1      45.191  31.205  28.265  1.00  0.00     0.049 A 
ATOM     51  H   UNL A   1      43.891  29.545  28.161  1.00  0.00     0.167 HD
ATOM     52  C   UNL A   1      43.162  31.933  29.487  1.00  0.00     0.074 A 
ATOM     53  C   UNL A   1      42.400  32.891  30.260  1.00  0.00     0.031 C 
ATOM     54  C   UNL A   1      44.421  32.150  29.034  1.00  0.00     0.037 A 
BRANCH  41  55
ATOM     55  C   UNL A   1      46.825  27.362  25.968  1.00  0.00     0.057 A 
ATOM     56  C   UNL A   1      47.818  26.628  26.629  1.00  0.00     0.134 A 
ATOM     57  C   UNL A   1      46.947  27.515  24.581  1.00  0.00     0.134 A 
ATOM     58  F   UNL A   1      47.767  26.458  27.959  1.00  0.00    -0.206 F 
ATOM     59  C   UNL A   1      48.902  26.084  25.939  1.00  0.00     0.040 A 
ATOM     60  C   UNL A   1      48.014  26.955  23.878  1.00  0.00     0.040 A 
ATOM     61  F   UNL A   1      46.027  28.203  23.889  1.00  0.00    -0.206 F 
ATOM     62  C   UNL A   1      48.998  26.241  24.557  1.00  0.00     0.006 A 
ENDBRANCH  41  55
BRANCH  42  63
ATOM     63  C   UNL A   1      38.818  30.754  30.833  1.00  0.00     0.057 A 
ATOM     64  C   UNL A   1      38.639  30.473  32.192  1.00  0.00     0.134 A 
ATOM     65  C   UNL A   1      37.833  31.515  30.194  1.00  0.00     0.134 A 
ATOM     66  F   UNL A   1      39.536  29.726  32.851  1.00  0.00    -0.206 F 
ATOM     67  C   UNL A   1      37.513  30.919  32.887  1.00  0.00     0.040 A 
ATOM     68  C   UNL A   1      36.714  31.987  30.881  1.00  0.00     0.040 A 
ATOM     69  F   UNL A   1      37.948  31.817  28.892  1.00  0.00    -0.206 F 
ATOM     70  C   UNL A   1      36.548  31.681  32.231  1.00  0.00     0.006 A 
ENDBRANCH  42  63
BRANCH  54  71
ATOM     71  C   UNL A   1      45.046  33.479  29.341  1.00  0.00     0.057 A 
ATOM     72  C   UNL A   1      45.844  33.674  30.475  1.00  0.00     0.134 A 
ATOM     73  C   UNL A   1      44.879  34.565  28.471  1.00  0.00     0.134 A 
ATOM     74  F   UNL A   1      46.032  32.677  31.353  1.00  0.00    -0.206 F 
ATOM     75  C   UNL A   1      46.440  34.907  30.743  1.00  0.00     0.040 A 
ATOM     76  C   UNL A   1      45.489  35.795  28.716  1.00  0.00     0.040 A 
ATOM     77  F   UNL A   1      44.133  34.441  27.363  1.00  0.00    -0.206 F 
ATOM     78  C   UNL A   1      46.268  35.970  29.858  1.00  0.00     0.006 A 
ENDBRANCH  54  71
ENDBRANCH  28  29
ENDBRANCH  21  23
ENDBRANCH  20  21
ENDBRANCH  19  20
ENDBRANCH  18  19
ENDBRANCH  17  18
ENDBRANCH   1  17
TORSDOF 17
ENDMDL
MODEL 3
REMARK VINA RESULT:      -8.9      6.017     11.359
REMARK SMILES CCC[N@H+]1CCC[C@H](CC(=O)OCCOCCOC(=O)c2ccc(-c3c4nc(c(-c5c(F)cccc5F)c5ccc([nH]5)c(-c5c(F)cccc5F)c5nc(c(-c6c(F)cccc6F)c6ccc3[nH]6)C=C5)C=C4)cc2)C1
REMARK SMILES IDX 14 1 13 2 12 3 10 4 11 5 9 6 8 7 4 8 5 9 75 10 6 12 7 13
REMARK SMILES IDX 3 14 2 15 1 16 15 17 16 18 17 19 18 20 19 21 20 22 21 23
REMARK SMILES IDX 22 24 74 25 23 26 73 27 24 28 25 29 26 30 67 31 27 32 72 33
REMARK SMILES IDX 66 34 68 35 28 36 71 37 65 38 64 39 29 41 55 42 38 43 54 44
REMARK SMILES IDX 39 45 42 46 53 47 69 48 40 49 41 50 52 52 70 53 43 54 30 55
REMARK SMILES IDX 31 56 36 57 32 58 33 59 35 60 37 61 34 62 56 63 57 64 62 65
REMARK SMILES IDX 58 66 59 67 61 68 63 69 60 70 44 71 45 72 50 73 46 74 47 75
REMARK SMILES IDX 49 76 51 77 48 78
REMARK H PARENT 4 11 68 40 42 51
REMARK Flexibility Score: inf
ROOT
ATOM      1  C   UNL A   1      34.319  30.079  26.959  1.00  0.00     0.202 C 
ENDROOT
BRANCH   1   2
ATOM      2  C   UNL A   1      33.740  28.942  26.117  1.00  0.00     0.261 C 
BRANCH   2   3
ATOM      3  O   UNL A   1      33.038  28.011  26.962  1.00  0.00    -0.463 OA
BRANCH   3   4
ATOM      4  C   UNL A   1      31.917  27.455  26.445  1.00  0.00     0.306 C 
ATOM      5  O   UNL A   1      31.393  26.427  26.855  1.00  0.00    -0.252 OA
BRANCH   4   6
ATOM      6  C   UNL A   1      31.374  28.219  25.261  1.00  0.00     0.132 C 
BRANCH   6   7
ATOM      7  C   UNL A   1      31.306  27.500  23.890  1.00  0.00     0.055 C 
ATOM      8  N   UNL A   1      29.691  29.162  23.037  1.00  0.00    -0.335 N 
ATOM      9  C   UNL A   1      28.626  28.142  22.942  1.00  0.00     0.262 C 
ATOM     10  C   UNL A   1      30.998  28.536  22.790  1.00  0.00     0.266 C 
ATOM     11  H   UNL A   1      29.721  29.556  23.978  1.00  0.00     0.348 HD
ATOM     12  C   UNL A   1      28.838  26.966  23.902  1.00  0.00     0.062 C 
ATOM     13  C   UNL A   1      30.247  26.393  23.801  1.00  0.00     0.016 C 
BRANCH   8  14
ATOM     14  C   UNL A   1      29.403  30.277  22.120  1.00  0.00     0.261 C 
BRANCH  14  15
ATOM     15  C   UNL A   1      28.911  31.576  22.783  1.00  0.00     0.058 C 
ATOM     16  C   UNL A   1      27.602  31.475  23.550  1.00  0.00     0.010 C 
ENDBRANCH  14  15
ENDBRANCH   8  14
ENDBRANCH   6   7
ENDBRANCH   4   6
ENDBRANCH   3   4
ENDBRANCH   2   3
ENDBRANCH   1   2
BRANCH   1  17
ATOM     17  O   UNL A   1      33.361  30.879  27.655  1.00  0.00    -0.374 OA
BRANCH  17  18
ATOM     18  C   UNL A   1      32.276  31.404  26.892  1.00  0.00     0.202 C 
BRANCH  18  19
ATOM     19  C   UNL A   1      31.967  32.890  27.111  1.00  0.00     0.261 C 
BRANCH  19  20
ATOM     20  O   UNL A   1      33.164  33.684  27.221  1.00  0.00    -0.460 OA
BRANCH  20  21
ATOM     21  C   UNL A   1      33.266  34.391  28.370  1.00  0.00     0.338 C 
ATOM     22  O   UNL A   1      32.511  35.265  28.776  1.00  0.00    -0.246 OA
BRANCH  21  23
ATOM     23  C   UNL A   1      34.358  33.859  29.206  1.00  0.00     0.060 A 
ATOM     24  C   UNL A   1      35.664  34.248  28.878  1.00  0.00     0.016 A 
ATOM     25  C   UNL A   1      34.129  32.935  30.229  1.00  0.00     0.016 A 
ATOM     26  C   UNL A   1      36.749  33.676  29.537  1.00  0.00     0.010 A 
ATOM     27  C   UNL A   1      35.223  32.355  30.883  1.00  0.00     0.010 A 
ATOM     28  C   UNL A   1      36.538  32.696  30.515  1.00  0.00    -0.014 A 
BRANCH  28  29
ATOM     29  C   UNL A   1      37.698  31.933  31.035  1.00  0.00     0.031 A 
ATOM     30  C   UNL A   1      38.190  32.207  32.430  1.00  0.00     0.074 A 
ATOM     31  C   UNL A   1      38.275  30.967  30.298  1.00  0.00     0.049 A 
ATOM     32  N   UNL A   1      39.176  31.651  33.089  1.00  0.00    -0.248 NA
ATOM     33  C   UNL A   1      37.471  33.245  33.186  1.00  0.00     0.031 C 
ATOM     34  C   UNL A   1      37.868  30.576  28.949  1.00  0.00     0.029 A 
ATOM     35  N   UNL A   1      39.329  30.137  30.587  1.00  0.00    -0.354 N 
ATOM     36  C   UNL A   1      39.195  32.268  34.332  1.00  0.00     0.074 A 
ATOM     37  C   UNL A   1      38.144  33.263  34.328  1.00  0.00     0.031 C 
ATOM     38  C   UNL A   1      38.668  29.583  28.525  1.00  0.00     0.029 A 
ATOM     39  C   UNL A   1      39.657  29.286  29.560  1.00  0.00     0.049 A 
ATOM     40  H   UNL A   1      39.805  30.150  31.449  1.00  0.00     0.167 HD
ATOM     41  C   UNL A   1      40.006  32.021  35.388  1.00  0.00     0.037 A 
ATOM     42  C   UNL A   1      40.651  28.383  29.463  1.00  0.00     0.037 A 
ATOM     43  C   UNL A   1      41.051  31.031  35.399  1.00  0.00     0.049 A 
ATOM     44  C   UNL A   1      41.588  28.178  30.624  1.00  0.00     0.074 A 
ATOM     45  C   UNL A   1      41.910  30.695  36.429  1.00  0.00     0.029 A 
ATOM     46  N   UNL A   1      41.381  30.222  34.322  1.00  0.00    -0.354 N 
ATOM     47  N   UNL A   1      41.580  28.749  31.804  1.00  0.00    -0.248 NA
ATOM     48  C   UNL A   1      42.672  27.203  30.438  1.00  0.00     0.031 C 
ATOM     49  C   UNL A   1      42.790  29.712  35.964  1.00  0.00     0.029 A 
ATOM     50  C   UNL A   1      42.450  29.407  34.656  1.00  0.00     0.049 A 
ATOM     51  H   UNL A   1      40.923  30.227  33.451  1.00  0.00     0.167 HD
ATOM     52  C   UNL A   1      42.638  28.187  32.507  1.00  0.00     0.074 A 
ATOM     53  C   UNL A   1      43.259  27.221  31.626  1.00  0.00     0.031 C 
ATOM     54  C   UNL A   1      43.057  28.447  33.770  1.00  0.00     0.037 A 
BRANCH  41  55
ATOM     55  C   UNL A   1      39.808  32.854  36.618  1.00  0.00     0.057 A 
ATOM     56  C   UNL A   1      38.831  32.539  37.572  1.00  0.00     0.134 A 
ATOM     57  C   UNL A   1      40.626  33.963  36.870  1.00  0.00     0.134 A 
ATOM     58  F   UNL A   1      38.006  31.498  37.384  1.00  0.00    -0.206 F 
ATOM     59  C   UNL A   1      38.662  33.311  38.723  1.00  0.00     0.040 A 
ATOM     60  C   UNL A   1      40.481  34.727  38.028  1.00  0.00     0.040 A 
ATOM     61  F   UNL A   1      41.582  34.314  35.997  1.00  0.00    -0.206 F 
ATOM     62  C   UNL A   1      39.493  34.405  38.956  1.00  0.00     0.006 A 
ENDBRANCH  41  55
BRANCH  42  63
ATOM     63  C   UNL A   1      40.828  27.606  28.211  1.00  0.00     0.057 A 
ATOM     64  C   UNL A   1      41.594  28.102  27.150  1.00  0.00     0.134 A 
ATOM     65  C   UNL A   1      40.213  26.360  28.038  1.00  0.00     0.134 A 
ATOM     66  F   UNL A   1      42.186  29.301  27.248  1.00  0.00    -0.206 F 
ATOM     67  C   UNL A   1      41.731  27.393  25.955  1.00  0.00     0.040 A 
ATOM     68  C   UNL A   1      40.360  25.631  26.857  1.00  0.00     0.040 A 
ATOM     69  F   UNL A   1      39.465  25.831  29.017  1.00  0.00    -0.206 F 
ATOM     70  C   UNL A   1      41.115  26.152  25.808  1.00  0.00     0.006 A 
ENDBRANCH  42  63
BRANCH  54  71
ATOM     71  C   UNL A   1      44.228  27.661  34.283  1.00  0.00     0.057 A 
ATOM     72  C   UNL A   1      45.537  28.153  34.204  1.00  0.00     0.134 A 
ATOM     73  C   UNL A   1      44.039  26.417  34.899  1.00  0.00     0.134 A 
ATOM     74  F   UNL A   1      45.785  29.332  33.615  1.00  0.00    -0.206 F 
ATOM     75  C   UNL A   1      46.619  27.426  34.704  1.00  0.00     0.040 A 
ATOM     76  C   UNL A   1      45.109  25.693  35.423  1.00  0.00     0.040 A 
ATOM     77  F   UNL A   1      42.808  25.894  35.013  1.00  0.00    -0.206 F 
ATOM     78  C   UNL A   1      46.405  26.195  35.321  1.00  0.00     0.006 A 
ENDBRANCH  54  71
ENDBRANCH  28  29
ENDBRANCH  21  23
ENDBRANCH  20  21
ENDBRANCH  19  20
ENDBRANCH  18  19
ENDBRANCH  17  18
ENDBRANCH   1  17
TORSDOF 17
ENDMDL
