MODEL 1
REMARK VINA RESULT:     -10.2      0.000      0.000
REMARK SMILES CCC(CC)([NH2+]Cc1ccc(Cl)cc1[N+](=O)[O-])C(=O)OCCOCCOC(=O)c1ccc(-c2c3nc(c(-c4c(F)cccc4F)c4ccc([nH]4)c(-c4c(F)cccc4F)c4nc(c(-c5c(F)cccc5F)c5ccc2[nH]5)C=C4)C=C3)cc1
REMARK SMILES IDX 22 1 21 2 20 3 18 4 19 5 3 6 2 7 1 8 4 9 5 10 6 11 7 14 8 15
REMARK SMILES IDX 9 16 14 17 10 18 13 19 11 20 12 21 15 22 16 23 17 24 23 25
REMARK SMILES IDX 24 26 25 27 26 28 27 29 28 30 29 31 30 32 82 33 31 34 81 35
REMARK SMILES IDX 32 36 33 37 34 38 75 39 35 40 80 41 74 42 76 43 36 44 79 45
REMARK SMILES IDX 73 46 72 47 37 49 63 50 46 51 62 52 47 53 50 54 61 55 77 56
REMARK SMILES IDX 48 57 49 58 60 60 78 61 51 62 38 63 39 64 44 65 40 66 41 67
REMARK SMILES IDX 43 68 45 69 42 70 64 71 65 72 70 73 66 74 67 75 69 76 71 77
REMARK SMILES IDX 68 78 52 79 53 80 58 81 54 82 55 83 57 84 59 85 56 86
REMARK H PARENT 6 12 6 13 76 48 50 59
REMARK Flexibility Score: inf
ROOT
ATOM      1  C   UNL A   1      32.686  28.889  27.231  1.00  0.00     0.202 C 
ENDROOT
BRANCH   1   2
ATOM      2  C   UNL A   1      33.685  28.522  26.120  1.00  0.00     0.261 C 
BRANCH   2   3
ATOM      3  O   UNL A   1      33.043  27.618  25.206  1.00  0.00    -0.459 OA
BRANCH   3   4
ATOM      4  C   UNL A   1      32.622  28.082  23.992  1.00  0.00     0.368 C 
ATOM      5  O   UNL A   1      33.233  28.900  23.318  1.00  0.00    -0.245 OA
BRANCH   4   6
ATOM      6  C   UNL A   1      31.324  27.318  23.530  1.00  0.00     0.194 C 
BRANCH   6   7
ATOM      7  C   UNL A   1      31.663  26.730  22.113  1.00  0.00     0.077 C 
ATOM      8  C   UNL A   1      33.077  26.138  21.990  1.00  0.00     0.011 C 
ENDBRANCH   6   7
BRANCH   6   9
ATOM      9  C   UNL A   1      30.094  28.244  23.359  1.00  0.00     0.077 C 
ATOM     10  C   UNL A   1      30.165  29.258  22.214  1.00  0.00     0.011 C 
ENDBRANCH   6   9
BRANCH   6  11
ATOM     11  N   UNL A   1      30.972  26.213  24.473  1.00  0.00    -0.328 N 
ATOM     12  H   UNL A   1      30.371  26.624  25.188  1.00  0.00     0.347 HD
ATOM     13  H   UNL A   1      31.887  25.859  24.751  1.00  0.00     0.347 HD
BRANCH  11  14
ATOM     14  C   UNL A   1      30.293  25.002  24.008  1.00  0.00     0.305 C 
BRANCH  14  15
ATOM     15  C   UNL A   1      30.910  23.630  24.242  1.00  0.00     0.084 A 
ATOM     16  C   UNL A   1      31.498  22.987  23.129  1.00  0.00     0.018 A 
ATOM     17  C   UNL A   1      31.133  23.016  25.498  1.00  0.00     0.279 A 
ATOM     18  C   UNL A   1      32.275  21.827  23.269  1.00  0.00     0.021 A 
ATOM     19  C   UNL A   1      31.845  21.809  25.632  1.00  0.00     0.106 A 
ATOM     20  C   UNL A   1      32.434  21.238  24.517  1.00  0.00     0.047 A 
ATOM     21  Cl  UNL A   1      33.431  19.848  24.699  1.00  0.00    -0.084 Cl
BRANCH  17  22
ATOM     22  N   UNL A   1      30.807  23.661  26.764  1.00  0.00     0.063 N 
ATOM     23  O   UNL A   1      29.765  23.313  27.329  1.00  0.00    -0.258 OA
ATOM     24  O   UNL A   1      31.573  24.554  27.155  1.00  0.00    -0.258 OA
ENDBRANCH  17  22
ENDBRANCH  14  15
ENDBRANCH  11  14
ENDBRANCH   6  11
ENDBRANCH   4   6
ENDBRANCH   3   4
ENDBRANCH   2   3
ENDBRANCH   1   2
BRANCH   1  25
ATOM     25  O   UNL A   1      31.534  29.627  26.804  1.00  0.00    -0.374 OA
BRANCH  25  26
ATOM     26  C   UNL A   1      31.787  30.868  26.148  1.00  0.00     0.202 C 
BRANCH  26  27
ATOM     27  C   UNL A   1      31.529  32.133  26.969  1.00  0.00     0.261 C 
BRANCH  27  28
ATOM     28  O   UNL A   1      32.586  33.093  26.810  1.00  0.00    -0.460 OA
BRANCH  28  29
ATOM     29  C   UNL A   1      33.068  33.585  27.974  1.00  0.00     0.338 C 
ATOM     30  O   UNL A   1      32.516  34.349  28.745  1.00  0.00    -0.246 OA
BRANCH  29  31
ATOM     31  C   UNL A   1      34.366  32.962  28.280  1.00  0.00     0.060 A 
ATOM     32  C   UNL A   1      34.351  31.636  28.729  1.00  0.00     0.016 A 
ATOM     33  C   UNL A   1      35.557  33.690  28.237  1.00  0.00     0.016 A 
ATOM     34  C   UNL A   1      35.520  31.050  29.204  1.00  0.00     0.010 A 
ATOM     35  C   UNL A   1      36.728  33.104  28.722  1.00  0.00     0.010 A 
ATOM     36  C   UNL A   1      36.701  31.800  29.250  1.00  0.00    -0.014 A 
BRANCH  36  37
ATOM     37  C   UNL A   1      37.857  31.302  30.028  1.00  0.00     0.031 A 
ATOM     38  C   UNL A   1      38.781  30.311  29.380  1.00  0.00     0.074 A 
ATOM     39  C   UNL A   1      38.078  31.718  31.285  1.00  0.00     0.049 A 
ATOM     40  N   UNL A   1      39.783  29.648  29.894  1.00  0.00    -0.248 NA
ATOM     41  C   UNL A   1      38.533  30.023  27.956  1.00  0.00     0.031 C 
ATOM     42  C   UNL A   1      37.282  32.716  31.996  1.00  0.00     0.029 A 
ATOM     43  N   UNL A   1      39.033  31.333  32.190  1.00  0.00    -0.354 N 
ATOM     44  C   UNL A   1      40.273  28.851  28.866  1.00  0.00     0.074 A 
ATOM     45  C   UNL A   1      39.448  29.099  27.705  1.00  0.00     0.031 C 
ATOM     46  C   UNL A   1      37.767  32.845  33.244  1.00  0.00     0.029 A 
ATOM     47  C   UNL A   1      38.881  31.915  33.424  1.00  0.00     0.049 A 
ATOM     48  H   UNL A   1      39.757  30.702  31.976  1.00  0.00     0.167 HD
ATOM     49  C   UNL A   1      41.316  27.990  28.891  1.00  0.00     0.037 A 
ATOM     50  C   UNL A   1      39.544  31.692  34.574  1.00  0.00     0.037 A 
ATOM     51  C   UNL A   1      42.135  27.751  30.048  1.00  0.00     0.049 A 
ATOM     52  C   UNL A   1      40.663  30.687  34.599  1.00  0.00     0.074 A 
ATOM     53  C   UNL A   1      43.227  26.911  30.176  1.00  0.00     0.029 A 
ATOM     54  N   UNL A   1      41.944  28.353  31.283  1.00  0.00    -0.354 N 
ATOM     55  N   UNL A   1      41.124  29.940  33.624  1.00  0.00    -0.248 NA
ATOM     56  C   UNL A   1      41.354  30.491  35.882  1.00  0.00     0.031 C 
ATOM     57  C   UNL A   1      43.670  26.972  31.502  1.00  0.00     0.029 A 
ATOM     58  C   UNL A   1      42.883  27.886  32.187  1.00  0.00     0.049 A 
ATOM     59  H   UNL A   1      41.244  29.013  31.488  1.00  0.00     0.167 HD
ATOM     60  C   UNL A   1      42.174  29.209  34.165  1.00  0.00     0.074 A 
ATOM     61  C   UNL A   1      42.283  29.602  35.555  1.00  0.00     0.031 C 
ATOM     62  C   UNL A   1      42.980  28.299  33.564  1.00  0.00     0.037 A 
BRANCH  49  63
ATOM     63  C   UNL A   1      41.597  27.217  27.636  1.00  0.00     0.057 A 
ATOM     64  C   UNL A   1      42.423  27.719  26.622  1.00  0.00     0.134 A 
ATOM     65  C   UNL A   1      41.027  25.953  27.439  1.00  0.00     0.134 A 
ATOM     66  F   UNL A   1      42.985  28.932  26.741  1.00  0.00    -0.206 F 
ATOM     67  C   UNL A   1      42.647  27.004  25.444  1.00  0.00     0.040 A 
ATOM     68  C   UNL A   1      41.264  25.218  26.277  1.00  0.00     0.040 A 
ATOM     69  F   UNL A   1      40.226  25.413  28.371  1.00  0.00    -0.206 F 
ATOM     70  C   UNL A   1      42.070  25.748  25.270  1.00  0.00     0.006 A 
ENDBRANCH  49  63
BRANCH  50  71
ATOM     71  C   UNL A   1      39.147  32.426  35.800  1.00  0.00     0.057 A 
ATOM     72  C   UNL A   1      39.637  33.709  36.068  1.00  0.00     0.134 A 
ATOM     73  C   UNL A   1      38.252  31.869  36.721  1.00  0.00     0.134 A 
ATOM     74  F   UNL A   1      40.513  34.285  35.232  1.00  0.00    -0.206 F 
ATOM     75  C   UNL A   1      39.253  34.411  37.212  1.00  0.00     0.040 A 
ATOM     76  C   UNL A   1      37.844  32.568  37.859  1.00  0.00     0.040 A 
ATOM     77  F   UNL A   1      37.745  30.645  36.518  1.00  0.00    -0.206 F 
ATOM     78  C   UNL A   1      38.349  33.843  38.107  1.00  0.00     0.006 A 
ENDBRANCH  50  71
BRANCH  62  79
ATOM     79  C   UNL A   1      44.078  27.696  34.389  1.00  0.00     0.057 A 
ATOM     80  C   UNL A   1      45.326  28.316  34.527  1.00  0.00     0.134 A 
ATOM     81  C   UNL A   1      43.857  26.515  35.109  1.00  0.00     0.134 A 
ATOM     82  F   UNL A   1      45.602  29.443  33.855  1.00  0.00    -0.206 F 
ATOM     83  C   UNL A   1      46.320  27.775  35.345  1.00  0.00     0.040 A 
ATOM     84  C   UNL A   1      44.834  25.977  35.946  1.00  0.00     0.040 A 
ATOM     85  F   UNL A   1      42.678  25.878  35.027  1.00  0.00    -0.206 F 
ATOM     86  C   UNL A   1      46.072  26.607  36.063  1.00  0.00     0.006 A 
ENDBRANCH  62  79
ENDBRANCH  36  37
ENDBRANCH  29  31
ENDBRANCH  28  29
ENDBRANCH  27  28
ENDBRANCH  26  27
ENDBRANCH  25  26
ENDBRANCH   1  25
TORSDOF 20
ENDMDL
MODEL 2
REMARK VINA RESULT:      -9.8      1.697      2.388
REMARK SMILES CCC(CC)([NH2+]Cc1ccc(Cl)cc1[N+](=O)[O-])C(=O)OCCOCCOC(=O)c1ccc(-c2c3nc(c(-c4c(F)cccc4F)c4ccc([nH]4)c(-c4c(F)cccc4F)c4nc(c(-c5c(F)cccc5F)c5ccc2[nH]5)C=C4)C=C3)cc1
REMARK SMILES IDX 22 1 21 2 20 3 18 4 19 5 3 6 2 7 1 8 4 9 5 10 6 11 7 14 8 15
REMARK SMILES IDX 9 16 14 17 10 18 13 19 11 20 12 21 15 22 16 23 17 24 23 25
REMARK SMILES IDX 24 26 25 27 26 28 27 29 28 30 29 31 30 32 82 33 31 34 81 35
REMARK SMILES IDX 32 36 33 37 34 38 75 39 35 40 80 41 74 42 76 43 36 44 79 45
REMARK SMILES IDX 73 46 72 47 37 49 63 50 46 51 62 52 47 53 50 54 61 55 77 56
REMARK SMILES IDX 48 57 49 58 60 60 78 61 51 62 38 63 39 64 44 65 40 66 41 67
REMARK SMILES IDX 43 68 45 69 42 70 64 71 65 72 70 73 66 74 67 75 69 76 71 77
REMARK SMILES IDX 68 78 52 79 53 80 58 81 54 82 55 83 57 84 59 85 56 86
REMARK H PARENT 6 12 6 13 76 48 50 59
REMARK Flexibility Score: inf
ROOT
ATOM      1  C   UNL A   1      29.726  29.898  23.384  1.00  0.00     0.202 C 
ENDROOT
BRANCH   1   2
ATOM      2  C   UNL A   1      29.336  28.593  22.670  1.00  0.00     0.261 C 
BRANCH   2   3
ATOM      3  O   UNL A   1      30.323  27.593  22.968  1.00  0.00    -0.459 OA
BRANCH   3   4
ATOM      4  C   UNL A   1      29.973  26.512  23.726  1.00  0.00     0.368 C 
ATOM      5  O   UNL A   1      28.845  26.042  23.775  1.00  0.00    -0.245 OA
BRANCH   4   6
ATOM      6  C   UNL A   1      31.245  25.885  24.411  1.00  0.00     0.194 C 
BRANCH   6   7
ATOM      7  C   UNL A   1      31.314  26.528  25.842  1.00  0.00     0.077 C 
ATOM      8  C   UNL A   1      32.676  27.144  26.201  1.00  0.00     0.011 C 
ENDBRANCH   6   7
BRANCH   6   9
ATOM      9  C   UNL A   1      32.570  26.237  23.687  1.00  0.00     0.077 C 
ATOM     10  C   UNL A   1      32.889  25.424  22.429  1.00  0.00     0.011 C 
ENDBRANCH   6   9
BRANCH   6  11
ATOM     11  N   UNL A   1      31.134  24.398  24.521  1.00  0.00    -0.328 N 
ATOM     12  H   UNL A   1      31.476  24.017  23.639  1.00  0.00     0.347 HD
ATOM     13  H   UNL A   1      30.151  24.268  24.759  1.00  0.00     0.347 HD
BRANCH  11  14
ATOM     14  C   UNL A   1      31.818  23.659  25.584  1.00  0.00     0.305 C 
BRANCH  14  15
ATOM     15  C   UNL A   1      33.213  23.092  25.360  1.00  0.00     0.084 A 
ATOM     16  C   UNL A   1      34.288  23.745  26.006  1.00  0.00     0.018 A 
ATOM     17  C   UNL A   1      33.525  21.862  24.734  1.00  0.00     0.279 A 
ATOM     18  C   UNL A   1      35.576  23.191  26.042  1.00  0.00     0.021 A 
ATOM     19  C   UNL A   1      34.833  21.342  24.700  1.00  0.00     0.106 A 
ATOM     20  C   UNL A   1      35.845  21.999  25.380  1.00  0.00     0.047 A 
ATOM     21  Cl  UNL A   1      37.409  21.291  25.469  1.00  0.00    -0.084 Cl
BRANCH  17  22
ATOM     22  N   UNL A   1      32.506  20.948  24.231  1.00  0.00     0.063 N 
ATOM     23  O   UNL A   1      32.179  21.056  23.045  1.00  0.00    -0.258 OA
ATOM     24  O   UNL A   1      32.002  20.163  25.048  1.00  0.00    -0.258 OA
ENDBRANCH  17  22
ENDBRANCH  14  15
ENDBRANCH  11  14
ENDBRANCH   6  11
ENDBRANCH   4   6
ENDBRANCH   3   4
ENDBRANCH   2   3
ENDBRANCH   1   2
BRANCH   1  25
ATOM     25  O   UNL A   1      30.222  29.744  24.721  1.00  0.00    -0.374 OA
BRANCH  25  26
ATOM     26  C   UNL A   1      31.452  30.402  25.018  1.00  0.00     0.202 C 
BRANCH  26  27
ATOM     27  C   UNL A   1      31.446  31.331  26.233  1.00  0.00     0.261 C 
BRANCH  27  28
ATOM     28  O   UNL A   1      32.536  31.045  27.124  1.00  0.00    -0.460 OA
BRANCH  28  29
ATOM     29  C   UNL A   1      33.255  32.132  27.488  1.00  0.00     0.338 C 
ATOM     30  O   UNL A   1      32.860  33.276  27.620  1.00  0.00    -0.246 OA
BRANCH  29  31
ATOM     31  C   UNL A   1      34.625  31.727  27.844  1.00  0.00     0.060 A 
ATOM     32  C   UNL A   1      34.836  30.378  28.151  1.00  0.00     0.016 A 
ATOM     33  C   UNL A   1      35.653  32.663  27.984  1.00  0.00     0.016 A 
ATOM     34  C   UNL A   1      36.061  29.966  28.666  1.00  0.00     0.010 A 
ATOM     35  C   UNL A   1      36.878  32.250  28.509  1.00  0.00     0.010 A 
ATOM     36  C   UNL A   1      37.068  30.911  28.895  1.00  0.00    -0.014 A 
BRANCH  36  37
ATOM     37  C   UNL A   1      38.243  30.546  29.719  1.00  0.00     0.031 A 
ATOM     38  C   UNL A   1      39.256  29.602  29.139  1.00  0.00     0.074 A 
ATOM     39  C   UNL A   1      38.402  31.041  30.957  1.00  0.00     0.049 A 
ATOM     40  N   UNL A   1      40.296  29.048  29.706  1.00  0.00    -0.248 NA
ATOM     41  C   UNL A   1      39.064  29.224  27.729  1.00  0.00     0.031 C 
ATOM     42  C   UNL A   1      37.514  32.006  31.601  1.00  0.00     0.029 A 
ATOM     43  N   UNL A   1      39.364  30.780  31.898  1.00  0.00    -0.354 N 
ATOM     44  C   UNL A   1      40.870  28.243  28.729  1.00  0.00     0.074 A 
ATOM     45  C   UNL A   1      40.054  28.366  27.542  1.00  0.00     0.031 C 
ATOM     46  C   UNL A   1      37.959  32.236  32.849  1.00  0.00     0.029 A 
ATOM     47  C   UNL A   1      39.139  31.408  33.097  1.00  0.00     0.049 A 
ATOM     48  H   UNL A   1      40.141  30.199  31.729  1.00  0.00     0.167 HD
ATOM     49  C   UNL A   1      41.978  27.470  28.817  1.00  0.00     0.037 A 
ATOM     50  C   UNL A   1      39.791  31.297  34.269  1.00  0.00     0.037 A 
ATOM     51  C   UNL A   1      42.787  27.356  30.000  1.00  0.00     0.049 A 
ATOM     52  C   UNL A   1      40.986  30.387  34.366  1.00  0.00     0.074 A 
ATOM     53  C   UNL A   1      43.939  26.614  30.191  1.00  0.00     0.029 A 
ATOM     54  N   UNL A   1      42.522  28.002  31.199  1.00  0.00    -0.354 N 
ATOM     55  N   UNL A   1      41.526  29.632  33.439  1.00  0.00    -0.248 NA
ATOM     56  C   UNL A   1      41.662  30.312  35.670  1.00  0.00     0.031 C 
ATOM     57  C   UNL A   1      44.346  26.777  31.519  1.00  0.00     0.029 A 
ATOM     58  C   UNL A   1      43.475  27.657  32.142  1.00  0.00     0.049 A 
ATOM     59  H   UNL A   1      41.767  28.613  31.356  1.00  0.00     0.167 HD
ATOM     60  C   UNL A   1      42.619  29.016  34.036  1.00  0.00     0.074 A 
ATOM     61  C   UNL A   1      42.666  29.486  35.405  1.00  0.00     0.031 C 
ATOM     62  C   UNL A   1      43.508  28.145  33.498  1.00  0.00     0.037 A 
BRANCH  49  63
ATOM     63  C   UNL A   1      42.346  26.661  27.609  1.00  0.00     0.057 A 
ATOM     64  C   UNL A   1      41.935  25.331  27.451  1.00  0.00     0.134 A 
ATOM     65  C   UNL A   1      43.128  27.221  26.591  1.00  0.00     0.134 A 
ATOM     66  F   UNL A   1      41.199  24.729  28.399  1.00  0.00    -0.206 F 
ATOM     67  C   UNL A   1      42.314  24.578  26.338  1.00  0.00     0.040 A 
ATOM     68  C   UNL A   1      43.492  26.486  25.462  1.00  0.00     0.040 A 
ATOM     69  F   UNL A   1      43.556  28.489  26.680  1.00  0.00    -0.206 F 
ATOM     70  C   UNL A   1      43.092  25.157  25.337  1.00  0.00     0.006 A 
ENDBRANCH  49  63
BRANCH  50  71
ATOM     71  C   UNL A   1      39.311  32.057  35.448  1.00  0.00     0.057 A 
ATOM     72  C   UNL A   1      39.718  33.376  35.676  1.00  0.00     0.134 A 
ATOM     73  C   UNL A   1      38.416  31.488  36.362  1.00  0.00     0.134 A 
ATOM     74  F   UNL A   1      40.589  33.967  34.846  1.00  0.00    -0.206 F 
ATOM     75  C   UNL A   1      39.255  34.101  36.775  1.00  0.00     0.040 A 
ATOM     76  C   UNL A   1      37.929  32.209  37.454  1.00  0.00     0.040 A 
ATOM     77  F   UNL A   1      37.986  30.229  36.195  1.00  0.00    -0.206 F 
ATOM     78  C   UNL A   1      38.352  33.520  37.663  1.00  0.00     0.006 A 
ENDBRANCH  50  71
BRANCH  62  79
ATOM     79  C   UNL A   1      44.632  27.674  34.372  1.00  0.00     0.057 A 
ATOM     80  C   UNL A   1      45.826  28.394  34.494  1.00  0.00     0.134 A 
ATOM     81  C   UNL A   1      44.485  26.521  35.155  1.00  0.00     0.134 A 
ATOM     82  F   UNL A   1      46.030  29.500  33.764  1.00  0.00    -0.206 F 
ATOM     83  C   UNL A   1      46.841  27.977  35.357  1.00  0.00     0.040 A 
ATOM     84  C   UNL A   1      45.484  26.106  36.036  1.00  0.00     0.040 A 
ATOM     85  F   UNL A   1      43.360  25.792  35.091  1.00  0.00    -0.206 F 
ATOM     86  C   UNL A   1      46.668  26.834  36.136  1.00  0.00     0.006 A 
ENDBRANCH  62  79
ENDBRANCH  36  37
ENDBRANCH  29  31
ENDBRANCH  28  29
ENDBRANCH  27  28
ENDBRANCH  26  27
ENDBRANCH  25  26
ENDBRANCH   1  25
TORSDOF 20
ENDMDL
MODEL 3
REMARK VINA RESULT:      -9.7      1.204      6.386
REMARK SMILES CCC(CC)([NH2+]Cc1ccc(Cl)cc1[N+](=O)[O-])C(=O)OCCOCCOC(=O)c1ccc(-c2c3nc(c(-c4c(F)cccc4F)c4ccc([nH]4)c(-c4c(F)cccc4F)c4nc(c(-c5c(F)cccc5F)c5ccc2[nH]5)C=C4)C=C3)cc1
REMARK SMILES IDX 22 1 21 2 20 3 18 4 19 5 3 6 2 7 1 8 4 9 5 10 6 11 7 14 8 15
REMARK SMILES IDX 9 16 14 17 10 18 13 19 11 20 12 21 15 22 16 23 17 24 23 25
REMARK SMILES IDX 24 26 25 27 26 28 27 29 28 30 29 31 30 32 82 33 31 34 81 35
REMARK SMILES IDX 32 36 33 37 34 38 75 39 35 40 80 41 74 42 76 43 36 44 79 45
REMARK SMILES IDX 73 46 72 47 37 49 63 50 46 51 62 52 47 53 50 54 61 55 77 56
REMARK SMILES IDX 48 57 49 58 60 60 78 61 51 62 38 63 39 64 44 65 40 66 41 67
REMARK SMILES IDX 43 68 45 69 42 70 64 71 65 72 70 73 66 74 67 75 69 76 71 77
REMARK SMILES IDX 68 78 52 79 53 80 58 81 54 82 55 83 57 84 59 85 56 86
REMARK H PARENT 6 12 6 13 76 48 50 59
REMARK Flexibility Score: inf
ROOT
ATOM      1  C   UNL A   1      32.371  29.666  27.235  1.00  0.00     0.202 C 
ENDROOT
BRANCH   1   2
ATOM      2  C   UNL A   1      31.550  28.421  26.855  1.00  0.00     0.261 C 
BRANCH   2   3
ATOM      3  O   UNL A   1      32.431  27.452  26.266  1.00  0.00    -0.459 OA
BRANCH   3   4
ATOM      4  C   UNL A   1      31.934  26.234  25.896  1.00  0.00     0.368 C 
ATOM      5  O   UNL A   1      31.428  25.434  26.669  1.00  0.00    -0.245 OA
BRANCH   4   6
ATOM      6  C   UNL A   1      31.983  26.073  24.329  1.00  0.00     0.194 C 
BRANCH   6   7
ATOM      7  C   UNL A   1      33.295  26.805  23.871  1.00  0.00     0.077 C 
ATOM      8  C   UNL A   1      33.295  27.254  22.401  1.00  0.00     0.011 C 
ENDBRANCH   6   7
BRANCH   6   9
ATOM      9  C   UNL A   1      30.799  26.758  23.603  1.00  0.00     0.077 C 
ATOM     10  C   UNL A   1      29.396  26.329  24.043  1.00  0.00     0.011 C 
ENDBRANCH   6   9
BRANCH   6  11
ATOM     11  N   UNL A   1      32.031  24.634  23.926  1.00  0.00    -0.328 N 
ATOM     12  H   UNL A   1      31.823  24.608  22.927  1.00  0.00     0.347 HD
ATOM     13  H   UNL A   1      31.370  24.202  24.571  1.00  0.00     0.347 HD
BRANCH  11  14
ATOM     14  C   UNL A   1      33.237  23.827  24.120  1.00  0.00     0.305 C 
BRANCH  14  15
ATOM     15  C   UNL A   1      33.133  22.336  24.410  1.00  0.00     0.084 A 
ATOM     16  C   UNL A   1      32.491  21.531  23.441  1.00  0.00     0.018 A 
ATOM     17  C   UNL A   1      33.788  21.640  25.454  1.00  0.00     0.279 A 
ATOM     18  C   UNL A   1      32.524  20.131  23.502  1.00  0.00     0.021 A 
ATOM     19  C   UNL A   1      33.756  20.236  25.561  1.00  0.00     0.106 A 
ATOM     20  C   UNL A   1      33.146  19.491  24.567  1.00  0.00     0.047 A 
ATOM     21  Cl  UNL A   1      33.236  17.774  24.615  1.00  0.00    -0.084 Cl
BRANCH  17  22
ATOM     22  N   UNL A   1      34.690  22.291  26.396  1.00  0.00     0.063 N 
ATOM     23  O   UNL A   1      34.185  22.858  27.370  1.00  0.00    -0.258 OA
ATOM     24  O   UNL A   1      35.899  22.273  26.121  1.00  0.00    -0.258 OA
ENDBRANCH  17  22
ENDBRANCH  14  15
ENDBRANCH  11  14
ENDBRANCH   6  11
ENDBRANCH   4   6
ENDBRANCH   3   4
ENDBRANCH   2   3
ENDBRANCH   1   2
BRANCH   1  25
ATOM     25  O   UNL A   1      32.332  30.741  26.288  1.00  0.00    -0.374 OA
BRANCH  25  26
ATOM     26  C   UNL A   1      31.402  31.788  26.558  1.00  0.00     0.202 C 
BRANCH  26  27
ATOM     27  C   UNL A   1      31.995  33.182  26.772  1.00  0.00     0.261 C 
BRANCH  27  28
ATOM     28  O   UNL A   1      32.381  33.389  28.139  1.00  0.00    -0.460 OA
BRANCH  28  29
ATOM     29  C   UNL A   1      33.484  34.157  28.293  1.00  0.00     0.338 C 
ATOM     30  O   UNL A   1      33.544  35.371  28.357  1.00  0.00    -0.246 OA
BRANCH  29  31
ATOM     31  C   UNL A   1      34.662  33.300  28.508  1.00  0.00     0.060 A 
ATOM     32  C   UNL A   1      34.429  31.968  28.871  1.00  0.00     0.016 A 
ATOM     33  C   UNL A   1      35.960  33.814  28.466  1.00  0.00     0.016 A 
ATOM     34  C   UNL A   1      35.490  31.158  29.262  1.00  0.00     0.010 A 
ATOM     35  C   UNL A   1      37.023  33.003  28.867  1.00  0.00     0.010 A 
ATOM     36  C   UNL A   1      36.785  31.689  29.310  1.00  0.00    -0.014 A 
BRANCH  36  37
ATOM     37  C   UNL A   1      37.857  30.947  30.010  1.00  0.00     0.031 A 
ATOM     38  C   UNL A   1      38.103  31.244  31.461  1.00  0.00     0.074 A 
ATOM     39  C   UNL A   1      38.599  30.030  29.367  1.00  0.00     0.049 A 
ATOM     40  N   UNL A   1      39.053  30.813  32.249  1.00  0.00    -0.248 NA
ATOM     41  C   UNL A   1      37.149  32.160  32.109  1.00  0.00     0.031 C 
ATOM     42  C   UNL A   1      38.415  29.620  27.977  1.00  0.00     0.029 A 
ATOM     43  N   UNL A   1      39.670  29.294  29.802  1.00  0.00    -0.354 N 
ATOM     44  C   UNL A   1      38.824  31.420  33.478  1.00  0.00     0.074 A 
ATOM     45  C   UNL A   1      37.658  32.262  33.327  1.00  0.00     0.031 C 
ATOM     46  C   UNL A   1      39.365  28.722  27.663  1.00  0.00     0.029 A 
ATOM     47  C   UNL A   1      40.239  28.525  28.819  1.00  0.00     0.049 A 
ATOM     48  H   UNL A   1      39.999  29.316  30.730  1.00  0.00     0.167 HD
ATOM     49  C   UNL A   1      39.525  31.286  34.628  1.00  0.00     0.037 A 
ATOM     50  C   UNL A   1      41.357  27.776  28.843  1.00  0.00     0.037 A 
ATOM     51  C   UNL A   1      40.681  30.444  34.773  1.00  0.00     0.049 A 
ATOM     52  C   UNL A   1      42.158  27.686  30.114  1.00  0.00     0.074 A 
ATOM     53  C   UNL A   1      41.455  30.224  35.897  1.00  0.00     0.029 A 
ATOM     54  N   UNL A   1      41.232  29.685  33.750  1.00  0.00    -0.354 N 
ATOM     55  N   UNL A   1      41.935  28.258  31.273  1.00  0.00    -0.248 NA
ATOM     56  C   UNL A   1      43.367  26.848  30.081  1.00  0.00     0.031 C 
ATOM     57  C   UNL A   1      42.501  29.365  35.544  1.00  0.00     0.029 A 
ATOM     58  C   UNL A   1      42.351  29.013  34.211  1.00  0.00     0.049 A 
ATOM     59  H   UNL A   1      40.881  29.633  32.832  1.00  0.00     0.167 HD
ATOM     60  C   UNL A   1      42.954  27.829  32.114  1.00  0.00     0.074 A 
ATOM     61  C   UNL A   1      43.797  26.948  31.332  1.00  0.00     0.031 C 
ATOM     62  C   UNL A   1      43.170  28.132  33.418  1.00  0.00     0.037 A 
BRANCH  49  63
ATOM     63  C   UNL A   1      39.077  32.105  35.803  1.00  0.00     0.057 A 
ATOM     64  C   UNL A   1      38.229  31.587  36.791  1.00  0.00     0.134 A 
ATOM     65  C   UNL A   1      39.498  33.433  35.944  1.00  0.00     0.134 A 
ATOM     66  F   UNL A   1      37.775  30.327  36.705  1.00  0.00    -0.206 F 
ATOM     67  C   UNL A   1      37.791  32.371  37.860  1.00  0.00     0.040 A 
ATOM     68  C   UNL A   1      39.088  34.219  37.022  1.00  0.00     0.040 A 
ATOM     69  F   UNL A   1      40.311  33.991  35.034  1.00  0.00    -0.206 F 
ATOM     70  C   UNL A   1      38.224  33.690  37.980  1.00  0.00     0.006 A 
ENDBRANCH  49  63
BRANCH  50  71
ATOM     71  C   UNL A   1      41.791  27.069  27.613  1.00  0.00     0.057 A 
ATOM     72  C   UNL A   1      42.648  27.678  26.691  1.00  0.00     0.134 A 
ATOM     73  C   UNL A   1      41.375  25.760  27.344  1.00  0.00     0.134 A 
ATOM     74  F   UNL A   1      43.063  28.939  26.885  1.00  0.00    -0.206 F 
ATOM     75  C   UNL A   1      43.073  27.011  25.540  1.00  0.00     0.040 A 
ATOM     76  C   UNL A   1      41.808  25.073  26.209  1.00  0.00     0.040 A 
ATOM     77  F   UNL A   1      40.557  25.121  28.193  1.00  0.00    -0.206 F 
ATOM     78  C   UNL A   1      42.658  25.703  25.302  1.00  0.00     0.006 A 
ENDBRANCH  50  71
BRANCH  62  79
ATOM     79  C   UNL A   1      44.335  27.475  34.097  1.00  0.00     0.057 A 
ATOM     80  C   UNL A   1      44.230  26.212  34.692  1.00  0.00     0.134 A 
ATOM     81  C   UNL A   1      45.595  28.089  34.093  1.00  0.00     0.134 A 
ATOM     82  F   UNL A   1      43.048  25.579  34.736  1.00  0.00    -0.206 F 
ATOM     83  C   UNL A   1      45.336  25.586  35.269  1.00  0.00     0.040 A 
ATOM     84  C   UNL A   1      46.712  27.464  34.648  1.00  0.00     0.040 A 
ATOM     85  F   UNL A   1      45.764  29.295  33.530  1.00  0.00    -0.206 F 
ATOM     86  C   UNL A   1      46.583  26.209  35.240  1.00  0.00     0.006 A 
ENDBRANCH  62  79
ENDBRANCH  36  37
ENDBRANCH  29  31
ENDBRANCH  28  29
ENDBRANCH  27  28
ENDBRANCH  26  27
ENDBRANCH  25  26
ENDBRANCH   1  25
TORSDOF 20
ENDMDL
