MODEL 1
REMARK VINA RESULT:     -12.7      0.000      0.000
REMARK SMILES Cc1ccccc1N1C(=O)c2cccc3c(C(=O)OCCOCCOC(=O)c4ccc(-c5c6nc(c(-c7c(F)cccc7F)c7ccc([nH]7)c(-c7c(F)cccc7F)c7nc(c(-c8c(F)cccc8F)c8ccc5[nH]8)C=C7)C=C6)cc4)ccc(c23)C1=O
REMARK SMILES IDX 23 1 22 2 21 3 20 4 19 5 17 6 18 7 16 8 8 9 9 10 86 11 10 12
REMARK SMILES IDX 11 13 84 14 87 15 12 16 85 17 83 18 13 19 15 20 82 21 14 22
REMARK SMILES IDX 7 23 1 24 2 25 3 26 4 27 6 28 5 29 24 30 25 31 26 32 27 33
REMARK SMILES IDX 28 34 29 35 81 36 30 37 80 38 31 39 32 40 33 41 74 42 34 43
REMARK SMILES IDX 79 44 73 45 75 46 35 47 78 48 72 49 71 50 36 52 62 53 45 54
REMARK SMILES IDX 61 55 46 56 49 57 60 58 76 59 47 60 48 61 59 63 77 64 50 65
REMARK SMILES IDX 37 66 38 67 43 68 39 69 40 70 42 71 44 72 41 73 63 74 64 75
REMARK SMILES IDX 69 76 65 77 66 78 68 79 70 80 67 81 51 82 52 83 57 84 53 85
REMARK SMILES IDX 54 86 56 87 58 88 55 89
REMARK H PARENT 75 51 49 62
REMARK Flexibility Score: inf
ROOT
ATOM      1  C   UNL A   1      32.054  29.200  24.503  1.00  0.00     0.202 C 
ENDROOT
BRANCH   1   2
ATOM      2  O   UNL A   1      33.253  29.233  23.777  1.00  0.00    -0.374 OA
BRANCH   2   3
ATOM      3  C   UNL A   1      33.919  27.992  23.636  1.00  0.00     0.202 C 
BRANCH   3   4
ATOM      4  C   UNL A   1      33.644  27.665  22.220  1.00  0.00     0.261 C 
BRANCH   4   5
ATOM      5  O   UNL A   1      33.873  26.267  21.964  1.00  0.00    -0.460 OA
BRANCH   5   6
ATOM      6  C   UNL A   1      33.084  25.515  21.152  1.00  0.00     0.338 C 
ATOM      7  O   UNL A   1      32.835  25.685  19.988  1.00  0.00    -0.246 OA
BRANCH   6   8
ATOM      8  C   UNL A   1      32.522  24.414  21.991  1.00  0.00     0.068 A 
ATOM      9  N   UNL A   1      32.475  22.379  26.128  1.00  0.00    -0.242 N 
ATOM     10  C   UNL A   1      31.456  23.250  26.450  1.00  0.00     0.265 C 
ATOM     11  C   UNL A   1      32.129  21.582  25.040  1.00  0.00     0.265 C 
ATOM     12  O   UNL A   1      31.022  23.453  27.577  1.00  0.00    -0.268 OA
ATOM     13  C   UNL A   1      30.892  23.977  25.266  1.00  0.00     0.049 A 
ATOM     14  C   UNL A   1      32.093  22.424  23.821  1.00  0.00     0.049 A 
ATOM     15  O   UNL A   1      31.844  20.398  25.028  1.00  0.00    -0.268 OA
ATOM     16  C   UNL A   1      30.136  25.122  25.483  1.00  0.00     0.014 A 
ATOM     17  C   UNL A   1      31.469  23.670  24.014  1.00  0.00     0.008 A 
ATOM     18  C   UNL A   1      32.872  22.125  22.709  1.00  0.00     0.015 A 
ATOM     19  C   UNL A   1      30.064  26.047  24.466  1.00  0.00     0.002 A 
ATOM     20  C   UNL A   1      31.568  24.660  23.043  1.00  0.00    -0.002 A 
ATOM     21  C   UNL A   1      33.117  23.149  21.803  1.00  0.00     0.017 A 
ATOM     22  C   UNL A   1      30.794  25.835  23.293  1.00  0.00     0.010 A 
BRANCH   9  23
ATOM     23  C   UNL A   1      33.876  22.787  26.065  1.00  0.00     0.055 A 
ATOM     24  C   UNL A   1      33.647  25.406  26.020  1.00  0.00     0.046 C 
ATOM     25  C   UNL A   1      34.370  24.099  25.845  1.00  0.00    -0.027 A 
ATOM     26  C   UNL A   1      35.663  24.233  25.280  1.00  0.00     0.005 A 
ATOM     27  C   UNL A   1      36.479  23.134  25.024  1.00  0.00     0.000 A 
ATOM     28  C   UNL A   1      34.770  21.702  25.901  1.00  0.00     0.027 A 
ATOM     29  C   UNL A   1      36.048  21.868  25.378  1.00  0.00     0.002 A 
ENDBRANCH   9  23
ENDBRANCH   6   8
ENDBRANCH   5   6
ENDBRANCH   4   5
ENDBRANCH   3   4
ENDBRANCH   2   3
ENDBRANCH   1   2
BRANCH   1  30
ATOM     30  C   UNL A   1      32.177  29.999  25.800  1.00  0.00     0.261 C 
BRANCH  30  31
ATOM     31  O   UNL A   1      33.570  30.119  26.175  1.00  0.00    -0.460 OA
BRANCH  31  32
ATOM     32  C   UNL A   1      34.006  29.291  27.171  1.00  0.00     0.338 C 
ATOM     33  O   UNL A   1      33.379  28.353  27.633  1.00  0.00    -0.246 OA
BRANCH  32  34
ATOM     34  C   UNL A   1      35.220  29.869  27.823  1.00  0.00     0.060 A 
ATOM     35  C   UNL A   1      36.314  30.286  27.036  1.00  0.00     0.016 A 
ATOM     36  C   UNL A   1      35.392  29.639  29.184  1.00  0.00     0.016 A 
ATOM     37  C   UNL A   1      37.604  30.305  27.582  1.00  0.00     0.010 A 
ATOM     38  C   UNL A   1      36.673  29.496  29.662  1.00  0.00     0.010 A 
ATOM     39  C   UNL A   1      37.784  29.814  28.868  1.00  0.00    -0.014 A 
BRANCH  39  40
ATOM     40  C   UNL A   1      39.071  29.560  29.509  1.00  0.00     0.031 A 
ATOM     41  C   UNL A   1      39.733  28.291  29.168  1.00  0.00     0.074 A 
ATOM     42  C   UNL A   1      39.710  30.544  30.183  1.00  0.00     0.049 A 
ATOM     43  N   UNL A   1      40.631  27.728  29.895  1.00  0.00    -0.248 NA
ATOM     44  C   UNL A   1      39.347  27.466  28.020  1.00  0.00     0.031 C 
ATOM     45  C   UNL A   1      41.132  30.724  30.458  1.00  0.00     0.029 A 
ATOM     46  N   UNL A   1      39.152  31.691  30.747  1.00  0.00    -0.354 N 
ATOM     47  C   UNL A   1      41.210  26.760  29.104  1.00  0.00     0.074 A 
ATOM     48  C   UNL A   1      40.220  26.465  28.111  1.00  0.00     0.031 C 
ATOM     49  C   UNL A   1      41.291  31.711  31.368  1.00  0.00     0.029 A 
ATOM     50  C   UNL A   1      39.958  32.128  31.793  1.00  0.00     0.049 A 
ATOM     51  H   UNL A   1      38.318  32.124  30.452  1.00  0.00     0.167 HD
ATOM     52  C   UNL A   1      42.550  26.536  29.230  1.00  0.00     0.037 A 
ATOM     53  C   UNL A   1      39.453  32.257  33.047  1.00  0.00     0.037 A 
ATOM     54  C   UNL A   1      43.096  27.403  30.304  1.00  0.00     0.049 A 
ATOM     55  C   UNL A   1      40.215  31.246  33.839  1.00  0.00     0.074 A 
ATOM     56  C   UNL A   1      43.946  28.499  30.296  1.00  0.00     0.029 A 
ATOM     57  N   UNL A   1      42.491  27.409  31.569  1.00  0.00    -0.354 N 
ATOM     58  N   UNL A   1      40.580  30.088  33.344  1.00  0.00    -0.248 NA
ATOM     59  C   UNL A   1      40.868  31.586  35.097  1.00  0.00     0.031 C 
ATOM     60  C   UNL A   1      43.819  29.172  31.550  1.00  0.00     0.029 A 
ATOM     61  C   UNL A   1      42.883  28.499  32.327  1.00  0.00     0.049 A 
ATOM     62  H   UNL A   1      41.861  26.720  31.882  1.00  0.00     0.167 HD
ATOM     63  C   UNL A   1      41.628  29.631  34.088  1.00  0.00     0.074 A 
ATOM     64  C   UNL A   1      41.732  30.565  35.205  1.00  0.00     0.031 C 
ATOM     65  C   UNL A   1      42.475  28.627  33.723  1.00  0.00     0.037 A 
BRANCH  52  66
ATOM     66  C   UNL A   1      43.411  25.794  28.200  1.00  0.00     0.057 A 
ATOM     67  C   UNL A   1      44.099  24.618  28.563  1.00  0.00     0.134 A 
ATOM     68  C   UNL A   1      43.636  26.165  26.854  1.00  0.00     0.134 A 
ATOM     69  F   UNL A   1      43.953  24.066  29.773  1.00  0.00    -0.206 F 
ATOM     70  C   UNL A   1      44.965  23.924  27.697  1.00  0.00     0.040 A 
ATOM     71  C   UNL A   1      44.513  25.494  25.984  1.00  0.00     0.040 A 
ATOM     72  F   UNL A   1      42.997  27.168  26.256  1.00  0.00    -0.206 F 
ATOM     73  C   UNL A   1      45.188  24.368  26.404  1.00  0.00     0.006 A 
ENDBRANCH  52  66
BRANCH  53  74
ATOM     74  C   UNL A   1      37.998  32.619  33.078  1.00  0.00     0.057 A 
ATOM     75  C   UNL A   1      37.641  33.973  32.911  1.00  0.00     0.134 A 
ATOM     76  C   UNL A   1      36.988  31.693  32.804  1.00  0.00     0.134 A 
ATOM     77  F   UNL A   1      38.525  34.935  33.207  1.00  0.00    -0.206 F 
ATOM     78  C   UNL A   1      36.424  34.379  32.339  1.00  0.00     0.040 A 
ATOM     79  C   UNL A   1      35.763  32.084  32.233  1.00  0.00     0.040 A 
ATOM     80  F   UNL A   1      37.211  30.382  32.961  1.00  0.00    -0.206 F 
ATOM     81  C   UNL A   1      35.498  33.422  31.946  1.00  0.00     0.006 A 
ENDBRANCH  53  74
BRANCH  65  82
ATOM     82  C   UNL A   1      43.019  27.667  34.746  1.00  0.00     0.057 A 
ATOM     83  C   UNL A   1      44.243  27.850  35.410  1.00  0.00     0.134 A 
ATOM     84  C   UNL A   1      42.215  26.623  35.248  1.00  0.00     0.134 A 
ATOM     85  F   UNL A   1      45.067  28.869  35.130  1.00  0.00    -0.206 F 
ATOM     86  C   UNL A   1      44.663  27.021  36.450  1.00  0.00     0.040 A 
ATOM     87  C   UNL A   1      42.593  25.838  36.336  1.00  0.00     0.040 A 
ATOM     88  F   UNL A   1      41.006  26.339  34.745  1.00  0.00    -0.206 F 
ATOM     89  C   UNL A   1      43.830  26.022  36.927  1.00  0.00     0.006 A 
ENDBRANCH  65  82
ENDBRANCH  39  40
ENDBRANCH  32  34
ENDBRANCH  31  32
ENDBRANCH  30  31
ENDBRANCH   1  30
TORSDOF 15
ENDMDL
MODEL 2
REMARK VINA RESULT:     -12.6      1.623      2.193
REMARK SMILES Cc1ccccc1N1C(=O)c2cccc3c(C(=O)OCCOCCOC(=O)c4ccc(-c5c6nc(c(-c7c(F)cccc7F)c7ccc([nH]7)c(-c7c(F)cccc7F)c7nc(c(-c8c(F)cccc8F)c8ccc5[nH]8)C=C7)C=C6)cc4)ccc(c23)C1=O
REMARK SMILES IDX 23 1 22 2 21 3 20 4 19 5 17 6 18 7 16 8 8 9 9 10 86 11 10 12
REMARK SMILES IDX 11 13 84 14 87 15 12 16 85 17 83 18 13 19 15 20 82 21 14 22
REMARK SMILES IDX 7 23 1 24 2 25 3 26 4 27 6 28 5 29 24 30 25 31 26 32 27 33
REMARK SMILES IDX 28 34 29 35 81 36 30 37 80 38 31 39 32 40 33 41 74 42 34 43
REMARK SMILES IDX 79 44 73 45 75 46 35 47 78 48 72 49 71 50 36 52 62 53 45 54
REMARK SMILES IDX 61 55 46 56 49 57 60 58 76 59 47 60 48 61 59 63 77 64 50 65
REMARK SMILES IDX 37 66 38 67 43 68 39 69 40 70 42 71 44 72 41 73 63 74 64 75
REMARK SMILES IDX 69 76 65 77 66 78 68 79 70 80 67 81 51 82 52 83 57 84 53 85
REMARK SMILES IDX 54 86 56 87 58 88 55 89
REMARK H PARENT 75 51 49 62
REMARK Flexibility Score: inf
ROOT
ATOM      1  C   UNL A   1      32.811  29.635  25.477  1.00  0.00     0.202 C 
ENDROOT
BRANCH   1   2
ATOM      2  O   UNL A   1      32.962  28.565  24.583  1.00  0.00    -0.374 OA
BRANCH   2   3
ATOM      3  C   UNL A   1      34.059  28.657  23.695  1.00  0.00     0.202 C 
BRANCH   3   4
ATOM      4  C   UNL A   1      33.498  28.061  22.463  1.00  0.00     0.261 C 
BRANCH   4   5
ATOM      5  O   UNL A   1      33.653  26.630  22.472  1.00  0.00    -0.460 OA
BRANCH   5   6
ATOM      6  C   UNL A   1      33.122  25.813  21.524  1.00  0.00     0.338 C 
ATOM      7  O   UNL A   1      33.080  25.979  20.334  1.00  0.00    -0.246 OA
BRANCH   6   8
ATOM      8  C   UNL A   1      32.538  24.639  22.240  1.00  0.00     0.068 A 
ATOM      9  N   UNL A   1      32.278  22.299  26.204  1.00  0.00    -0.242 N 
ATOM     10  C   UNL A   1      31.214  23.118  26.519  1.00  0.00     0.265 C 
ATOM     11  C   UNL A   1      32.028  21.578  25.040  1.00  0.00     0.265 C 
ATOM     12  O   UNL A   1      30.701  23.225  27.625  1.00  0.00    -0.268 OA
ATOM     13  C   UNL A   1      30.708  23.917  25.356  1.00  0.00     0.049 A 
ATOM     14  C   UNL A   1      32.047  22.507  23.886  1.00  0.00     0.049 A 
ATOM     15  O   UNL A   1      31.779  20.391  24.921  1.00  0.00    -0.268 OA
ATOM     16  C   UNL A   1      29.906  25.025  25.603  1.00  0.00     0.014 A 
ATOM     17  C   UNL A   1      31.376  23.719  24.126  1.00  0.00     0.008 A 
ATOM     18  C   UNL A   1      32.906  22.311  22.811  1.00  0.00     0.015 A 
ATOM     19  C   UNL A   1      29.874  26.022  24.654  1.00  0.00     0.002 A 
ATOM     20  C   UNL A   1      31.510  24.782  23.239  1.00  0.00    -0.002 A 
ATOM     21  C   UNL A   1      33.181  23.406  22.001  1.00  0.00     0.017 A 
ATOM     22  C   UNL A   1      30.687  25.916  23.521  1.00  0.00     0.010 A 
BRANCH   9  23
ATOM     23  C   UNL A   1      33.667  22.745  26.266  1.00  0.00     0.055 A 
ATOM     24  C   UNL A   1      33.375  25.355  26.152  1.00  0.00     0.046 C 
ATOM     25  C   UNL A   1      34.145  24.066  26.071  1.00  0.00    -0.027 A 
ATOM     26  C   UNL A   1      35.482  24.228  25.628  1.00  0.00     0.005 A 
ATOM     27  C   UNL A   1      36.347  23.147  25.471  1.00  0.00     0.000 A 
ATOM     28  C   UNL A   1      34.600  21.683  26.208  1.00  0.00     0.027 A 
ATOM     29  C   UNL A   1      35.918  21.875  25.806  1.00  0.00     0.002 A 
ENDBRANCH   9  23
ENDBRANCH   6   8
ENDBRANCH   5   6
ENDBRANCH   4   5
ENDBRANCH   3   4
ENDBRANCH   2   3
ENDBRANCH   1   2
BRANCH   1  30
ATOM     30  C   UNL A   1      33.643  29.416  26.740  1.00  0.00     0.261 C 
BRANCH  30  31
ATOM     31  O   UNL A   1      33.663  30.627  27.533  1.00  0.00    -0.460 OA
BRANCH  31  32
ATOM     32  C   UNL A   1      34.892  31.154  27.810  1.00  0.00     0.338 C 
ATOM     33  O   UNL A   1      35.220  32.315  27.628  1.00  0.00    -0.246 OA
BRANCH  32  34
ATOM     34  C   UNL A   1      35.871  30.058  28.083  1.00  0.00     0.060 A 
ATOM     35  C   UNL A   1      36.112  29.640  29.408  1.00  0.00     0.016 A 
ATOM     36  C   UNL A   1      36.779  29.740  27.079  1.00  0.00     0.016 A 
ATOM     37  C   UNL A   1      37.339  29.056  29.748  1.00  0.00     0.010 A 
ATOM     38  C   UNL A   1      38.037  29.327  27.448  1.00  0.00     0.010 A 
ATOM     39  C   UNL A   1      38.331  28.995  28.778  1.00  0.00    -0.014 A 
BRANCH  39  40
ATOM     40  C   UNL A   1      39.724  28.622  29.009  1.00  0.00     0.031 A 
ATOM     41  C   UNL A   1      40.103  27.247  28.650  1.00  0.00     0.074 A 
ATOM     42  C   UNL A   1      40.646  29.565  29.310  1.00  0.00     0.049 A 
ATOM     43  N   UNL A   1      41.127  26.633  29.126  1.00  0.00    -0.248 NA
ATOM     44  C   UNL A   1      39.278  26.381  27.803  1.00  0.00     0.031 C 
ATOM     45  C   UNL A   1      42.091  29.568  29.098  1.00  0.00     0.029 A 
ATOM     46  N   UNL A   1      40.427  30.827  29.863  1.00  0.00    -0.354 N 
ATOM     47  C   UNL A   1      41.310  25.524  28.329  1.00  0.00     0.074 A 
ATOM     48  C   UNL A   1      40.023  25.280  27.747  1.00  0.00     0.031 C 
ATOM     49  C   UNL A   1      42.641  30.602  29.771  1.00  0.00     0.029 A 
ATOM     50  C   UNL A   1      41.572  31.241  30.534  1.00  0.00     0.049 A 
ATOM     51  H   UNL A   1      39.591  31.344  29.790  1.00  0.00     0.167 HD
ATOM     52  C   UNL A   1      42.586  25.126  28.056  1.00  0.00     0.037 A 
ATOM     53  C   UNL A   1      41.524  31.555  31.855  1.00  0.00     0.037 A 
ATOM     54  C   UNL A   1      43.542  26.003  28.778  1.00  0.00     0.049 A 
ATOM     55  C   UNL A   1      42.396  30.525  32.495  1.00  0.00     0.074 A 
ATOM     56  C   UNL A   1      44.449  26.963  28.358  1.00  0.00     0.029 A 
ATOM     57  N   UNL A   1      43.390  26.212  30.157  1.00  0.00    -0.354 N 
ATOM     58  N   UNL A   1      42.456  29.286  32.069  1.00  0.00    -0.248 NA
ATOM     59  C   UNL A   1      43.457  30.885  33.426  1.00  0.00     0.031 C 
ATOM     60  C   UNL A   1      44.812  27.761  29.487  1.00  0.00     0.029 A 
ATOM     61  C   UNL A   1      44.120  27.301  30.600  1.00  0.00     0.049 A 
ATOM     62  H   UNL A   1      42.830  25.650  30.740  1.00  0.00     0.167 HD
ATOM     63  C   UNL A   1      43.637  28.758  32.500  1.00  0.00     0.074 A 
ATOM     64  C   UNL A   1      44.198  29.767  33.392  1.00  0.00     0.031 C 
ATOM     65  C   UNL A   1      44.209  27.615  32.024  1.00  0.00     0.037 A 
BRANCH  52  66
ATOM     66  C   UNL A   1      42.979  24.178  26.916  1.00  0.00     0.057 A 
ATOM     67  C   UNL A   1      43.014  22.785  27.129  1.00  0.00     0.134 A 
ATOM     68  C   UNL A   1      43.354  24.538  25.601  1.00  0.00     0.134 A 
ATOM     69  F   UNL A   1      42.621  22.243  28.289  1.00  0.00    -0.206 F 
ATOM     70  C   UNL A   1      43.435  21.858  26.157  1.00  0.00     0.040 A 
ATOM     71  C   UNL A   1      43.795  23.627  24.626  1.00  0.00     0.040 A 
ATOM     72  F   UNL A   1      43.278  25.782  25.135  1.00  0.00    -0.206 F 
ATOM     73  C   UNL A   1      43.842  22.277  24.901  1.00  0.00     0.006 A 
ENDBRANCH  52  66
BRANCH  53  74
ATOM     74  C   UNL A   1      40.205  32.120  32.293  1.00  0.00     0.057 A 
ATOM     75  C   UNL A   1      39.952  33.488  32.059  1.00  0.00     0.134 A 
ATOM     76  C   UNL A   1      39.074  31.323  32.485  1.00  0.00     0.134 A 
ATOM     77  F   UNL A   1      40.976  34.340  31.923  1.00  0.00    -0.206 F 
ATOM     78  C   UNL A   1      38.661  34.002  31.851  1.00  0.00     0.040 A 
ATOM     79  C   UNL A   1      37.775  31.823  32.281  1.00  0.00     0.040 A 
ATOM     80  F   UNL A   1      39.203  30.015  32.745  1.00  0.00    -0.206 F 
ATOM     81  C   UNL A   1      37.566  33.150  31.908  1.00  0.00     0.006 A 
ENDBRANCH  53  74
BRANCH  65  82
ATOM     82  C   UNL A   1      44.956  26.686  32.942  1.00  0.00     0.057 A 
ATOM     83  C   UNL A   1      44.329  25.850  33.881  1.00  0.00     0.134 A 
ATOM     84  C   UNL A   1      46.335  26.453  32.758  1.00  0.00     0.134 A 
ATOM     85  F   UNL A   1      43.005  25.867  34.087  1.00  0.00    -0.206 F 
ATOM     86  C   UNL A   1      45.029  24.901  34.625  1.00  0.00     0.040 A 
ATOM     87  C   UNL A   1      47.027  25.455  33.441  1.00  0.00     0.040 A 
ATOM     88  F   UNL A   1      47.071  27.143  31.877  1.00  0.00    -0.206 F 
ATOM     89  C   UNL A   1      46.379  24.689  34.393  1.00  0.00     0.006 A 
ENDBRANCH  65  82
ENDBRANCH  39  40
ENDBRANCH  32  34
ENDBRANCH  31  32
ENDBRANCH  30  31
ENDBRANCH   1  30
TORSDOF 15
ENDMDL
MODEL 3
REMARK VINA RESULT:     -12.5      2.801      8.135
REMARK SMILES Cc1ccccc1N1C(=O)c2cccc3c(C(=O)OCCOCCOC(=O)c4ccc(-c5c6nc(c(-c7c(F)cccc7F)c7ccc([nH]7)c(-c7c(F)cccc7F)c7nc(c(-c8c(F)cccc8F)c8ccc5[nH]8)C=C7)C=C6)cc4)ccc(c23)C1=O
REMARK SMILES IDX 23 1 22 2 21 3 20 4 19 5 17 6 18 7 16 8 8 9 9 10 86 11 10 12
REMARK SMILES IDX 11 13 84 14 87 15 12 16 85 17 83 18 13 19 15 20 82 21 14 22
REMARK SMILES IDX 7 23 1 24 2 25 3 26 4 27 6 28 5 29 24 30 25 31 26 32 27 33
REMARK SMILES IDX 28 34 29 35 81 36 30 37 80 38 31 39 32 40 33 41 74 42 34 43
REMARK SMILES IDX 79 44 73 45 75 46 35 47 78 48 72 49 71 50 36 52 62 53 45 54
REMARK SMILES IDX 61 55 46 56 49 57 60 58 76 59 47 60 48 61 59 63 77 64 50 65
REMARK SMILES IDX 37 66 38 67 43 68 39 69 40 70 42 71 44 72 41 73 63 74 64 75
REMARK SMILES IDX 69 76 65 77 66 78 68 79 70 80 67 81 51 82 52 83 57 84 53 85
REMARK SMILES IDX 54 86 56 87 58 88 55 89
REMARK H PARENT 75 51 49 62
REMARK Flexibility Score: inf
ROOT
ATOM      1  C   UNL A   1      35.252  21.196  26.069  1.00  0.00     0.202 C 
ENDROOT
BRANCH   1   2
ATOM      2  O   UNL A   1      34.360  22.278  26.037  1.00  0.00    -0.374 OA
BRANCH   2   3
ATOM      3  C   UNL A   1      34.154  22.939  27.271  1.00  0.00     0.202 C 
BRANCH   3   4
ATOM      4  C   UNL A   1      32.743  22.602  27.559  1.00  0.00     0.261 C 
BRANCH   4   5
ATOM      5  O   UNL A   1      31.884  23.726  27.296  1.00  0.00    -0.460 OA
BRANCH   5   6
ATOM      6  C   UNL A   1      30.577  23.605  26.943  1.00  0.00     0.338 C 
ATOM      7  O   UNL A   1      29.710  22.984  27.497  1.00  0.00    -0.246 OA
BRANCH   6   8
ATOM      8  C   UNL A   1      30.396  24.376  25.677  1.00  0.00     0.068 A 
ATOM      9  N   UNL A   1      32.318  27.228  22.607  1.00  0.00    -0.242 N 
ATOM     10  C   UNL A   1      32.743  26.095  21.947  1.00  0.00     0.265 C 
ATOM     11  C   UNL A   1      30.930  27.263  22.702  1.00  0.00     0.265 C 
ATOM     12  O   UNL A   1      33.572  26.063  21.046  1.00  0.00    -0.268 OA
ATOM     13  C   UNL A   1      32.095  24.836  22.440  1.00  0.00     0.049 A 
ATOM     14  C   UNL A   1      30.487  26.213  23.649  1.00  0.00     0.049 A 
ATOM     15  O   UNL A   1      30.146  27.975  22.100  1.00  0.00    -0.268 OA
ATOM     16  C   UNL A   1      32.682  23.615  22.130  1.00  0.00     0.014 A 
ATOM     17  C   UNL A   1      31.156  24.987  23.485  1.00  0.00     0.008 A 
ATOM     18  C   UNL A   1      29.723  26.521  24.768  1.00  0.00     0.015 A 
ATOM     19  C   UNL A   1      32.428  22.549  22.963  1.00  0.00     0.002 A 
ATOM     20  C   UNL A   1      31.029  23.986  24.443  1.00  0.00    -0.002 A 
ATOM     21  C   UNL A   1      29.710  25.602  25.809  1.00  0.00     0.017 A 
ATOM     22  C   UNL A   1      31.653  22.745  24.109  1.00  0.00     0.010 A 
BRANCH   9  23
ATOM     23  C   UNL A   1      32.948  27.716  23.831  1.00  0.00     0.055 A 
ATOM     24  C   UNL A   1      34.276  25.585  24.610  1.00  0.00     0.046 C 
ATOM     25  C   UNL A   1      33.658  26.945  24.787  1.00  0.00    -0.027 A 
ATOM     26  C   UNL A   1      33.716  27.428  26.117  1.00  0.00     0.005 A 
ATOM     27  C   UNL A   1      33.181  28.661  26.482  1.00  0.00     0.000 A 
ATOM     28  C   UNL A   1      32.517  29.010  24.207  1.00  0.00     0.027 A 
ATOM     29  C   UNL A   1      32.619  29.475  25.514  1.00  0.00     0.002 A 
ENDBRANCH   9  23
ENDBRANCH   6   8
ENDBRANCH   5   6
ENDBRANCH   4   5
ENDBRANCH   3   4
ENDBRANCH   2   3
ENDBRANCH   1   2
BRANCH   1  30
ATOM     30  C   UNL A   1      36.429  21.429  25.121  1.00  0.00     0.261 C 
BRANCH  30  31
ATOM     31  O   UNL A   1      37.515  22.069  25.833  1.00  0.00    -0.460 OA
BRANCH  31  32
ATOM     32  C   UNL A   1      37.661  23.413  25.642  1.00  0.00     0.338 C 
ATOM     33  O   UNL A   1      37.107  24.066  24.772  1.00  0.00    -0.246 OA
BRANCH  32  34
ATOM     34  C   UNL A   1      38.814  23.924  26.444  1.00  0.00     0.060 A 
ATOM     35  C   UNL A   1      38.700  24.052  27.843  1.00  0.00     0.016 A 
ATOM     36  C   UNL A   1      39.820  24.603  25.765  1.00  0.00     0.016 A 
ATOM     37  C   UNL A   1      39.484  24.987  28.529  1.00  0.00     0.010 A 
ATOM     38  C   UNL A   1      40.461  25.632  26.413  1.00  0.00     0.010 A 
ATOM     39  C   UNL A   1      40.292  25.840  27.789  1.00  0.00    -0.014 A 
BRANCH  39  40
ATOM     40  C   UNL A   1      41.004  27.003  28.311  1.00  0.00     0.031 A 
ATOM     41  C   UNL A   1      40.195  28.203  28.574  1.00  0.00     0.074 A 
ATOM     42  C   UNL A   1      42.281  26.890  28.744  1.00  0.00     0.049 A 
ATOM     43  N   UNL A   1      40.673  29.393  28.651  1.00  0.00    -0.248 NA
ATOM     44  C   UNL A   1      38.732  28.184  28.653  1.00  0.00     0.031 C 
ATOM     45  C   UNL A   1      43.016  27.688  29.721  1.00  0.00     0.029 A 
ATOM     46  N   UNL A   1      43.217  25.917  28.393  1.00  0.00    -0.354 N 
ATOM     47  C   UNL A   1      39.680  30.169  29.207  1.00  0.00     0.074 A 
ATOM     48  C   UNL A   1      38.466  29.461  28.921  1.00  0.00     0.031 C 
ATOM     49  C   UNL A   1      44.329  27.373  29.661  1.00  0.00     0.029 A 
ATOM     50  C   UNL A   1      44.499  26.432  28.557  1.00  0.00     0.049 A 
ATOM     51  H   UNL A   1      43.004  25.009  28.077  1.00  0.00     0.167 HD
ATOM     52  C   UNL A   1      40.038  31.163  30.070  1.00  0.00     0.037 A 
ATOM     53  C   UNL A   1      45.365  26.475  27.513  1.00  0.00     0.037 A 
ATOM     54  C   UNL A   1      41.519  31.219  30.168  1.00  0.00     0.049 A 
ATOM     55  C   UNL A   1      45.588  27.936  27.299  1.00  0.00     0.074 A 
ATOM     56  C   UNL A   1      42.413  30.912  31.182  1.00  0.00     0.029 A 
ATOM     57  N   UNL A   1      42.291  31.297  28.999  1.00  0.00    -0.354 N 
ATOM     58  N   UNL A   1      44.640  28.827  27.462  1.00  0.00    -0.248 NA
ATOM     59  C   UNL A   1      46.925  28.504  27.196  1.00  0.00     0.031 C 
ATOM     60  C   UNL A   1      43.714  30.778  30.605  1.00  0.00     0.029 A 
ATOM     61  C   UNL A   1      43.620  30.991  29.236  1.00  0.00     0.049 A 
ATOM     62  H   UNL A   1      41.931  31.540  28.116  1.00  0.00     0.167 HD
ATOM     63  C   UNL A   1      45.239  30.033  27.678  1.00  0.00     0.074 A 
ATOM     64  C   UNL A   1      46.659  29.796  27.441  1.00  0.00     0.031 C 
ATOM     65  C   UNL A   1      44.622  31.140  28.183  1.00  0.00     0.037 A 
BRANCH  52  66
ATOM     66  C   UNL A   1      39.083  31.855  31.049  1.00  0.00     0.057 A 
ATOM     67  C   UNL A   1      38.252  32.906  30.610  1.00  0.00     0.134 A 
ATOM     68  C   UNL A   1      38.926  31.575  32.426  1.00  0.00     0.134 A 
ATOM     69  F   UNL A   1      38.202  33.269  29.322  1.00  0.00    -0.206 F 
ATOM     70  C   UNL A   1      37.405  33.638  31.463  1.00  0.00     0.040 A 
ATOM     71  C   UNL A   1      38.100  32.310  33.295  1.00  0.00     0.040 A 
ATOM     72  F   UNL A   1      39.514  30.548  33.035  1.00  0.00    -0.206 F 
ATOM     73  C   UNL A   1      37.335  33.352  32.816  1.00  0.00     0.006 A 
ENDBRANCH  52  66
BRANCH  53  74
ATOM     74  C   UNL A   1      45.171  25.366  26.521  1.00  0.00     0.057 A 
ATOM     75  C   UNL A   1      45.670  24.086  26.841  1.00  0.00     0.134 A 
ATOM     76  C   UNL A   1      44.165  25.394  25.551  1.00  0.00     0.134 A 
ATOM     77  F   UNL A   1      46.677  23.964  27.716  1.00  0.00    -0.206 F 
ATOM     78  C   UNL A   1      45.091  22.898  26.366  1.00  0.00     0.040 A 
ATOM     79  C   UNL A   1      43.576  24.213  25.065  1.00  0.00     0.040 A 
ATOM     80  F   UNL A   1      43.643  26.561  25.151  1.00  0.00    -0.206 F 
ATOM     81  C   UNL A   1      43.997  22.962  25.512  1.00  0.00     0.006 A 
ENDBRANCH  53  74
BRANCH  65  82
ATOM     82  C   UNL A   1      44.982  32.515  27.692  1.00  0.00     0.057 A 
ATOM     83  C   UNL A   1      44.491  33.067  26.496  1.00  0.00     0.134 A 
ATOM     84  C   UNL A   1      45.679  33.415  28.525  1.00  0.00     0.134 A 
ATOM     85  F   UNL A   1      43.712  32.376  25.653  1.00  0.00    -0.206 F 
ATOM     86  C   UNL A   1      44.729  34.391  26.129  1.00  0.00     0.040 A 
ATOM     87  C   UNL A   1      45.854  34.759  28.202  1.00  0.00     0.040 A 
ATOM     88  F   UNL A   1      46.182  33.054  29.713  1.00  0.00    -0.206 F 
ATOM     89  C   UNL A   1      45.397  35.246  26.991  1.00  0.00     0.006 A 
ENDBRANCH  65  82
ENDBRANCH  39  40
ENDBRANCH  32  34
ENDBRANCH  31  32
ENDBRANCH  30  31
ENDBRANCH   1  30
TORSDOF 15
ENDMDL
