MODEL 1
REMARK VINA RESULT:      -9.8      0.000      0.000
REMARK SMILES N#Cc1ccc(F)cc1C(=O)OCCOCCOC(=O)c1ccc(-c2c3nc(c(-c4c(F)cccc4F)c4ccc([nH]4)c(-c4c(F)cccc4F)c4nc(c(-c5c(F)cccc5F)c5ccc2[nH]5)C=C4)C=C3)cc1
REMARK SMILES IDX 16 1 15 2 14 3 13 4 12 5 10 6 11 7 9 8 3 9 4 10 5 11 8 12
REMARK SMILES IDX 6 13 7 14 2 15 1 16 17 17 18 18 19 19 20 20 21 21 22 22
REMARK SMILES IDX 74 23 23 24 73 25 24 26 25 27 26 28 67 29 27 30 72 31 66 32
REMARK SMILES IDX 68 33 28 34 71 35 65 36 64 37 29 39 55 40 38 41 54 42 39 43
REMARK SMILES IDX 42 44 53 45 69 46 40 47 41 48 52 50 70 51 43 52 30 53 31 54
REMARK SMILES IDX 36 55 32 56 33 57 35 58 37 59 34 60 56 61 57 62 62 63 58 64
REMARK SMILES IDX 59 65 61 66 63 67 60 68 44 69 45 70 50 71 46 72 47 73 49 74
REMARK SMILES IDX 51 75 48 76
REMARK H PARENT 68 38 42 49
REMARK Flexibility Score: inf
ROOT
ATOM      1  C   UNL A   1      34.964  34.638  32.795  1.00  0.00     0.202 C 
ENDROOT
BRANCH   1   2
ATOM      2  O   UNL A   1      34.887  35.033  31.428  1.00  0.00    -0.374 OA
BRANCH   2   3
ATOM      3  C   UNL A   1      33.603  35.292  30.864  1.00  0.00     0.202 C 
BRANCH   3   4
ATOM      4  C   UNL A   1      33.330  34.790  29.443  1.00  0.00     0.261 C 
BRANCH   4   5
ATOM      5  O   UNL A   1      33.790  33.442  29.267  1.00  0.00    -0.460 OA
BRANCH   5   6
ATOM      6  C   UNL A   1      34.405  33.190  28.091  1.00  0.00     0.339 C 
ATOM      7  O   UNL A   1      35.010  33.987  27.394  1.00  0.00    -0.246 OA
BRANCH   6   8
ATOM      8  C   UNL A   1      34.441  31.732  27.831  1.00  0.00     0.080 A 
ATOM      9  C   UNL A   1      33.395  31.000  27.246  1.00  0.00     0.067 A 
ATOM     10  C   UNL A   1      33.568  29.622  27.025  1.00  0.00     0.023 A 
ATOM     11  C   UNL A   1      34.747  28.980  27.414  1.00  0.00     0.040 A 
ATOM     12  C   UNL A   1      35.616  31.076  28.235  1.00  0.00     0.056 A 
ATOM     13  C   UNL A   1      35.753  29.711  28.032  1.00  0.00     0.124 A 
ATOM     14  F   UNL A   1      36.865  29.090  28.443  1.00  0.00    -0.207 F 
BRANCH   9  15
ATOM     15  C   UNL A   1      32.147  31.595  26.868  1.00  0.00     0.100 C 
ATOM     16  N   UNL A   1      31.146  32.111  26.584  1.00  0.00    -0.192 NA
ENDBRANCH   9  15
ENDBRANCH   6   8
ENDBRANCH   5   6
ENDBRANCH   4   5
ENDBRANCH   3   4
ENDBRANCH   2   3
ENDBRANCH   1   2
BRANCH   1  17
ATOM     17  C   UNL A   1      34.411  33.263  33.201  1.00  0.00     0.261 C 
BRANCH  17  18
ATOM     18  O   UNL A   1      35.306  32.181  32.901  1.00  0.00    -0.460 OA
BRANCH  18  19
ATOM     19  C   UNL A   1      36.517  32.256  33.510  1.00  0.00     0.338 C 
ATOM     20  O   UNL A   1      36.748  32.589  34.660  1.00  0.00    -0.246 OA
BRANCH  19  21
ATOM     21  C   UNL A   1      37.537  31.672  32.620  1.00  0.00     0.060 A 
ATOM     22  C   UNL A   1      37.454  31.826  31.237  1.00  0.00     0.016 A 
ATOM     23  C   UNL A   1      38.608  30.976  33.198  1.00  0.00     0.016 A 
ATOM     24  C   UNL A   1      38.462  31.294  30.431  1.00  0.00     0.010 A 
ATOM     25  C   UNL A   1      39.615  30.448  32.390  1.00  0.00     0.010 A 
ATOM     26  C   UNL A   1      39.559  30.620  31.000  1.00  0.00    -0.014 A 
BRANCH  26  27
ATOM     27  C   UNL A   1      40.693  30.200  30.139  1.00  0.00     0.031 A 
ATOM     28  C   UNL A   1      41.820  31.133  29.814  1.00  0.00     0.074 A 
ATOM     29  C   UNL A   1      40.694  28.946  29.648  1.00  0.00     0.049 A 
ATOM     30  N   UNL A   1      42.919  30.893  29.141  1.00  0.00    -0.248 NA
ATOM     31  C   UNL A   1      41.700  32.514  30.300  1.00  0.00     0.031 C 
ATOM     32  C   UNL A   1      39.635  27.959  29.864  1.00  0.00     0.029 A 
ATOM     33  N   UNL A   1      41.619  28.284  28.883  1.00  0.00    -0.354 N 
ATOM     34  C   UNL A   1      43.631  32.084  29.139  1.00  0.00     0.074 A 
ATOM     35  C   UNL A   1      42.810  33.062  29.824  1.00  0.00     0.031 C 
ATOM     36  C   UNL A   1      39.991  26.802  29.284  1.00  0.00     0.029 A 
ATOM     37  C   UNL A   1      41.278  26.979  28.620  1.00  0.00     0.049 A 
ATOM     38  H   UNL A   1      42.447  28.702  28.554  1.00  0.00     0.167 HD
ATOM     39  C   UNL A   1      44.865  32.334  28.630  1.00  0.00     0.037 A 
ATOM     40  C   UNL A   1      41.928  26.032  27.920  1.00  0.00     0.037 A 
ATOM     41  C   UNL A   1      45.665  31.363  27.924  1.00  0.00     0.049 A 
ATOM     42  C   UNL A   1      43.260  26.360  27.303  1.00  0.00     0.074 A 
ATOM     43  C   UNL A   1      46.936  31.514  27.395  1.00  0.00     0.029 A 
ATOM     44  N   UNL A   1      45.265  30.069  27.627  1.00  0.00    -0.354 N 
ATOM     45  N   UNL A   1      43.958  27.468  27.374  1.00  0.00    -0.248 NA
ATOM     46  C   UNL A   1      43.896  25.299  26.510  1.00  0.00     0.031 C 
ATOM     47  C   UNL A   1      47.275  30.337  26.719  1.00  0.00     0.029 A 
ATOM     48  C   UNL A   1      46.248  29.424  26.890  1.00  0.00     0.049 A 
ATOM     49  H   UNL A   1      44.409  29.667  27.899  1.00  0.00     0.167 HD
ATOM     50  C   UNL A   1      45.126  27.227  26.661  1.00  0.00     0.074 A 
ATOM     51  C   UNL A   1      45.053  25.859  26.189  1.00  0.00     0.031 C 
ATOM     52  C   UNL A   1      46.166  28.063  26.417  1.00  0.00     0.037 A 
BRANCH  39  53
ATOM     53  C   UNL A   1      45.415  33.721  28.810  1.00  0.00     0.057 A 
ATOM     54  C   UNL A   1      46.019  34.104  30.015  1.00  0.00     0.134 A 
ATOM     55  C   UNL A   1      45.327  34.689  27.800  1.00  0.00     0.134 A 
ATOM     56  F   UNL A   1      46.122  33.237  31.033  1.00  0.00    -0.206 F 
ATOM     57  C   UNL A   1      46.525  35.393  30.203  1.00  0.00     0.040 A 
ATOM     58  C   UNL A   1      45.860  35.969  27.963  1.00  0.00     0.040 A 
ATOM     59  F   UNL A   1      44.759  34.393  26.621  1.00  0.00    -0.206 F 
ATOM     60  C   UNL A   1      46.458  36.325  29.170  1.00  0.00     0.006 A 
ENDBRANCH  39  53
BRANCH  40  61
ATOM     61  C   UNL A   1      41.338  24.678  27.761  1.00  0.00     0.057 A 
ATOM     62  C   UNL A   1      40.303  24.437  26.849  1.00  0.00     0.134 A 
ATOM     63  C   UNL A   1      41.828  23.582  28.483  1.00  0.00     0.134 A 
ATOM     64  F   UNL A   1      39.783  25.444  26.132  1.00  0.00    -0.206 F 
ATOM     65  C   UNL A   1      39.780  23.157  26.658  1.00  0.00     0.040 A 
ATOM     66  C   UNL A   1      41.337  22.293  28.277  1.00  0.00     0.040 A 
ATOM     67  F   UNL A   1      42.829  23.746  29.360  1.00  0.00    -0.206 F 
ATOM     68  C   UNL A   1      40.308  22.079  27.363  1.00  0.00     0.006 A 
ENDBRANCH  40  61
BRANCH  52  69
ATOM     69  C   UNL A   1      47.323  27.506  25.633  1.00  0.00     0.057 A 
ATOM     70  C   UNL A   1      48.383  26.864  26.288  1.00  0.00     0.134 A 
ATOM     71  C   UNL A   1      47.394  27.602  24.238  1.00  0.00     0.134 A 
ATOM     72  F   UNL A   1      48.389  26.744  27.624  1.00  0.00    -0.206 F 
ATOM     73  C   UNL A   1      49.466  26.336  25.583  1.00  0.00     0.040 A 
ATOM     74  C   UNL A   1      48.455  27.044  23.519  1.00  0.00     0.040 A 
ATOM     75  F   UNL A   1      46.408  28.192  23.544  1.00  0.00    -0.206 F 
ATOM     76  C   UNL A   1      49.497  26.413  24.193  1.00  0.00     0.006 A 
ENDBRANCH  52  69
ENDBRANCH  26  27
ENDBRANCH  19  21
ENDBRANCH  18  19
ENDBRANCH  17  18
ENDBRANCH   1  17
TORSDOF 15
ENDMDL
MODEL 2
REMARK VINA RESULT:      -9.6      4.480     10.450
REMARK SMILES N#Cc1ccc(F)cc1C(=O)OCCOCCOC(=O)c1ccc(-c2c3nc(c(-c4c(F)cccc4F)c4ccc([nH]4)c(-c4c(F)cccc4F)c4nc(c(-c5c(F)cccc5F)c5ccc2[nH]5)C=C4)C=C3)cc1
REMARK SMILES IDX 16 1 15 2 14 3 13 4 12 5 10 6 11 7 9 8 3 9 4 10 5 11 8 12
REMARK SMILES IDX 6 13 7 14 2 15 1 16 17 17 18 18 19 19 20 20 21 21 22 22
REMARK SMILES IDX 74 23 23 24 73 25 24 26 25 27 26 28 67 29 27 30 72 31 66 32
REMARK SMILES IDX 68 33 28 34 71 35 65 36 64 37 29 39 55 40 38 41 54 42 39 43
REMARK SMILES IDX 42 44 53 45 69 46 40 47 41 48 52 50 70 51 43 52 30 53 31 54
REMARK SMILES IDX 36 55 32 56 33 57 35 58 37 59 34 60 56 61 57 62 62 63 58 64
REMARK SMILES IDX 59 65 61 66 63 67 60 68 44 69 45 70 50 71 46 72 47 73 49 74
REMARK SMILES IDX 51 75 48 76
REMARK H PARENT 68 38 42 49
REMARK Flexibility Score: inf
ROOT
ATOM      1  C   UNL A   1      42.019  19.361  26.455  1.00  0.00     0.202 C 
ENDROOT
BRANCH   1   2
ATOM      2  O   UNL A   1      42.638  18.687  25.362  1.00  0.00    -0.374 OA
BRANCH   2   3
ATOM      3  C   UNL A   1      44.043  18.839  25.174  1.00  0.00     0.202 C 
BRANCH   3   4
ATOM      4  C   UNL A   1      44.557  20.190  24.667  1.00  0.00     0.261 C 
BRANCH   4   5
ATOM      5  O   UNL A   1      44.921  21.053  25.755  1.00  0.00    -0.460 OA
BRANCH   5   6
ATOM      6  C   UNL A   1      44.440  22.313  25.678  1.00  0.00     0.339 C 
ATOM      7  O   UNL A   1      43.276  22.647  25.536  1.00  0.00    -0.246 OA
BRANCH   6   8
ATOM      8  C   UNL A   1      45.505  23.290  26.008  1.00  0.00     0.080 A 
ATOM      9  C   UNL A   1      45.786  23.757  27.302  1.00  0.00     0.067 A 
ATOM     10  C   UNL A   1      46.846  24.663  27.484  1.00  0.00     0.023 A 
ATOM     11  C   UNL A   1      47.586  25.123  26.392  1.00  0.00     0.040 A 
ATOM     12  C   UNL A   1      46.242  23.771  24.913  1.00  0.00     0.056 A 
ATOM     13  C   UNL A   1      47.264  24.686  25.114  1.00  0.00     0.124 A 
ATOM     14  F   UNL A   1      47.945  25.158  24.062  1.00  0.00    -0.207 F 
BRANCH   9  15
ATOM     15  C   UNL A   1      45.033  23.355  28.454  1.00  0.00     0.100 C 
ATOM     16  N   UNL A   1      44.411  22.994  29.366  1.00  0.00    -0.192 NA
ENDBRANCH   9  15
ENDBRANCH   6   8
ENDBRANCH   5   6
ENDBRANCH   4   5
ENDBRANCH   3   4
ENDBRANCH   2   3
ENDBRANCH   1   2
BRANCH   1  17
ATOM     17  C   UNL A   1      40.638  19.999  26.244  1.00  0.00     0.261 C 
BRANCH  17  18
ATOM     18  O   UNL A   1      40.421  21.164  27.055  1.00  0.00    -0.460 OA
BRANCH  18  19
ATOM     19  C   UNL A   1      39.625  22.110  26.492  1.00  0.00     0.338 C 
ATOM     20  O   UNL A   1      38.666  21.932  25.763  1.00  0.00    -0.246 OA
BRANCH  19  21
ATOM     21  C   UNL A   1      39.971  23.425  27.063  1.00  0.00     0.060 A 
ATOM     22  C   UNL A   1      40.887  23.534  28.108  1.00  0.00     0.016 A 
ATOM     23  C   UNL A   1      39.374  24.568  26.514  1.00  0.00     0.016 A 
ATOM     24  C   UNL A   1      41.221  24.801  28.591  1.00  0.00     0.010 A 
ATOM     25  C   UNL A   1      39.711  25.833  26.998  1.00  0.00     0.010 A 
ATOM     26  C   UNL A   1      40.652  25.959  28.029  1.00  0.00    -0.014 A 
BRANCH  26  27
ATOM     27  C   UNL A   1      41.136  27.297  28.453  1.00  0.00     0.031 A 
ATOM     28  C   UNL A   1      42.577  27.689  28.322  1.00  0.00     0.074 A 
ATOM     29  C   UNL A   1      40.244  28.168  28.962  1.00  0.00     0.049 A 
ATOM     30  N   UNL A   1      43.141  28.845  28.575  1.00  0.00    -0.248 NA
ATOM     31  C   UNL A   1      43.507  26.653  27.854  1.00  0.00     0.031 C 
ATOM     32  C   UNL A   1      38.823  27.889  29.172  1.00  0.00     0.029 A 
ATOM     33  N   UNL A   1      40.396  29.465  29.379  1.00  0.00    -0.354 N 
ATOM     34  C   UNL A   1      44.487  28.683  28.278  1.00  0.00     0.074 A 
ATOM     35  C   UNL A   1      44.664  27.300  27.887  1.00  0.00     0.031 C 
ATOM     36  C   UNL A   1      38.223  28.996  29.636  1.00  0.00     0.029 A 
ATOM     37  C   UNL A   1      39.223  30.047  29.797  1.00  0.00     0.049 A 
ATOM     38  H   UNL A   1      41.261  29.935  29.378  1.00  0.00     0.167 HD
ATOM     39  C   UNL A   1      45.479  29.609  28.310  1.00  0.00     0.037 A 
ATOM     40  C   UNL A   1      38.981  31.285  30.262  1.00  0.00     0.037 A 
ATOM     41  C   UNL A   1      45.302  30.978  28.728  1.00  0.00     0.049 A 
ATOM     42  C   UNL A   1      40.116  32.268  30.357  1.00  0.00     0.074 A 
ATOM     43  C   UNL A   1      46.239  31.997  28.770  1.00  0.00     0.029 A 
ATOM     44  N   UNL A   1      44.113  31.517  29.199  1.00  0.00    -0.354 N 
ATOM     45  N   UNL A   1      41.370  32.127  30.001  1.00  0.00    -0.248 NA
ATOM     46  C   UNL A   1      39.797  33.588  30.918  1.00  0.00     0.031 C 
ATOM     47  C   UNL A   1      45.637  33.128  29.330  1.00  0.00     0.029 A 
ATOM     48  C   UNL A   1      44.303  32.841  29.569  1.00  0.00     0.049 A 
ATOM     49  H   UNL A   1      43.259  31.031  29.262  1.00  0.00     0.167 HD
ATOM     50  C   UNL A   1      41.981  33.345  30.267  1.00  0.00     0.074 A 
ATOM     51  C   UNL A   1      40.953  34.222  30.789  1.00  0.00     0.031 C 
ATOM     52  C   UNL A   1      43.277  33.707  30.095  1.00  0.00     0.037 A 
BRANCH  39  53
ATOM     53  C   UNL A   1      46.852  29.161  27.892  1.00  0.00     0.057 A 
ATOM     54  C   UNL A   1      47.783  28.718  28.842  1.00  0.00     0.134 A 
ATOM     55  C   UNL A   1      47.265  29.189  26.553  1.00  0.00     0.134 A 
ATOM     56  F   UNL A   1      47.465  28.681  30.144  1.00  0.00    -0.206 F 
ATOM     57  C   UNL A   1      49.067  28.310  28.473  1.00  0.00     0.040 A 
ATOM     58  C   UNL A   1      48.533  28.751  26.168  1.00  0.00     0.040 A 
ATOM     59  F   UNL A   1      46.427  29.604  25.592  1.00  0.00    -0.206 F 
ATOM     60  C   UNL A   1      49.440  28.313  27.131  1.00  0.00     0.006 A 
ENDBRANCH  39  53
BRANCH  40  61
ATOM     61  C   UNL A   1      37.609  31.678  30.673  1.00  0.00     0.057 A 
ATOM     62  C   UNL A   1      36.681  32.164  29.744  1.00  0.00     0.134 A 
ATOM     63  C   UNL A   1      37.177  31.532  31.997  1.00  0.00     0.134 A 
ATOM     64  F   UNL A   1      37.033  32.336  28.461  1.00  0.00    -0.206 F 
ATOM     65  C   UNL A   1      35.375  32.486  30.114  1.00  0.00     0.040 A 
ATOM     66  C   UNL A   1      35.864  31.818  32.374  1.00  0.00     0.040 A 
ATOM     67  F   UNL A   1      38.014  31.056  32.931  1.00  0.00    -0.206 F 
ATOM     68  C   UNL A   1      34.960  32.298  31.430  1.00  0.00     0.006 A 
ENDBRANCH  40  61
BRANCH  52  69
ATOM     69  C   UNL A   1      43.644  35.124  30.444  1.00  0.00     0.057 A 
ATOM     70  C   UNL A   1      44.102  35.446  31.729  1.00  0.00     0.134 A 
ATOM     71  C   UNL A   1      43.544  36.170  29.518  1.00  0.00     0.134 A 
ATOM     72  F   UNL A   1      44.213  34.498  32.671  1.00  0.00    -0.206 F 
ATOM     73  C   UNL A   1      44.452  36.751  32.075  1.00  0.00     0.040 A 
ATOM     74  C   UNL A   1      43.927  37.474  29.842  1.00  0.00     0.040 A 
ATOM     75  F   UNL A   1      43.125  35.933  28.265  1.00  0.00    -0.206 F 
ATOM     76  C   UNL A   1      44.378  37.768  31.127  1.00  0.00     0.006 A 
ENDBRANCH  52  69
ENDBRANCH  26  27
ENDBRANCH  19  21
ENDBRANCH  18  19
ENDBRANCH  17  18
ENDBRANCH   1  17
TORSDOF 15
ENDMDL
MODEL 3
REMARK VINA RESULT:      -9.6      5.501     11.389
REMARK SMILES N#Cc1ccc(F)cc1C(=O)OCCOCCOC(=O)c1ccc(-c2c3nc(c(-c4c(F)cccc4F)c4ccc([nH]4)c(-c4c(F)cccc4F)c4nc(c(-c5c(F)cccc5F)c5ccc2[nH]5)C=C4)C=C3)cc1
REMARK SMILES IDX 16 1 15 2 14 3 13 4 12 5 10 6 11 7 9 8 3 9 4 10 5 11 8 12
REMARK SMILES IDX 6 13 7 14 2 15 1 16 17 17 18 18 19 19 20 20 21 21 22 22
REMARK SMILES IDX 74 23 23 24 73 25 24 26 25 27 26 28 67 29 27 30 72 31 66 32
REMARK SMILES IDX 68 33 28 34 71 35 65 36 64 37 29 39 55 40 38 41 54 42 39 43
REMARK SMILES IDX 42 44 53 45 69 46 40 47 41 48 52 50 70 51 43 52 30 53 31 54
REMARK SMILES IDX 36 55 32 56 33 57 35 58 37 59 34 60 56 61 57 62 62 63 58 64
REMARK SMILES IDX 59 65 61 66 63 67 60 68 44 69 45 70 50 71 46 72 47 73 49 74
REMARK SMILES IDX 51 75 48 76
REMARK H PARENT 68 38 42 49
REMARK Flexibility Score: inf
ROOT
ATOM      1  C   UNL A   1      45.054  21.603  24.592  1.00  0.00     0.202 C 
ENDROOT
BRANCH   1   2
ATOM      2  O   UNL A   1      44.342  20.439  24.177  1.00  0.00    -0.374 OA
BRANCH   2   3
ATOM      3  C   UNL A   1      43.621  19.696  25.157  1.00  0.00     0.202 C 
BRANCH   3   4
ATOM      4  C   UNL A   1      42.882  20.476  26.248  1.00  0.00     0.261 C 
BRANCH   4   5
ATOM      5  O   UNL A   1      41.575  20.878  25.809  1.00  0.00    -0.460 OA
BRANCH   5   6
ATOM      6  C   UNL A   1      40.622  20.887  26.765  1.00  0.00     0.339 C 
ATOM      7  O   UNL A   1      40.603  20.225  27.789  1.00  0.00    -0.246 OA
BRANCH   6   8
ATOM      8  C   UNL A   1      39.661  21.989  26.524  1.00  0.00     0.080 A 
ATOM      9  C   UNL A   1      38.448  21.852  25.830  1.00  0.00     0.067 A 
ATOM     10  C   UNL A   1      37.609  22.972  25.695  1.00  0.00     0.023 A 
ATOM     11  C   UNL A   1      37.990  24.214  26.211  1.00  0.00     0.040 A 
ATOM     12  C   UNL A   1      40.044  23.245  27.024  1.00  0.00     0.056 A 
ATOM     13  C   UNL A   1      39.213  24.342  26.855  1.00  0.00     0.124 A 
ATOM     14  F   UNL A   1      39.598  25.539  27.313  1.00  0.00    -0.207 F 
BRANCH   9  15
ATOM     15  C   UNL A   1      38.026  20.615  25.240  1.00  0.00     0.100 C 
ATOM     16  N   UNL A   1      37.697  19.593  24.797  1.00  0.00    -0.192 NA
ENDBRANCH   9  15
ENDBRANCH   6   8
ENDBRANCH   5   6
ENDBRANCH   4   5
ENDBRANCH   3   4
ENDBRANCH   2   3
ENDBRANCH   1   2
BRANCH   1  17
ATOM     17  C   UNL A   1      44.466  22.984  24.266  1.00  0.00     0.261 C 
BRANCH  17  18
ATOM     18  O   UNL A   1      44.135  23.750  25.435  1.00  0.00    -0.460 OA
BRANCH  18  19
ATOM     19  C   UNL A   1      44.708  24.980  25.493  1.00  0.00     0.338 C 
ATOM     20  O   UNL A   1      45.550  25.439  24.741  1.00  0.00    -0.246 OA
BRANCH  19  21
ATOM     21  C   UNL A   1      44.006  25.787  26.507  1.00  0.00     0.060 A 
ATOM     22  C   UNL A   1      43.208  25.182  27.477  1.00  0.00     0.016 A 
ATOM     23  C   UNL A   1      44.179  27.178  26.490  1.00  0.00     0.016 A 
ATOM     24  C   UNL A   1      42.594  25.978  28.446  1.00  0.00     0.010 A 
ATOM     25  C   UNL A   1      43.566  27.970  27.461  1.00  0.00     0.010 A 
ATOM     26  C   UNL A   1      42.783  27.373  28.459  1.00  0.00    -0.014 A 
BRANCH  26  27
ATOM     27  C   UNL A   1      42.249  28.178  29.586  1.00  0.00     0.031 A 
ATOM     28  C   UNL A   1      40.976  28.958  29.461  1.00  0.00     0.074 A 
ATOM     29  C   UNL A   1      42.937  28.193  30.744  1.00  0.00     0.049 A 
ATOM     30  N   UNL A   1      40.340  29.647  30.376  1.00  0.00    -0.248 NA
ATOM     31  C   UNL A   1      40.336  28.976  28.139  1.00  0.00     0.031 C 
ATOM     32  C   UNL A   1      44.207  27.503  30.975  1.00  0.00     0.029 A 
ATOM     33  N   UNL A   1      42.659  28.795  31.944  1.00  0.00    -0.354 N 
ATOM     34  C   UNL A   1      39.214  30.163  29.749  1.00  0.00     0.074 A 
ATOM     35  C   UNL A   1      39.289  29.759  28.359  1.00  0.00     0.031 C 
ATOM     36  C   UNL A   1      44.577  27.683  32.253  1.00  0.00     0.029 A 
ATOM     37  C   UNL A   1      43.595  28.535  32.916  1.00  0.00     0.049 A 
ATOM     38  H   UNL A   1      41.867  29.359  32.094  1.00  0.00     0.167 HD
ATOM     39  C   UNL A   1      38.202  30.889  30.288  1.00  0.00     0.037 A 
ATOM     40  C   UNL A   1      43.657  28.940  34.197  1.00  0.00     0.037 A 
ATOM     41  C   UNL A   1      38.147  31.313  31.666  1.00  0.00     0.049 A 
ATOM     42  C   UNL A   1      42.557  29.808  34.747  1.00  0.00     0.074 A 
ATOM     43  C   UNL A   1      37.152  32.028  32.310  1.00  0.00     0.029 A 
ATOM     44  N   UNL A   1      39.138  31.080  32.608  1.00  0.00    -0.354 N 
ATOM     45  N   UNL A   1      41.459  30.226  34.164  1.00  0.00    -0.248 NA
ATOM     46  C   UNL A   1      42.708  30.257  36.137  1.00  0.00     0.031 C 
ATOM     47  C   UNL A   1      37.572  32.288  33.619  1.00  0.00     0.029 A 
ATOM     48  C   UNL A   1      38.796  31.670  33.816  1.00  0.00     0.049 A 
ATOM     49  H   UNL A   1      39.965  30.571  32.443  1.00  0.00     0.167 HD
ATOM     50  C   UNL A   1      40.776  30.960  35.125  1.00  0.00     0.074 A 
ATOM     51  C   UNL A   1      41.571  30.908  36.334  1.00  0.00     0.031 C 
ATOM     52  C   UNL A   1      39.596  31.621  35.016  1.00  0.00     0.037 A 
BRANCH  39  53
ATOM     53  C   UNL A   1      37.076  31.284  29.373  1.00  0.00     0.057 A 
ATOM     54  C   UNL A   1      37.023  32.567  28.810  1.00  0.00     0.134 A 
ATOM     55  C   UNL A   1      36.028  30.406  29.066  1.00  0.00     0.134 A 
ATOM     56  F   UNL A   1      37.981  33.468  29.074  1.00  0.00    -0.206 F 
ATOM     57  C   UNL A   1      35.978  32.954  27.968  1.00  0.00     0.040 A 
ATOM     58  C   UNL A   1      34.997  30.769  28.199  1.00  0.00     0.040 A 
ATOM     59  F   UNL A   1      36.012  29.163  29.572  1.00  0.00    -0.206 F 
ATOM     60  C   UNL A   1      34.968  32.049  27.650  1.00  0.00     0.006 A 
ENDBRANCH  39  53
BRANCH  40  61
ATOM     61  C   UNL A   1      44.796  28.533  35.059  1.00  0.00     0.057 A 
ATOM     62  C   UNL A   1      44.745  27.365  35.830  1.00  0.00     0.134 A 
ATOM     63  C   UNL A   1      45.982  29.277  35.096  1.00  0.00     0.134 A 
ATOM     64  F   UNL A   1      43.635  26.611  35.846  1.00  0.00    -0.206 F 
ATOM     65  C   UNL A   1      45.831  26.950  36.601  1.00  0.00     0.040 A 
ATOM     66  C   UNL A   1      47.087  28.855  35.836  1.00  0.00     0.040 A 
ATOM     67  F   UNL A   1      46.098  30.397  34.367  1.00  0.00    -0.206 F 
ATOM     68  C   UNL A   1      47.011  27.689  36.594  1.00  0.00     0.006 A 
ENDBRANCH  40  61
BRANCH  52  69
ATOM     69  C   UNL A   1      39.080  32.308  36.250  1.00  0.00     0.057 A 
ATOM     70  C   UNL A   1      39.488  33.613  36.562  1.00  0.00     0.134 A 
ATOM     71  C   UNL A   1      38.185  31.688  37.131  1.00  0.00     0.134 A 
ATOM     72  F   UNL A   1      40.351  34.266  35.770  1.00  0.00    -0.206 F 
ATOM     73  C   UNL A   1      39.021  34.274  37.699  1.00  0.00     0.040 A 
ATOM     74  C   UNL A   1      37.682  32.353  38.253  1.00  0.00     0.040 A 
ATOM     75  F   UNL A   1      37.742  30.444  36.889  1.00  0.00    -0.206 F 
ATOM     76  C   UNL A   1      38.105  33.649  38.541  1.00  0.00     0.006 A 
ENDBRANCH  52  69
ENDBRANCH  26  27
ENDBRANCH  19  21
ENDBRANCH  18  19
ENDBRANCH  17  18
ENDBRANCH   1  17
TORSDOF 15
ENDMDL
