MODEL 1
REMARK VINA RESULT:     -11.4      0.000      0.000
REMARK SMILES COc1ccc(C(F)(F)F)cc1-c1cccnc1C(=O)OCCOCCOC(=O)c1ccc(-c2c3nc(c(-c4c(F)cccc4F)c4ccc([nH]4)c(-c4c(F)cccc4F)c4nc(c(-c5c(F)cccc5F)c5ccc2[nH]5)C=C4)C=C3)cc1
REMARK SMILES IDX 24 1 23 2 22 3 21 4 19 5 20 6 18 7 13 8 14 9 15 10 17 11
REMARK SMILES IDX 16 12 12 13 3 14 4 15 5 16 11 17 6 18 2 19 1 20 7 21 8 22
REMARK SMILES IDX 9 23 10 24 25 25 26 26 27 27 28 28 29 29 30 30 31 31 83 32
REMARK SMILES IDX 32 33 82 34 33 35 34 36 35 37 76 38 36 39 81 40 75 41 77 42
REMARK SMILES IDX 37 43 80 44 74 45 73 46 38 48 64 49 47 50 63 51 48 52 51 53
REMARK SMILES IDX 62 54 78 55 49 56 50 57 61 59 79 60 52 61 39 62 40 63 45 64
REMARK SMILES IDX 41 65 42 66 44 67 46 68 43 69 65 70 66 71 71 72 67 73 68 74
REMARK SMILES IDX 70 75 72 76 69 77 53 78 54 79 59 80 55 81 56 82 58 83 60 84
REMARK SMILES IDX 57 85
REMARK H PARENT 77 47 51 58
REMARK Flexibility Score: inf
ROOT
ATOM      1  O   UNL A   1      31.707  30.831  25.815  1.00  0.00    -0.374 OA
ENDROOT
BRANCH   1   2
ATOM      2  C   UNL A   1      32.980  30.184  25.863  1.00  0.00     0.202 C 
BRANCH   2   3
ATOM      3  C   UNL A   1      33.152  29.194  27.015  1.00  0.00     0.261 C 
BRANCH   3   4
ATOM      4  O   UNL A   1      32.868  27.864  26.550  1.00  0.00    -0.458 OA
BRANCH   4   5
ATOM      5  C   UNL A   1      31.677  27.348  26.945  1.00  0.00     0.357 C 
ATOM      6  O   UNL A   1      30.936  27.837  27.784  1.00  0.00    -0.244 OA
BRANCH   5   7
ATOM      7  C   UNL A   1      31.343  26.117  26.159  1.00  0.00     0.156 A 
ATOM      8  C   UNL A   1      31.000  26.119  24.793  1.00  0.00     0.019 A 
ATOM      9  C   UNL A   1      30.835  24.845  24.214  1.00  0.00     0.013 A 
ATOM     10  C   UNL A   1      30.933  23.680  24.974  1.00  0.00     0.021 A 
ATOM     11  N   UNL A   1      31.442  24.982  26.918  1.00  0.00    -0.249 NA
ATOM     12  C   UNL A   1      31.222  23.801  26.316  1.00  0.00     0.112 A 
BRANCH   8  13
ATOM     13  C   UNL A   1      30.764  27.335  23.974  1.00  0.00     0.027 A 
ATOM     14  C   UNL A   1      31.791  27.947  23.220  1.00  0.00     0.126 A 
ATOM     15  C   UNL A   1      31.542  29.056  22.405  1.00  0.00     0.048 A 
ATOM     16  C   UNL A   1      30.248  29.551  22.278  1.00  0.00     0.017 A 
ATOM     17  C   UNL A   1      29.479  27.907  23.879  1.00  0.00     0.025 A 
ATOM     18  C   UNL A   1      29.200  28.974  23.005  1.00  0.00     0.056 A 
BRANCH  14  19
ATOM     19  O   UNL A   1      33.104  27.557  23.328  1.00  0.00    -0.496 OA
ATOM     20  C   UNL A   1      33.953  28.343  22.495  1.00  0.00     0.278 C 
ENDBRANCH  14  19
BRANCH  18  21
ATOM     21  C   UNL A   1      27.788  29.480  22.828  1.00  0.00     0.416 C 
ATOM     22  F   UNL A   1      26.850  28.535  23.101  1.00  0.00    -0.166 F 
ATOM     23  F   UNL A   1      27.513  30.532  23.650  1.00  0.00    -0.166 F 
ATOM     24  F   UNL A   1      27.523  29.923  21.567  1.00  0.00    -0.166 F 
ENDBRANCH  18  21
ENDBRANCH   8  13
ENDBRANCH   5   7
ENDBRANCH   4   5
ENDBRANCH   3   4
ENDBRANCH   2   3
ENDBRANCH   1   2
BRANCH   1  25
ATOM     25  C   UNL A   1      31.398  31.740  26.871  1.00  0.00     0.202 C 
BRANCH  25  26
ATOM     26  C   UNL A   1      32.169  33.063  26.839  1.00  0.00     0.261 C 
BRANCH  26  27
ATOM     27  O   UNL A   1      32.191  33.719  28.122  1.00  0.00    -0.460 OA
BRANCH  27  28
ATOM     28  C   UNL A   1      33.281  34.490  28.345  1.00  0.00     0.338 C 
ATOM     29  O   UNL A   1      33.322  35.711  28.433  1.00  0.00    -0.246 OA
BRANCH  28  30
ATOM     30  C   UNL A   1      34.463  33.653  28.615  1.00  0.00     0.060 A 
ATOM     31  C   UNL A   1      34.246  32.373  29.141  1.00  0.00     0.016 A 
ATOM     32  C   UNL A   1      35.761  34.147  28.471  1.00  0.00     0.016 A 
ATOM     33  C   UNL A   1      35.324  31.601  29.570  1.00  0.00     0.010 A 
ATOM     34  C   UNL A   1      36.843  33.372  28.907  1.00  0.00     0.010 A 
ATOM     35  C   UNL A   1      36.627  32.111  29.492  1.00  0.00    -0.014 A 
BRANCH  35  36
ATOM     36  C   UNL A   1      37.742  31.381  30.144  1.00  0.00     0.031 A 
ATOM     37  C   UNL A   1      38.051  31.647  31.591  1.00  0.00     0.074 A 
ATOM     38  C   UNL A   1      38.458  30.470  29.462  1.00  0.00     0.049 A 
ATOM     39  N   UNL A   1      38.994  31.140  32.345  1.00  0.00    -0.248 NA
ATOM     40  C   UNL A   1      37.180  32.610  32.282  1.00  0.00     0.031 C 
ATOM     41  C   UNL A   1      38.229  30.083  28.073  1.00  0.00     0.029 A 
ATOM     42  N   UNL A   1      39.530  29.706  29.852  1.00  0.00    -0.354 N 
ATOM     43  C   UNL A   1      38.829  31.720  33.596  1.00  0.00     0.074 A 
ATOM     44  C   UNL A   1      37.718  32.642  33.492  1.00  0.00     0.031 C 
ATOM     45  C   UNL A   1      39.145  29.168  27.716  1.00  0.00     0.029 A 
ATOM     46  C   UNL A   1      40.035  28.916  28.849  1.00  0.00     0.049 A 
ATOM     47  H   UNL A   1      39.901  29.723  30.764  1.00  0.00     0.167 HD
ATOM     48  C   UNL A   1      39.531  31.496  34.733  1.00  0.00     0.037 A 
ATOM     49  C   UNL A   1      41.101  28.094  28.843  1.00  0.00     0.037 A 
ATOM     50  C   UNL A   1      40.634  30.578  34.842  1.00  0.00     0.049 A 
ATOM     51  C   UNL A   1      41.913  27.918  30.098  1.00  0.00     0.074 A 
ATOM     52  C   UNL A   1      41.392  30.269  35.958  1.00  0.00     0.029 A 
ATOM     53  N   UNL A   1      41.140  29.825  33.795  1.00  0.00    -0.354 N 
ATOM     54  N   UNL A   1      41.734  28.454  31.280  1.00  0.00    -0.248 NA
ATOM     55  C   UNL A   1      43.074  27.019  30.017  1.00  0.00     0.031 C 
ATOM     56  C   UNL A   1      42.386  29.361  35.575  1.00  0.00     0.029 A 
ATOM     57  C   UNL A   1      42.217  29.072  34.230  1.00  0.00     0.049 A 
ATOM     58  H   UNL A   1      40.786  29.826  32.875  1.00  0.00     0.167 HD
ATOM     59  C   UNL A   1      42.737  27.936  32.090  1.00  0.00     0.074 A 
ATOM     60  C   UNL A   1      43.519  27.038  31.266  1.00  0.00     0.031 C 
ATOM     61  C   UNL A   1      42.986  28.180  33.400  1.00  0.00     0.037 A 
BRANCH  48  62
ATOM     62  C   UNL A   1      39.134  32.277  35.951  1.00  0.00     0.057 A 
ATOM     63  C   UNL A   1      39.575  33.589  36.162  1.00  0.00     0.134 A 
ATOM     64  C   UNL A   1      38.277  31.720  36.908  1.00  0.00     0.134 A 
ATOM     65  F   UNL A   1      40.408  34.176  35.289  1.00  0.00    -0.206 F 
ATOM     66  C   UNL A   1      39.195  34.312  37.294  1.00  0.00     0.040 A 
ATOM     67  C   UNL A   1      37.872  32.441  38.033  1.00  0.00     0.040 A 
ATOM     68  F   UNL A   1      37.814  30.468  36.762  1.00  0.00    -0.206 F 
ATOM     69  C   UNL A   1      38.336  33.739  38.231  1.00  0.00     0.006 A 
ENDBRANCH  48  62
BRANCH  49  70
ATOM     70  C   UNL A   1      41.469  27.372  27.600  1.00  0.00     0.057 A 
ATOM     71  C   UNL A   1      42.256  27.979  26.616  1.00  0.00     0.134 A 
ATOM     72  C   UNL A   1      41.029  26.065  27.363  1.00  0.00     0.134 A 
ATOM     73  F   UNL A   1      42.685  29.239  26.777  1.00  0.00    -0.206 F 
ATOM     74  C   UNL A   1      42.584  27.315  25.433  1.00  0.00     0.040 A 
ATOM     75  C   UNL A   1      41.367  25.381  26.195  1.00  0.00     0.040 A 
ATOM     76  F   UNL A   1      40.271  25.430  28.270  1.00  0.00    -0.206 F 
ATOM     77  C   UNL A   1      42.143  26.009  25.222  1.00  0.00     0.006 A 
ENDBRANCH  49  70
BRANCH  61  78
ATOM     78  C   UNL A   1      44.130  27.445  34.032  1.00  0.00     0.057 A 
ATOM     79  C   UNL A   1      43.967  26.177  34.606  1.00  0.00     0.134 A 
ATOM     80  C   UNL A   1      45.419  27.995  34.033  1.00  0.00     0.134 A 
ATOM     81  F   UNL A   1      42.756  25.602  34.648  1.00  0.00    -0.206 F 
ATOM     82  C   UNL A   1      45.041  25.490  35.173  1.00  0.00     0.040 A 
ATOM     83  C   UNL A   1      46.505  27.307  34.578  1.00  0.00     0.040 A 
ATOM     84  F   UNL A   1      45.645  29.201  33.493  1.00  0.00    -0.206 F 
ATOM     85  C   UNL A   1      46.316  26.053  35.154  1.00  0.00     0.006 A 
ENDBRANCH  61  78
ENDBRANCH  35  36
ENDBRANCH  28  30
ENDBRANCH  27  28
ENDBRANCH  26  27
ENDBRANCH  25  26
ENDBRANCH   1  25
TORSDOF 17
ENDMDL
MODEL 2
REMARK VINA RESULT:     -11.2      0.312      1.646
REMARK SMILES COc1ccc(C(F)(F)F)cc1-c1cccnc1C(=O)OCCOCCOC(=O)c1ccc(-c2c3nc(c(-c4c(F)cccc4F)c4ccc([nH]4)c(-c4c(F)cccc4F)c4nc(c(-c5c(F)cccc5F)c5ccc2[nH]5)C=C4)C=C3)cc1
REMARK SMILES IDX 24 1 23 2 22 3 21 4 19 5 20 6 18 7 13 8 14 9 15 10 17 11
REMARK SMILES IDX 16 12 12 13 3 14 4 15 5 16 11 17 6 18 2 19 1 20 7 21 8 22
REMARK SMILES IDX 9 23 10 24 25 25 26 26 27 27 28 28 29 29 30 30 31 31 83 32
REMARK SMILES IDX 32 33 82 34 33 35 34 36 35 37 76 38 36 39 81 40 75 41 77 42
REMARK SMILES IDX 37 43 80 44 74 45 73 46 38 48 64 49 47 50 63 51 48 52 51 53
REMARK SMILES IDX 62 54 78 55 49 56 50 57 61 59 79 60 52 61 39 62 40 63 45 64
REMARK SMILES IDX 41 65 42 66 44 67 46 68 43 69 65 70 66 71 71 72 67 73 68 74
REMARK SMILES IDX 70 75 72 76 69 77 53 78 54 79 59 80 55 81 56 82 58 83 60 84
REMARK SMILES IDX 57 85
REMARK H PARENT 77 47 51 58
REMARK Flexibility Score: inf
ROOT
ATOM      1  O   UNL A   1      32.519  31.011  27.254  1.00  0.00    -0.374 OA
ENDROOT
BRANCH   1   2
ATOM      2  C   UNL A   1      32.777  29.901  26.391  1.00  0.00     0.202 C 
BRANCH   2   3
ATOM      3  C   UNL A   1      33.445  28.705  27.069  1.00  0.00     0.261 C 
BRANCH   3   4
ATOM      4  O   UNL A   1      32.989  27.488  26.453  1.00  0.00    -0.458 OA
BRANCH   4   5
ATOM      5  C   UNL A   1      31.741  27.089  26.800  1.00  0.00     0.357 C 
ATOM      6  O   UNL A   1      31.028  27.630  27.632  1.00  0.00    -0.244 OA
BRANCH   5   7
ATOM      7  C   UNL A   1      31.306  25.919  25.971  1.00  0.00     0.156 A 
ATOM      8  C   UNL A   1      30.912  26.008  24.622  1.00  0.00     0.019 A 
ATOM      9  C   UNL A   1      30.652  24.775  23.991  1.00  0.00     0.013 A 
ATOM     10  C   UNL A   1      30.711  23.571  24.690  1.00  0.00     0.021 A 
ATOM     11  N   UNL A   1      31.368  24.744  26.671  1.00  0.00    -0.249 NA
ATOM     12  C   UNL A   1      31.057  23.608  26.023  1.00  0.00     0.112 A 
BRANCH   8  13
ATOM     13  C   UNL A   1      30.715  27.274  23.871  1.00  0.00     0.027 A 
ATOM     14  C   UNL A   1      31.769  27.908  23.174  1.00  0.00     0.126 A 
ATOM     15  C   UNL A   1      31.557  29.068  22.422  1.00  0.00     0.048 A 
ATOM     16  C   UNL A   1      30.276  29.595  22.299  1.00  0.00     0.017 A 
ATOM     17  C   UNL A   1      29.444  27.877  23.786  1.00  0.00     0.025 A 
ATOM     18  C   UNL A   1      29.203  28.999  22.972  1.00  0.00     0.056 A 
BRANCH  14  19
ATOM     19  O   UNL A   1      33.072  27.486  23.284  1.00  0.00    -0.496 OA
ATOM     20  C   UNL A   1      33.878  27.997  22.225  1.00  0.00     0.278 C 
ENDBRANCH  14  19
BRANCH  18  21
ATOM     21  C   UNL A   1      27.805  29.543  22.798  1.00  0.00     0.416 C 
ATOM     22  F   UNL A   1      27.455  30.422  23.775  1.00  0.00    -0.166 F 
ATOM     23  F   UNL A   1      27.657  30.212  21.620  1.00  0.00    -0.166 F 
ATOM     24  F   UNL A   1      26.843  28.579  22.794  1.00  0.00    -0.166 F 
ENDBRANCH  18  21
ENDBRANCH   8  13
ENDBRANCH   5   7
ENDBRANCH   4   5
ENDBRANCH   3   4
ENDBRANCH   2   3
ENDBRANCH   1   2
BRANCH   1  25
ATOM     25  C   UNL A   1      31.627  32.016  26.774  1.00  0.00     0.202 C 
BRANCH  25  26
ATOM     26  C   UNL A   1      32.155  33.451  26.861  1.00  0.00     0.261 C 
BRANCH  26  27
ATOM     27  O   UNL A   1      32.153  33.958  28.210  1.00  0.00    -0.460 OA
BRANCH  27  28
ATOM     28  C   UNL A   1      33.250  34.677  28.547  1.00  0.00     0.338 C 
ATOM     29  O   UNL A   1      33.318  35.886  28.729  1.00  0.00    -0.246 OA
BRANCH  28  30
ATOM     30  C   UNL A   1      34.394  33.787  28.810  1.00  0.00     0.060 A 
ATOM     31  C   UNL A   1      34.148  32.607  29.523  1.00  0.00     0.016 A 
ATOM     32  C   UNL A   1      35.700  34.149  28.474  1.00  0.00     0.016 A 
ATOM     33  C   UNL A   1      35.210  31.809  29.946  1.00  0.00     0.010 A 
ATOM     34  C   UNL A   1      36.766  33.349  28.903  1.00  0.00     0.010 A 
ATOM     35  C   UNL A   1      36.529  32.196  29.672  1.00  0.00    -0.014 A 
BRANCH  35  36
ATOM     36  C   UNL A   1      37.655  31.466  30.304  1.00  0.00     0.031 A 
ATOM     37  C   UNL A   1      38.007  31.751  31.738  1.00  0.00     0.074 A 
ATOM     38  C   UNL A   1      38.344  30.537  29.618  1.00  0.00     0.049 A 
ATOM     39  N   UNL A   1      38.966  31.248  32.474  1.00  0.00    -0.248 NA
ATOM     40  C   UNL A   1      37.163  32.734  32.437  1.00  0.00     0.031 C 
ATOM     41  C   UNL A   1      38.072  30.131  28.242  1.00  0.00     0.029 A 
ATOM     42  N   UNL A   1      39.420  29.770  29.990  1.00  0.00    -0.354 N 
ATOM     43  C   UNL A   1      38.840  31.849  33.719  1.00  0.00     0.074 A 
ATOM     44  C   UNL A   1      37.735  32.779  33.631  1.00  0.00     0.031 C 
ATOM     45  C   UNL A   1      38.970  29.202  27.875  1.00  0.00     0.029 A 
ATOM     46  C   UNL A   1      39.889  28.960  28.986  1.00  0.00     0.049 A 
ATOM     47  H   UNL A   1      39.816  29.798  30.891  1.00  0.00     0.167 HD
ATOM     48  C   UNL A   1      39.572  31.636  34.840  1.00  0.00     0.037 A 
ATOM     49  C   UNL A   1      40.947  28.128  28.964  1.00  0.00     0.037 A 
ATOM     50  C   UNL A   1      40.669  30.710  34.933  1.00  0.00     0.049 A 
ATOM     51  C   UNL A   1      41.792  27.964  30.198  1.00  0.00     0.074 A 
ATOM     52  C   UNL A   1      41.455  30.411  36.033  1.00  0.00     0.029 A 
ATOM     53  N   UNL A   1      41.139  29.936  33.884  1.00  0.00    -0.354 N 
ATOM     54  N   UNL A   1      41.650  28.520  31.377  1.00  0.00    -0.248 NA
ATOM     55  C   UNL A   1      42.942  27.053  30.100  1.00  0.00     0.031 C 
ATOM     56  C   UNL A   1      42.429  29.488  35.637  1.00  0.00     0.029 A 
ATOM     57  C   UNL A   1      42.221  29.180  34.302  1.00  0.00     0.049 A 
ATOM     58  H   UNL A   1      40.760  29.925  32.975  1.00  0.00     0.167 HD
ATOM     59  C   UNL A   1      42.671  28.006  32.167  1.00  0.00     0.074 A 
ATOM     60  C   UNL A   1      43.422  27.088  31.335  1.00  0.00     0.031 C 
ATOM     61  C   UNL A   1      42.958  28.268  33.465  1.00  0.00     0.037 A 
BRANCH  48  62
ATOM     62  C   UNL A   1      39.215  32.440  36.055  1.00  0.00     0.057 A 
ATOM     63  C   UNL A   1      38.342  31.950  37.035  1.00  0.00     0.134 A 
ATOM     64  C   UNL A   1      39.776  33.707  36.263  1.00  0.00     0.134 A 
ATOM     65  F   UNL A   1      37.762  30.749  36.889  1.00  0.00    -0.206 F 
ATOM     66  C   UNL A   1      38.021  32.702  38.166  1.00  0.00     0.040 A 
ATOM     67  C   UNL A   1      39.480  34.458  37.401  1.00  0.00     0.040 A 
ATOM     68  F   UNL A   1      40.624  34.231  35.365  1.00  0.00    -0.206 F 
ATOM     69  C   UNL A   1      38.596  33.957  38.355  1.00  0.00     0.006 A 
ENDBRANCH  48  62
BRANCH  49  70
ATOM     70  C   UNL A   1      41.274  27.383  27.723  1.00  0.00     0.057 A 
ATOM     71  C   UNL A   1      40.809  26.080  27.516  1.00  0.00     0.134 A 
ATOM     72  C   UNL A   1      42.070  27.953  26.723  1.00  0.00     0.134 A 
ATOM     73  F   UNL A   1      40.062  25.473  28.450  1.00  0.00    -0.206 F 
ATOM     74  C   UNL A   1      41.134  25.364  26.363  1.00  0.00     0.040 A 
ATOM     75  C   UNL A   1      42.386  27.257  25.556  1.00  0.00     0.040 A 
ATOM     76  F   UNL A   1      42.547  29.199  26.865  1.00  0.00    -0.206 F 
ATOM     77  C   UNL A   1      41.922  25.955  25.376  1.00  0.00     0.006 A 
ENDBRANCH  49  70
BRANCH  61  78
ATOM     78  C   UNL A   1      44.113  27.532  34.077  1.00  0.00     0.057 A 
ATOM     79  C   UNL A   1      45.408  28.067  34.088  1.00  0.00     0.134 A 
ATOM     80  C   UNL A   1      43.921  26.291  34.699  1.00  0.00     0.134 A 
ATOM     81  F   UNL A   1      45.660  29.245  33.498  1.00  0.00    -0.206 F 
ATOM     82  C   UNL A   1      46.473  27.385  34.678  1.00  0.00     0.040 A 
ATOM     83  C   UNL A   1      44.974  25.610  35.312  1.00  0.00     0.040 A 
ATOM     84  F   UNL A   1      42.704  25.727  34.731  1.00  0.00    -0.206 F 
ATOM     85  C   UNL A   1      46.256  26.156  35.298  1.00  0.00     0.006 A 
ENDBRANCH  61  78
ENDBRANCH  35  36
ENDBRANCH  28  30
ENDBRANCH  27  28
ENDBRANCH  26  27
ENDBRANCH  25  26
ENDBRANCH   1  25
TORSDOF 17
ENDMDL
MODEL 3
REMARK VINA RESULT:     -11.1      2.496      3.726
REMARK SMILES COc1ccc(C(F)(F)F)cc1-c1cccnc1C(=O)OCCOCCOC(=O)c1ccc(-c2c3nc(c(-c4c(F)cccc4F)c4ccc([nH]4)c(-c4c(F)cccc4F)c4nc(c(-c5c(F)cccc5F)c5ccc2[nH]5)C=C4)C=C3)cc1
REMARK SMILES IDX 24 1 23 2 22 3 21 4 19 5 20 6 18 7 13 8 14 9 15 10 17 11
REMARK SMILES IDX 16 12 12 13 3 14 4 15 5 16 11 17 6 18 2 19 1 20 7 21 8 22
REMARK SMILES IDX 9 23 10 24 25 25 26 26 27 27 28 28 29 29 30 30 31 31 83 32
REMARK SMILES IDX 32 33 82 34 33 35 34 36 35 37 76 38 36 39 81 40 75 41 77 42
REMARK SMILES IDX 37 43 80 44 74 45 73 46 38 48 64 49 47 50 63 51 48 52 51 53
REMARK SMILES IDX 62 54 78 55 49 56 50 57 61 59 79 60 52 61 39 62 40 63 45 64
REMARK SMILES IDX 41 65 42 66 44 67 46 68 43 69 65 70 66 71 71 72 67 73 68 74
REMARK SMILES IDX 70 75 72 76 69 77 53 78 54 79 59 80 55 81 56 82 58 83 60 84
REMARK SMILES IDX 57 85
REMARK H PARENT 77 47 51 58
REMARK Flexibility Score: inf
ROOT
ATOM      1  O   UNL A   1      33.172  30.656  27.649  1.00  0.00    -0.374 OA
ENDROOT
BRANCH   1   2
ATOM      2  C   UNL A   1      34.212  29.994  26.926  1.00  0.00     0.202 C 
BRANCH   2   3
ATOM      3  C   UNL A   1      33.750  28.808  26.081  1.00  0.00     0.261 C 
BRANCH   3   4
ATOM      4  O   UNL A   1      33.279  27.759  26.944  1.00  0.00    -0.458 OA
BRANCH   4   5
ATOM      5  C   UNL A   1      31.964  27.452  26.828  1.00  0.00     0.357 C 
ATOM      6  O   UNL A   1      31.114  27.634  27.687  1.00  0.00    -0.244 OA
BRANCH   5   7
ATOM      7  C   UNL A   1      31.660  26.914  25.462  1.00  0.00     0.156 A 
ATOM      8  C   UNL A   1      32.025  25.629  25.019  1.00  0.00     0.019 A 
ATOM      9  C   UNL A   1      31.543  25.276  23.743  1.00  0.00     0.013 A 
ATOM     10  C   UNL A   1      30.822  26.176  22.960  1.00  0.00     0.021 A 
ATOM     11  N   UNL A   1      30.954  27.810  24.705  1.00  0.00    -0.249 NA
ATOM     12  C   UNL A   1      30.567  27.429  23.475  1.00  0.00     0.112 A 
BRANCH   8  13
ATOM     13  C   UNL A   1      32.892  24.683  25.765  1.00  0.00     0.027 A 
ATOM     14  C   UNL A   1      32.377  23.790  26.733  1.00  0.00     0.126 A 
ATOM     15  C   UNL A   1      33.196  22.863  27.385  1.00  0.00     0.048 A 
ATOM     16  C   UNL A   1      34.542  22.763  27.049  1.00  0.00     0.017 A 
ATOM     17  C   UNL A   1      34.275  24.604  25.501  1.00  0.00     0.025 A 
ATOM     18  C   UNL A   1      35.094  23.626  26.094  1.00  0.00     0.056 A 
BRANCH  14  19
ATOM     19  O   UNL A   1      31.074  23.857  27.163  1.00  0.00    -0.496 OA
ATOM     20  C   UNL A   1      30.291  22.793  26.627  1.00  0.00     0.278 C 
ENDBRANCH  14  19
BRANCH  18  21
ATOM     21  C   UNL A   1      36.543  23.483  25.694  1.00  0.00     0.416 C 
ATOM     22  F   UNL A   1      36.760  23.775  24.384  1.00  0.00    -0.166 F 
ATOM     23  F   UNL A   1      37.356  24.315  26.405  1.00  0.00    -0.166 F 
ATOM     24  F   UNL A   1      37.041  22.230  25.890  1.00  0.00    -0.166 F 
ENDBRANCH  18  21
ENDBRANCH   8  13
ENDBRANCH   5   7
ENDBRANCH   4   5
ENDBRANCH   3   4
ENDBRANCH   2   3
ENDBRANCH   1   2
BRANCH   1  25
ATOM     25  C   UNL A   1      32.113  31.232  26.885  1.00  0.00     0.202 C 
BRANCH  25  26
ATOM     26  C   UNL A   1      31.867  32.724  27.134  1.00  0.00     0.261 C 
BRANCH  26  27
ATOM     27  O   UNL A   1      33.091  33.484  27.179  1.00  0.00    -0.460 OA
BRANCH  27  28
ATOM     28  C   UNL A   1      33.242  34.248  28.286  1.00  0.00     0.338 C 
ATOM     29  O   UNL A   1      32.523  35.167  28.658  1.00  0.00    -0.246 OA
BRANCH  28  30
ATOM     30  C   UNL A   1      34.355  33.751  29.113  1.00  0.00     0.060 A 
ATOM     31  C   UNL A   1      35.653  34.138  28.755  1.00  0.00     0.016 A 
ATOM     32  C   UNL A   1      34.151  32.831  30.143  1.00  0.00     0.016 A 
ATOM     33  C   UNL A   1      36.754  33.570  29.395  1.00  0.00     0.010 A 
ATOM     34  C   UNL A   1      35.258  32.258  30.781  1.00  0.00     0.010 A 
ATOM     35  C   UNL A   1      36.564  32.597  30.385  1.00  0.00    -0.014 A 
BRANCH  35  36
ATOM     36  C   UNL A   1      37.730  31.843  30.907  1.00  0.00     0.031 A 
ATOM     37  C   UNL A   1      38.262  32.162  32.277  1.00  0.00     0.074 A 
ATOM     38  C   UNL A   1      38.295  30.863  30.181  1.00  0.00     0.049 A 
ATOM     39  N   UNL A   1      39.283  31.644  32.913  1.00  0.00    -0.248 NA
ATOM     40  C   UNL A   1      37.547  33.202  33.033  1.00  0.00     0.031 C 
ATOM     41  C   UNL A   1      37.845  30.422  28.864  1.00  0.00     0.029 A 
ATOM     42  N   UNL A   1      39.378  30.064  30.452  1.00  0.00    -0.354 N 
ATOM     43  C   UNL A   1      39.331  32.292  34.140  1.00  0.00     0.074 A 
ATOM     44  C   UNL A   1      38.259  33.264  34.148  1.00  0.00     0.031 C 
ATOM     45  C   UNL A   1      38.656  29.443  28.429  1.00  0.00     0.029 A 
ATOM     46  C   UNL A   1      39.692  29.200  29.432  1.00  0.00     0.049 A 
ATOM     47  H   UNL A   1      39.881  30.106  31.298  1.00  0.00     0.167 HD
ATOM     48  C   UNL A   1      40.183  32.086  35.173  1.00  0.00     0.037 A 
ATOM     49  C   UNL A   1      40.707  28.324  29.317  1.00  0.00     0.037 A 
ATOM     50  C   UNL A   1      41.247  31.118  35.171  1.00  0.00     0.049 A 
ATOM     51  C   UNL A   1      41.688  28.167  30.448  1.00  0.00     0.074 A 
ATOM     52  C   UNL A   1      42.148  30.824  36.181  1.00  0.00     0.029 A 
ATOM     53  N   UNL A   1      41.559  30.289  34.105  1.00  0.00    -0.354 N 
ATOM     54  N   UNL A   1      41.711  28.768  31.612  1.00  0.00    -0.248 NA
ATOM     55  C   UNL A   1      42.783  27.206  30.249  1.00  0.00     0.031 C 
ATOM     56  C   UNL A   1      43.032  29.848  35.708  1.00  0.00     0.029 A 
ATOM     57  C   UNL A   1      42.654  29.503  34.420  1.00  0.00     0.049 A 
ATOM     58  H   UNL A   1      41.073  30.264  33.248  1.00  0.00     0.167 HD
ATOM     59  C   UNL A   1      42.799  28.239  32.295  1.00  0.00     0.074 A 
ATOM     60  C   UNL A   1      43.409  27.262  31.416  1.00  0.00     0.031 C 
ATOM     61  C   UNL A   1      43.250  28.533  33.538  1.00  0.00     0.037 A 
BRANCH  48  62
ATOM     62  C   UNL A   1      40.006  32.946  36.390  1.00  0.00     0.057 A 
ATOM     63  C   UNL A   1      40.754  34.114  36.584  1.00  0.00     0.134 A 
ATOM     64  C   UNL A   1      39.057  32.615  37.365  1.00  0.00     0.134 A 
ATOM     65  F   UNL A   1      41.689  34.479  35.693  1.00  0.00    -0.206 F 
ATOM     66  C   UNL A   1      40.579  34.912  37.716  1.00  0.00     0.040 A 
ATOM     67  C   UNL A   1      38.857  33.418  38.490  1.00  0.00     0.040 A 
ATOM     68  F   UNL A   1      38.305  31.512  37.237  1.00  0.00    -0.206 F 
ATOM     69  C   UNL A   1      39.623  34.568  38.670  1.00  0.00     0.006 A 
ENDBRANCH  48  62
BRANCH  49  70
ATOM     70  C   UNL A   1      40.854  27.524  28.076  1.00  0.00     0.057 A 
ATOM     71  C   UNL A   1      40.267  26.260  27.955  1.00  0.00     0.134 A 
ATOM     72  C   UNL A   1      41.597  28.000  26.990  1.00  0.00     0.134 A 
ATOM     73  F   UNL A   1      39.564  25.742  28.972  1.00  0.00    -0.206 F 
ATOM     74  C   UNL A   1      40.423  25.491  26.801  1.00  0.00     0.040 A 
ATOM     75  C   UNL A   1      41.744  27.251  25.821  1.00  0.00     0.040 A 
ATOM     76  F   UNL A   1      42.185  29.204  27.047  1.00  0.00    -0.206 F 
ATOM     77  C   UNL A   1      41.160  25.990  25.727  1.00  0.00     0.006 A 
ENDBRANCH  49  70
BRANCH  61  78
ATOM     78  C   UNL A   1      44.441  27.770  34.037  1.00  0.00     0.057 A 
ATOM     79  C   UNL A   1      44.306  26.565  34.740  1.00  0.00     0.134 A 
ATOM     80  C   UNL A   1      45.741  28.225  33.778  1.00  0.00     0.134 A 
ATOM     81  F   UNL A   1      43.089  26.083  35.032  1.00  0.00    -0.206 F 
ATOM     82  C   UNL A   1      45.420  25.851  35.182  1.00  0.00     0.040 A 
ATOM     83  C   UNL A   1      46.862  27.507  34.195  1.00  0.00     0.040 A 
ATOM     84  F   UNL A   1      45.940  29.367  33.102  1.00  0.00    -0.206 F 
ATOM     85  C   UNL A   1      46.703  26.319  34.905  1.00  0.00     0.006 A 
ENDBRANCH  61  78
ENDBRANCH  35  36
ENDBRANCH  28  30
ENDBRANCH  27  28
ENDBRANCH  26  27
ENDBRANCH  25  26
ENDBRANCH   1  25
TORSDOF 17
ENDMDL
