MODEL 1
REMARK VINA RESULT:     -10.8      0.000      0.000
REMARK SMILES Cc1ccc(Cl)c(Nc2ccccc2C(=O)OCCOCCOC(=O)c2ccc(-c3c4nc(c(-c5c(F)cccc5F)c5ccc([nH]5)c(-c5c(F)cccc5F)c5nc(c(-c6c(F)cccc6F)c6ccc3[nH]6)C=C5)C=C4)cc2)c1Cl
REMARK SMILES IDX 20 1 19 2 18 3 17 4 15 5 16 6 14 7 9 8 10 9 11 10 13 11
REMARK SMILES IDX 12 12 8 13 7 15 1 16 2 17 3 18 80 19 4 20 81 21 5 22 6 23
REMARK SMILES IDX 21 24 22 25 23 26 24 27 25 28 26 29 27 30 79 31 28 32 78 33
REMARK SMILES IDX 29 34 30 35 31 36 72 37 32 38 77 39 71 40 73 41 33 42 76 43
REMARK SMILES IDX 70 44 69 45 34 47 60 48 43 49 59 50 44 51 47 52 58 53 74 54
REMARK SMILES IDX 45 55 46 56 57 58 75 59 48 60 35 61 36 62 41 63 37 64 38 65
REMARK SMILES IDX 40 66 42 67 39 68 61 69 62 70 67 71 63 72 64 73 66 74 68 75
REMARK SMILES IDX 65 76 49 77 50 78 55 79 51 80 52 81 54 82 56 83 53 84
REMARK H PARENT 8 14 73 46 47 57
REMARK Flexibility Score: inf
ROOT
ATOM      1  O   UNL A   1      31.761  30.070  27.274  1.00  0.00    -0.374 OA
ENDROOT
BRANCH   1   2
ATOM      2  C   UNL A   1      32.614  28.985  26.916  1.00  0.00     0.202 C 
BRANCH   2   3
ATOM      3  C   UNL A   1      33.651  29.261  25.824  1.00  0.00     0.261 C 
BRANCH   3   4
ATOM      4  O   UNL A   1      33.683  28.209  24.845  1.00  0.00    -0.460 OA
BRANCH   4   5
ATOM      5  C   UNL A   1      33.109  28.518  23.654  1.00  0.00     0.340 C 
ATOM      6  O   UNL A   1      33.687  28.964  22.673  1.00  0.00    -0.246 OA
BRANCH   5   7
ATOM      7  C   UNL A   1      31.692  28.082  23.606  1.00  0.00     0.083 A 
ATOM      8  C   UNL A   1      31.218  26.776  23.844  1.00  0.00     0.053 A 
ATOM      9  C   UNL A   1      29.829  26.560  23.719  1.00  0.00     0.027 A 
ATOM     10  C   UNL A   1      28.943  27.591  23.388  1.00  0.00     0.002 A 
ATOM     11  C   UNL A   1      30.791  29.116  23.278  1.00  0.00     0.018 A 
ATOM     12  C   UNL A   1      29.424  28.873  23.171  1.00  0.00     0.001 A 
BRANCH   8  13
ATOM     13  N   UNL A   1      31.968  25.669  24.298  1.00  0.00    -0.352 N 
ATOM     14  H   UNL A   1      32.519  25.866  25.090  1.00  0.00     0.167 HD
BRANCH  13  15
ATOM     15  C   UNL A   1      32.087  24.334  23.844  1.00  0.00     0.077 A 
ATOM     16  C   UNL A   1      32.071  20.726  25.152  1.00  0.00     0.046 C 
ATOM     17  C   UNL A   1      32.183  21.908  24.228  1.00  0.00    -0.030 A 
ATOM     18  C   UNL A   1      32.771  21.734  22.970  1.00  0.00     0.006 A 
ATOM     19  C   UNL A   1      31.777  23.199  24.626  1.00  0.00     0.069 A 
ATOM     20  C   UNL A   1      32.960  22.823  22.129  1.00  0.00     0.023 A 
ATOM     21  Cl  UNL A   1      30.773  23.356  26.041  1.00  0.00    -0.082 Cl
ATOM     22  C   UNL A   1      32.650  24.109  22.570  1.00  0.00     0.066 A 
ATOM     23  Cl  UNL A   1      32.995  25.432  21.504  1.00  0.00    -0.082 Cl
ENDBRANCH  13  15
ENDBRANCH   8  13
ENDBRANCH   5   7
ENDBRANCH   4   5
ENDBRANCH   3   4
ENDBRANCH   2   3
ENDBRANCH   1   2
BRANCH   1  24
ATOM     24  C   UNL A   1      31.662  31.164  26.364  1.00  0.00     0.202 C 
BRANCH  24  25
ATOM     25  C   UNL A   1      31.510  32.562  26.977  1.00  0.00     0.261 C 
BRANCH  25  26
ATOM     26  O   UNL A   1      32.685  33.380  26.844  1.00  0.00    -0.460 OA
BRANCH  26  27
ATOM     27  C   UNL A   1      33.216  33.802  28.018  1.00  0.00     0.338 C 
ATOM     28  O   UNL A   1      32.728  34.600  28.808  1.00  0.00    -0.246 OA
BRANCH  27  29
ATOM     29  C   UNL A   1      34.451  33.063  28.329  1.00  0.00     0.060 A 
ATOM     30  C   UNL A   1      34.324  31.749  28.796  1.00  0.00     0.016 A 
ATOM     31  C   UNL A   1      35.700  33.683  28.285  1.00  0.00     0.016 A 
ATOM     32  C   UNL A   1      35.443  31.063  29.267  1.00  0.00     0.010 A 
ATOM     33  C   UNL A   1      36.821  32.997  28.765  1.00  0.00     0.010 A 
ATOM     34  C   UNL A   1      36.691  31.698  29.290  1.00  0.00    -0.014 A 
BRANCH  34  35
ATOM     35  C   UNL A   1      37.837  31.046  29.971  1.00  0.00     0.031 A 
ATOM     36  C   UNL A   1      38.121  31.365  31.410  1.00  0.00     0.074 A 
ATOM     37  C   UNL A   1      38.612  30.164  29.316  1.00  0.00     0.049 A 
ATOM     38  N   UNL A   1      39.082  30.926  32.181  1.00  0.00    -0.248 NA
ATOM     39  C   UNL A   1      37.198  32.303  32.068  1.00  0.00     0.031 C 
ATOM     40  C   UNL A   1      38.416  29.749  27.932  1.00  0.00     0.029 A 
ATOM     41  N   UNL A   1      39.725  29.474  29.721  1.00  0.00    -0.354 N 
ATOM     42  C   UNL A   1      38.883  31.532  33.413  1.00  0.00     0.074 A 
ATOM     43  C   UNL A   1      37.726  32.394  33.279  1.00  0.00     0.031 C 
ATOM     44  C   UNL A   1      39.396  28.898  27.586  1.00  0.00     0.029 A 
ATOM     45  C   UNL A   1      40.293  28.719  28.725  1.00  0.00     0.049 A 
ATOM     46  H   UNL A   1      40.082  29.515  30.638  1.00  0.00     0.167 HD
ATOM     47  C   UNL A   1      39.593  31.377  34.555  1.00  0.00     0.037 A 
ATOM     48  C   UNL A   1      41.420  27.982  28.728  1.00  0.00     0.037 A 
ATOM     49  C   UNL A   1      40.741  30.520  34.689  1.00  0.00     0.049 A 
ATOM     50  C   UNL A   1      42.231  27.874  29.989  1.00  0.00     0.074 A 
ATOM     51  C   UNL A   1      41.500  30.264  35.817  1.00  0.00     0.029 A 
ATOM     52  N   UNL A   1      41.306  29.791  33.653  1.00  0.00    -0.354 N 
ATOM     53  N   UNL A   1      42.006  28.414  31.162  1.00  0.00    -0.248 NA
ATOM     54  C   UNL A   1      43.445  27.048  29.931  1.00  0.00     0.031 C 
ATOM     55  C   UNL A   1      42.551  29.414  35.453  1.00  0.00     0.029 A 
ATOM     56  C   UNL A   1      42.422  29.109  34.108  1.00  0.00     0.049 A 
ATOM     57  H   UNL A   1      40.963  29.762  32.731  1.00  0.00     0.167 HD
ATOM     58  C   UNL A   1      43.036  27.980  31.986  1.00  0.00     0.074 A 
ATOM     59  C   UNL A   1      43.881  27.122  31.182  1.00  0.00     0.031 C 
ATOM     60  C   UNL A   1      43.258  28.263  33.293  1.00  0.00     0.037 A 
BRANCH  47  61
ATOM     61  C   UNL A   1      39.154  32.175  35.746  1.00  0.00     0.057 A 
ATOM     62  C   UNL A   1      39.597  33.487  35.960  1.00  0.00     0.134 A 
ATOM     63  C   UNL A   1      38.270  31.629  36.683  1.00  0.00     0.134 A 
ATOM     64  F   UNL A   1      40.458  34.062  35.107  1.00  0.00    -0.206 F 
ATOM     65  C   UNL A   1      39.195  34.218  37.080  1.00  0.00     0.040 A 
ATOM     66  C   UNL A   1      37.843  32.358  37.794  1.00  0.00     0.040 A 
ATOM     67  F   UNL A   1      37.807  30.379  36.535  1.00  0.00    -0.206 F 
ATOM     68  C   UNL A   1      38.311  33.655  37.998  1.00  0.00     0.006 A 
ENDBRANCH  47  61
BRANCH  48  69
ATOM     69  C   UNL A   1      41.851  27.295  27.486  1.00  0.00     0.057 A 
ATOM     70  C   UNL A   1      41.547  25.948  27.258  1.00  0.00     0.134 A 
ATOM     71  C   UNL A   1      42.572  27.972  26.496  1.00  0.00     0.134 A 
ATOM     72  F   UNL A   1      40.875  25.243  28.180  1.00  0.00    -0.206 F 
ATOM     73  C   UNL A   1      41.952  25.296  26.092  1.00  0.00     0.040 A 
ATOM     74  C   UNL A   1      42.968  27.339  25.317  1.00  0.00     0.040 A 
ATOM     75  F   UNL A   1      42.891  29.265  26.656  1.00  0.00    -0.206 F 
ATOM     76  C   UNL A   1      42.659  25.994  25.115  1.00  0.00     0.006 A 
ENDBRANCH  48  69
BRANCH  60  77
ATOM     77  C   UNL A   1      44.453  27.628  33.938  1.00  0.00     0.057 A 
ATOM     78  C   UNL A   1      45.689  28.282  34.007  1.00  0.00     0.134 A 
ATOM     79  C   UNL A   1      44.356  26.363  34.533  1.00  0.00     0.134 A 
ATOM     80  F   UNL A   1      45.850  29.489  33.444  1.00  0.00    -0.206 F 
ATOM     81  C   UNL A   1      46.792  27.694  34.628  1.00  0.00     0.040 A 
ATOM     82  C   UNL A   1      45.445  25.774  35.177  1.00  0.00     0.040 A 
ATOM     83  F   UNL A   1      43.198  25.685  34.507  1.00  0.00    -0.206 F 
ATOM     84  C   UNL A   1      46.669  26.438  35.222  1.00  0.00     0.006 A 
ENDBRANCH  60  77
ENDBRANCH  34  35
ENDBRANCH  27  29
ENDBRANCH  26  27
ENDBRANCH  25  26
ENDBRANCH  24  25
ENDBRANCH   1  24
TORSDOF 16
ENDMDL
MODEL 2
REMARK VINA RESULT:     -10.8      0.998      2.788
REMARK SMILES Cc1ccc(Cl)c(Nc2ccccc2C(=O)OCCOCCOC(=O)c2ccc(-c3c4nc(c(-c5c(F)cccc5F)c5ccc([nH]5)c(-c5c(F)cccc5F)c5nc(c(-c6c(F)cccc6F)c6ccc3[nH]6)C=C5)C=C4)cc2)c1Cl
REMARK SMILES IDX 20 1 19 2 18 3 17 4 15 5 16 6 14 7 9 8 10 9 11 10 13 11
REMARK SMILES IDX 12 12 8 13 7 15 1 16 2 17 3 18 80 19 4 20 81 21 5 22 6 23
REMARK SMILES IDX 21 24 22 25 23 26 24 27 25 28 26 29 27 30 79 31 28 32 78 33
REMARK SMILES IDX 29 34 30 35 31 36 72 37 32 38 77 39 71 40 73 41 33 42 76 43
REMARK SMILES IDX 70 44 69 45 34 47 60 48 43 49 59 50 44 51 47 52 58 53 74 54
REMARK SMILES IDX 45 55 46 56 57 58 75 59 48 60 35 61 36 62 41 63 37 64 38 65
REMARK SMILES IDX 40 66 42 67 39 68 61 69 62 70 67 71 63 72 64 73 66 74 68 75
REMARK SMILES IDX 65 76 49 77 50 78 55 79 51 80 52 81 54 82 56 83 53 84
REMARK H PARENT 8 14 73 46 47 57
REMARK Flexibility Score: inf
ROOT
ATOM      1  O   UNL A   1      31.925  29.961  26.833  1.00  0.00    -0.374 OA
ENDROOT
BRANCH   1   2
ATOM      2  C   UNL A   1      33.024  29.224  26.302  1.00  0.00     0.202 C 
BRANCH   2   3
ATOM      3  C   UNL A   1      33.294  27.853  26.926  1.00  0.00     0.261 C 
BRANCH   3   4
ATOM      4  O   UNL A   1      32.889  26.784  26.055  1.00  0.00    -0.460 OA
BRANCH   4   5
ATOM      5  C   UNL A   1      31.754  26.140  26.428  1.00  0.00     0.340 C 
ATOM      6  O   UNL A   1      30.766  26.658  26.930  1.00  0.00    -0.246 OA
BRANCH   5   7
ATOM      7  C   UNL A   1      31.766  24.723  25.990  1.00  0.00     0.083 A 
ATOM      8  C   UNL A   1      31.268  24.229  24.768  1.00  0.00     0.053 A 
ATOM      9  C   UNL A   1      31.347  22.836  24.554  1.00  0.00     0.027 A 
ATOM     10  C   UNL A   1      31.907  21.970  25.498  1.00  0.00     0.002 A 
ATOM     11  C   UNL A   1      32.334  23.842  26.935  1.00  0.00     0.018 A 
ATOM     12  C   UNL A   1      32.406  22.474  26.689  1.00  0.00     0.001 A 
BRANCH   8  13
ATOM     13  N   UNL A   1      30.786  24.986  23.678  1.00  0.00    -0.352 N 
ATOM     14  H   UNL A   1      30.176  24.485  23.090  1.00  0.00     0.167 HD
BRANCH  13  15
ATOM     15  C   UNL A   1      31.004  26.321  23.260  1.00  0.00     0.077 A 
ATOM     16  C   UNL A   1      33.851  28.778  22.489  1.00  0.00     0.046 C 
ATOM     17  C   UNL A   1      32.473  28.213  22.710  1.00  0.00    -0.030 A 
ATOM     18  C   UNL A   1      31.395  29.093  22.865  1.00  0.00     0.006 A 
ATOM     19  C   UNL A   1      32.253  26.826  22.836  1.00  0.00     0.069 A 
ATOM     20  C   UNL A   1      30.127  28.602  23.151  1.00  0.00     0.023 A 
ATOM     21  Cl  UNL A   1      33.516  25.735  22.335  1.00  0.00    -0.082 Cl
ATOM     22  C   UNL A   1      29.939  27.239  23.374  1.00  0.00     0.066 A 
ATOM     23  Cl  UNL A   1      28.349  26.707  23.814  1.00  0.00    -0.082 Cl
ENDBRANCH  13  15
ENDBRANCH   8  13
ENDBRANCH   5   7
ENDBRANCH   4   5
ENDBRANCH   3   4
ENDBRANCH   2   3
ENDBRANCH   1   2
BRANCH   1  24
ATOM     24  C   UNL A   1      31.532  31.149  26.149  1.00  0.00     0.202 C 
BRANCH  24  25
ATOM     25  C   UNL A   1      31.470  32.438  26.979  1.00  0.00     0.261 C 
BRANCH  25  26
ATOM     26  O   UNL A   1      32.614  33.290  26.805  1.00  0.00    -0.460 OA
BRANCH  26  27
ATOM     27  C   UNL A   1      33.150  33.762  27.957  1.00  0.00     0.338 C 
ATOM     28  O   UNL A   1      32.656  34.575  28.727  1.00  0.00    -0.246 OA
BRANCH  27  29
ATOM     29  C   UNL A   1      34.402  33.056  28.277  1.00  0.00     0.060 A 
ATOM     30  C   UNL A   1      34.317  31.705  28.633  1.00  0.00     0.016 A 
ATOM     31  C   UNL A   1      35.619  33.734  28.351  1.00  0.00     0.016 A 
ATOM     32  C   UNL A   1      35.443  31.035  29.111  1.00  0.00     0.010 A 
ATOM     33  C   UNL A   1      36.748  33.063  28.837  1.00  0.00     0.010 A 
ATOM     34  C   UNL A   1      36.655  31.722  29.252  1.00  0.00    -0.014 A 
BRANCH  34  35
ATOM     35  C   UNL A   1      37.795  31.069  29.942  1.00  0.00     0.031 A 
ATOM     36  C   UNL A   1      38.070  31.391  31.382  1.00  0.00     0.074 A 
ATOM     37  C   UNL A   1      38.574  30.186  29.294  1.00  0.00     0.049 A 
ATOM     38  N   UNL A   1      39.025  30.952  32.160  1.00  0.00    -0.248 NA
ATOM     39  C   UNL A   1      37.144  32.332  32.031  1.00  0.00     0.031 C 
ATOM     40  C   UNL A   1      38.387  29.768  27.909  1.00  0.00     0.029 A 
ATOM     41  N   UNL A   1      39.684  29.494  29.708  1.00  0.00    -0.354 N 
ATOM     42  C   UNL A   1      38.818  31.561  33.390  1.00  0.00     0.074 A 
ATOM     43  C   UNL A   1      37.664  32.424  33.246  1.00  0.00     0.031 C 
ATOM     44  C   UNL A   1      39.368  28.914  27.572  1.00  0.00     0.029 A 
ATOM     45  C   UNL A   1      40.258  28.737  28.718  1.00  0.00     0.049 A 
ATOM     46  H   UNL A   1      40.034  29.537  30.628  1.00  0.00     0.167 HD
ATOM     47  C   UNL A   1      39.520  31.408  34.537  1.00  0.00     0.037 A 
ATOM     48  C   UNL A   1      41.383  27.998  28.730  1.00  0.00     0.037 A 
ATOM     49  C   UNL A   1      40.667  30.550  34.681  1.00  0.00     0.049 A 
ATOM     50  C   UNL A   1      42.185  27.892  29.997  1.00  0.00     0.074 A 
ATOM     51  C   UNL A   1      41.418  30.295  35.815  1.00  0.00     0.029 A 
ATOM     52  N   UNL A   1      41.237  29.818  33.650  1.00  0.00    -0.354 N 
ATOM     53  N   UNL A   1      41.953  28.435  31.167  1.00  0.00    -0.248 NA
ATOM     54  C   UNL A   1      43.399  27.065  29.949  1.00  0.00     0.031 C 
ATOM     55  C   UNL A   1      42.470  29.444  35.459  1.00  0.00     0.029 A 
ATOM     56  C   UNL A   1      42.350  29.136  34.114  1.00  0.00     0.049 A 
ATOM     57  H   UNL A   1      40.901  29.788  32.725  1.00  0.00     0.167 HD
ATOM     58  C   UNL A   1      42.976  28.002  31.999  1.00  0.00     0.074 A 
ATOM     59  C   UNL A   1      43.826  27.141  31.202  1.00  0.00     0.031 C 
ATOM     60  C   UNL A   1      43.190  28.287  33.307  1.00  0.00     0.037 A 
BRANCH  47  61
ATOM     61  C   UNL A   1      39.074  32.209  35.724  1.00  0.00     0.057 A 
ATOM     62  C   UNL A   1      39.478  33.537  35.912  1.00  0.00     0.134 A 
ATOM     63  C   UNL A   1      38.222  31.649  36.682  1.00  0.00     0.134 A 
ATOM     64  F   UNL A   1      40.308  34.127  35.038  1.00  0.00    -0.206 F 
ATOM     65  C   UNL A   1      39.070  34.271  37.027  1.00  0.00     0.040 A 
ATOM     66  C   UNL A   1      37.789  32.381  37.789  1.00  0.00     0.040 A 
ATOM     67  F   UNL A   1      37.796  30.383  36.558  1.00  0.00    -0.206 F 
ATOM     68  C   UNL A   1      38.218  33.694  37.967  1.00  0.00     0.006 A 
ENDBRANCH  47  61
BRANCH  48  69
ATOM     69  C   UNL A   1      41.823  27.308  27.493  1.00  0.00     0.057 A 
ATOM     70  C   UNL A   1      41.509  25.965  27.260  1.00  0.00     0.134 A 
ATOM     71  C   UNL A   1      42.561  27.979  26.511  1.00  0.00     0.134 A 
ATOM     72  F   UNL A   1      40.820  25.265  28.174  1.00  0.00    -0.206 F 
ATOM     73  C   UNL A   1      41.920  25.310  26.098  1.00  0.00     0.040 A 
ATOM     74  C   UNL A   1      42.963  27.344  25.336  1.00  0.00     0.040 A 
ATOM     75  F   UNL A   1      42.889  29.269  26.676  1.00  0.00    -0.206 F 
ATOM     76  C   UNL A   1      42.645  26.002  25.129  1.00  0.00     0.006 A 
ENDBRANCH  48  69
BRANCH  60  77
ATOM     77  C   UNL A   1      44.380  27.652  33.962  1.00  0.00     0.057 A 
ATOM     78  C   UNL A   1      44.310  26.379  34.541  1.00  0.00     0.134 A 
ATOM     79  C   UNL A   1      45.620  28.304  33.979  1.00  0.00     0.134 A 
ATOM     80  F   UNL A   1      43.149  25.708  34.569  1.00  0.00    -0.206 F 
ATOM     81  C   UNL A   1      45.427  25.784  35.130  1.00  0.00     0.040 A 
ATOM     82  C   UNL A   1      46.749  27.711  34.545  1.00  0.00     0.040 A 
ATOM     83  F   UNL A   1      45.755  29.524  33.436  1.00  0.00    -0.206 F 
ATOM     84  C   UNL A   1      46.653  26.448  35.126  1.00  0.00     0.006 A 
ENDBRANCH  60  77
ENDBRANCH  34  35
ENDBRANCH  27  29
ENDBRANCH  26  27
ENDBRANCH  25  26
ENDBRANCH  24  25
ENDBRANCH   1  24
TORSDOF 16
ENDMDL
MODEL 3
REMARK VINA RESULT:     -10.7      1.682      2.441
REMARK SMILES Cc1ccc(Cl)c(Nc2ccccc2C(=O)OCCOCCOC(=O)c2ccc(-c3c4nc(c(-c5c(F)cccc5F)c5ccc([nH]5)c(-c5c(F)cccc5F)c5nc(c(-c6c(F)cccc6F)c6ccc3[nH]6)C=C5)C=C4)cc2)c1Cl
REMARK SMILES IDX 20 1 19 2 18 3 17 4 15 5 16 6 14 7 9 8 10 9 11 10 13 11
REMARK SMILES IDX 12 12 8 13 7 15 1 16 2 17 3 18 80 19 4 20 81 21 5 22 6 23
REMARK SMILES IDX 21 24 22 25 23 26 24 27 25 28 26 29 27 30 79 31 28 32 78 33
REMARK SMILES IDX 29 34 30 35 31 36 72 37 32 38 77 39 71 40 73 41 33 42 76 43
REMARK SMILES IDX 70 44 69 45 34 47 60 48 43 49 59 50 44 51 47 52 58 53 74 54
REMARK SMILES IDX 45 55 46 56 57 58 75 59 48 60 35 61 36 62 41 63 37 64 38 65
REMARK SMILES IDX 40 66 42 67 39 68 61 69 62 70 67 71 63 72 64 73 66 74 68 75
REMARK SMILES IDX 65 76 49 77 50 78 55 79 51 80 52 81 54 82 56 83 53 84
REMARK H PARENT 8 14 73 46 47 57
REMARK Flexibility Score: inf
ROOT
ATOM      1  O   UNL A   1      32.855  30.580  27.280  1.00  0.00    -0.374 OA
ENDROOT
BRANCH   1   2
ATOM      2  C   UNL A   1      32.942  29.188  26.982  1.00  0.00     0.202 C 
BRANCH   2   3
ATOM      3  C   UNL A   1      31.751  28.323  27.401  1.00  0.00     0.261 C 
BRANCH   3   4
ATOM      4  O   UNL A   1      31.187  27.620  26.281  1.00  0.00    -0.460 OA
BRANCH   4   5
ATOM      5  C   UNL A   1      31.555  26.317  26.178  1.00  0.00     0.340 C 
ATOM      6  O   UNL A   1      31.229  25.416  26.938  1.00  0.00    -0.246 OA
BRANCH   5   7
ATOM      7  C   UNL A   1      32.277  26.056  24.908  1.00  0.00     0.083 A 
ATOM      8  C   UNL A   1      33.347  25.156  24.734  1.00  0.00     0.053 A 
ATOM      9  C   UNL A   1      33.919  25.076  23.446  1.00  0.00     0.027 A 
ATOM     10  C   UNL A   1      33.446  25.838  22.373  1.00  0.00     0.002 A 
ATOM     11  C   UNL A   1      31.803  26.818  23.820  1.00  0.00     0.018 A 
ATOM     12  C   UNL A   1      32.383  26.708  22.559  1.00  0.00     0.001 A 
BRANCH   8  13
ATOM     13  N   UNL A   1      33.852  24.241  25.683  1.00  0.00    -0.352 N 
ATOM     14  H   UNL A   1      33.873  24.597  26.600  1.00  0.00     0.167 HD
BRANCH  13  15
ATOM     15  C   UNL A   1      34.334  22.914  25.581  1.00  0.00     0.077 A 
ATOM     16  C   UNL A   1      37.548  20.960  24.816  1.00  0.00     0.046 C 
ATOM     17  C   UNL A   1      36.109  21.276  25.123  1.00  0.00    -0.030 A 
ATOM     18  C   UNL A   1      35.142  20.279  24.951  1.00  0.00     0.006 A 
ATOM     19  C   UNL A   1      35.702  22.570  25.510  1.00  0.00     0.069 A 
ATOM     20  C   UNL A   1      33.797  20.567  25.148  1.00  0.00     0.023 A 
ATOM     21  Cl  UNL A   1      36.920  23.706  26.023  1.00  0.00    -0.082 Cl
ATOM     22  C   UNL A   1      33.396  21.871  25.431  1.00  0.00     0.066 A 
ATOM     23  Cl  UNL A   1      31.696  22.177  25.577  1.00  0.00    -0.082 Cl
ENDBRANCH  13  15
ENDBRANCH   8  13
ENDBRANCH   5   7
ENDBRANCH   4   5
ENDBRANCH   3   4
ENDBRANCH   2   3
ENDBRANCH   1   2
BRANCH   1  24
ATOM     24  C   UNL A   1      31.826  31.331  26.640  1.00  0.00     0.202 C 
BRANCH  24  25
ATOM     25  C   UNL A   1      31.778  32.835  26.940  1.00  0.00     0.261 C 
BRANCH  25  26
ATOM     26  O   UNL A   1      33.077  33.435  27.076  1.00  0.00    -0.460 OA
BRANCH  26  27
ATOM     27  C   UNL A   1      33.231  34.208  28.179  1.00  0.00     0.338 C 
ATOM     28  O   UNL A   1      32.519  35.135  28.541  1.00  0.00    -0.246 OA
BRANCH  27  29
ATOM     29  C   UNL A   1      34.331  33.705  29.020  1.00  0.00     0.060 A 
ATOM     30  C   UNL A   1      35.632  34.115  28.705  1.00  0.00     0.016 A 
ATOM     31  C   UNL A   1      34.108  32.752  30.014  1.00  0.00     0.016 A 
ATOM     32  C   UNL A   1      36.723  33.538  29.355  1.00  0.00     0.010 A 
ATOM     33  C   UNL A   1      35.203  32.168  30.661  1.00  0.00     0.010 A 
ATOM     34  C   UNL A   1      36.516  32.533  30.309  1.00  0.00    -0.014 A 
BRANCH  34  35
ATOM     35  C   UNL A   1      37.675  31.784  30.853  1.00  0.00     0.031 A 
ATOM     36  C   UNL A   1      38.188  32.111  32.224  1.00  0.00     0.074 A 
ATOM     37  C   UNL A   1      38.260  30.810  30.135  1.00  0.00     0.049 A 
ATOM     38  N   UNL A   1      39.200  31.596  32.874  1.00  0.00    -0.248 NA
ATOM     39  C   UNL A   1      37.465  33.158  32.963  1.00  0.00     0.031 C 
ATOM     40  C   UNL A   1      37.831  30.380  28.809  1.00  0.00     0.029 A 
ATOM     41  N   UNL A   1      39.345  30.018  30.412  1.00  0.00    -0.354 N 
ATOM     42  C   UNL A   1      39.237  32.253  34.096  1.00  0.00     0.074 A 
ATOM     43  C   UNL A   1      38.164  33.226  34.086  1.00  0.00     0.031 C 
ATOM     44  C   UNL A   1      38.664  29.422  28.368  1.00  0.00     0.029 A 
ATOM     45  C   UNL A   1      39.690  29.182  29.380  1.00  0.00     0.049 A 
ATOM     46  H   UNL A   1      39.829  30.047  31.269  1.00  0.00     0.167 HD
ATOM     47  C   UNL A   1      40.081  32.056  35.136  1.00  0.00     0.037 A 
ATOM     48  C   UNL A   1      40.727  28.332  29.259  1.00  0.00     0.037 A 
ATOM     49  C   UNL A   1      41.146  31.088  35.146  1.00  0.00     0.049 A 
ATOM     50  C   UNL A   1      41.692  28.175  30.401  1.00  0.00     0.074 A 
ATOM     51  C   UNL A   1      42.027  30.785  36.170  1.00  0.00     0.029 A 
ATOM     52  N   UNL A   1      41.485  30.277  34.074  1.00  0.00    -0.354 N 
ATOM     53  N   UNL A   1      41.689  28.768  31.570  1.00  0.00    -0.248 NA
ATOM     54  C   UNL A   1      42.799  27.226  30.211  1.00  0.00     0.031 C 
ATOM     55  C   UNL A   1      42.927  29.822  35.700  1.00  0.00     0.029 A 
ATOM     56  C   UNL A   1      42.581  29.495  34.400  1.00  0.00     0.049 A 
ATOM     57  H   UNL A   1      41.015  30.258  33.209  1.00  0.00     0.167 HD
ATOM     58  C   UNL A   1      42.776  28.251  32.263  1.00  0.00     0.074 A 
ATOM     59  C   UNL A   1      43.411  27.289  31.386  1.00  0.00     0.031 C 
ATOM     60  C   UNL A   1      43.206  28.545  33.514  1.00  0.00     0.037 A 
BRANCH  47  61
ATOM     61  C   UNL A   1      39.895  32.927  36.342  1.00  0.00     0.057 A 
ATOM     62  C   UNL A   1      40.623  34.112  36.516  1.00  0.00     0.134 A 
ATOM     63  C   UNL A   1      38.969  32.583  37.333  1.00  0.00     0.134 A 
ATOM     64  F   UNL A   1      41.537  34.489  35.609  1.00  0.00    -0.206 F 
ATOM     65  C   UNL A   1      40.454  34.910  37.649  1.00  0.00     0.040 A 
ATOM     66  C   UNL A   1      38.776  33.385  38.459  1.00  0.00     0.040 A 
ATOM     67  F   UNL A   1      38.239  31.463  37.224  1.00  0.00    -0.206 F 
ATOM     68  C   UNL A   1      39.524  34.549  38.623  1.00  0.00     0.006 A 
ENDBRANCH  47  61
BRANCH  48  69
ATOM     69  C   UNL A   1      40.910  27.570  27.999  1.00  0.00     0.057 A 
ATOM     70  C   UNL A   1      41.670  28.085  26.943  1.00  0.00     0.134 A 
ATOM     71  C   UNL A   1      40.334  26.307  27.826  1.00  0.00     0.134 A 
ATOM     72  F   UNL A   1      42.230  29.300  27.044  1.00  0.00    -0.206 F 
ATOM     73  C   UNL A   1      41.844  27.374  25.755  1.00  0.00     0.040 A 
ATOM     74  C   UNL A   1      40.514  25.575  26.652  1.00  0.00     0.040 A 
ATOM     75  F   UNL A   1      39.597  25.759  28.804  1.00  0.00    -0.206 F 
ATOM     76  C   UNL A   1      41.270  26.111  25.610  1.00  0.00     0.006 A 
ENDBRANCH  48  69
BRANCH  60  77
ATOM     77  C   UNL A   1      44.411  27.807  34.015  1.00  0.00     0.057 A 
ATOM     78  C   UNL A   1      45.702  28.338  33.900  1.00  0.00     0.134 A 
ATOM     79  C   UNL A   1      44.275  26.568  34.656  1.00  0.00     0.134 A 
ATOM     80  F   UNL A   1      45.900  29.513  33.284  1.00  0.00    -0.206 F 
ATOM     81  C   UNL A   1      46.817  27.655  34.388  1.00  0.00     0.040 A 
ATOM     82  C   UNL A   1      45.379  25.887  35.169  1.00  0.00     0.040 A 
ATOM     83  F   UNL A   1      43.065  26.008  34.804  1.00  0.00    -0.206 F 
ATOM     84  C   UNL A   1      46.656  26.428  35.032  1.00  0.00     0.006 A 
ENDBRANCH  60  77
ENDBRANCH  34  35
ENDBRANCH  27  29
ENDBRANCH  26  27
ENDBRANCH  25  26
ENDBRANCH  24  25
ENDBRANCH   1  24
TORSDOF 16
ENDMDL
