MODEL 1
REMARK VINA RESULT:     -11.0      0.000      0.000
REMARK SMILES Cc1cc2[nH]ccc2nc1C(=O)OCCOCCOC(=O)c1ccc(-c2c3nc(c(-c4c(F)cccc4F)c4ccc([nH]4)c(-c4c(F)cccc4F)c4nc(c(-c5c(F)cccc5F)c5ccc2[nH]5)C=C4)C=C3)cc1
REMARK SMILES IDX 17 1 16 2 15 3 14 4 13 5 11 6 12 7 10 8 1 9 2 10 3 11 4 12
REMARK SMILES IDX 9 13 5 14 8 15 6 16 7 18 18 19 19 20 20 21 21 22 22 23 23 24
REMARK SMILES IDX 75 25 24 26 74 27 25 28 26 29 27 30 68 31 28 32 73 33 67 34
REMARK SMILES IDX 69 35 29 36 72 37 66 38 65 39 30 41 56 42 39 43 55 44 40 45
REMARK SMILES IDX 43 46 54 47 70 48 41 49 42 50 53 52 71 53 44 54 31 55 32 56
REMARK SMILES IDX 37 57 33 58 34 59 36 60 38 61 35 62 57 63 58 64 63 65 59 66
REMARK SMILES IDX 60 67 62 68 64 69 61 70 45 71 46 72 51 73 47 74 48 75 50 76
REMARK SMILES IDX 52 77 49 78
REMARK H PARENT 5 17 69 40 43 51
REMARK Flexibility Score: inf
ROOT
ATOM      1  C   UNL A   1      42.448  19.153  26.378  1.00  0.00     0.202 C 
ENDROOT
BRANCH   1   2
ATOM      2  O   UNL A   1      41.348  19.761  25.711  1.00  0.00    -0.374 OA
BRANCH   2   3
ATOM      3  C   UNL A   1      41.038  21.128  25.980  1.00  0.00     0.202 C 
BRANCH   3   4
ATOM      4  C   UNL A   1      39.634  21.439  26.499  1.00  0.00     0.261 C 
BRANCH   4   5
ATOM      5  O   UNL A   1      38.788  21.943  25.450  1.00  0.00    -0.459 OA
BRANCH   5   6
ATOM      6  C   UNL A   1      37.763  21.126  25.089  1.00  0.00     0.357 C 
ATOM      7  O   UNL A   1      37.863  19.936  24.828  1.00  0.00    -0.244 OA
BRANCH   6   8
ATOM      8  C   UNL A   1      36.445  21.836  25.193  1.00  0.00     0.152 A 
ATOM      9  C   UNL A   1      36.653  22.953  22.901  1.00  0.00     0.047 C 
ATOM     10  C   UNL A   1      35.902  22.613  24.155  1.00  0.00    -0.016 A 
ATOM     11  C   UNL A   1      34.594  23.101  24.308  1.00  0.00     0.034 A 
ATOM     12  C   UNL A   1      33.950  22.809  25.510  1.00  0.00     0.064 A 
ATOM     13  N   UNL A   1      35.832  21.590  26.383  1.00  0.00    -0.239 NA
ATOM     14  N   UNL A   1      32.687  23.100  25.968  1.00  0.00    -0.360 N 
ATOM     15  C   UNL A   1      34.590  22.097  26.515  1.00  0.00     0.089 A 
ATOM     16  C   UNL A   1      32.541  22.652  27.258  1.00  0.00     0.085 A 
ATOM     17  H   UNL A   1      31.989  23.562  25.448  1.00  0.00     0.166 HD
ATOM     18  C   UNL A   1      33.716  22.032  27.624  1.00  0.00     0.048 A 
ENDBRANCH   6   8
ENDBRANCH   5   6
ENDBRANCH   4   5
ENDBRANCH   3   4
ENDBRANCH   2   3
ENDBRANCH   1   2
BRANCH   1  19
ATOM     19  C   UNL A   1      43.489  18.453  25.516  1.00  0.00     0.261 C 
BRANCH  19  20
ATOM     20  O   UNL A   1      44.692  19.199  25.377  1.00  0.00    -0.460 OA
BRANCH  20  21
ATOM     21  C   UNL A   1      44.757  19.917  24.230  1.00  0.00     0.338 C 
ATOM     22  O   UNL A   1      44.875  19.490  23.098  1.00  0.00    -0.246 OA
BRANCH  21  23
ATOM     23  C   UNL A   1      44.867  21.339  24.576  1.00  0.00     0.060 A 
ATOM     24  C   UNL A   1      45.553  21.633  25.753  1.00  0.00     0.016 A 
ATOM     25  C   UNL A   1      44.079  22.298  23.919  1.00  0.00     0.016 A 
ATOM     26  C   UNL A   1      45.279  22.825  26.384  1.00  0.00     0.010 A 
ATOM     27  C   UNL A   1      43.808  23.492  24.551  1.00  0.00     0.010 A 
ATOM     28  C   UNL A   1      44.345  23.705  25.814  1.00  0.00    -0.014 A 
BRANCH  28  29
ATOM     29  C   UNL A   1      44.077  24.940  26.523  1.00  0.00     0.031 A 
ATOM     30  C   UNL A   1      45.184  25.903  26.357  1.00  0.00     0.074 A 
ATOM     31  C   UNL A   1      42.958  25.184  27.232  1.00  0.00     0.049 A 
ATOM     32  N   UNL A   1      46.079  26.194  27.238  1.00  0.00    -0.248 NA
ATOM     33  C   UNL A   1      45.470  26.427  25.014  1.00  0.00     0.031 C 
ATOM     34  C   UNL A   1      41.720  24.403  27.277  1.00  0.00     0.029 A 
ATOM     35  N   UNL A   1      42.678  26.248  28.040  1.00  0.00    -0.354 N 
ATOM     36  C   UNL A   1      46.911  27.127  26.632  1.00  0.00     0.074 A 
ATOM     37  C   UNL A   1      46.612  27.084  25.227  1.00  0.00     0.031 C 
ATOM     38  C   UNL A   1      40.752  25.127  27.891  1.00  0.00     0.029 A 
ATOM     39  C   UNL A   1      41.342  26.344  28.423  1.00  0.00     0.049 A 
ATOM     40  H   UNL A   1      43.363  26.894  28.328  1.00  0.00     0.167 HD
ATOM     41  C   UNL A   1      47.544  28.055  27.399  1.00  0.00     0.037 A 
ATOM     42  C   UNL A   1      40.785  27.363  29.124  1.00  0.00     0.037 A 
ATOM     43  C   UNL A   1      47.523  27.662  28.786  1.00  0.00     0.049 A 
ATOM     44  C   UNL A   1      41.874  28.018  29.879  1.00  0.00     0.074 A 
ATOM     45  C   UNL A   1      48.192  26.767  29.590  1.00  0.00     0.029 A 
ATOM     46  N   UNL A   1      46.362  28.002  29.430  1.00  0.00    -0.354 N 
ATOM     47  N   UNL A   1      42.488  27.454  30.879  1.00  0.00    -0.248 NA
ATOM     48  C   UNL A   1      42.531  29.193  29.317  1.00  0.00     0.031 C 
ATOM     49  C   UNL A   1      47.311  26.464  30.672  1.00  0.00     0.029 A 
ATOM     50  C   UNL A   1      46.145  27.212  30.523  1.00  0.00     0.049 A 
ATOM     51  H   UNL A   1      45.759  28.725  29.140  1.00  0.00     0.167 HD
ATOM     52  C   UNL A   1      43.783  27.920  30.782  1.00  0.00     0.074 A 
ATOM     53  C   UNL A   1      43.708  29.107  29.941  1.00  0.00     0.031 C 
ATOM     54  C   UNL A   1      44.831  27.115  31.113  1.00  0.00     0.037 A 
BRANCH  41  55
ATOM     55  C   UNL A   1      47.684  29.512  27.013  1.00  0.00     0.057 A 
ATOM     56  C   UNL A   1      48.915  30.155  27.245  1.00  0.00     0.134 A 
ATOM     57  C   UNL A   1      46.604  30.377  26.743  1.00  0.00     0.134 A 
ATOM     58  F   UNL A   1      50.020  29.448  27.528  1.00  0.00    -0.206 F 
ATOM     59  C   UNL A   1      49.040  31.549  27.282  1.00  0.00     0.040 A 
ATOM     60  C   UNL A   1      46.728  31.769  26.732  1.00  0.00     0.040 A 
ATOM     61  F   UNL A   1      45.350  29.941  26.579  1.00  0.00    -0.206 F 
ATOM     62  C   UNL A   1      47.942  32.362  27.033  1.00  0.00     0.006 A 
ENDBRANCH  41  55
BRANCH  42  63
ATOM     63  C   UNL A   1      39.442  27.981  29.057  1.00  0.00     0.057 A 
ATOM     64  C   UNL A   1      38.624  28.044  30.198  1.00  0.00     0.134 A 
ATOM     65  C   UNL A   1      39.091  28.831  27.998  1.00  0.00     0.134 A 
ATOM     66  F   UNL A   1      38.889  27.282  31.270  1.00  0.00    -0.206 F 
ATOM     67  C   UNL A   1      37.565  28.952  30.310  1.00  0.00     0.040 A 
ATOM     68  C   UNL A   1      38.032  29.743  28.096  1.00  0.00     0.040 A 
ATOM     69  F   UNL A   1      39.830  28.878  26.880  1.00  0.00    -0.206 F 
ATOM     70  C   UNL A   1      37.281  29.823  29.264  1.00  0.00     0.006 A 
ENDBRANCH  42  63
BRANCH  54  71
ATOM     71  C   UNL A   1      44.549  25.963  32.025  1.00  0.00     0.057 A 
ATOM     72  C   UNL A   1      44.353  24.641  31.605  1.00  0.00     0.134 A 
ATOM     73  C   UNL A   1      44.561  26.203  33.402  1.00  0.00     0.134 A 
ATOM     74  F   UNL A   1      44.387  24.314  30.305  1.00  0.00    -0.206 F 
ATOM     75  C   UNL A   1      44.152  23.605  32.523  1.00  0.00     0.040 A 
ATOM     76  C   UNL A   1      44.393  25.175  34.329  1.00  0.00     0.040 A 
ATOM     77  F   UNL A   1      44.774  27.444  33.870  1.00  0.00    -0.206 F 
ATOM     78  C   UNL A   1      44.181  23.871  33.891  1.00  0.00     0.006 A 
ENDBRANCH  54  71
ENDBRANCH  28  29
ENDBRANCH  21  23
ENDBRANCH  20  21
ENDBRANCH  19  20
ENDBRANCH   1  19
TORSDOF 14
ENDMDL
MODEL 2
REMARK VINA RESULT:     -10.4      5.130     10.700
REMARK SMILES Cc1cc2[nH]ccc2nc1C(=O)OCCOCCOC(=O)c1ccc(-c2c3nc(c(-c4c(F)cccc4F)c4ccc([nH]4)c(-c4c(F)cccc4F)c4nc(c(-c5c(F)cccc5F)c5ccc2[nH]5)C=C4)C=C3)cc1
REMARK SMILES IDX 17 1 16 2 15 3 14 4 13 5 11 6 12 7 10 8 1 9 2 10 3 11 4 12
REMARK SMILES IDX 9 13 5 14 8 15 6 16 7 18 18 19 19 20 20 21 21 22 22 23 23 24
REMARK SMILES IDX 75 25 24 26 74 27 25 28 26 29 27 30 68 31 28 32 73 33 67 34
REMARK SMILES IDX 69 35 29 36 72 37 66 38 65 39 30 41 56 42 39 43 55 44 40 45
REMARK SMILES IDX 43 46 54 47 70 48 41 49 42 50 53 52 71 53 44 54 31 55 32 56
REMARK SMILES IDX 37 57 33 58 34 59 36 60 38 61 35 62 57 63 58 64 63 65 59 66
REMARK SMILES IDX 60 67 62 68 64 69 61 70 45 71 46 72 51 73 47 74 48 75 50 76
REMARK SMILES IDX 52 77 49 78
REMARK H PARENT 5 17 69 40 43 51
REMARK Flexibility Score: inf
ROOT
ATOM      1  C   UNL A   1      34.763  34.474  29.532  1.00  0.00     0.202 C 
ENDROOT
BRANCH   1   2
ATOM      2  O   UNL A   1      34.069  33.778  30.561  1.00  0.00    -0.374 OA
BRANCH   2   3
ATOM      3  C   UNL A   1      34.759  32.785  31.320  1.00  0.00     0.202 C 
BRANCH   3   4
ATOM      4  C   UNL A   1      34.629  32.851  32.841  1.00  0.00     0.261 C 
BRANCH   4   5
ATOM      5  O   UNL A   1      35.879  33.205  33.458  1.00  0.00    -0.459 OA
BRANCH   5   6
ATOM      6  C   UNL A   1      36.295  34.481  33.235  1.00  0.00     0.357 C 
ATOM      7  O   UNL A   1      35.633  35.487  33.439  1.00  0.00    -0.244 OA
BRANCH   6   8
ATOM      8  C   UNL A   1      37.742  34.516  32.839  1.00  0.00     0.152 A 
ATOM      9  C   UNL A   1      38.594  34.521  35.252  1.00  0.00     0.047 C 
ATOM     10  C   UNL A   1      38.797  34.457  33.766  1.00  0.00    -0.016 A 
ATOM     11  C   UNL A   1      40.107  34.341  33.272  1.00  0.00     0.034 A 
ATOM     12  C   UNL A   1      40.258  34.339  31.886  1.00  0.00     0.064 A 
ATOM     13  N   UNL A   1      37.896  34.558  31.488  1.00  0.00    -0.239 NA
ATOM     14  N   UNL A   1      41.369  34.214  31.085  1.00  0.00    -0.360 N 
ATOM     15  C   UNL A   1      39.166  34.478  31.042  1.00  0.00     0.089 A 
ATOM     16  C   UNL A   1      41.012  34.342  29.765  1.00  0.00     0.085 A 
ATOM     17  H   UNL A   1      42.285  34.058  31.409  1.00  0.00     0.166 HD
ATOM     18  C   UNL A   1      39.646  34.516  29.713  1.00  0.00     0.048 A 
ENDBRANCH   6   8
ENDBRANCH   5   6
ENDBRANCH   4   5
ENDBRANCH   3   4
ENDBRANCH   2   3
ENDBRANCH   1   2
BRANCH   1  19
ATOM     19  C   UNL A   1      34.621  33.948  28.112  1.00  0.00     0.261 C 
BRANCH  19  20
ATOM     20  O   UNL A   1      35.680  33.079  27.730  1.00  0.00    -0.460 OA
BRANCH  20  21
ATOM     21  C   UNL A   1      35.330  31.769  27.711  1.00  0.00     0.338 C 
ATOM     22  O   UNL A   1      34.296  31.289  27.292  1.00  0.00    -0.246 OA
BRANCH  21  23
ATOM     23  C   UNL A   1      36.325  31.010  28.477  1.00  0.00     0.060 A 
ATOM     24  C   UNL A   1      37.461  31.714  28.876  1.00  0.00     0.016 A 
ATOM     25  C   UNL A   1      36.265  29.608  28.537  1.00  0.00     0.016 A 
ATOM     26  C   UNL A   1      38.609  31.000  29.136  1.00  0.00     0.010 A 
ATOM     27  C   UNL A   1      37.414  28.896  28.799  1.00  0.00     0.010 A 
ATOM     28  C   UNL A   1      38.591  29.602  29.013  1.00  0.00    -0.014 A 
BRANCH  28  29
ATOM     29  C   UNL A   1      39.828  28.896  29.280  1.00  0.00     0.031 A 
ATOM     30  C   UNL A   1      40.137  28.885  30.724  1.00  0.00     0.074 A 
ATOM     31  C   UNL A   1      40.592  28.313  28.336  1.00  0.00     0.049 A 
ATOM     32  N   UNL A   1      41.024  29.609  31.318  1.00  0.00    -0.248 NA
ATOM     33  C   UNL A   1      39.228  28.178  31.637  1.00  0.00     0.031 C 
ATOM     34  C   UNL A   1      40.272  28.072  26.927  1.00  0.00     0.029 A 
ATOM     35  N   UNL A   1      41.830  27.753  28.469  1.00  0.00    -0.354 N 
ATOM     36  C   UNL A   1      40.943  29.268  32.662  1.00  0.00     0.074 A 
ATOM     37  C   UNL A   1      39.712  28.545  32.825  1.00  0.00     0.031 C 
ATOM     38  C   UNL A   1      41.189  27.227  26.394  1.00  0.00     0.029 A 
ATOM     39  C   UNL A   1      42.242  27.002  27.371  1.00  0.00     0.049 A 
ATOM     40  H   UNL A   1      42.384  27.870  29.273  1.00  0.00     0.167 HD
ATOM     41  C   UNL A   1      42.054  29.357  33.441  1.00  0.00     0.037 A 
ATOM     42  C   UNL A   1      43.372  26.254  27.295  1.00  0.00     0.037 A 
ATOM     43  C   UNL A   1      43.061  30.162  32.794  1.00  0.00     0.049 A 
ATOM     44  C   UNL A   1      44.326  26.806  28.280  1.00  0.00     0.074 A 
ATOM     45  C   UNL A   1      43.295  31.501  32.577  1.00  0.00     0.029 A 
ATOM     46  N   UNL A   1      43.817  29.463  31.889  1.00  0.00    -0.354 N 
ATOM     47  N   UNL A   1      44.896  27.970  28.147  1.00  0.00    -0.248 NA
ATOM     48  C   UNL A   1      44.408  26.213  29.610  1.00  0.00     0.031 C 
ATOM     49  C   UNL A   1      44.102  31.582  31.403  1.00  0.00     0.029 A 
ATOM     50  C   UNL A   1      44.376  30.291  30.957  1.00  0.00     0.049 A 
ATOM     51  H   UNL A   1      43.941  28.486  31.910  1.00  0.00     0.167 HD
ATOM     52  C   UNL A   1      45.012  28.436  29.439  1.00  0.00     0.074 A 
ATOM     53  C   UNL A   1      44.877  27.262  30.291  1.00  0.00     0.031 C 
ATOM     54  C   UNL A   1      44.871  29.764  29.707  1.00  0.00     0.037 A 
BRANCH  41  55
ATOM     55  C   UNL A   1      42.444  28.321  34.474  1.00  0.00     0.057 A 
ATOM     56  C   UNL A   1      42.759  27.020  34.037  1.00  0.00     0.134 A 
ATOM     57  C   UNL A   1      42.208  28.441  35.859  1.00  0.00     0.134 A 
ATOM     58  F   UNL A   1      42.993  26.766  32.741  1.00  0.00    -0.206 F 
ATOM     59  C   UNL A   1      42.762  25.917  34.900  1.00  0.00     0.040 A 
ATOM     60  C   UNL A   1      42.254  27.354  36.736  1.00  0.00     0.040 A 
ATOM     61  F   UNL A   1      41.818  29.586  36.430  1.00  0.00    -0.206 F 
ATOM     62  C   UNL A   1      42.500  26.080  36.254  1.00  0.00     0.006 A 
ENDBRANCH  41  55
BRANCH  42  63
ATOM     63  C   UNL A   1      43.655  24.970  26.616  1.00  0.00     0.057 A 
ATOM     64  C   UNL A   1      42.935  23.810  26.948  1.00  0.00     0.134 A 
ATOM     65  C   UNL A   1      44.358  24.935  25.403  1.00  0.00     0.134 A 
ATOM     66  F   UNL A   1      42.216  23.753  28.079  1.00  0.00    -0.206 F 
ATOM     67  C   UNL A   1      42.855  22.708  26.088  1.00  0.00     0.040 A 
ATOM     68  C   UNL A   1      44.290  23.837  24.536  1.00  0.00     0.040 A 
ATOM     69  F   UNL A   1      45.045  26.004  24.974  1.00  0.00    -0.206 F 
ATOM     70  C   UNL A   1      43.515  22.729  24.866  1.00  0.00     0.006 A 
ENDBRANCH  42  63
BRANCH  54  71
ATOM     71  C   UNL A   1      45.094  30.719  28.577  1.00  0.00     0.057 A 
ATOM     72  C   UNL A   1      44.101  31.147  27.686  1.00  0.00     0.134 A 
ATOM     73  C   UNL A   1      46.363  31.289  28.445  1.00  0.00     0.134 A 
ATOM     74  F   UNL A   1      42.842  30.697  27.781  1.00  0.00    -0.206 F 
ATOM     75  C   UNL A   1      44.372  32.090  26.689  1.00  0.00     0.040 A 
ATOM     76  C   UNL A   1      46.639  32.252  27.475  1.00  0.00     0.040 A 
ATOM     77  F   UNL A   1      47.350  30.943  29.288  1.00  0.00    -0.206 F 
ATOM     78  C   UNL A   1      45.644  32.651  26.588  1.00  0.00     0.006 A 
ENDBRANCH  54  71
ENDBRANCH  28  29
ENDBRANCH  21  23
ENDBRANCH  20  21
ENDBRANCH  19  20
ENDBRANCH   1  19
TORSDOF 14
ENDMDL
MODEL 3
REMARK VINA RESULT:     -10.3      3.349      6.159
REMARK SMILES Cc1cc2[nH]ccc2nc1C(=O)OCCOCCOC(=O)c1ccc(-c2c3nc(c(-c4c(F)cccc4F)c4ccc([nH]4)c(-c4c(F)cccc4F)c4nc(c(-c5c(F)cccc5F)c5ccc2[nH]5)C=C4)C=C3)cc1
REMARK SMILES IDX 17 1 16 2 15 3 14 4 13 5 11 6 12 7 10 8 1 9 2 10 3 11 4 12
REMARK SMILES IDX 9 13 5 14 8 15 6 16 7 18 18 19 19 20 20 21 21 22 22 23 23 24
REMARK SMILES IDX 75 25 24 26 74 27 25 28 26 29 27 30 68 31 28 32 73 33 67 34
REMARK SMILES IDX 69 35 29 36 72 37 66 38 65 39 30 41 56 42 39 43 55 44 40 45
REMARK SMILES IDX 43 46 54 47 70 48 41 49 42 50 53 52 71 53 44 54 31 55 32 56
REMARK SMILES IDX 37 57 33 58 34 59 36 60 38 61 35 62 57 63 58 64 63 65 59 66
REMARK SMILES IDX 60 67 62 68 64 69 61 70 45 71 46 72 51 73 47 74 48 75 50 76
REMARK SMILES IDX 52 77 49 78
REMARK H PARENT 5 17 69 40 43 51
REMARK Flexibility Score: inf
ROOT
ATOM      1  C   UNL A   1      42.212  19.226  26.456  1.00  0.00     0.202 C 
ENDROOT
BRANCH   1   2
ATOM      2  O   UNL A   1      42.847  19.133  25.186  1.00  0.00    -0.374 OA
BRANCH   2   3
ATOM      3  C   UNL A   1      44.272  19.154  25.115  1.00  0.00     0.202 C 
BRANCH   3   4
ATOM      4  C   UNL A   1      44.919  20.328  24.380  1.00  0.00     0.261 C 
BRANCH   4   5
ATOM      5  O   UNL A   1      44.770  21.553  25.119  1.00  0.00    -0.459 OA
BRANCH   5   6
ATOM      6  C   UNL A   1      45.067  22.686  24.428  1.00  0.00     0.357 C 
ATOM      7  O   UNL A   1      44.930  22.838  23.223  1.00  0.00    -0.244 OA
BRANCH   6   8
ATOM      8  C   UNL A   1      45.453  23.799  25.358  1.00  0.00     0.152 A 
ATOM      9  C   UNL A   1      43.257  25.074  25.044  1.00  0.00     0.047 C 
ATOM     10  C   UNL A   1      44.589  24.855  25.698  1.00  0.00    -0.016 A 
ATOM     11  C   UNL A   1      45.003  25.753  26.696  1.00  0.00     0.034 A 
ATOM     12  C   UNL A   1      46.270  25.548  27.241  1.00  0.00     0.064 A 
ATOM     13  N   UNL A   1      46.706  23.628  25.859  1.00  0.00    -0.239 NA
ATOM     14  N   UNL A   1      46.960  26.206  28.232  1.00  0.00    -0.360 N 
ATOM     15  C   UNL A   1      47.090  24.523  26.791  1.00  0.00     0.089 A 
ATOM     16  C   UNL A   1      48.215  25.666  28.367  1.00  0.00     0.085 A 
ATOM     17  H   UNL A   1      46.607  26.954  28.766  1.00  0.00     0.166 HD
ATOM     18  C   UNL A   1      48.323  24.622  27.475  1.00  0.00     0.048 A 
ENDBRANCH   6   8
ENDBRANCH   5   6
ENDBRANCH   4   5
ENDBRANCH   3   4
ENDBRANCH   2   3
ENDBRANCH   1   2
BRANCH   1  19
ATOM     19  C   UNL A   1      40.864  19.930  26.515  1.00  0.00     0.261 C 
BRANCH  19  20
ATOM     20  O   UNL A   1      40.892  21.125  27.287  1.00  0.00    -0.460 OA
BRANCH  20  21
ATOM     21  C   UNL A   1      41.157  22.236  26.558  1.00  0.00     0.338 C 
ATOM     22  O   UNL A   1      41.640  22.290  25.444  1.00  0.00    -0.246 OA
BRANCH  21  23
ATOM     23  C   UNL A   1      40.955  23.412  27.412  1.00  0.00     0.060 A 
ATOM     24  C   UNL A   1      39.933  24.280  27.030  1.00  0.00     0.016 A 
ATOM     25  C   UNL A   1      41.919  23.778  28.366  1.00  0.00     0.016 A 
ATOM     26  C   UNL A   1      40.002  25.589  27.450  1.00  0.00     0.010 A 
ATOM     27  C   UNL A   1      41.985  25.088  28.786  1.00  0.00     0.010 A 
ATOM     28  C   UNL A   1      41.076  25.996  28.257  1.00  0.00    -0.014 A 
BRANCH  28  29
ATOM     29  C   UNL A   1      41.116  27.388  28.659  1.00  0.00     0.031 A 
ATOM     30  C   UNL A   1      42.282  28.080  28.076  1.00  0.00     0.074 A 
ATOM     31  C   UNL A   1      40.201  27.978  29.452  1.00  0.00     0.049 A 
ATOM     32  N   UNL A   1      43.364  28.404  28.698  1.00  0.00    -0.248 NA
ATOM     33  C   UNL A   1      42.361  28.226  26.616  1.00  0.00     0.031 C 
ATOM     34  C   UNL A   1      38.906  27.454  29.895  1.00  0.00     0.029 A 
ATOM     35  N   UNL A   1      40.226  29.230  29.995  1.00  0.00    -0.354 N 
ATOM     36  C   UNL A   1      44.172  29.015  27.747  1.00  0.00     0.074 A 
ATOM     37  C   UNL A   1      43.597  28.706  26.467  1.00  0.00     0.031 C 
ATOM     38  C   UNL A   1      38.180  28.456  30.450  1.00  0.00     0.029 A 
ATOM     39  C   UNL A   1      39.016  29.641  30.550  1.00  0.00     0.049 A 
ATOM     40  H   UNL A   1      41.031  29.795  29.994  1.00  0.00     0.167 HD
ATOM     41  C   UNL A   1      45.059  29.969  28.138  1.00  0.00     0.037 A 
ATOM     42  C   UNL A   1      38.745  30.874  31.047  1.00  0.00     0.037 A 
ATOM     43  C   UNL A   1      45.263  29.914  29.565  1.00  0.00     0.049 A 
ATOM     44  C   UNL A   1      40.037  31.485  31.423  1.00  0.00     0.074 A 
ATOM     45  C   UNL A   1      45.958  29.123  30.453  1.00  0.00     0.029 A 
ATOM     46  N   UNL A   1      44.306  30.587  30.278  1.00  0.00    -0.354 N 
ATOM     47  N   UNL A   1      40.760  31.067  32.422  1.00  0.00    -0.248 NA
ATOM     48  C   UNL A   1      40.715  32.368  30.481  1.00  0.00     0.031 C 
ATOM     49  C   UNL A   1      45.277  29.233  31.703  1.00  0.00     0.029 A 
ATOM     50  C   UNL A   1      44.211  30.118  31.557  1.00  0.00     0.049 A 
ATOM     51  H   UNL A   1      43.757  31.318  29.913  1.00  0.00     0.167 HD
ATOM     52  C   UNL A   1      42.059  31.265  32.003  1.00  0.00     0.074 A 
ATOM     53  C   UNL A   1      41.972  32.224  30.909  1.00  0.00     0.031 C 
ATOM     54  C   UNL A   1      43.039  30.388  32.356  1.00  0.00     0.037 A 
BRANCH  41  55
ATOM     55  C   UNL A   1      45.306  31.253  27.375  1.00  0.00     0.057 A 
ATOM     56  C   UNL A   1      46.605  31.512  26.896  1.00  0.00     0.134 A 
ATOM     57  C   UNL A   1      44.440  32.366  27.376  1.00  0.00     0.134 A 
ATOM     58  F   UNL A   1      47.531  30.542  26.855  1.00  0.00    -0.206 F 
ATOM     59  C   UNL A   1      47.026  32.794  26.522  1.00  0.00     0.040 A 
ATOM     60  C   UNL A   1      44.838  33.639  26.962  1.00  0.00     0.040 A 
ATOM     61  F   UNL A   1      43.199  32.317  27.873  1.00  0.00    -0.206 F 
ATOM     62  C   UNL A   1      46.144  33.866  26.562  1.00  0.00     0.006 A 
ENDBRANCH  41  55
BRANCH  42  63
ATOM     63  C   UNL A   1      37.507  31.684  31.040  1.00  0.00     0.057 A 
ATOM     64  C   UNL A   1      36.831  31.950  29.836  1.00  0.00     0.134 A 
ATOM     65  C   UNL A   1      36.776  31.897  32.218  1.00  0.00     0.134 A 
ATOM     66  F   UNL A   1      37.440  31.760  28.656  1.00  0.00    -0.206 F 
ATOM     67  C   UNL A   1      35.484  32.330  29.803  1.00  0.00     0.040 A 
ATOM     68  C   UNL A   1      35.429  32.280  32.199  1.00  0.00     0.040 A 
ATOM     69  F   UNL A   1      37.314  31.635  33.418  1.00  0.00    -0.206 F 
ATOM     70  C   UNL A   1      34.772  32.473  30.988  1.00  0.00     0.006 A 
ENDBRANCH  42  63
BRANCH  54  71
ATOM     71  C   UNL A   1      42.798  29.542  33.566  1.00  0.00     0.057 A 
ATOM     72  C   UNL A   1      42.989  29.965  34.888  1.00  0.00     0.134 A 
ATOM     73  C   UNL A   1      42.268  28.263  33.373  1.00  0.00     0.134 A 
ATOM     74  F   UNL A   1      43.436  31.199  35.164  1.00  0.00    -0.206 F 
ATOM     75  C   UNL A   1      42.685  29.135  35.971  1.00  0.00     0.040 A 
ATOM     76  C   UNL A   1      41.931  27.437  34.444  1.00  0.00     0.040 A 
ATOM     77  F   UNL A   1      42.034  27.810  32.130  1.00  0.00    -0.206 F 
ATOM     78  C   UNL A   1      42.146  27.869  35.750  1.00  0.00     0.006 A 
ENDBRANCH  54  71
ENDBRANCH  28  29
ENDBRANCH  21  23
ENDBRANCH  20  21
ENDBRANCH  19  20
ENDBRANCH   1  19
TORSDOF 14
ENDMDL
