MODEL 1
REMARK VINA RESULT:     -13.6      0.000      0.000
REMARK SMILES O=C(OCCOCCOC(=O)c1ccc(-c2c3nc(c(-c4c(F)cccc4F)c4ccc([nH]4)c(-c4c(F)cccc4F)c4nc(c(-c5c(F)cccc5F)c5ccc2[nH]5)C=C4)C=C3)cc1)C1=Cc2cc(Cl)cc(-c3ccc(Cl)cc3)c2O[C@@H]1C(F)(F)F
REMARK SMILES IDX 7 1 6 2 5 3 4 4 3 5 2 6 1 7 66 8 67 9 83 10 68 11 82 12
REMARK SMILES IDX 69 13 81 14 70 15 73 16 71 17 72 18 84 19 85 20 86 21 87 22
REMARK SMILES IDX 74 23 75 24 80 25 76 26 79 27 77 28 78 29 8 30 9 31 10 32
REMARK SMILES IDX 11 33 12 34 13 35 65 36 14 37 64 38 15 39 16 40 17 41 58 42
REMARK SMILES IDX 18 43 63 44 57 45 59 46 19 47 62 48 56 49 55 50 20 52 46 53
REMARK SMILES IDX 29 54 45 55 30 56 33 57 44 58 60 59 31 60 32 61 43 63 61 64
REMARK SMILES IDX 34 65 21 66 22 67 27 68 23 69 24 70 26 71 28 72 25 73 47 74
REMARK SMILES IDX 48 75 53 76 49 77 50 78 52 79 54 80 51 81 35 82 36 83 41 84
REMARK SMILES IDX 37 85 38 86 40 87 42 88 39 89
REMARK H PARENT 59 51 33 62
REMARK Flexibility Score: inf
ROOT
ATOM      1  C   UNL A   1      37.096  21.193  25.052  1.00  0.00     0.202 C 
ENDROOT
BRANCH   1   2
ATOM      2  O   UNL A   1      35.646  20.973  25.426  1.00  0.00    -0.374 OA
BRANCH   2   3
ATOM      3  C   UNL A   1      34.677  21.595  26.746  1.00  0.00     0.202 C 
BRANCH   3   4
ATOM      4  C   UNL A   1      32.521  21.912  26.627  1.00  0.00     0.261 C 
BRANCH   4   5
ATOM      5  O   UNL A   1      31.764  22.543  25.535  1.00  0.00    -0.460 OA
BRANCH   5   6
ATOM      6  C   UNL A   1      31.588  23.840  25.805  1.00  0.00     0.338 C 
ATOM      7  O   UNL A   1      30.822  24.282  26.632  1.00  0.00    -0.246 OA
BRANCH   6   8
ATOM      8  C   UNL A   1      32.063  24.468  24.542  1.00  0.00     0.087 C 
ATOM      9  C   UNL A   1      31.107  25.210  23.736  1.00  0.00     0.027 C 
ATOM     10  C   UNL A   1      33.411  25.290  25.581  1.00  0.00     0.316 C 
ATOM     11  C   UNL A   1      30.837  26.982  23.814  1.00  0.00     0.019 A 
ATOM     12  O   UNL A   1      33.033  27.187  25.917  1.00  0.00    -0.475 OA
ATOM     13  C   UNL A   1      29.852  27.540  23.039  1.00  0.00     0.032 A 
ATOM     14  C   UNL A   1      31.665  27.984  24.936  1.00  0.00     0.135 A 
ATOM     15  C   UNL A   1      29.597  28.898  23.282  1.00  0.00     0.042 A 
ATOM     16  C   UNL A   1      31.404  29.309  25.034  1.00  0.00     0.026 A 
ATOM     17  Cl  UNL A   1      28.322  29.642  22.371  1.00  0.00    -0.084 Cl
ATOM     18  C   UNL A   1      30.313  29.726  24.228  1.00  0.00     0.033 A 
BRANCH  10  19
ATOM     19  C   UNL A   1      34.579  24.516  24.561  1.00  0.00     0.430 C 
ATOM     20  F   UNL A   1      34.295  23.305  24.060  1.00  0.00    -0.167 F 
ATOM     21  F   UNL A   1      34.707  25.307  23.447  1.00  0.00    -0.167 F 
ATOM     22  F   UNL A   1      35.849  24.459  25.047  1.00  0.00    -0.167 F 
ENDBRANCH  10  19
BRANCH  16  23
ATOM     23  C   UNL A   1      32.162  30.186  25.853  1.00  0.00    -0.015 A 
ATOM     24  C   UNL A   1      31.432  31.993  26.293  1.00  0.00     0.010 A 
ATOM     25  C   UNL A   1      34.047  29.771  26.568  1.00  0.00     0.010 A 
ATOM     26  C   UNL A   1      32.106  33.448  27.496  1.00  0.00     0.021 A 
ATOM     27  C   UNL A   1      34.781  31.312  27.624  1.00  0.00     0.021 A 
ATOM     28  C   UNL A   1      33.970  33.043  28.206  1.00  0.00     0.041 A 
ATOM     29  Cl  UNL A   1      34.805  34.147  29.222  1.00  0.00    -0.084 Cl
ENDBRANCH  16  23
ENDBRANCH   6   8
ENDBRANCH   5   6
ENDBRANCH   4   5
ENDBRANCH   3   4
ENDBRANCH   2   3
ENDBRANCH   1   2
BRANCH   1  30
ATOM     30  C   UNL A   1      38.231  20.152  24.932  1.00  0.00     0.261 C 
BRANCH  30  31
ATOM     31  O   UNL A   1      38.733  19.699  26.171  1.00  0.00    -0.460 OA
BRANCH  31  32
ATOM     32  C   UNL A   1      40.056  19.964  26.152  1.00  0.00     0.338 C 
ATOM     33  O   UNL A   1      40.887  19.157  25.751  1.00  0.00    -0.246 OA
BRANCH  32  34
ATOM     34  C   UNL A   1      40.384  21.427  26.824  1.00  0.00     0.060 A 
ATOM     35  C   UNL A   1      39.955  23.375  26.485  1.00  0.00     0.016 A 
ATOM     36  C   UNL A   1      41.105  21.510  27.651  1.00  0.00     0.016 A 
ATOM     37  C   UNL A   1      40.013  24.748  26.674  1.00  0.00     0.010 A 
ATOM     38  C   UNL A   1      41.317  23.473  27.911  1.00  0.00     0.010 A 
ATOM     39  C   UNL A   1      40.926  24.786  27.561  1.00  0.00    -0.014 A 
BRANCH  39  40
ATOM     40  C   UNL A   1      41.540  26.001  27.950  1.00  0.00     0.031 A 
ATOM     41  C   UNL A   1      42.898  26.242  27.433  1.00  0.00     0.074 A 
ATOM     42  C   UNL A   1      40.765  26.814  28.661  1.00  0.00     0.049 A 
ATOM     43  N   UNL A   1      43.622  27.305  27.548  1.00  0.00    -0.248 NA
ATOM     44  C   UNL A   1      43.540  25.141  26.695  1.00  0.00     0.031 C 
ATOM     45  C   UNL A   1      39.402  26.513  29.118  1.00  0.00     0.029 A 
ATOM     46  N   UNL A   1      41.009  28.071  29.082  1.00  0.00    -0.354 N 
ATOM     47  C   UNL A   1      44.801  26.995  26.898  1.00  0.00     0.074 A 
ATOM     48  C   UNL A   1      44.749  25.622  26.479  1.00  0.00     0.031 C 
ATOM     49  C   UNL A   1      38.913  27.595  29.736  1.00  0.00     0.029 A 
ATOM     50  C   UNL A   1      39.943  28.622  29.730  1.00  0.00     0.049 A 
ATOM     51  H   UNL A   1      41.862  28.539  28.938  1.00  0.00     0.167 HD
ATOM     52  C   UNL A   1      45.812  27.841  26.649  1.00  0.00     0.037 A 
ATOM     53  C   UNL A   1      39.862  29.852  30.244  1.00  0.00     0.037 A 
ATOM     54  C   UNL A   1      45.776  29.191  27.118  1.00  0.00     0.049 A 
ATOM     55  C   UNL A   1      41.052  30.737  30.032  1.00  0.00     0.074 A 
ATOM     56  C   UNL A   1      46.724  30.176  26.974  1.00  0.00     0.029 A 
ATOM     57  N   UNL A   1      44.723  29.728  27.853  1.00  0.00    -0.354 N 
ATOM     58  N   UNL A   1      42.174  30.482  29.394  1.00  0.00    -0.248 NA
ATOM     59  C   UNL A   1      40.963  32.083  30.590  1.00  0.00     0.031 C 
ATOM     60  C   UNL A   1      46.292  31.277  27.716  1.00  0.00     0.029 A 
ATOM     61  C   UNL A   1      45.018  31.024  28.213  1.00  0.00     0.049 A 
ATOM     62  H   UNL A   1      43.891  29.252  28.081  1.00  0.00     0.167 HD
ATOM     63  C   UNL A   1      42.914  31.650  29.435  1.00  0.00     0.074 A 
ATOM     64  C   UNL A   1      42.092  32.615  30.148  1.00  0.00     0.031 C 
ATOM     65  C   UNL A   1      44.146  31.922  28.932  1.00  0.00     0.037 A 
BRANCH  52  66
ATOM     66  C   UNL A   1      46.999  27.290  25.939  1.00  0.00     0.057 A 
ATOM     67  C   UNL A   1      47.175  27.403  24.552  1.00  0.00     0.134 A 
ATOM     68  C   UNL A   1      47.961  26.576  26.658  1.00  0.00     0.134 A 
ATOM     69  F   UNL A   1      46.262  28.035  23.795  1.00  0.00    -0.206 F 
ATOM     70  C   UNL A   1      48.253  26.802  23.904  1.00  0.00     0.040 A 
ATOM     71  C   UNL A   1      49.066  26.009  26.029  1.00  0.00     0.040 A 
ATOM     72  F   UNL A   1      47.833  26.404  27.983  1.00  0.00    -0.206 F 
ATOM     73  C   UNL A   1      49.210  26.113  24.647  1.00  0.00     0.006 A 
ENDBRANCH  52  66
BRANCH  53  74
ATOM     74  C   UNL A   1      38.642  30.277  30.953  1.00  0.00     0.057 A 
ATOM     75  C   UNL A   1      37.626  30.972  30.294  1.00  0.00     0.134 A 
ATOM     76  C   UNL A   1      38.463  29.997  32.314  1.00  0.00     0.134 A 
ATOM     77  F   UNL A   1      37.730  31.240  28.984  1.00  0.00    -0.206 F 
ATOM     78  C   UNL A   1      36.505  31.436  30.977  1.00  0.00     0.040 A 
ATOM     79  C   UNL A   1      37.330  30.418  33.001  1.00  0.00     0.040 A 
ATOM     80  F   UNL A   1      39.384  29.292  32.991  1.00  0.00    -0.206 F 
ATOM     81  C   UNL A   1      36.357  31.162  32.336  1.00  0.00     0.006 A 
ENDBRANCH  53  74
BRANCH  65  82
ATOM     82  C   UNL A   1      44.623  33.331  29.081  1.00  0.00     0.057 A 
ATOM     83  C   UNL A   1      45.354  33.763  30.193  1.00  0.00     0.134 A 
ATOM     84  C   UNL A   1      44.355  34.265  28.070  1.00  0.00     0.134 A 
ATOM     85  F   UNL A   1      45.649  32.912  31.189  1.00  0.00    -0.206 F 
ATOM     86  C   UNL A   1      45.730  35.095  30.333  1.00  0.00     0.040 A 
ATOM     87  C   UNL A   1      44.786  35.583  28.170  1.00  0.00     0.040 A 
ATOM     88  F   UNL A   1      43.688  33.905  26.963  1.00  0.00    -0.206 F 
ATOM     89  C   UNL A   1      45.452  36.007  29.316  1.00  0.00     0.006 A 
ENDBRANCH  65  82
ENDBRANCH  39  40
ENDBRANCH  32  34
ENDBRANCH  31  32
ENDBRANCH  30  31
ENDBRANCH   1  30
TORSDOF 16
ENDMDL
MODEL 2
REMARK VINA RESULT:     -13.6      4.185      9.709
REMARK SMILES O=C(OCCOCCOC(=O)c1ccc(-c2c3nc(c(-c4c(F)cccc4F)c4ccc([nH]4)c(-c4c(F)cccc4F)c4nc(c(-c5c(F)cccc5F)c5ccc2[nH]5)C=C4)C=C3)cc1)C1=Cc2cc(Cl)cc(-c3ccc(Cl)cc3)c2O[C@@H]1C(F)(F)F
REMARK SMILES IDX 7 1 6 2 5 3 4 4 3 5 2 6 1 7 66 8 67 9 83 10 68 11 82 12
REMARK SMILES IDX 69 13 81 14 70 15 73 16 71 17 72 18 84 19 85 20 86 21 87 22
REMARK SMILES IDX 74 23 75 24 80 25 76 26 79 27 77 28 78 29 8 30 9 31 10 32
REMARK SMILES IDX 11 33 12 34 13 35 65 36 14 37 64 38 15 39 16 40 17 41 58 42
REMARK SMILES IDX 18 43 63 44 57 45 59 46 19 47 62 48 56 49 55 50 20 52 46 53
REMARK SMILES IDX 29 54 45 55 30 56 33 57 44 58 60 59 31 60 32 61 43 63 61 64
REMARK SMILES IDX 34 65 21 66 22 67 27 68 23 69 24 70 26 71 28 72 25 73 47 74
REMARK SMILES IDX 48 75 53 76 49 77 50 78 52 79 54 80 51 81 35 82 36 83 41 84
REMARK SMILES IDX 37 85 38 86 40 87 42 88 39 89
REMARK H PARENT 59 51 33 62
REMARK Flexibility Score: inf
ROOT
ATOM      1  C   UNL A   1      31.777  30.722  26.200  1.00  0.00     0.202 C 
ENDROOT
BRANCH   1   2
ATOM      2  O   UNL A   1      30.918  30.619  24.959  1.00  0.00    -0.374 OA
BRANCH   2   3
ATOM      3  C   UNL A   1      30.511  29.259  23.933  1.00  0.00     0.202 C 
BRANCH   3   4
ATOM      4  C   UNL A   1      31.945  28.239  22.642  1.00  0.00     0.261 C 
BRANCH   4   5
ATOM      5  O   UNL A   1      31.810  26.914  22.018  1.00  0.00    -0.460 OA
BRANCH   5   6
ATOM      6  C   UNL A   1      32.833  26.139  22.390  1.00  0.00     0.338 C 
ATOM      7  O   UNL A   1      33.662  25.673  21.641  1.00  0.00    -0.246 OA
BRANCH   6   8
ATOM      8  C   UNL A   1      32.335  25.599  23.685  1.00  0.00     0.087 C 
ATOM      9  C   UNL A   1      31.785  24.254  23.708  1.00  0.00     0.027 C 
ATOM     10  C   UNL A   1      34.027  26.046  24.401  1.00  0.00     0.316 C 
ATOM     11  C   UNL A   1      32.696  22.765  24.122  1.00  0.00     0.019 A 
ATOM     12  O   UNL A   1      35.171  24.467  24.637  1.00  0.00    -0.475 OA
ATOM     13  C   UNL A   1      32.062  21.552  24.038  1.00  0.00     0.032 A 
ATOM     14  C   UNL A   1      34.376  22.791  24.474  1.00  0.00     0.135 A 
ATOM     15  C   UNL A   1      32.888  20.431  24.216  1.00  0.00     0.042 A 
ATOM     16  C   UNL A   1      35.069  21.654  24.718  1.00  0.00     0.026 A 
ATOM     17  Cl  UNL A   1      32.151  18.869  24.064  1.00  0.00    -0.084 Cl
ATOM     18  C   UNL A   1      34.302  20.476  24.520  1.00  0.00     0.033 A 
BRANCH  10  19
ATOM     19  C   UNL A   1      33.204  27.048  25.550  1.00  0.00     0.430 C 
ATOM     20  F   UNL A   1      31.869  26.965  25.638  1.00  0.00    -0.167 F 
ATOM     21  F   UNL A   1      33.637  26.654  26.790  1.00  0.00    -0.167 F 
ATOM     22  F   UNL A   1      33.519  28.372  25.520  1.00  0.00    -0.167 F 
ENDBRANCH  10  19
BRANCH  16  23
ATOM     23  C   UNL A   1      36.423  21.652  25.142  1.00  0.00    -0.015 A 
ATOM     24  C   UNL A   1      37.488  19.965  25.017  1.00  0.00     0.010 A 
ATOM     25  C   UNL A   1      37.380  23.267  25.987  1.00  0.00     0.010 A 
ATOM     26  C   UNL A   1      39.422  19.577  25.376  1.00  0.00     0.021 A 
ATOM     27  C   UNL A   1      39.265  22.809  26.503  1.00  0.00     0.021 A 
ATOM     28  C   UNL A   1      40.373  21.171  26.211  1.00  0.00     0.041 A 
ATOM     29  Cl  UNL A   1      42.027  21.095  26.666  1.00  0.00    -0.084 Cl
ENDBRANCH  16  23
ENDBRANCH   6   8
ENDBRANCH   5   6
ENDBRANCH   4   5
ENDBRANCH   3   4
ENDBRANCH   2   3
ENDBRANCH   1   2
BRANCH   1  30
ATOM     30  C   UNL A   1      31.848  31.866  27.235  1.00  0.00     0.261 C 
BRANCH  30  31
ATOM     31  O   UNL A   1      32.432  33.053  26.743  1.00  0.00    -0.460 OA
BRANCH  31  32
ATOM     32  C   UNL A   1      33.009  33.649  27.809  1.00  0.00     0.338 C 
ATOM     33  O   UNL A   1      32.528  34.635  28.356  1.00  0.00    -0.246 OA
BRANCH  32  34
ATOM     34  C   UNL A   1      34.451  32.954  28.177  1.00  0.00     0.060 A 
ATOM     35  C   UNL A   1      35.148  31.158  28.795  1.00  0.00     0.016 A 
ATOM     36  C   UNL A   1      35.367  33.563  28.221  1.00  0.00     0.016 A 
ATOM     37  C   UNL A   1      36.085  30.231  29.228  1.00  0.00     0.010 A 
ATOM     38  C   UNL A   1      36.742  32.314  28.939  1.00  0.00     0.010 A 
ATOM     39  C   UNL A   1      37.085  31.007  29.356  1.00  0.00    -0.014 A 
BRANCH  39  40
ATOM     40  C   UNL A   1      38.274  30.595  30.006  1.00  0.00     0.031 A 
ATOM     41  C   UNL A   1      38.433  31.016  31.407  1.00  0.00     0.074 A 
ATOM     42  C   UNL A   1      39.052  29.793  29.286  1.00  0.00     0.049 A 
ATOM     43  N   UNL A   1      39.359  30.683  32.244  1.00  0.00    -0.248 NA
ATOM     44  C   UNL A   1      37.425  31.945  31.948  1.00  0.00     0.031 C 
ATOM     45  C   UNL A   1      38.812  29.392  27.893  1.00  0.00     0.029 A 
ATOM     46  N   UNL A   1      40.178  29.148  29.649  1.00  0.00    -0.354 N 
ATOM     47  C   UNL A   1      39.041  31.365  33.403  1.00  0.00     0.074 A 
ATOM     48  C   UNL A   1      37.906  32.207  33.147  1.00  0.00     0.031 C 
ATOM     49  C   UNL A   1      39.764  28.524  27.531  1.00  0.00     0.029 A 
ATOM     50  C   UNL A   1      40.670  28.352  28.656  1.00  0.00     0.049 A 
ATOM     51  H   UNL A   1      40.599  29.241  30.533  1.00  0.00     0.167 HD
ATOM     52  C   UNL A   1      39.652  31.232  34.591  1.00  0.00     0.037 A 
ATOM     53  C   UNL A   1      41.752  27.572  28.711  1.00  0.00     0.037 A 
ATOM     54  C   UNL A   1      40.785  30.373  34.745  1.00  0.00     0.049 A 
ATOM     55  C   UNL A   1      42.467  27.526  30.027  1.00  0.00     0.074 A 
ATOM     56  C   UNL A   1      41.537  30.137  35.871  1.00  0.00     0.029 A 
ATOM     57  N   UNL A   1      41.337  29.625  33.709  1.00  0.00    -0.354 N 
ATOM     58  N   UNL A   1      42.174  28.138  31.154  1.00  0.00    -0.248 NA
ATOM     59  C   UNL A   1      43.648  26.671  30.090  1.00  0.00     0.031 C 
ATOM     60  C   UNL A   1      42.610  29.330  35.489  1.00  0.00     0.029 A 
ATOM     61  C   UNL A   1      42.454  28.959  34.157  1.00  0.00     0.049 A 
ATOM     62  H   UNL A   1      40.980  29.580  32.791  1.00  0.00     0.167 HD
ATOM     63  C   UNL A   1      43.110  27.710  32.078  1.00  0.00     0.074 A 
ATOM     64  C   UNL A   1      43.966  26.771  31.371  1.00  0.00     0.031 C 
ATOM     65  C   UNL A   1      43.260  28.042  33.387  1.00  0.00     0.037 A 
BRANCH  52  66
ATOM     66  C   UNL A   1      39.150  32.076  35.711  1.00  0.00     0.057 A 
ATOM     67  C   UNL A   1      39.601  33.384  35.937  1.00  0.00     0.134 A 
ATOM     68  C   UNL A   1      38.235  31.538  36.619  1.00  0.00     0.134 A 
ATOM     69  F   UNL A   1      40.517  33.943  35.128  1.00  0.00    -0.206 F 
ATOM     70  C   UNL A   1      39.177  34.118  37.045  1.00  0.00     0.040 A 
ATOM     71  C   UNL A   1      37.770  32.276  37.704  1.00  0.00     0.040 A 
ATOM     72  F   UNL A   1      37.792  30.280  36.476  1.00  0.00    -0.206 F 
ATOM     73  C   UNL A   1      38.248  33.566  37.925  1.00  0.00     0.006 A 
ENDBRANCH  52  66
BRANCH  53  74
ATOM     74  C   UNL A   1      42.169  26.803  27.526  1.00  0.00     0.057 A 
ATOM     75  C   UNL A   1      41.852  25.449  27.393  1.00  0.00     0.134 A 
ATOM     76  C   UNL A   1      42.898  27.406  26.493  1.00  0.00     0.134 A 
ATOM     77  F   UNL A   1      41.130  24.828  28.336  1.00  0.00    -0.206 F 
ATOM     78  C   UNL A   1      42.305  24.703  26.307  1.00  0.00     0.040 A 
ATOM     79  C   UNL A   1      43.322  26.683  25.382  1.00  0.00     0.040 A 
ATOM     80  F   UNL A   1      43.192  28.715  26.542  1.00  0.00    -0.206 F 
ATOM     81  C   UNL A   1      43.046  25.320  25.300  1.00  0.00     0.006 A 
ENDBRANCH  53  74
BRANCH  65  82
ATOM     82  C   UNL A   1      44.340  27.323  34.131  1.00  0.00     0.057 A 
ATOM     83  C   UNL A   1      44.126  26.091  34.758  1.00  0.00     0.134 A 
ATOM     84  C   UNL A   1      45.625  27.877  34.196  1.00  0.00     0.134 A 
ATOM     85  F   UNL A   1      42.918  25.506  34.722  1.00  0.00    -0.206 F 
ATOM     86  C   UNL A   1      45.133  25.475  35.495  1.00  0.00     0.040 A 
ATOM     87  C   UNL A   1      46.657  27.236  34.873  1.00  0.00     0.040 A 
ATOM     88  F   UNL A   1      45.903  29.040  33.586  1.00  0.00    -0.206 F 
ATOM     89  C   UNL A   1      46.404  26.044  35.547  1.00  0.00     0.006 A 
ENDBRANCH  65  82
ENDBRANCH  39  40
ENDBRANCH  32  34
ENDBRANCH  31  32
ENDBRANCH  30  31
ENDBRANCH   1  30
TORSDOF 16
ENDMDL
MODEL 3
REMARK VINA RESULT:     -12.9      4.056      8.961
REMARK SMILES O=C(OCCOCCOC(=O)c1ccc(-c2c3nc(c(-c4c(F)cccc4F)c4ccc([nH]4)c(-c4c(F)cccc4F)c4nc(c(-c5c(F)cccc5F)c5ccc2[nH]5)C=C4)C=C3)cc1)C1=Cc2cc(Cl)cc(-c3ccc(Cl)cc3)c2O[C@@H]1C(F)(F)F
REMARK SMILES IDX 7 1 6 2 5 3 4 4 3 5 2 6 1 7 66 8 67 9 83 10 68 11 82 12
REMARK SMILES IDX 69 13 81 14 70 15 73 16 71 17 72 18 84 19 85 20 86 21 87 22
REMARK SMILES IDX 74 23 75 24 80 25 76 26 79 27 77 28 78 29 8 30 9 31 10 32
REMARK SMILES IDX 11 33 12 34 13 35 65 36 14 37 64 38 15 39 16 40 17 41 58 42
REMARK SMILES IDX 18 43 63 44 57 45 59 46 19 47 62 48 56 49 55 50 20 52 46 53
REMARK SMILES IDX 29 54 45 55 30 56 33 57 44 58 60 59 31 60 32 61 43 63 61 64
REMARK SMILES IDX 34 65 21 66 22 67 27 68 23 69 24 70 26 71 28 72 25 73 47 74
REMARK SMILES IDX 48 75 53 76 49 77 50 78 52 79 54 80 51 81 35 82 36 83 41 84
REMARK SMILES IDX 37 85 38 86 40 87 42 88 39 89
REMARK H PARENT 59 51 33 62
REMARK Flexibility Score: inf
ROOT
ATOM      1  C   UNL A   1      31.267  30.996  26.579  1.00  0.00     0.202 C 
ENDROOT
BRANCH   1   2
ATOM      2  O   UNL A   1      30.980  31.247  25.115  1.00  0.00    -0.374 OA
BRANCH   2   3
ATOM      3  C   UNL A   1      29.871  30.477  23.997  1.00  0.00     0.202 C 
BRANCH   3   4
ATOM      4  C   UNL A   1      30.506  29.332  22.252  1.00  0.00     0.261 C 
BRANCH   4   5
ATOM      5  O   UNL A   1      30.302  27.898  21.994  1.00  0.00    -0.460 OA
BRANCH   5   6
ATOM      6  C   UNL A   1      31.444  27.240  22.208  1.00  0.00     0.338 C 
ATOM      7  O   UNL A   1      31.875  26.347  21.513  1.00  0.00    -0.246 OA
BRANCH   6   8
ATOM      8  C   UNL A   1      31.642  27.466  23.666  1.00  0.00     0.087 C 
ATOM      9  C   UNL A   1      30.744  26.804  24.598  1.00  0.00     0.027 C 
ATOM     10  C   UNL A   1      33.437  26.940  23.397  1.00  0.00     0.316 C 
ATOM     11  C   UNL A   1      31.059  25.234  25.407  1.00  0.00     0.019 A 
ATOM     12  O   UNL A   1      33.779  25.115  24.037  1.00  0.00    -0.475 OA
ATOM     13  C   UNL A   1      30.090  24.695  26.214  1.00  0.00     0.032 A 
ATOM     14  C   UNL A   1      32.469  24.309  25.088  1.00  0.00     0.135 A 
ATOM     15  C   UNL A   1      30.348  23.394  26.672  1.00  0.00     0.042 A 
ATOM     16  C   UNL A   1      32.665  23.093  25.652  1.00  0.00     0.026 A 
ATOM     17  Cl  UNL A   1      29.129  22.640  27.650  1.00  0.00    -0.084 Cl
ATOM     18  C   UNL A   1      31.548  22.635  26.397  1.00  0.00     0.033 A 
BRANCH  10  19
ATOM     19  C   UNL A   1      33.916  28.484  24.023  1.00  0.00     0.430 C 
ATOM     20  F   UNL A   1      34.389  28.552  25.275  1.00  0.00    -0.167 F 
ATOM     21  F   UNL A   1      34.970  28.905  23.252  1.00  0.00    -0.167 F 
ATOM     22  F   UNL A   1      33.009  29.490  23.884  1.00  0.00    -0.167 F 
ENDBRANCH  10  19
BRANCH  16  23
ATOM     23  C   UNL A   1      33.876  22.366  25.515  1.00  0.00    -0.015 A 
ATOM     24  C   UNL A   1      35.619  23.298  25.810  1.00  0.00     0.010 A 
ATOM     25  C   UNL A   1      33.990  20.396  24.930  1.00  0.00     0.010 A 
ATOM     26  C   UNL A   1      37.506  22.622  25.847  1.00  0.00     0.021 A 
ATOM     27  C   UNL A   1      35.897  19.784  24.800  1.00  0.00     0.021 A 
ATOM     28  C   UNL A   1      37.624  20.674  25.269  1.00  0.00     0.041 A 
ATOM     29  Cl  UNL A   1      39.130  19.857  25.162  1.00  0.00    -0.084 Cl
ENDBRANCH  16  23
ENDBRANCH   6   8
ENDBRANCH   5   6
ENDBRANCH   4   5
ENDBRANCH   3   4
ENDBRANCH   2   3
ENDBRANCH   1   2
BRANCH   1  30
ATOM     30  C   UNL A   1      32.567  30.479  27.233  1.00  0.00     0.261 C 
BRANCH  30  31
ATOM     31  O   UNL A   1      33.725  31.198  26.864  1.00  0.00    -0.460 OA
BRANCH  31  32
ATOM     32  C   UNL A   1      34.304  31.583  28.022  1.00  0.00     0.338 C 
ATOM     33  O   UNL A   1      33.868  32.503  28.705  1.00  0.00    -0.246 OA
BRANCH  32  34
ATOM     34  C   UNL A   1      35.688  30.746  28.308  1.00  0.00     0.060 A 
ATOM     35  C   UNL A   1      36.493  29.618  29.783  1.00  0.00     0.016 A 
ATOM     36  C   UNL A   1      36.533  30.811  27.607  1.00  0.00     0.016 A 
ATOM     37  C   UNL A   1      37.462  28.870  30.435  1.00  0.00     0.010 A 
ATOM     38  C   UNL A   1      38.004  29.839  28.532  1.00  0.00     0.010 A 
ATOM     39  C   UNL A   1      38.432  29.066  29.636  1.00  0.00    -0.014 A 
BRANCH  39  40
ATOM     40  C   UNL A   1      39.759  28.696  29.966  1.00  0.00     0.031 A 
ATOM     41  C   UNL A   1      40.372  29.403  31.102  1.00  0.00     0.074 A 
ATOM     42  C   UNL A   1      40.246  27.682  29.257  1.00  0.00     0.049 A 
ATOM     43  N   UNL A   1      41.513  29.178  31.665  1.00  0.00    -0.248 NA
ATOM     44  C   UNL A   1      39.612  30.523  31.685  1.00  0.00     0.031 C 
ATOM     45  C   UNL A   1      39.559  27.004  28.150  1.00  0.00     0.029 A 
ATOM     46  N   UNL A   1      41.416  27.028  29.399  1.00  0.00    -0.354 N 
ATOM     47  C   UNL A   1      41.601  30.130  32.663  1.00  0.00     0.074 A 
ATOM     48  C   UNL A   1      40.461  30.999  32.574  1.00  0.00     0.031 C 
ATOM     49  C   UNL A   1      40.325  25.989  27.733  1.00  0.00     0.029 A 
ATOM     50  C   UNL A   1      41.543  25.986  28.529  1.00  0.00     0.049 A 
ATOM     51  H   UNL A   1      42.103  27.276  30.059  1.00  0.00     0.167 HD
ATOM     52  C   UNL A   1      42.561  30.208  33.597  1.00  0.00     0.037 A 
ATOM     53  C   UNL A   1      42.569  25.137  28.434  1.00  0.00     0.037 A 
ATOM     54  C   UNL A   1      43.665  29.299  33.597  1.00  0.00     0.049 A 
ATOM     55  C   UNL A   1      43.671  25.317  29.433  1.00  0.00     0.074 A 
ATOM     56  C   UNL A   1      44.737  29.249  34.457  1.00  0.00     0.029 A 
ATOM     57  N   UNL A   1      43.836  28.288  32.656  1.00  0.00    -0.354 N 
ATOM     58  N   UNL A   1      43.771  26.192  30.411  1.00  0.00    -0.248 NA
ATOM     59  C   UNL A   1      44.791  24.387  29.332  1.00  0.00     0.031 C 
ATOM     60  C   UNL A   1      45.612  28.277  33.969  1.00  0.00     0.029 A 
ATOM     61  C   UNL A   1      45.026  27.634  32.884  1.00  0.00     0.049 A 
ATOM     62  H   UNL A   1      43.201  28.073  31.934  1.00  0.00     0.167 HD
ATOM     63  C   UNL A   1      44.947  25.893  31.074  1.00  0.00     0.074 A 
ATOM     64  C   UNL A   1      45.509  24.741  30.388  1.00  0.00     0.031 C 
ATOM     65  C   UNL A   1      45.520  26.494  32.150  1.00  0.00     0.037 A 
BRANCH  52  66
ATOM     66  C   UNL A   1      42.466  31.325  34.577  1.00  0.00     0.057 A 
ATOM     67  C   UNL A   1      41.775  31.213  35.792  1.00  0.00     0.134 A 
ATOM     68  C   UNL A   1      43.034  32.563  34.265  1.00  0.00     0.134 A 
ATOM     69  F   UNL A   1      41.166  30.065  36.131  1.00  0.00    -0.206 F 
ATOM     70  C   UNL A   1      41.631  32.304  36.650  1.00  0.00     0.040 A 
ATOM     71  C   UNL A   1      42.935  33.647  35.132  1.00  0.00     0.040 A 
ATOM     72  F   UNL A   1      43.679  32.743  33.102  1.00  0.00    -0.206 F 
ATOM     73  C   UNL A   1      42.224  33.522  36.324  1.00  0.00     0.006 A 
ENDBRANCH  52  66
BRANCH  53  74
ATOM     74  C   UNL A   1      42.564  24.085  27.402  1.00  0.00     0.057 A 
ATOM     75  C   UNL A   1      42.080  22.804  27.677  1.00  0.00     0.134 A 
ATOM     76  C   UNL A   1      43.045  24.337  26.111  1.00  0.00     0.134 A 
ATOM     77  F   UNL A   1      41.579  22.515  28.887  1.00  0.00    -0.206 F 
ATOM     78  C   UNL A   1      42.139  21.788  26.725  1.00  0.00     0.040 A 
ATOM     79  C   UNL A   1      43.072  23.344  25.137  1.00  0.00     0.040 A 
ATOM     80  F   UNL A   1      43.479  25.561  25.774  1.00  0.00    -0.206 F 
ATOM     81  C   UNL A   1      42.640  22.057  25.452  1.00  0.00     0.006 A 
ENDBRANCH  53  74
BRANCH  65  82
ATOM     82  C   UNL A   1      46.768  25.858  32.674  1.00  0.00     0.057 A 
ATOM     83  C   UNL A   1      48.039  26.194  32.196  1.00  0.00     0.134 A 
ATOM     84  C   UNL A   1      46.683  24.900  33.693  1.00  0.00     0.134 A 
ATOM     85  F   UNL A   1      48.184  27.112  31.226  1.00  0.00    -0.206 F 
ATOM     86  C   UNL A   1      49.178  25.541  32.658  1.00  0.00     0.040 A 
ATOM     87  C   UNL A   1      47.821  24.290  34.210  1.00  0.00     0.040 A 
ATOM     88  F   UNL A   1      45.496  24.558  34.217  1.00  0.00    -0.206 F 
ATOM     89  C   UNL A   1      49.070  24.591  33.673  1.00  0.00     0.006 A 
ENDBRANCH  65  82
ENDBRANCH  39  40
ENDBRANCH  32  34
ENDBRANCH  31  32
ENDBRANCH  30  31
ENDBRANCH   1  30
TORSDOF 16
ENDMDL
