MODEL 1
REMARK VINA RESULT:     -11.2      0.000      0.000
REMARK SMILES CC(C)(C)c1ccc(NS(=O)(=O)c2cccc(C(=O)OCCOCCOC(=O)c3ccc(-c4c5nc(c(-c6c(F)cccc6F)c6ccc([nH]6)c(-c6c(F)cccc6F)c6nc(c(-c7c(F)cccc7F)c7ccc4[nH]7)C=C6)C=C5)cc3)c2)cc1
REMARK SMILES IDX 22 1 21 2 20 3 18 4 19 5 17 6 13 7 14 8 83 9 15 10 16 11
REMARK SMILES IDX 10 12 11 13 12 14 9 15 8 17 5 18 6 19 85 20 7 21 84 22 2 23
REMARK SMILES IDX 1 24 3 25 4 26 23 27 24 28 25 29 26 30 27 31 28 32 29 33
REMARK SMILES IDX 30 34 82 35 31 36 81 37 32 38 33 39 34 40 75 41 35 42 80 43
REMARK SMILES IDX 74 44 76 45 36 46 79 47 73 48 72 49 37 51 63 52 46 53 62 54
REMARK SMILES IDX 47 55 50 56 61 57 77 58 48 59 49 60 60 62 78 63 51 64 38 65
REMARK SMILES IDX 39 66 44 67 40 68 41 69 43 70 45 71 42 72 64 73 65 74 70 75
REMARK SMILES IDX 66 76 67 77 69 78 71 79 68 80 52 81 53 82 58 83 54 84 55 85
REMARK SMILES IDX 57 86 59 87 56 88
REMARK H PARENT 9 16 76 50 50 61
REMARK Flexibility Score: inf
ROOT
ATOM      1  C   UNL A   1      33.617  32.857  28.103  1.00  0.00     0.202 C 
ENDROOT
BRANCH   1   2
ATOM      2  C   UNL A   1      34.159  31.432  27.935  1.00  0.00     0.261 C 
BRANCH   2   3
ATOM      3  O   UNL A   1      33.239  30.617  27.192  1.00  0.00    -0.460 OA
BRANCH   3   4
ATOM      4  C   UNL A   1      33.773  29.515  26.613  1.00  0.00     0.338 C 
ATOM      5  O   UNL A   1      34.936  29.148  26.642  1.00  0.00    -0.246 OA
BRANCH   4   6
ATOM      6  C   UNL A   1      32.667  28.668  26.114  1.00  0.00     0.061 A 
ATOM      7  C   UNL A   1      30.939  28.141  24.521  1.00  0.00     0.088 A 
ATOM      8  C   UNL A   1      30.532  27.051  25.299  1.00  0.00     0.022 A 
ATOM      9  C   UNL A   1      31.971  28.987  24.949  1.00  0.00     0.038 A 
ATOM     10  C   UNL A   1      31.229  26.748  26.470  1.00  0.00     0.002 A 
ATOM     11  C   UNL A   1      32.310  27.537  26.862  1.00  0.00     0.016 A 
BRANCH   7  12
ATOM     12  S   UNL A   1      30.382  28.321  22.838  1.00  0.00     0.261 S 
ATOM     13  O   UNL A   1      30.770  29.641  22.391  1.00  0.00    -0.201 OA
ATOM     14  O   UNL A   1      28.999  27.892  22.812  1.00  0.00    -0.201 OA
BRANCH  12  15
ATOM     15  N   UNL A   1      31.237  27.209  21.933  1.00  0.00    -0.280 N 
ATOM     16  H   UNL A   1      31.093  27.235  20.959  1.00  0.00     0.180 HD
BRANCH  15  17
ATOM     17  C   UNL A   1      32.150  26.226  22.412  1.00  0.00     0.049 A 
ATOM     18  C   UNL A   1      33.612  24.349  23.958  1.00  0.00    -0.042 A 
ATOM     19  C   UNL A   1      34.188  25.558  23.535  1.00  0.00     0.006 A 
ATOM     20  C   UNL A   1      32.345  24.037  23.447  1.00  0.00     0.006 A 
ATOM     21  C   UNL A   1      33.481  26.466  22.735  1.00  0.00     0.027 A 
ATOM     22  C   UNL A   1      31.620  24.968  22.694  1.00  0.00     0.027 A 
BRANCH  18  23
ATOM     23  C   UNL A   1      34.351  23.445  24.959  1.00  0.00    -0.013 C 
ATOM     24  C   UNL A   1      34.401  21.962  24.525  1.00  0.00     0.016 C 
ATOM     25  C   UNL A   1      33.634  23.478  26.331  1.00  0.00     0.016 C 
ATOM     26  C   UNL A   1      35.798  23.940  25.132  1.00  0.00     0.016 C 
ENDBRANCH  18  23
ENDBRANCH  15  17
ENDBRANCH  12  15
ENDBRANCH   7  12
ENDBRANCH   4   6
ENDBRANCH   3   4
ENDBRANCH   2   3
ENDBRANCH   1   2
BRANCH   1  27
ATOM     27  O   UNL A   1      34.445  33.791  28.798  1.00  0.00    -0.374 OA
BRANCH  27  28
ATOM     28  C   UNL A   1      33.882  34.475  29.916  1.00  0.00     0.202 C 
BRANCH  28  29
ATOM     29  C   UNL A   1      34.332  34.049  31.318  1.00  0.00     0.261 C 
BRANCH  29  30
ATOM     30  O   UNL A   1      34.542  32.632  31.430  1.00  0.00    -0.460 OA
BRANCH  30  31
ATOM     31  C   UNL A   1      35.488  32.274  32.331  1.00  0.00     0.338 C 
ATOM     32  O   UNL A   1      35.444  32.401  33.542  1.00  0.00    -0.246 OA
BRANCH  31  33
ATOM     33  C   UNL A   1      36.560  31.522  31.654  1.00  0.00     0.060 A 
ATOM     34  C   UNL A   1      37.486  30.848  32.459  1.00  0.00     0.016 A 
ATOM     35  C   UNL A   1      36.699  31.538  30.266  1.00  0.00     0.016 A 
ATOM     36  C   UNL A   1      38.584  30.217  31.880  1.00  0.00     0.010 A 
ATOM     37  C   UNL A   1      37.807  30.911  29.686  1.00  0.00     0.010 A 
ATOM     38  C   UNL A   1      38.769  30.276  30.492  1.00  0.00    -0.014 A 
BRANCH  38  39
ATOM     39  C   UNL A   1      40.032  29.780  29.894  1.00  0.00     0.031 A 
ATOM     40  C   UNL A   1      41.194  30.722  29.751  1.00  0.00     0.074 A 
ATOM     41  C   UNL A   1      40.146  28.501  29.497  1.00  0.00     0.049 A 
ATOM     42  N   UNL A   1      42.363  30.522  29.198  1.00  0.00    -0.248 NA
ATOM     43  C   UNL A   1      41.012  32.075  30.303  1.00  0.00     0.031 C 
ATOM     44  C   UNL A   1      39.105  27.482  29.621  1.00  0.00     0.029 A 
ATOM     45  N   UNL A   1      41.190  27.846  28.893  1.00  0.00    -0.354 N 
ATOM     46  C   UNL A   1      43.051  31.722  29.325  1.00  0.00     0.074 A 
ATOM     47  C   UNL A   1      42.159  32.654  29.982  1.00  0.00     0.031 C 
ATOM     48  C   UNL A   1      39.558  26.331  29.095  1.00  0.00     0.029 A 
ATOM     49  C   UNL A   1      40.904  26.544  28.565  1.00  0.00     0.049 A 
ATOM     50  H   UNL A   1      42.060  28.269  28.713  1.00  0.00     0.167 HD
ATOM     51  C   UNL A   1      44.314  32.017  28.936  1.00  0.00     0.037 A 
ATOM     52  C   UNL A   1      41.633  25.637  27.886  1.00  0.00     0.037 A 
ATOM     53  C   UNL A   1      45.196  31.087  28.282  1.00  0.00     0.049 A 
ATOM     54  C   UNL A   1      43.004  26.015  27.389  1.00  0.00     0.074 A 
ATOM     55  C   UNL A   1      46.502  31.282  27.869  1.00  0.00     0.029 A 
ATOM     56  N   UNL A   1      44.859  29.786  27.939  1.00  0.00    -0.354 N 
ATOM     57  N   UNL A   1      43.657  27.142  27.538  1.00  0.00    -0.248 NA
ATOM     58  C   UNL A   1      43.739  24.993  26.630  1.00  0.00     0.031 C 
ATOM     59  C   UNL A   1      46.936  30.120  27.225  1.00  0.00     0.029 A 
ATOM     60  C   UNL A   1      45.922  29.178  27.290  1.00  0.00     0.049 A 
ATOM     61  H   UNL A   1      43.993  29.358  28.127  1.00  0.00     0.167 HD
ATOM     62  C   UNL A   1      44.887  26.956  26.918  1.00  0.00     0.074 A 
ATOM     63  C   UNL A   1      44.895  25.603  26.404  1.00  0.00     0.031 C 
ATOM     64  C   UNL A   1      45.918  27.826  26.790  1.00  0.00     0.037 A 
BRANCH  51  65
ATOM     65  C   UNL A   1      44.808  33.413  29.182  1.00  0.00     0.057 A 
ATOM     66  C   UNL A   1      44.619  34.442  28.251  1.00  0.00     0.134 A 
ATOM     67  C   UNL A   1      45.448  33.740  30.384  1.00  0.00     0.134 A 
ATOM     68  F   UNL A   1      44.023  34.195  27.075  1.00  0.00    -0.206 F 
ATOM     69  C   UNL A   1      45.070  35.741  28.497  1.00  0.00     0.040 A 
ATOM     70  C   UNL A   1      45.879  35.041  30.653  1.00  0.00     0.040 A 
ATOM     71  F   UNL A   1      45.657  32.804  31.323  1.00  0.00    -0.206 F 
ATOM     72  C   UNL A   1      45.695  36.044  29.705  1.00  0.00     0.006 A 
ENDBRANCH  51  65
BRANCH  52  73
ATOM     73  C   UNL A   1      41.077  24.287  27.615  1.00  0.00     0.057 A 
ATOM     74  C   UNL A   1      41.539  23.161  28.305  1.00  0.00     0.134 A 
ATOM     75  C   UNL A   1      40.088  24.087  26.644  1.00  0.00     0.134 A 
ATOM     76  F   UNL A   1      42.502  23.284  29.229  1.00  0.00    -0.206 F 
ATOM     77  C   UNL A   1      41.052  21.882  28.027  1.00  0.00     0.040 A 
ATOM     78  C   UNL A   1      39.572  22.819  26.375  1.00  0.00     0.040 A 
ATOM     79  F   UNL A   1      39.603  25.125  25.947  1.00  0.00    -0.206 F 
ATOM     80  C   UNL A   1      40.060  21.710  27.063  1.00  0.00     0.006 A 
ENDBRANCH  52  73
BRANCH  64  81
ATOM     81  C   UNL A   1      47.158  27.334  26.101  1.00  0.00     0.057 A 
ATOM     82  C   UNL A   1      48.184  26.681  26.797  1.00  0.00     0.134 A 
ATOM     83  C   UNL A   1      47.304  27.467  24.714  1.00  0.00     0.134 A 
ATOM     84  F   UNL A   1      48.114  26.531  28.129  1.00  0.00    -0.206 F 
ATOM     85  C   UNL A   1      49.318  26.200  26.141  1.00  0.00     0.040 A 
ATOM     86  C   UNL A   1      48.419  26.964  24.043  1.00  0.00     0.040 A 
ATOM     87  F   UNL A   1      46.354  28.072  23.985  1.00  0.00    -0.206 F 
ATOM     88  C   UNL A   1      49.434  26.333  24.758  1.00  0.00     0.006 A 
ENDBRANCH  64  81
ENDBRANCH  38  39
ENDBRANCH  31  33
ENDBRANCH  30  31
ENDBRANCH  29  30
ENDBRANCH  28  29
ENDBRANCH  27  28
ENDBRANCH   1  27
TORSDOF 18
ENDMDL
MODEL 2
REMARK VINA RESULT:     -10.9      4.709      9.729
REMARK SMILES CC(C)(C)c1ccc(NS(=O)(=O)c2cccc(C(=O)OCCOCCOC(=O)c3ccc(-c4c5nc(c(-c6c(F)cccc6F)c6ccc([nH]6)c(-c6c(F)cccc6F)c6nc(c(-c7c(F)cccc7F)c7ccc4[nH]7)C=C6)C=C5)cc3)c2)cc1
REMARK SMILES IDX 22 1 21 2 20 3 18 4 19 5 17 6 13 7 14 8 83 9 15 10 16 11
REMARK SMILES IDX 10 12 11 13 12 14 9 15 8 17 5 18 6 19 85 20 7 21 84 22 2 23
REMARK SMILES IDX 1 24 3 25 4 26 23 27 24 28 25 29 26 30 27 31 28 32 29 33
REMARK SMILES IDX 30 34 82 35 31 36 81 37 32 38 33 39 34 40 75 41 35 42 80 43
REMARK SMILES IDX 74 44 76 45 36 46 79 47 73 48 72 49 37 51 63 52 46 53 62 54
REMARK SMILES IDX 47 55 50 56 61 57 77 58 48 59 49 60 60 62 78 63 51 64 38 65
REMARK SMILES IDX 39 66 44 67 40 68 41 69 43 70 45 71 42 72 64 73 65 74 70 75
REMARK SMILES IDX 66 76 67 77 69 78 71 79 68 80 52 81 53 82 58 83 54 84 55 85
REMARK SMILES IDX 57 86 59 87 56 88
REMARK H PARENT 9 16 76 50 50 61
REMARK Flexibility Score: inf
ROOT
ATOM      1  C   UNL A   1      40.820  20.617  26.524  1.00  0.00     0.202 C 
ENDROOT
BRANCH   1   2
ATOM      2  C   UNL A   1      39.994  21.868  26.848  1.00  0.00     0.261 C 
BRANCH   2   3
ATOM      3  O   UNL A   1      38.822  21.938  26.019  1.00  0.00    -0.460 OA
BRANCH   3   4
ATOM      4  C   UNL A   1      38.106  23.083  26.118  1.00  0.00     0.338 C 
ATOM      5  O   UNL A   1      38.494  24.171  26.510  1.00  0.00    -0.246 OA
BRANCH   4   6
ATOM      6  C   UNL A   1      36.805  22.879  25.445  1.00  0.00     0.061 A 
ATOM      7  C   UNL A   1      34.501  22.175  25.429  1.00  0.00     0.088 A 
ATOM      8  C   UNL A   1      34.409  22.451  24.059  1.00  0.00     0.022 A 
ATOM      9  C   UNL A   1      35.712  22.336  26.117  1.00  0.00     0.038 A 
ATOM     10  C   UNL A   1      35.514  22.984  23.393  1.00  0.00     0.002 A 
ATOM     11  C   UNL A   1      36.700  23.223  24.090  1.00  0.00     0.016 A 
BRANCH   7  12
ATOM     12  S   UNL A   1      33.036  21.907  26.406  1.00  0.00     0.261 S 
ATOM     13  O   UNL A   1      33.437  21.200  27.604  1.00  0.00    -0.201 OA
ATOM     14  O   UNL A   1      32.035  21.365  25.511  1.00  0.00    -0.201 OA
BRANCH  12  15
ATOM     15  N   UNL A   1      32.489  23.415  26.868  1.00  0.00    -0.280 N 
ATOM     16  H   UNL A   1      32.218  23.512  27.810  1.00  0.00     0.180 HD
BRANCH  15  17
ATOM     17  C   UNL A   1      32.369  24.576  26.051  1.00  0.00     0.049 A 
ATOM     18  C   UNL A   1      32.155  27.217  25.038  1.00  0.00    -0.042 A 
ATOM     19  C   UNL A   1      31.077  26.319  24.980  1.00  0.00     0.006 A 
ATOM     20  C   UNL A   1      33.386  26.702  25.465  1.00  0.00     0.006 A 
ATOM     21  C   UNL A   1      31.195  25.002  25.441  1.00  0.00     0.027 A 
ATOM     22  C   UNL A   1      33.488  25.403  25.976  1.00  0.00     0.027 A 
BRANCH  18  23
ATOM     23  C   UNL A   1      31.955  28.697  24.669  1.00  0.00    -0.013 C 
ATOM     24  C   UNL A   1      33.152  29.306  23.904  1.00  0.00     0.016 C 
ATOM     25  C   UNL A   1      31.778  29.543  25.954  1.00  0.00     0.016 C 
ATOM     26  C   UNL A   1      30.702  28.845  23.789  1.00  0.00     0.016 C 
ENDBRANCH  18  23
ENDBRANCH  15  17
ENDBRANCH  12  15
ENDBRANCH   7  12
ENDBRANCH   4   6
ENDBRANCH   3   4
ENDBRANCH   2   3
ENDBRANCH   1   2
BRANCH   1  27
ATOM     27  O   UNL A   1      41.918  20.776  25.624  1.00  0.00    -0.374 OA
BRANCH  27  28
ATOM     28  C   UNL A   1      43.232  20.549  26.130  1.00  0.00     0.202 C 
BRANCH  28  29
ATOM     29  C   UNL A   1      44.362  21.453  25.623  1.00  0.00     0.261 C 
BRANCH  29  30
ATOM     30  O   UNL A   1      44.369  22.744  26.254  1.00  0.00    -0.460 OA
BRANCH  30  31
ATOM     31  C   UNL A   1      43.842  23.739  25.501  1.00  0.00     0.338 C 
ATOM     32  O   UNL A   1      43.769  23.791  24.285  1.00  0.00    -0.246 OA
BRANCH  31  33
ATOM     33  C   UNL A   1      43.183  24.727  26.374  1.00  0.00     0.060 A 
ATOM     34  C   UNL A   1      43.792  25.980  26.509  1.00  0.00     0.016 A 
ATOM     35  C   UNL A   1      42.035  24.410  27.101  1.00  0.00     0.016 A 
ATOM     36  C   UNL A   1      43.278  26.912  27.407  1.00  0.00     0.010 A 
ATOM     37  C   UNL A   1      41.524  25.343  28.009  1.00  0.00     0.010 A 
ATOM     38  C   UNL A   1      42.161  26.585  28.188  1.00  0.00    -0.014 A 
BRANCH  38  39
ATOM     39  C   UNL A   1      41.732  27.491  29.280  1.00  0.00     0.031 A 
ATOM     40  C   UNL A   1      42.464  27.454  30.592  1.00  0.00     0.074 A 
ATOM     41  C   UNL A   1      40.712  28.347  29.099  1.00  0.00     0.049 A 
ATOM     42  N   UNL A   1      42.217  28.105  31.700  1.00  0.00    -0.248 NA
ATOM     43  C   UNL A   1      43.629  26.557  30.666  1.00  0.00     0.031 C 
ATOM     44  C   UNL A   1      39.952  28.506  27.861  1.00  0.00     0.029 A 
ATOM     45  N   UNL A   1      40.130  29.235  29.968  1.00  0.00    -0.354 N 
ATOM     46  C   UNL A   1      43.187  27.692  32.605  1.00  0.00     0.074 A 
ATOM     47  C   UNL A   1      44.009  26.712  31.927  1.00  0.00     0.031 C 
ATOM     48  C   UNL A   1      38.993  29.427  28.054  1.00  0.00     0.029 A 
ATOM     49  C   UNL A   1      39.049  29.893  29.438  1.00  0.00     0.049 A 
ATOM     50  H   UNL A   1      40.458  29.387  30.885  1.00  0.00     0.167 HD
ATOM     51  C   UNL A   1      43.379  28.098  33.882  1.00  0.00     0.037 A 
ATOM     52  C   UNL A   1      38.183  30.750  30.013  1.00  0.00     0.037 A 
ATOM     53  C   UNL A   1      42.558  29.072  34.552  1.00  0.00     0.049 A 
ATOM     54  C   UNL A   1      38.367  31.124  31.461  1.00  0.00     0.074 A 
ATOM     55  C   UNL A   1      42.684  29.568  35.838  1.00  0.00     0.029 A 
ATOM     56  N   UNL A   1      41.452  29.693  33.991  1.00  0.00    -0.354 N 
ATOM     57  N   UNL A   1      39.302  30.750  32.301  1.00  0.00    -0.248 NA
ATOM     58  C   UNL A   1      37.374  32.040  32.041  1.00  0.00     0.031 C 
ATOM     59  C   UNL A   1      41.622  30.446  36.075  1.00  0.00     0.029 A 
ATOM     60  C   UNL A   1      40.868  30.544  34.916  1.00  0.00     0.049 A 
ATOM     61  H   UNL A   1      41.129  29.551  33.072  1.00  0.00     0.167 HD
ATOM     62  C   UNL A   1      39.028  31.405  33.496  1.00  0.00     0.074 A 
ATOM     63  C   UNL A   1      37.847  32.210  33.268  1.00  0.00     0.031 C 
ATOM     64  C   UNL A   1      39.696  31.346  34.673  1.00  0.00     0.037 A 
BRANCH  51  65
ATOM     65  C   UNL A   1      44.504  27.468  34.649  1.00  0.00     0.057 A 
ATOM     66  C   UNL A   1      44.331  26.292  35.390  1.00  0.00     0.134 A 
ATOM     67  C   UNL A   1      45.789  28.026  34.615  1.00  0.00     0.134 A 
ATOM     68  F   UNL A   1      43.125  25.713  35.475  1.00  0.00    -0.206 F 
ATOM     69  C   UNL A   1      45.390  25.707  36.089  1.00  0.00     0.040 A 
ATOM     70  C   UNL A   1      46.861  27.435  35.287  1.00  0.00     0.040 A 
ATOM     71  F   UNL A   1      46.027  29.149  33.920  1.00  0.00    -0.206 F 
ATOM     72  C   UNL A   1      46.661  26.275  36.031  1.00  0.00     0.006 A 
ENDBRANCH  51  65
BRANCH  52  73
ATOM     73  C   UNL A   1      37.049  31.302  29.230  1.00  0.00     0.057 A 
ATOM     74  C   UNL A   1      37.081  32.607  28.726  1.00  0.00     0.134 A 
ATOM     75  C   UNL A   1      35.896  30.545  28.985  1.00  0.00     0.134 A 
ATOM     76  F   UNL A   1      38.147  33.389  28.949  1.00  0.00    -0.206 F 
ATOM     77  C   UNL A   1      36.002  33.147  28.024  1.00  0.00     0.040 A 
ATOM     78  C   UNL A   1      34.821  31.062  28.261  1.00  0.00     0.040 A 
ATOM     79  F   UNL A   1      35.801  29.287  29.441  1.00  0.00    -0.206 F 
ATOM     80  C   UNL A   1      34.870  32.371  27.784  1.00  0.00     0.006 A 
ENDBRANCH  52  73
BRANCH  64  81
ATOM     81  C   UNL A   1      39.193  32.206  35.798  1.00  0.00     0.057 A 
ATOM     82  C   UNL A   1      39.588  33.541  35.945  1.00  0.00     0.134 A 
ATOM     83  C   UNL A   1      38.260  31.704  36.715  1.00  0.00     0.134 A 
ATOM     84  F   UNL A   1      40.489  34.080  35.109  1.00  0.00    -0.206 F 
ATOM     85  C   UNL A   1      39.090  34.340  36.976  1.00  0.00     0.040 A 
ATOM     86  C   UNL A   1      37.732  32.501  37.732  1.00  0.00     0.040 A 
ATOM     87  F   UNL A   1      37.829  30.436  36.625  1.00  0.00    -0.206 F 
ATOM     88  C   UNL A   1      38.152  33.822  37.868  1.00  0.00     0.006 A 
ENDBRANCH  64  81
ENDBRANCH  38  39
ENDBRANCH  31  33
ENDBRANCH  30  31
ENDBRANCH  29  30
ENDBRANCH  28  29
ENDBRANCH  27  28
ENDBRANCH   1  27
TORSDOF 18
ENDMDL
MODEL 3
REMARK VINA RESULT:     -10.8      1.727      2.503
REMARK SMILES CC(C)(C)c1ccc(NS(=O)(=O)c2cccc(C(=O)OCCOCCOC(=O)c3ccc(-c4c5nc(c(-c6c(F)cccc6F)c6ccc([nH]6)c(-c6c(F)cccc6F)c6nc(c(-c7c(F)cccc7F)c7ccc4[nH]7)C=C6)C=C5)cc3)c2)cc1
REMARK SMILES IDX 22 1 21 2 20 3 18 4 19 5 17 6 13 7 14 8 83 9 15 10 16 11
REMARK SMILES IDX 10 12 11 13 12 14 9 15 8 17 5 18 6 19 85 20 7 21 84 22 2 23
REMARK SMILES IDX 1 24 3 25 4 26 23 27 24 28 25 29 26 30 27 31 28 32 29 33
REMARK SMILES IDX 30 34 82 35 31 36 81 37 32 38 33 39 34 40 75 41 35 42 80 43
REMARK SMILES IDX 74 44 76 45 36 46 79 47 73 48 72 49 37 51 63 52 46 53 62 54
REMARK SMILES IDX 47 55 50 56 61 57 77 58 48 59 49 60 60 62 78 63 51 64 38 65
REMARK SMILES IDX 39 66 44 67 40 68 41 69 43 70 45 71 42 72 64 73 65 74 70 75
REMARK SMILES IDX 66 76 67 77 69 78 71 79 68 80 52 81 53 82 58 83 54 84 55 85
REMARK SMILES IDX 57 86 59 87 56 88
REMARK H PARENT 9 16 76 50 50 61
REMARK Flexibility Score: inf
ROOT
ATOM      1  C   UNL A   1      34.144  32.445  29.095  1.00  0.00     0.202 C 
ENDROOT
BRANCH   1   2
ATOM      2  C   UNL A   1      33.963  31.951  27.654  1.00  0.00     0.261 C 
BRANCH   2   3
ATOM      3  O   UNL A   1      33.449  30.610  27.632  1.00  0.00    -0.460 OA
BRANCH   3   4
ATOM      4  C   UNL A   1      34.315  29.660  27.203  1.00  0.00     0.338 C 
ATOM      5  O   UNL A   1      35.531  29.665  27.299  1.00  0.00    -0.246 OA
BRANCH   4   6
ATOM      6  C   UNL A   1      33.537  28.472  26.791  1.00  0.00     0.061 A 
ATOM      7  C   UNL A   1      33.281  26.412  25.569  1.00  0.00     0.088 A 
ATOM      8  C   UNL A   1      31.953  26.301  26.002  1.00  0.00     0.022 A 
ATOM      9  C   UNL A   1      34.062  27.523  25.916  1.00  0.00     0.038 A 
ATOM     10  C   UNL A   1      31.434  27.264  26.869  1.00  0.00     0.002 A 
ATOM     11  C   UNL A   1      32.232  28.331  27.284  1.00  0.00     0.016 A 
BRANCH   7  12
ATOM     12  S   UNL A   1      34.117  25.024  24.828  1.00  0.00     0.261 S 
ATOM     13  O   UNL A   1      35.344  24.814  25.565  1.00  0.00    -0.201 OA
ATOM     14  O   UNL A   1      34.126  25.261  23.400  1.00  0.00    -0.201 OA
BRANCH  12  15
ATOM     15  N   UNL A   1      33.142  23.692  25.078  1.00  0.00    -0.280 N 
ATOM     16  H   UNL A   1      32.306  23.848  25.576  1.00  0.00     0.180 HD
BRANCH  15  17
ATOM     17  C   UNL A   1      33.386  22.353  24.655  1.00  0.00     0.049 A 
ATOM     18  C   UNL A   1      33.523  19.532  24.394  1.00  0.00    -0.042 A 
ATOM     19  C   UNL A   1      34.666  20.300  24.668  1.00  0.00     0.006 A 
ATOM     20  C   UNL A   1      32.347  20.232  24.091  1.00  0.00     0.006 A 
ATOM     21  C   UNL A   1      34.607  21.696  24.755  1.00  0.00     0.027 A 
ATOM     22  C   UNL A   1      32.277  21.623  24.232  1.00  0.00     0.027 A 
BRANCH  18  23
ATOM     23  C   UNL A   1      33.584  17.996  24.456  1.00  0.00    -0.013 C 
ATOM     24  C   UNL A   1      33.017  17.307  23.194  1.00  0.00     0.016 C 
ATOM     25  C   UNL A   1      32.745  17.482  25.652  1.00  0.00     0.016 C 
ATOM     26  C   UNL A   1      35.045  17.545  24.631  1.00  0.00     0.016 C 
ENDBRANCH  18  23
ENDBRANCH  15  17
ENDBRANCH  12  15
ENDBRANCH   7  12
ENDBRANCH   4   6
ENDBRANCH   3   4
ENDBRANCH   2   3
ENDBRANCH   1   2
BRANCH   1  27
ATOM     27  O   UNL A   1      33.654  33.751  29.402  1.00  0.00    -0.374 OA
BRANCH  27  28
ATOM     28  C   UNL A   1      34.366  34.518  30.371  1.00  0.00     0.202 C 
BRANCH  28  29
ATOM     29  C   UNL A   1      34.632  33.877  31.738  1.00  0.00     0.261 C 
BRANCH  29  30
ATOM     30  O   UNL A   1      36.028  33.846  32.077  1.00  0.00    -0.460 OA
BRANCH  30  31
ATOM     31  C   UNL A   1      36.408  32.760  32.792  1.00  0.00     0.338 C 
ATOM     32  O   UNL A   1      35.942  32.366  33.848  1.00  0.00    -0.246 OA
BRANCH  31  33
ATOM     33  C   UNL A   1      37.389  31.975  32.022  1.00  0.00     0.060 A 
ATOM     34  C   UNL A   1      38.325  31.222  32.740  1.00  0.00     0.016 A 
ATOM     35  C   UNL A   1      37.438  32.033  30.628  1.00  0.00     0.016 A 
ATOM     36  C   UNL A   1      39.345  30.553  32.068  1.00  0.00     0.010 A 
ATOM     37  C   UNL A   1      38.468  31.368  29.955  1.00  0.00     0.010 A 
ATOM     38  C   UNL A   1      39.443  30.651  30.674  1.00  0.00    -0.014 A 
BRANCH  38  39
ATOM     39  C   UNL A   1      40.633  30.108  29.977  1.00  0.00     0.031 A 
ATOM     40  C   UNL A   1      41.806  31.012  29.720  1.00  0.00     0.074 A 
ATOM     41  C   UNL A   1      40.673  28.821  29.590  1.00  0.00     0.049 A 
ATOM     42  N   UNL A   1      42.916  30.767  29.071  1.00  0.00    -0.248 NA
ATOM     43  C   UNL A   1      41.714  32.376  30.265  1.00  0.00     0.031 C 
ATOM     44  C   UNL A   1      39.616  27.838  29.819  1.00  0.00     0.029 A 
ATOM     45  N   UNL A   1      41.640  28.126  28.908  1.00  0.00    -0.354 N 
ATOM     46  C   UNL A   1      43.649  31.947  29.120  1.00  0.00     0.074 A 
ATOM     47  C   UNL A   1      42.846  32.915  29.837  1.00  0.00     0.031 C 
ATOM     48  C   UNL A   1      39.987  26.666  29.273  1.00  0.00     0.029 A 
ATOM     49  C   UNL A   1      41.287  26.830  28.626  1.00  0.00     0.049 A 
ATOM     50  H   UNL A   1      42.504  28.519  28.648  1.00  0.00     0.167 HD
ATOM     51  C   UNL A   1      44.882  32.197  28.619  1.00  0.00     0.037 A 
ATOM     52  C   UNL A   1      41.926  25.892  27.901  1.00  0.00     0.037 A 
ATOM     53  C   UNL A   1      45.676  31.231  27.906  1.00  0.00     0.049 A 
ATOM     54  C   UNL A   1      43.260  26.220  27.282  1.00  0.00     0.074 A 
ATOM     55  C   UNL A   1      46.946  31.380  27.379  1.00  0.00     0.029 A 
ATOM     56  N   UNL A   1      45.270  29.937  27.613  1.00  0.00    -0.354 N 
ATOM     57  N   UNL A   1      43.958  27.328  27.356  1.00  0.00    -0.248 NA
ATOM     58  C   UNL A   1      43.896  25.167  26.478  1.00  0.00     0.031 C 
ATOM     59  C   UNL A   1      47.287  30.196  26.717  1.00  0.00     0.029 A 
ATOM     60  C   UNL A   1      46.254  29.288  26.884  1.00  0.00     0.049 A 
ATOM     61  H   UNL A   1      44.411  29.539  27.881  1.00  0.00     0.167 HD
ATOM     62  C   UNL A   1      45.124  27.095  26.636  1.00  0.00     0.074 A 
ATOM     63  C   UNL A   1      45.045  25.736  26.143  1.00  0.00     0.031 C 
ATOM     64  C   UNL A   1      46.166  27.931  26.406  1.00  0.00     0.037 A 
BRANCH  51  65
ATOM     65  C   UNL A   1      45.438  33.579  28.801  1.00  0.00     0.057 A 
ATOM     66  C   UNL A   1      45.147  34.619  27.909  1.00  0.00     0.134 A 
ATOM     67  C   UNL A   1      46.244  33.883  29.905  1.00  0.00     0.134 A 
ATOM     68  F   UNL A   1      44.391  34.393  26.824  1.00  0.00    -0.206 F 
ATOM     69  C   UNL A   1      45.658  35.905  28.095  1.00  0.00     0.040 A 
ATOM     70  C   UNL A   1      46.738  35.172  30.118  1.00  0.00     0.040 A 
ATOM     71  F   UNL A   1      46.557  32.935  30.803  1.00  0.00    -0.206 F 
ATOM     72  C   UNL A   1      46.450  36.185  29.207  1.00  0.00     0.006 A 
ENDBRANCH  51  65
BRANCH  52  73
ATOM     73  C   UNL A   1      41.309  24.557  27.698  1.00  0.00     0.057 A 
ATOM     74  C   UNL A   1      41.755  23.437  28.408  1.00  0.00     0.134 A 
ATOM     75  C   UNL A   1      40.274  24.365  26.775  1.00  0.00     0.134 A 
ATOM     76  F   UNL A   1      42.759  23.552  29.289  1.00  0.00    -0.206 F 
ATOM     77  C   UNL A   1      41.207  22.171  28.194  1.00  0.00     0.040 A 
ATOM     78  C   UNL A   1      39.698  23.111  26.571  1.00  0.00     0.040 A 
ATOM     79  F   UNL A   1      39.801  25.398  26.062  1.00  0.00    -0.206 F 
ATOM     80  C   UNL A   1      40.171  22.006  27.277  1.00  0.00     0.006 A 
ENDBRANCH  52  73
BRANCH  64  81
ATOM     81  C   UNL A   1      47.326  27.391  25.621  1.00  0.00     0.057 A 
ATOM     82  C   UNL A   1      47.470  27.632  24.248  1.00  0.00     0.134 A 
ATOM     83  C   UNL A   1      48.340  26.663  26.257  1.00  0.00     0.134 A 
ATOM     84  F   UNL A   1      46.528  28.311  23.575  1.00  0.00    -0.206 F 
ATOM     85  C   UNL A   1      48.568  27.151  23.534  1.00  0.00     0.040 A 
ATOM     86  C   UNL A   1      49.458  26.202  25.560  1.00  0.00     0.040 A 
ATOM     87  F   UNL A   1      48.271  26.405  27.572  1.00  0.00    -0.206 F 
ATOM     88  C   UNL A   1      49.571  26.441  24.193  1.00  0.00     0.006 A 
ENDBRANCH  64  81
ENDBRANCH  38  39
ENDBRANCH  31  33
ENDBRANCH  30  31
ENDBRANCH  29  30
ENDBRANCH  28  29
ENDBRANCH  27  28
ENDBRANCH   1  27
TORSDOF 18
ENDMDL
