MODEL 1
REMARK VINA RESULT:     -10.6      0.000      0.000
REMARK SMILES C[NH2+][C@@]1(C(=O)OCCOCCOC(=O)c2ccc(-c3c4nc(c(-c5c(F)cccc5F)c5ccc([nH]5)c(-c5c(F)cccc5F)c5nc(c(-c6c(F)cccc6F)c6ccc3[nH]6)C=C5)C=C4)cc2)CC[C@H](Oc2cccc(C)c2)C1
REMARK SMILES IDX 9 1 8 2 7 3 6 4 4 5 5 6 3 7 69 8 80 9 70 10 71 11 2 12 1 13
REMARK SMILES IDX 72 16 73 17 74 18 79 19 75 20 77 21 76 22 78 23 10 24 11 25
REMARK SMILES IDX 12 26 13 27 14 28 15 29 16 30 68 31 17 32 67 33 18 34 19 35
REMARK SMILES IDX 20 36 61 37 21 38 66 39 60 40 62 41 22 42 65 43 59 44 58 45
REMARK SMILES IDX 23 47 49 48 32 49 48 50 33 51 36 52 47 53 63 54 34 55 35 56
REMARK SMILES IDX 46 58 64 59 37 60 24 61 25 62 30 63 26 64 27 65 29 66 31 67
REMARK SMILES IDX 28 68 50 69 51 70 56 71 52 72 53 73 55 74 57 75 54 76 38 77
REMARK SMILES IDX 39 78 44 79 40 80 41 81 43 82 45 83 42 84
REMARK H PARENT 2 14 2 15 62 46 36 57
REMARK Flexibility Score: inf
ROOT
ATOM      1  O   UNL A   1      31.766  30.951  26.331  1.00  0.00    -0.374 OA
ENDROOT
BRANCH   1   2
ATOM      2  C   UNL A   1      33.122  30.538  26.516  1.00  0.00     0.202 C 
BRANCH   2   3
ATOM      3  C   UNL A   1      33.343  29.481  27.599  1.00  0.00     0.261 C 
BRANCH   3   4
ATOM      4  O   UNL A   1      33.150  28.159  27.063  1.00  0.00    -0.459 OA
BRANCH   4   5
ATOM      5  C   UNL A   1      31.866  27.734  26.951  1.00  0.00     0.368 C 
ATOM      6  O   UNL A   1      31.028  27.799  27.847  1.00  0.00    -0.245 OA
BRANCH   5   7
ATOM      7  C   UNL A   1      31.554  27.108  25.557  1.00  0.00     0.197 C 
ATOM      8  C   UNL A   1      30.472  26.047  25.765  1.00  0.00     0.085 C 
ATOM      9  C   UNL A   1      32.702  26.308  24.906  1.00  0.00     0.126 C 
ATOM     10  C   UNL A   1      31.253  24.815  26.188  1.00  0.00     0.052 C 
ATOM     11  C   UNL A   1      32.523  24.832  25.331  1.00  0.00     0.180 C 
BRANCH   7  12
ATOM     12  N   UNL A   1      30.969  28.177  24.697  1.00  0.00    -0.334 N 
ATOM     13  C   UNL A   1      31.872  28.715  23.689  1.00  0.00     0.331 C 
ATOM     14  H   UNL A   1      30.155  27.790  24.220  1.00  0.00     0.347 HD
ATOM     15  H   UNL A   1      30.742  28.953  25.320  1.00  0.00     0.347 HD
ENDBRANCH   7  12
BRANCH  11  16
ATOM     16  O   UNL A   1      33.696  24.409  26.034  1.00  0.00    -0.490 OA
BRANCH  16  17
ATOM     17  C   UNL A   1      34.754  23.909  25.320  1.00  0.00     0.119 A 
ATOM     18  C   UNL A   1      34.715  23.482  23.994  1.00  0.00     0.046 A 
ATOM     19  C   UNL A   1      35.961  23.800  26.026  1.00  0.00     0.049 A 
ATOM     20  C   UNL A   1      35.832  22.889  23.403  1.00  0.00     0.004 A 
ATOM     21  C   UNL A   1      37.107  23.259  25.419  1.00  0.00    -0.047 A 
ATOM     22  C   UNL A   1      37.018  22.769  24.115  1.00  0.00     0.003 A 
ATOM     23  C   UNL A   1      38.425  23.175  26.126  1.00  0.00     0.044 C 
ENDBRANCH  16  17
ENDBRANCH  11  16
ENDBRANCH   5   7
ENDBRANCH   4   5
ENDBRANCH   3   4
ENDBRANCH   2   3
ENDBRANCH   1   2
BRANCH   1  24
ATOM     24  C   UNL A   1      31.447  32.277  26.748  1.00  0.00     0.202 C 
BRANCH  24  25
ATOM     25  C   UNL A   1      32.633  33.155  27.160  1.00  0.00     0.261 C 
BRANCH  25  26
ATOM     26  O   UNL A   1      32.267  34.123  28.155  1.00  0.00    -0.460 OA
BRANCH  26  27
ATOM     27  C   UNL A   1      33.297  34.854  28.637  1.00  0.00     0.338 C 
ATOM     28  O   UNL A   1      33.307  36.052  28.889  1.00  0.00    -0.246 OA
BRANCH  27  29
ATOM     29  C   UNL A   1      34.419  33.965  28.981  1.00  0.00     0.060 A 
ATOM     30  C   UNL A   1      34.133  32.777  29.665  1.00  0.00     0.016 A 
ATOM     31  C   UNL A   1      35.736  34.314  28.692  1.00  0.00     0.016 A 
ATOM     32  C   UNL A   1      35.169  31.943  30.089  1.00  0.00     0.010 A 
ATOM     33  C   UNL A   1      36.769  33.483  29.132  1.00  0.00     0.010 A 
ATOM     34  C   UNL A   1      36.502  32.298  29.847  1.00  0.00    -0.014 A 
BRANCH  34  35
ATOM     35  C   UNL A   1      37.617  31.518  30.455  1.00  0.00     0.031 A 
ATOM     36  C   UNL A   1      37.983  31.766  31.895  1.00  0.00     0.074 A 
ATOM     37  C   UNL A   1      38.314  30.609  29.745  1.00  0.00     0.049 A 
ATOM     38  N   UNL A   1      38.973  31.279  32.599  1.00  0.00    -0.248 NA
ATOM     39  C   UNL A   1      37.129  32.710  32.633  1.00  0.00     0.031 C 
ATOM     40  C   UNL A   1      38.088  30.265  28.341  1.00  0.00     0.029 A 
ATOM     41  N   UNL A   1      39.386  29.827  30.110  1.00  0.00    -0.354 N 
ATOM     42  C   UNL A   1      38.872  31.873  33.851  1.00  0.00     0.074 A 
ATOM     43  C   UNL A   1      37.760  32.797  33.793  1.00  0.00     0.031 C 
ATOM     44  C   UNL A   1      39.003  29.356  27.960  1.00  0.00     0.029 A 
ATOM     45  C   UNL A   1      39.891  29.066  29.084  1.00  0.00     0.049 A 
ATOM     46  H   UNL A   1      39.757  29.815  31.022  1.00  0.00     0.167 HD
ATOM     47  C   UNL A   1      39.610  31.650  34.965  1.00  0.00     0.037 A 
ATOM     48  C   UNL A   1      40.958  28.243  29.048  1.00  0.00     0.037 A 
ATOM     49  C   UNL A   1      40.685  30.699  35.053  1.00  0.00     0.049 A 
ATOM     50  C   UNL A   1      41.784  28.027  30.289  1.00  0.00     0.074 A 
ATOM     51  C   UNL A   1      41.446  30.360  36.159  1.00  0.00     0.029 A 
ATOM     52  N   UNL A   1      41.147  29.931  33.996  1.00  0.00    -0.354 N 
ATOM     53  N   UNL A   1      41.643  28.557  31.480  1.00  0.00    -0.248 NA
ATOM     54  C   UNL A   1      42.911  27.087  30.184  1.00  0.00     0.031 C 
ATOM     55  C   UNL A   1      42.391  29.407  35.763  1.00  0.00     0.029 A 
ATOM     56  C   UNL A   1      42.192  29.127  34.421  1.00  0.00     0.049 A 
ATOM     57  H   UNL A   1      40.787  29.953  33.081  1.00  0.00     0.167 HD
ATOM     58  C   UNL A   1      42.635  27.986  32.271  1.00  0.00     0.074 A 
ATOM     59  C   UNL A   1      43.370  27.070  31.427  1.00  0.00     0.031 C 
ATOM     60  C   UNL A   1      42.904  28.200  33.581  1.00  0.00     0.037 A 
BRANCH  47  61
ATOM     61  C   UNL A   1      39.266  32.450  36.186  1.00  0.00     0.057 A 
ATOM     62  C   UNL A   1      39.838  33.706  36.429  1.00  0.00     0.134 A 
ATOM     63  C   UNL A   1      38.347  31.965  37.123  1.00  0.00     0.134 A 
ATOM     64  F   UNL A   1      40.738  34.219  35.576  1.00  0.00    -0.206 F 
ATOM     65  C   UNL A   1      39.534  34.436  37.578  1.00  0.00     0.040 A 
ATOM     66  C   UNL A   1      38.013  32.699  38.262  1.00  0.00     0.040 A 
ATOM     67  F   UNL A   1      37.759  30.772  36.947  1.00  0.00    -0.206 F 
ATOM     68  C   UNL A   1      38.614  33.934  38.497  1.00  0.00     0.006 A 
ENDBRANCH  47  61
BRANCH  48  69
ATOM     69  C   UNL A   1      41.320  27.544  27.788  1.00  0.00     0.057 A 
ATOM     70  C   UNL A   1      42.121  28.165  26.821  1.00  0.00     0.134 A 
ATOM     71  C   UNL A   1      40.839  26.262  27.503  1.00  0.00     0.134 A 
ATOM     72  F   UNL A   1      42.588  29.405  27.028  1.00  0.00    -0.206 F 
ATOM     73  C   UNL A   1      42.412  27.545  25.605  1.00  0.00     0.040 A 
ATOM     74  C   UNL A   1      41.139  25.621  26.299  1.00  0.00     0.040 A 
ATOM     75  F   UNL A   1      40.064  25.616  28.386  1.00  0.00    -0.206 F 
ATOM     76  C   UNL A   1      41.921  26.267  25.343  1.00  0.00     0.006 A 
ENDBRANCH  48  69
BRANCH  60  77
ATOM     77  C   UNL A   1      44.002  27.390  34.207  1.00  0.00     0.057 A 
ATOM     78  C   UNL A   1      43.767  26.128  34.767  1.00  0.00     0.134 A 
ATOM     79  C   UNL A   1      45.322  27.860  34.200  1.00  0.00     0.134 A 
ATOM     80  F   UNL A   1      42.523  25.627  34.815  1.00  0.00    -0.206 F 
ATOM     81  C   UNL A   1      44.804  25.369  35.312  1.00  0.00     0.040 A 
ATOM     82  C   UNL A   1      46.371  27.100  34.722  1.00  0.00     0.040 A 
ATOM     83  F   UNL A   1      45.617  29.057  33.672  1.00  0.00    -0.206 F 
ATOM     84  C   UNL A   1      46.112  25.852  35.284  1.00  0.00     0.006 A 
ENDBRANCH  60  77
ENDBRANCH  34  35
ENDBRANCH  27  29
ENDBRANCH  26  27
ENDBRANCH  25  26
ENDBRANCH  24  25
ENDBRANCH   1  24
TORSDOF 17
ENDMDL
MODEL 2
REMARK VINA RESULT:     -10.5      5.493     10.988
REMARK SMILES C[NH2+][C@@]1(C(=O)OCCOCCOC(=O)c2ccc(-c3c4nc(c(-c5c(F)cccc5F)c5ccc([nH]5)c(-c5c(F)cccc5F)c5nc(c(-c6c(F)cccc6F)c6ccc3[nH]6)C=C5)C=C4)cc2)CC[C@H](Oc2cccc(C)c2)C1
REMARK SMILES IDX 9 1 8 2 7 3 6 4 4 5 5 6 3 7 69 8 80 9 70 10 71 11 2 12 1 13
REMARK SMILES IDX 72 16 73 17 74 18 79 19 75 20 77 21 76 22 78 23 10 24 11 25
REMARK SMILES IDX 12 26 13 27 14 28 15 29 16 30 68 31 17 32 67 33 18 34 19 35
REMARK SMILES IDX 20 36 61 37 21 38 66 39 60 40 62 41 22 42 65 43 59 44 58 45
REMARK SMILES IDX 23 47 49 48 32 49 48 50 33 51 36 52 47 53 63 54 34 55 35 56
REMARK SMILES IDX 46 58 64 59 37 60 24 61 25 62 30 63 26 64 27 65 29 66 31 67
REMARK SMILES IDX 28 68 50 69 51 70 56 71 52 72 53 73 55 74 57 75 54 76 38 77
REMARK SMILES IDX 39 78 44 79 40 80 41 81 43 82 45 83 42 84
REMARK H PARENT 2 14 2 15 62 46 36 57
REMARK Flexibility Score: inf
ROOT
ATOM      1  O   UNL A   1      42.518  19.175  25.394  1.00  0.00    -0.374 OA
ENDROOT
BRANCH   1   2
ATOM      2  C   UNL A   1      43.921  18.904  25.351  1.00  0.00     0.202 C 
BRANCH   2   3
ATOM      3  C   UNL A   1      44.744  19.850  24.476  1.00  0.00     0.261 C 
BRANCH   3   4
ATOM      4  O   UNL A   1      45.109  21.032  25.213  1.00  0.00    -0.459 OA
BRANCH   4   5
ATOM      5  C   UNL A   1      44.249  22.079  25.142  1.00  0.00     0.368 C 
ATOM      6  O   UNL A   1      43.404  22.230  24.263  1.00  0.00    -0.245 OA
BRANCH   5   7
ATOM      7  C   UNL A   1      44.459  23.116  26.287  1.00  0.00     0.197 C 
ATOM      8  C   UNL A   1      43.623  24.351  25.946  1.00  0.00     0.085 C 
ATOM      9  C   UNL A   1      45.885  23.691  26.421  1.00  0.00     0.126 C 
ATOM     10  C   UNL A   1      44.518  25.142  25.008  1.00  0.00     0.052 C 
ATOM     11  C   UNL A   1      45.932  24.987  25.578  1.00  0.00     0.180 C 
BRANCH   7  12
ATOM     12  N   UNL A   1      43.900  22.532  27.541  1.00  0.00    -0.334 N 
ATOM     13  C   UNL A   1      43.442  23.507  28.520  1.00  0.00     0.331 C 
ATOM     14  H   UNL A   1      43.108  21.941  27.289  1.00  0.00     0.347 HD
ATOM     15  H   UNL A   1      44.663  22.020  27.983  1.00  0.00     0.347 HD
ENDBRANCH   7  12
BRANCH  11  16
ATOM     16  O   UNL A   1      46.943  24.847  24.573  1.00  0.00    -0.490 OA
BRANCH  16  17
ATOM     17  C   UNL A   1      48.064  25.633  24.646  1.00  0.00     0.119 A 
ATOM     18  C   UNL A   1      48.348  26.725  23.829  1.00  0.00     0.046 A 
ATOM     19  C   UNL A   1      49.003  25.256  25.616  1.00  0.00     0.049 A 
ATOM     20  C   UNL A   1      49.574  27.385  23.924  1.00  0.00     0.004 A 
ATOM     21  C   UNL A   1      50.214  25.954  25.759  1.00  0.00    -0.047 A 
ATOM     22  C   UNL A   1      50.506  26.996  24.878  1.00  0.00     0.003 A 
ATOM     23  C   UNL A   1      51.216  25.612  26.819  1.00  0.00     0.044 C 
ENDBRANCH  16  17
ENDBRANCH  11  16
ENDBRANCH   5   7
ENDBRANCH   4   5
ENDBRANCH   3   4
ENDBRANCH   2   3
ENDBRANCH   1   2
BRANCH   1  24
ATOM     24  C   UNL A   1      42.008  19.671  26.631  1.00  0.00     0.202 C 
BRANCH  24  25
ATOM     25  C   UNL A   1      40.648  20.372  26.564  1.00  0.00     0.261 C 
BRANCH  25  26
ATOM     26  O   UNL A   1      40.768  21.796  26.706  1.00  0.00    -0.460 OA
BRANCH  26  27
ATOM     27  C   UNL A   1      39.661  22.492  26.361  1.00  0.00     0.338 C 
ATOM     28  O   UNL A   1      38.638  22.058  25.847  1.00  0.00    -0.246 OA
BRANCH  27  29
ATOM     29  C   UNL A   1      39.779  23.880  26.838  1.00  0.00     0.060 A 
ATOM     30  C   UNL A   1      40.164  24.863  25.919  1.00  0.00     0.016 A 
ATOM     31  C   UNL A   1      39.576  24.205  28.177  1.00  0.00     0.016 A 
ATOM     32  C   UNL A   1      40.374  26.177  26.341  1.00  0.00     0.010 A 
ATOM     33  C   UNL A   1      39.802  25.519  28.596  1.00  0.00     0.010 A 
ATOM     34  C   UNL A   1      40.217  26.516  27.690  1.00  0.00    -0.014 A 
BRANCH  34  35
ATOM     35  C   UNL A   1      40.618  27.863  28.186  1.00  0.00     0.031 A 
ATOM     36  C   UNL A   1      42.082  28.214  28.245  1.00  0.00     0.074 A 
ATOM     37  C   UNL A   1      39.707  28.768  28.594  1.00  0.00     0.049 A 
ATOM     38  N   UNL A   1      42.664  29.282  28.729  1.00  0.00    -0.248 NA
ATOM     39  C   UNL A   1      43.017  27.214  27.706  1.00  0.00     0.031 C 
ATOM     40  C   UNL A   1      38.257  28.573  28.607  1.00  0.00     0.029 A 
ATOM     41  N   UNL A   1      39.877  30.031  29.112  1.00  0.00    -0.354 N 
ATOM     42  C   UNL A   1      44.029  29.071  28.572  1.00  0.00     0.074 A 
ATOM     43  C   UNL A   1      44.189  27.751  28.001  1.00  0.00     0.031 C 
ATOM     44  C   UNL A   1      37.673  29.669  29.124  1.00  0.00     0.029 A 
ATOM     45  C   UNL A   1      38.704  30.636  29.495  1.00  0.00     0.049 A 
ATOM     46  H   UNL A   1      40.759  30.462  29.200  1.00  0.00     0.167 HD
ATOM     47  C   UNL A   1      45.059  29.907  28.843  1.00  0.00     0.037 A 
ATOM     48  C   UNL A   1      38.487  31.824  30.092  1.00  0.00     0.037 A 
ATOM     49  C   UNL A   1      44.913  31.240  29.363  1.00  0.00     0.049 A 
ATOM     50  C   UNL A   1      39.648  32.730  30.410  1.00  0.00     0.074 A 
ATOM     51  C   UNL A   1      45.897  32.182  29.607  1.00  0.00     0.029 A 
ATOM     52  N   UNL A   1      43.705  31.821  29.713  1.00  0.00    -0.354 N 
ATOM     53  N   UNL A   1      40.928  32.537  30.208  1.00  0.00    -0.248 NA
ATOM     54  C   UNL A   1      39.330  34.027  31.029  1.00  0.00     0.031 C 
ATOM     55  C   UNL A   1      45.287  33.325  30.134  1.00  0.00     0.029 A 
ATOM     56  C   UNL A   1      43.921  33.106  30.183  1.00  0.00     0.049 A 
ATOM     57  H   UNL A   1      42.826  31.387  29.638  1.00  0.00     0.167 HD
ATOM     58  C   UNL A   1      41.561  33.699  30.636  1.00  0.00     0.074 A 
ATOM     59  C   UNL A   1      40.526  34.592  31.109  1.00  0.00     0.031 C 
ATOM     60  C   UNL A   1      42.883  33.998  30.630  1.00  0.00     0.037 A 
BRANCH  47  61
ATOM     61  C   UNL A   1      46.444  29.399  28.568  1.00  0.00     0.057 A 
ATOM     62  C   UNL A   1      47.191  28.731  29.547  1.00  0.00     0.134 A 
ATOM     63  C   UNL A   1      47.031  29.570  27.310  1.00  0.00     0.134 A 
ATOM     64  F   UNL A   1      46.689  28.549  30.779  1.00  0.00    -0.206 F 
ATOM     65  C   UNL A   1      48.487  28.281  29.295  1.00  0.00     0.040 A 
ATOM     66  C   UNL A   1      48.317  29.099  27.036  1.00  0.00     0.040 A 
ATOM     67  F   UNL A   1      46.367  30.195  26.326  1.00  0.00    -0.206 F 
ATOM     68  C   UNL A   1      49.051  28.461  28.034  1.00  0.00     0.006 A 
ENDBRANCH  47  61
BRANCH  48  69
ATOM     69  C   UNL A   1      37.104  32.246  30.435  1.00  0.00     0.057 A 
ATOM     70  C   UNL A   1      36.347  33.027  29.553  1.00  0.00     0.134 A 
ATOM     71  C   UNL A   1      36.527  31.918  31.666  1.00  0.00     0.134 A 
ATOM     72  F   UNL A   1      36.860  33.396  28.370  1.00  0.00    -0.206 F 
ATOM     73  C   UNL A   1      35.074  33.487  29.893  1.00  0.00     0.040 A 
ATOM     74  C   UNL A   1      35.246  32.353  32.011  1.00  0.00     0.040 A 
ATOM     75  F   UNL A   1      37.203  31.176  32.556  1.00  0.00    -0.206 F 
ATOM     76  C   UNL A   1      34.519  33.147  31.125  1.00  0.00     0.006 A 
ENDBRANCH  48  69
BRANCH  60  77
ATOM     77  C   UNL A   1      43.288  35.367  31.093  1.00  0.00     0.057 A 
ATOM     78  C   UNL A   1      43.546  35.649  32.441  1.00  0.00     0.134 A 
ATOM     79  C   UNL A   1      43.474  36.403  30.168  1.00  0.00     0.134 A 
ATOM     80  F   UNL A   1      43.375  34.703  33.378  1.00  0.00    -0.206 F 
ATOM     81  C   UNL A   1      43.959  36.917  32.854  1.00  0.00     0.040 A 
ATOM     82  C   UNL A   1      43.908  37.669  30.567  1.00  0.00     0.040 A 
ATOM     83  F   UNL A   1      43.252  36.198  28.862  1.00  0.00    -0.206 F 
ATOM     84  C   UNL A   1      44.148  37.930  31.914  1.00  0.00     0.006 A 
ENDBRANCH  60  77
ENDBRANCH  34  35
ENDBRANCH  27  29
ENDBRANCH  26  27
ENDBRANCH  25  26
ENDBRANCH  24  25
ENDBRANCH   1  24
TORSDOF 17
ENDMDL
MODEL 3
REMARK VINA RESULT:     -10.4      1.702      4.046
REMARK SMILES C[NH2+][C@@]1(C(=O)OCCOCCOC(=O)c2ccc(-c3c4nc(c(-c5c(F)cccc5F)c5ccc([nH]5)c(-c5c(F)cccc5F)c5nc(c(-c6c(F)cccc6F)c6ccc3[nH]6)C=C5)C=C4)cc2)CC[C@H](Oc2cccc(C)c2)C1
REMARK SMILES IDX 9 1 8 2 7 3 6 4 4 5 5 6 3 7 69 8 80 9 70 10 71 11 2 12 1 13
REMARK SMILES IDX 72 16 73 17 74 18 79 19 75 20 77 21 76 22 78 23 10 24 11 25
REMARK SMILES IDX 12 26 13 27 14 28 15 29 16 30 68 31 17 32 67 33 18 34 19 35
REMARK SMILES IDX 20 36 61 37 21 38 66 39 60 40 62 41 22 42 65 43 59 44 58 45
REMARK SMILES IDX 23 47 49 48 32 49 48 50 33 51 36 52 47 53 63 54 34 55 35 56
REMARK SMILES IDX 46 58 64 59 37 60 24 61 25 62 30 63 26 64 27 65 29 66 31 67
REMARK SMILES IDX 28 68 50 69 51 70 56 71 52 72 53 73 55 74 57 75 54 76 38 77
REMARK SMILES IDX 39 78 44 79 40 80 41 81 43 82 45 83 42 84
REMARK H PARENT 2 14 2 15 62 46 36 57
REMARK Flexibility Score: inf
ROOT
ATOM      1  O   UNL A   1      32.698  30.759  27.483  1.00  0.00    -0.374 OA
ENDROOT
BRANCH   1   2
ATOM      2  C   UNL A   1      33.927  30.293  26.921  1.00  0.00     0.202 C 
BRANCH   2   3
ATOM      3  C   UNL A   1      33.994  28.790  26.645  1.00  0.00     0.261 C 
BRANCH   3   4
ATOM      4  O   UNL A   1      33.597  28.507  25.290  1.00  0.00    -0.459 OA
BRANCH   4   5
ATOM      5  C   UNL A   1      32.351  27.995  25.120  1.00  0.00     0.368 C 
ATOM      6  O   UNL A   1      31.414  28.165  25.895  1.00  0.00    -0.245 OA
BRANCH   5   7
ATOM      7  C   UNL A   1      32.225  27.122  23.833  1.00  0.00     0.197 C 
ATOM      8  C   UNL A   1      32.737  27.960  22.660  1.00  0.00     0.085 C 
ATOM      9  C   UNL A   1      30.787  26.765  23.401  1.00  0.00     0.126 C 
ATOM     10  C   UNL A   1      31.532  28.794  22.262  1.00  0.00     0.052 C 
ATOM     11  C   UNL A   1      30.330  27.856  22.404  1.00  0.00     0.180 C 
BRANCH   7  12
ATOM     12  N   UNL A   1      33.142  25.955  23.981  1.00  0.00    -0.334 N 
ATOM     13  C   UNL A   1      33.614  25.384  22.728  1.00  0.00     0.331 C 
ATOM     14  H   UNL A   1      33.955  26.258  24.518  1.00  0.00     0.347 HD
ATOM     15  H   UNL A   1      32.602  25.224  24.444  1.00  0.00     0.347 HD
ENDBRANCH   7  12
BRANCH  11  16
ATOM     16  O   UNL A   1      29.161  28.496  22.927  1.00  0.00    -0.490 OA
BRANCH  16  17
ATOM     17  C   UNL A   1      29.061  29.861  22.850  1.00  0.00     0.119 A 
ATOM     18  C   UNL A   1      29.344  30.758  23.878  1.00  0.00     0.046 A 
ATOM     19  C   UNL A   1      28.600  30.365  21.626  1.00  0.00     0.049 A 
ATOM     20  C   UNL A   1      29.102  32.124  23.719  1.00  0.00     0.004 A 
ATOM     21  C   UNL A   1      28.411  31.745  21.438  1.00  0.00    -0.047 A 
ATOM     22  C   UNL A   1      28.629  32.613  22.508  1.00  0.00     0.003 A 
ATOM     23  C   UNL A   1      27.970  32.322  20.128  1.00  0.00     0.044 C 
ENDBRANCH  16  17
ENDBRANCH  11  16
ENDBRANCH   5   7
ENDBRANCH   4   5
ENDBRANCH   3   4
ENDBRANCH   2   3
ENDBRANCH   1   2
BRANCH   1  24
ATOM     24  C   UNL A   1      31.907  31.610  26.656  1.00  0.00     0.202 C 
BRANCH  24  25
ATOM     25  C   UNL A   1      31.764  33.061  27.128  1.00  0.00     0.261 C 
BRANCH  25  26
ATOM     26  O   UNL A   1      33.029  33.740  27.170  1.00  0.00    -0.460 OA
BRANCH  26  27
ATOM     27  C   UNL A   1      33.260  34.431  28.309  1.00  0.00     0.338 C 
ATOM     28  O   UNL A   1      32.612  35.369  28.756  1.00  0.00    -0.246 OA
BRANCH  27  29
ATOM     29  C   UNL A   1      34.353  33.794  29.063  1.00  0.00     0.060 A 
ATOM     30  C   UNL A   1      35.665  34.201  28.794  1.00  0.00     0.016 A 
ATOM     31  C   UNL A   1      34.103  32.773  29.976  1.00  0.00     0.016 A 
ATOM     32  C   UNL A   1      36.740  33.567  29.419  1.00  0.00     0.010 A 
ATOM     33  C   UNL A   1      35.183  32.132  30.588  1.00  0.00     0.010 A 
ATOM     34  C   UNL A   1      36.512  32.509  30.307  1.00  0.00    -0.014 A 
BRANCH  34  35
ATOM     35  C   UNL A   1      37.650  31.704  30.835  1.00  0.00     0.031 A 
ATOM     36  C   UNL A   1      38.138  31.960  32.237  1.00  0.00     0.074 A 
ATOM     37  C   UNL A   1      38.261  30.765  30.087  1.00  0.00     0.049 A 
ATOM     38  N   UNL A   1      39.168  31.453  32.867  1.00  0.00    -0.248 NA
ATOM     39  C   UNL A   1      37.374  32.938  33.027  1.00  0.00     0.031 C 
ATOM     40  C   UNL A   1      37.912  30.410  28.711  1.00  0.00     0.029 A 
ATOM     41  N   UNL A   1      39.336  29.956  30.376  1.00  0.00    -0.354 N 
ATOM     42  C   UNL A   1      39.185  32.066  34.114  1.00  0.00     0.074 A 
ATOM     43  C   UNL A   1      38.100  33.022  34.131  1.00  0.00     0.031 C 
ATOM     44  C   UNL A   1      38.767  29.469  28.271  1.00  0.00     0.029 A 
ATOM     45  C   UNL A   1      39.735  29.167  29.324  1.00  0.00     0.049 A 
ATOM     46  H   UNL A   1      39.779  29.945  31.255  1.00  0.00     0.167 HD
ATOM     47  C   UNL A   1      40.005  31.836  35.167  1.00  0.00     0.037 A 
ATOM     48  C   UNL A   1      40.771  28.312  29.215  1.00  0.00     0.037 A 
ATOM     49  C   UNL A   1      41.056  30.854  35.184  1.00  0.00     0.049 A 
ATOM     50  C   UNL A   1      41.688  28.087  30.389  1.00  0.00     0.074 A 
ATOM     51  C   UNL A   1      41.894  30.507  36.230  1.00  0.00     0.029 A 
ATOM     52  N   UNL A   1      41.408  30.059  34.106  1.00  0.00    -0.354 N 
ATOM     53  N   UNL A   1      41.660  28.638  31.579  1.00  0.00    -0.248 NA
ATOM     54  C   UNL A   1      42.775  27.113  30.208  1.00  0.00     0.031 C 
ATOM     55  C   UNL A   1      42.775  29.521  35.774  1.00  0.00     0.029 A 
ATOM     56  C   UNL A   1      42.460  29.230  34.457  1.00  0.00     0.049 A 
ATOM     57  H   UNL A   1      40.976  30.080  33.222  1.00  0.00     0.167 HD
ATOM     58  C   UNL A   1      42.695  28.048  32.296  1.00  0.00     0.074 A 
ATOM     59  C   UNL A   1      43.333  27.099  31.411  1.00  0.00     0.031 C 
ATOM     60  C   UNL A   1      43.076  28.271  33.578  1.00  0.00     0.037 A 
BRANCH  47  61
ATOM     61  C   UNL A   1      39.784  32.662  36.400  1.00  0.00     0.057 A 
ATOM     62  C   UNL A   1      40.552  33.802  36.670  1.00  0.00     0.134 A 
ATOM     63  C   UNL A   1      38.787  32.320  37.321  1.00  0.00     0.134 A 
ATOM     64  F   UNL A   1      41.534  34.174  35.833  1.00  0.00    -0.206 F 
ATOM     65  C   UNL A   1      40.360  34.554  37.829  1.00  0.00     0.040 A 
ATOM     66  C   UNL A   1      38.566  33.081  38.470  1.00  0.00     0.040 A 
ATOM     67  F   UNL A   1      38.012  31.244  37.118  1.00  0.00    -0.206 F 
ATOM     68  C   UNL A   1      39.360  34.196  38.731  1.00  0.00     0.006 A 
ENDBRANCH  47  61
BRANCH  48  69
ATOM     69  C   UNL A   1      41.010  27.586  27.942  1.00  0.00     0.057 A 
ATOM     70  C   UNL A   1      40.482  26.307  27.728  1.00  0.00     0.134 A 
ATOM     71  C   UNL A   1      41.807  28.133  26.930  1.00  0.00     0.134 A 
ATOM     72  F   UNL A   1      39.734  25.721  28.675  1.00  0.00    -0.206 F 
ATOM     73  C   UNL A   1      40.756  25.587  26.565  1.00  0.00     0.040 A 
ATOM     74  C   UNL A   1      42.072  27.433  25.751  1.00  0.00     0.040 A 
ATOM     75  F   UNL A   1      42.344  29.352  27.076  1.00  0.00    -0.206 F 
ATOM     76  C   UNL A   1      41.553  26.152  25.570  1.00  0.00     0.006 A 
ENDBRANCH  48  69
BRANCH  60  77
ATOM     77  C   UNL A   1      44.197  27.437  34.125  1.00  0.00     0.057 A 
ATOM     78  C   UNL A   1      45.524  27.882  34.120  1.00  0.00     0.134 A 
ATOM     79  C   UNL A   1      43.934  26.192  34.713  1.00  0.00     0.134 A 
ATOM     80  F   UNL A   1      45.844  29.060  33.562  1.00  0.00    -0.206 F 
ATOM     81  C   UNL A   1      46.553  27.113  34.667  1.00  0.00     0.040 A 
ATOM     82  C   UNL A   1      44.951  25.424  35.283  1.00  0.00     0.040 A 
ATOM     83  F   UNL A   1      42.683  25.711  34.757  1.00  0.00    -0.206 F 
ATOM     84  C   UNL A   1      46.266  25.882  35.257  1.00  0.00     0.006 A 
ENDBRANCH  60  77
ENDBRANCH  34  35
ENDBRANCH  27  29
ENDBRANCH  26  27
ENDBRANCH  25  26
ENDBRANCH  24  25
ENDBRANCH   1  24
TORSDOF 17
ENDMDL
