MODEL 1
REMARK VINA RESULT:     -12.5      0.000      0.000
REMARK SMILES O=C(C[C@H]1S/C(=[NH+]\c2ccccc2)N(NC(=O)c2ccc([N+](=O)[O-])cc2)C1=O)OCCOCCOC(=O)c1ccc(-c2c3nc(c(-c4c(F)cccc4F)c4ccc([nH]4)c(-c4c(F)cccc4F)c4nc(c(-c5c(F)cccc5F)c5ccc2[nH]5)C=C4)C=C3)cc1
REMARK SMILES IDX 31 1 30 2 29 3 2 4 1 5 3 6 4 7 5 8 27 9 6 10 14 11 28 12
REMARK SMILES IDX 7 13 15 15 16 16 17 18 18 19 19 20 26 21 20 22 25 23 21 24
REMARK SMILES IDX 22 25 23 26 24 27 8 28 9 29 13 30 10 31 12 32 11 33 32 34
REMARK SMILES IDX 33 35 34 36 35 37 36 38 37 39 38 40 39 41 91 42 40 43 90 44
REMARK SMILES IDX 41 45 42 46 43 47 84 48 44 49 89 50 83 51 85 52 45 53 88 54
REMARK SMILES IDX 82 55 81 56 46 58 72 59 55 60 71 61 56 62 59 63 70 64 86 65
REMARK SMILES IDX 57 66 58 67 69 69 87 70 60 71 47 72 48 73 53 74 49 75 50 76
REMARK SMILES IDX 52 77 54 78 51 79 73 80 74 81 79 82 75 83 76 84 78 85 80 86
REMARK SMILES IDX 77 87 61 88 62 89 67 90 63 91 64 92 66 93 68 94 65 95
REMARK H PARENT 7 14 15 17 85 57 59 68
REMARK Flexibility Score: inf
ROOT
ATOM      1  C   UNL A   1      40.684  20.939  26.432  1.00  0.00     0.202 C 
ENDROOT
BRANCH   1   2
ATOM      2  C   UNL A   1      39.322  21.397  25.903  1.00  0.00     0.261 C 
BRANCH   2   3
ATOM      3  O   UNL A   1      38.737  22.564  26.499  1.00  0.00    -0.463 OA
BRANCH   3   4
ATOM      4  C   UNL A   1      37.607  23.160  26.079  1.00  0.00     0.307 C 
ATOM      5  O   UNL A   1      37.571  24.374  25.882  1.00  0.00    -0.252 OA
BRANCH   4   6
ATOM      6  C   UNL A   1      36.360  22.343  25.901  1.00  0.00     0.150 C 
BRANCH   6   7
ATOM      7  C   UNL A   1      35.276  23.003  25.069  1.00  0.00     0.187 C 
ATOM      8  S   UNL A   1      34.445  21.733  24.073  1.00  0.00    -0.019 SA
ATOM      9  C   UNL A   1      34.153  23.593  25.890  1.00  0.00     0.348 C 
ATOM     10  C   UNL A   1      33.161  21.572  25.263  1.00  0.00     0.343 C 
ATOM     11  N   UNL A   1      33.150  22.669  26.094  1.00  0.00    -0.078 N 
ATOM     12  O   UNL A   1      34.149  24.740  26.324  1.00  0.00    -0.243 OA
ATOM     13  N   UNL A   1      32.357  20.576  25.364  1.00  0.00    -0.233 N 
ATOM     14  H   UNL A   1      31.582  20.652  25.967  1.00  0.00     0.313 HD
BRANCH  11  15
ATOM     15  N   UNL A   1      32.130  23.076  26.989  1.00  0.00    -0.182 N 
ATOM     16  C   UNL A   1      30.902  23.606  26.657  1.00  0.00     0.286 C 
ATOM     17  H   UNL A   1      32.318  22.969  27.949  1.00  0.00     0.217 HD
ATOM     18  O   UNL A   1      29.897  23.332  27.308  1.00  0.00    -0.266 OA
BRANCH  16  19
ATOM     19  C   UNL A   1      30.808  24.676  25.662  1.00  0.00     0.043 A 
ATOM     20  C   UNL A   1      30.913  25.995  26.127  1.00  0.00     0.021 A 
ATOM     21  C   UNL A   1      30.652  24.391  24.303  1.00  0.00     0.021 A 
ATOM     22  C   UNL A   1      30.977  27.044  25.213  1.00  0.00     0.086 A 
ATOM     23  C   UNL A   1      30.711  25.444  23.383  1.00  0.00     0.086 A 
ATOM     24  C   UNL A   1      30.914  26.759  23.842  1.00  0.00     0.269 A 
BRANCH  24  25
ATOM     25  N   UNL A   1      31.141  27.841  22.874  1.00  0.00     0.062 N 
ATOM     26  O   UNL A   1      30.279  28.026  22.001  1.00  0.00    -0.258 OA
ATOM     27  O   UNL A   1      32.182  28.505  22.982  1.00  0.00    -0.258 OA
ENDBRANCH  24  25
ENDBRANCH  16  19
ENDBRANCH  11  15
BRANCH  13  28
ATOM     28  C   UNL A   1      32.541  19.388  24.652  1.00  0.00     0.125 A 
ATOM     29  C   UNL A   1      33.285  18.359  25.225  1.00  0.00     0.051 A 
ATOM     30  C   UNL A   1      32.171  19.294  23.302  1.00  0.00     0.051 A 
ATOM     31  C   UNL A   1      33.650  17.247  24.467  1.00  0.00     0.004 A 
ATOM     32  C   UNL A   1      32.529  18.181  22.543  1.00  0.00     0.004 A 
ATOM     33  C   UNL A   1      33.274  17.159  23.127  1.00  0.00     0.000 A 
ENDBRANCH  13  28
ENDBRANCH   6   7
ENDBRANCH   4   6
ENDBRANCH   3   4
ENDBRANCH   2   3
ENDBRANCH   1   2
BRANCH   1  34
ATOM     34  O   UNL A   1      41.807  21.781  26.235  1.00  0.00    -0.374 OA
BRANCH  34  35
ATOM     35  C   UNL A   1      43.025  21.211  25.753  1.00  0.00     0.202 C 
BRANCH  35  36
ATOM     36  C   UNL A   1      43.998  22.176  25.086  1.00  0.00     0.261 C 
BRANCH  36  37
ATOM     37  O   UNL A   1      43.313  23.382  24.702  1.00  0.00    -0.460 OA
BRANCH  37  38
ATOM     38  C   UNL A   1      43.961  24.529  25.002  1.00  0.00     0.338 C 
ATOM     39  O   UNL A   1      45.078  24.864  24.653  1.00  0.00    -0.246 OA
BRANCH  38  40
ATOM     40  C   UNL A   1      43.037  25.450  25.680  1.00  0.00     0.060 A 
ATOM     41  C   UNL A   1      43.466  26.768  25.874  1.00  0.00     0.016 A 
ATOM     42  C   UNL A   1      41.835  24.996  26.226  1.00  0.00     0.016 A 
ATOM     43  C   UNL A   1      42.737  27.618  26.696  1.00  0.00     0.010 A 
ATOM     44  C   UNL A   1      41.111  25.844  27.066  1.00  0.00     0.010 A 
ATOM     45  C   UNL A   1      41.599  27.132  27.353  1.00  0.00    -0.014 A 
BRANCH  45  46
ATOM     46  C   UNL A   1      41.113  27.863  28.543  1.00  0.00     0.031 A 
ATOM     47  C   UNL A   1      41.882  27.705  29.827  1.00  0.00     0.074 A 
ATOM     48  C   UNL A   1      40.061  28.695  28.470  1.00  0.00     0.049 A 
ATOM     49  N   UNL A   1      41.676  28.252  30.997  1.00  0.00    -0.248 NA
ATOM     50  C   UNL A   1      43.049  26.806  29.785  1.00  0.00     0.031 C 
ATOM     51  C   UNL A   1      39.273  28.961  27.269  1.00  0.00     0.029 A 
ATOM     52  N   UNL A   1      39.483  29.475  29.437  1.00  0.00    -0.354 N 
ATOM     53  C   UNL A   1      42.676  27.758  31.825  1.00  0.00     0.074 A 
ATOM     54  C   UNL A   1      43.473  26.846  31.038  1.00  0.00     0.031 C 
ATOM     55  C   UNL A   1      38.306  29.844  27.573  1.00  0.00     0.029 A 
ATOM     56  C   UNL A   1      38.398  30.186  28.992  1.00  0.00     0.049 A 
ATOM     57  H   UNL A   1      39.816  29.521  30.363  1.00  0.00     0.167 HD
ATOM     58  C   UNL A   1      42.916  28.047  33.125  1.00  0.00     0.037 A 
ATOM     59  C   UNL A   1      37.573  31.012  29.663  1.00  0.00     0.037 A 
ATOM     60  C   UNL A   1      42.123  28.958  33.903  1.00  0.00     0.049 A 
ATOM     61  C   UNL A   1      37.831  31.278  31.123  1.00  0.00     0.074 A 
ATOM     62  C   UNL A   1      42.281  29.330  35.227  1.00  0.00     0.029 A 
ATOM     63  N   UNL A   1      41.016  29.641  33.423  1.00  0.00    -0.354 N 
ATOM     64  N   UNL A   1      38.791  30.824  31.892  1.00  0.00    -0.248 NA
ATOM     65  C   UNL A   1      36.894  32.183  31.804  1.00  0.00     0.031 C 
ATOM     66  C   UNL A   1      41.242  30.207  35.558  1.00  0.00     0.029 A 
ATOM     67  C   UNL A   1      40.470  30.420  34.427  1.00  0.00     0.049 A 
ATOM     68  H   UNL A   1      40.668  29.580  32.503  1.00  0.00     0.167 HD
ATOM     69  C   UNL A   1      38.596  31.415  33.136  1.00  0.00     0.074 A 
ATOM     70  C   UNL A   1      37.431  32.266  33.012  1.00  0.00     0.031 C 
ATOM     71  C   UNL A   1      39.318  31.272  34.275  1.00  0.00     0.037 A 
BRANCH  58  72
ATOM     72  C   UNL A   1      44.064  27.342  33.785  1.00  0.00     0.057 A 
ATOM     73  C   UNL A   1      43.904  26.113  34.439  1.00  0.00     0.134 A 
ATOM     74  C   UNL A   1      45.348  27.899  33.763  1.00  0.00     0.134 A 
ATOM     75  F   UNL A   1      42.695  25.536  34.516  1.00  0.00    -0.206 F 
ATOM     76  C   UNL A   1      44.975  25.477  35.070  1.00  0.00     0.040 A 
ATOM     77  C   UNL A   1      46.432  27.260  34.367  1.00  0.00     0.040 A 
ATOM     78  F   UNL A   1      45.571  29.075  33.156  1.00  0.00    -0.206 F 
ATOM     79  C   UNL A   1      46.245  26.048  35.030  1.00  0.00     0.006 A 
ENDBRANCH  58  72
BRANCH  59  80
ATOM     80  C   UNL A   1      36.432  31.655  28.965  1.00  0.00     0.057 A 
ATOM     81  C   UNL A   1      36.462  33.011  28.621  1.00  0.00     0.134 A 
ATOM     82  C   UNL A   1      35.276  30.934  28.644  1.00  0.00     0.134 A 
ATOM     83  F   UNL A   1      37.534  33.759  28.922  1.00  0.00    -0.206 F 
ATOM     84  C   UNL A   1      35.378  33.633  28.001  1.00  0.00     0.040 A 
ATOM     85  C   UNL A   1      34.193  31.536  28.002  1.00  0.00     0.040 A 
ATOM     86  F   UNL A   1      35.185  29.630  28.946  1.00  0.00    -0.206 F 
ATOM     87  C   UNL A   1      34.240  32.893  27.685  1.00  0.00     0.006 A 
ENDBRANCH  59  80
BRANCH  71  88
ATOM     88  C   UNL A   1      38.899  32.095  35.458  1.00  0.00     0.057 A 
ATOM     89  C   UNL A   1      38.167  31.551  36.520  1.00  0.00     0.134 A 
ATOM     90  C   UNL A   1      39.267  33.444  35.547  1.00  0.00     0.134 A 
ATOM     91  F   UNL A   1      37.778  30.267  36.491  1.00  0.00    -0.206 F 
ATOM     92  C   UNL A   1      37.787  32.328  37.616  1.00  0.00     0.040 A 
ATOM     93  C   UNL A   1      38.916  34.223  36.650  1.00  0.00     0.040 A 
ATOM     94  F   UNL A   1      39.980  34.023  34.569  1.00  0.00    -0.206 F 
ATOM     95  C   UNL A   1      38.168  33.668  37.684  1.00  0.00     0.006 A 
ENDBRANCH  71  88
ENDBRANCH  45  46
ENDBRANCH  38  40
ENDBRANCH  37  38
ENDBRANCH  36  37
ENDBRANCH  35  36
ENDBRANCH  34  35
ENDBRANCH   1  34
TORSDOF 19
ENDMDL
MODEL 2
REMARK VINA RESULT:     -12.1      1.971      7.732
REMARK SMILES O=C(C[C@H]1S/C(=[NH+]\c2ccccc2)N(NC(=O)c2ccc([N+](=O)[O-])cc2)C1=O)OCCOCCOC(=O)c1ccc(-c2c3nc(c(-c4c(F)cccc4F)c4ccc([nH]4)c(-c4c(F)cccc4F)c4nc(c(-c5c(F)cccc5F)c5ccc2[nH]5)C=C4)C=C3)cc1
REMARK SMILES IDX 31 1 30 2 29 3 2 4 1 5 3 6 4 7 5 8 27 9 6 10 14 11 28 12
REMARK SMILES IDX 7 13 15 15 16 16 17 18 18 19 19 20 26 21 20 22 25 23 21 24
REMARK SMILES IDX 22 25 23 26 24 27 8 28 9 29 13 30 10 31 12 32 11 33 32 34
REMARK SMILES IDX 33 35 34 36 35 37 36 38 37 39 38 40 39 41 91 42 40 43 90 44
REMARK SMILES IDX 41 45 42 46 43 47 84 48 44 49 89 50 83 51 85 52 45 53 88 54
REMARK SMILES IDX 82 55 81 56 46 58 72 59 55 60 71 61 56 62 59 63 70 64 86 65
REMARK SMILES IDX 57 66 58 67 69 69 87 70 60 71 47 72 48 73 53 74 49 75 50 76
REMARK SMILES IDX 52 77 54 78 51 79 73 80 74 81 79 82 75 83 76 84 78 85 80 86
REMARK SMILES IDX 77 87 61 88 62 89 67 90 63 91 64 92 66 93 68 94 65 95
REMARK H PARENT 7 14 15 17 85 57 59 68
REMARK Flexibility Score: inf
ROOT
ATOM      1  C   UNL A   1      31.152  27.332  25.215  1.00  0.00     0.202 C 
ENDROOT
BRANCH   1   2
ATOM      2  C   UNL A   1      30.353  26.341  26.067  1.00  0.00     0.261 C 
BRANCH   2   3
ATOM      3  O   UNL A   1      31.051  25.202  26.589  1.00  0.00    -0.463 OA
BRANCH   3   4
ATOM      4  C   UNL A   1      30.500  23.995  26.813  1.00  0.00     0.307 C 
ATOM      5  O   UNL A   1      29.412  23.894  27.376  1.00  0.00    -0.252 OA
BRANCH   4   6
ATOM      6  C   UNL A   1      31.250  22.755  26.419  1.00  0.00     0.150 C 
BRANCH   6   7
ATOM      7  C   UNL A   1      32.678  22.683  26.927  1.00  0.00     0.187 C 
ATOM      8  S   UNL A   1      33.253  20.964  26.826  1.00  0.00    -0.019 SA
ATOM      9  C   UNL A   1      33.669  23.433  26.066  1.00  0.00     0.348 C 
ATOM     10  C   UNL A   1      34.024  21.263  25.275  1.00  0.00     0.343 C 
ATOM     11  N   UNL A   1      34.191  22.616  25.085  1.00  0.00    -0.078 N 
ATOM     12  O   UNL A   1      33.954  24.616  26.219  1.00  0.00    -0.243 OA
ATOM     13  N   UNL A   1      34.371  20.363  24.427  1.00  0.00    -0.233 N 
ATOM     14  H   UNL A   1      34.929  20.625  23.659  1.00  0.00     0.313 HD
BRANCH  11  15
ATOM     15  N   UNL A   1      35.004  23.270  24.127  1.00  0.00    -0.182 N 
ATOM     16  C   UNL A   1      36.252  22.875  23.695  1.00  0.00     0.286 C 
ATOM     17  H   UNL A   1      34.640  24.092  23.728  1.00  0.00     0.217 HD
ATOM     18  O   UNL A   1      36.593  23.025  22.525  1.00  0.00    -0.266 OA
BRANCH  16  19
ATOM     19  C   UNL A   1      37.274  22.475  24.665  1.00  0.00     0.043 A 
ATOM     20  C   UNL A   1      37.700  21.139  24.632  1.00  0.00     0.021 A 
ATOM     21  C   UNL A   1      37.822  23.395  25.562  1.00  0.00     0.021 A 
ATOM     22  C   UNL A   1      38.769  20.738  25.430  1.00  0.00     0.086 A 
ATOM     23  C   UNL A   1      38.893  22.994  26.367  1.00  0.00     0.086 A 
ATOM     24  C   UNL A   1      39.387  21.679  26.266  1.00  0.00     0.269 A 
BRANCH  24  25
ATOM     25  N   UNL A   1      40.611  21.303  26.986  1.00  0.00     0.062 N 
ATOM     26  O   UNL A   1      40.684  21.590  28.191  1.00  0.00    -0.258 OA
ATOM     27  O   UNL A   1      41.503  20.725  26.349  1.00  0.00    -0.258 OA
ENDBRANCH  24  25
ENDBRANCH  16  19
ENDBRANCH  11  15
BRANCH  13  28
ATOM     28  C   UNL A   1      33.985  19.025  24.553  1.00  0.00     0.125 A 
ATOM     29  C   UNL A   1      34.960  18.031  24.513  1.00  0.00     0.051 A 
ATOM     30  C   UNL A   1      32.632  18.660  24.511  1.00  0.00     0.051 A 
ATOM     31  C   UNL A   1      34.591  16.688  24.440  1.00  0.00     0.004 A 
ATOM     32  C   UNL A   1      32.261  17.318  24.443  1.00  0.00     0.004 A 
ATOM     33  C   UNL A   1      33.243  16.331  24.402  1.00  0.00     0.000 A 
ENDBRANCH  13  28
ENDBRANCH   6   7
ENDBRANCH   4   6
ENDBRANCH   3   4
ENDBRANCH   2   3
ENDBRANCH   1   2
BRANCH   1  34
ATOM     34  O   UNL A   1      31.835  28.389  25.865  1.00  0.00    -0.374 OA
BRANCH  34  35
ATOM     35  C   UNL A   1      31.900  29.667  25.230  1.00  0.00     0.202 C 
BRANCH  35  36
ATOM     36  C   UNL A   1      31.634  30.873  26.124  1.00  0.00     0.261 C 
BRANCH  36  37
ATOM     37  O   UNL A   1      32.495  30.833  27.276  1.00  0.00    -0.460 OA
BRANCH  37  38
ATOM     38  C   UNL A   1      33.250  31.938  27.464  1.00  0.00     0.338 C 
ATOM     39  O   UNL A   1      32.871  33.092  27.549  1.00  0.00    -0.246 OA
BRANCH  38  40
ATOM     40  C   UNL A   1      34.636  31.540  27.754  1.00  0.00     0.060 A 
ATOM     41  C   UNL A   1      34.898  30.172  27.897  1.00  0.00     0.016 A 
ATOM     42  C   UNL A   1      35.624  32.493  28.006  1.00  0.00     0.016 A 
ATOM     43  C   UNL A   1      36.128  29.752  28.385  1.00  0.00     0.010 A 
ATOM     44  C   UNL A   1      36.855  32.072  28.512  1.00  0.00     0.010 A 
ATOM     45  C   UNL A   1      37.081  30.707  28.764  1.00  0.00    -0.014 A 
BRANCH  45  46
ATOM     46  C   UNL A   1      38.162  30.289  29.683  1.00  0.00     0.031 A 
ATOM     47  C   UNL A   1      39.208  29.344  29.153  1.00  0.00     0.074 A 
ATOM     48  C   UNL A   1      38.253  30.786  30.927  1.00  0.00     0.049 A 
ATOM     49  N   UNL A   1      40.262  28.848  29.746  1.00  0.00    -0.248 NA
ATOM     50  C   UNL A   1      39.040  28.898  27.758  1.00  0.00     0.031 C 
ATOM     51  C   UNL A   1      37.325  31.742  31.527  1.00  0.00     0.029 A 
ATOM     52  N   UNL A   1      39.182  30.551  31.907  1.00  0.00    -0.354 N 
ATOM     53  C   UNL A   1      40.874  28.030  28.804  1.00  0.00     0.074 A 
ATOM     54  C   UNL A   1      40.063  28.071  27.610  1.00  0.00     0.031 C 
ATOM     55  C   UNL A   1      37.732  32.011  32.780  1.00  0.00     0.029 A 
ATOM     56  C   UNL A   1      38.933  31.231  33.072  1.00  0.00     0.049 A 
ATOM     57  H   UNL A   1      39.955  29.953  31.785  1.00  0.00     0.167 HD
ATOM     58  C   UNL A   1      42.018  27.317  28.920  1.00  0.00     0.037 A 
ATOM     59  C   UNL A   1      39.602  31.212  34.241  1.00  0.00     0.037 A 
ATOM     60  C   UNL A   1      42.824  27.284  30.109  1.00  0.00     0.049 A 
ATOM     61  C   UNL A   1      40.844  30.370  34.362  1.00  0.00     0.074 A 
ATOM     62  C   UNL A   1      44.006  26.600  30.334  1.00  0.00     0.029 A 
ATOM     63  N   UNL A   1      42.526  27.966  31.279  1.00  0.00    -0.354 N 
ATOM     64  N   UNL A   1      41.427  29.617  33.460  1.00  0.00    -0.248 NA
ATOM     65  C   UNL A   1      41.528  30.386  35.662  1.00  0.00     0.031 C 
ATOM     66  C   UNL A   1      44.400  26.837  31.656  1.00  0.00     0.029 A 
ATOM     67  C   UNL A   1      43.492  27.708  32.235  1.00  0.00     0.049 A 
ATOM     68  H   UNL A   1      41.742  28.548  31.410  1.00  0.00     0.167 HD
ATOM     69  C   UNL A   1      42.563  29.099  34.071  1.00  0.00     0.074 A 
ATOM     70  C   UNL A   1      42.589  29.632  35.417  1.00  0.00     0.031 C 
ATOM     71  C   UNL A   1      43.504  28.264  33.564  1.00  0.00     0.037 A 
BRANCH  58  72
ATOM     72  C   UNL A   1      42.438  26.494  27.738  1.00  0.00     0.057 A 
ATOM     73  C   UNL A   1      43.281  27.002  26.741  1.00  0.00     0.134 A 
ATOM     74  C   UNL A   1      41.994  25.173  27.598  1.00  0.00     0.134 A 
ATOM     75  F   UNL A   1      43.723  28.267  26.803  1.00  0.00    -0.206 F 
ATOM     76  C   UNL A   1      43.647  26.234  25.634  1.00  0.00     0.040 A 
ATOM     77  C   UNL A   1      42.374  24.387  26.510  1.00  0.00     0.040 A 
ATOM     78  F   UNL A   1      41.182  24.626  28.516  1.00  0.00    -0.206 F 
ATOM     79  C   UNL A   1      43.197  24.920  25.519  1.00  0.00     0.006 A 
ENDBRANCH  58  72
BRANCH  59  80
ATOM     80  C   UNL A   1      39.119  32.022  35.388  1.00  0.00     0.057 A 
ATOM     81  C   UNL A   1      39.454  33.374  35.514  1.00  0.00     0.134 A 
ATOM     82  C   UNL A   1      38.329  31.456  36.396  1.00  0.00     0.134 A 
ATOM     83  F   UNL A   1      40.227  33.966  34.591  1.00  0.00    -0.206 F 
ATOM     84  C   UNL A   1      39.039  34.132  36.610  1.00  0.00     0.040 A 
ATOM     85  C   UNL A   1      37.886  32.207  37.486  1.00  0.00     0.040 A 
ATOM     86  F   UNL A   1      37.973  30.165  36.333  1.00  0.00    -0.206 F 
ATOM     87  C   UNL A   1      38.248  33.549  37.598  1.00  0.00     0.006 A 
ENDBRANCH  59  80
BRANCH  71  88
ATOM     88  C   UNL A   1      44.665  27.922  34.451  1.00  0.00     0.057 A 
ATOM     89  C   UNL A   1      44.658  26.796  35.284  1.00  0.00     0.134 A 
ATOM     90  C   UNL A   1      45.819  28.716  34.443  1.00  0.00     0.134 A 
ATOM     91  F   UNL A   1      43.579  26.001  35.343  1.00  0.00    -0.206 F 
ATOM     92  C   UNL A   1      45.747  26.488  36.101  1.00  0.00     0.040 A 
ATOM     93  C   UNL A   1      46.925  28.403  35.235  1.00  0.00     0.040 A 
ATOM     94  F   UNL A   1      45.896  29.801  33.658  1.00  0.00    -0.206 F 
ATOM     95  C   UNL A   1      46.887  27.291  36.073  1.00  0.00     0.006 A 
ENDBRANCH  71  88
ENDBRANCH  45  46
ENDBRANCH  38  40
ENDBRANCH  37  38
ENDBRANCH  36  37
ENDBRANCH  35  36
ENDBRANCH  34  35
ENDBRANCH   1  34
TORSDOF 19
ENDMDL
MODEL 3
REMARK VINA RESULT:     -11.9      1.006      6.012
REMARK SMILES O=C(C[C@H]1S/C(=[NH+]\c2ccccc2)N(NC(=O)c2ccc([N+](=O)[O-])cc2)C1=O)OCCOCCOC(=O)c1ccc(-c2c3nc(c(-c4c(F)cccc4F)c4ccc([nH]4)c(-c4c(F)cccc4F)c4nc(c(-c5c(F)cccc5F)c5ccc2[nH]5)C=C4)C=C3)cc1
REMARK SMILES IDX 31 1 30 2 29 3 2 4 1 5 3 6 4 7 5 8 27 9 6 10 14 11 28 12
REMARK SMILES IDX 7 13 15 15 16 16 17 18 18 19 19 20 26 21 20 22 25 23 21 24
REMARK SMILES IDX 22 25 23 26 24 27 8 28 9 29 13 30 10 31 12 32 11 33 32 34
REMARK SMILES IDX 33 35 34 36 35 37 36 38 37 39 38 40 39 41 91 42 40 43 90 44
REMARK SMILES IDX 41 45 42 46 43 47 84 48 44 49 89 50 83 51 85 52 45 53 88 54
REMARK SMILES IDX 82 55 81 56 46 58 72 59 55 60 71 61 56 62 59 63 70 64 86 65
REMARK SMILES IDX 57 66 58 67 69 69 87 70 60 71 47 72 48 73 53 74 49 75 50 76
REMARK SMILES IDX 52 77 54 78 51 79 73 80 74 81 79 82 75 83 76 84 78 85 80 86
REMARK SMILES IDX 77 87 61 88 62 89 67 90 63 91 64 92 66 93 68 94 65 95
REMARK H PARENT 7 14 15 17 85 57 59 68
REMARK Flexibility Score: inf
ROOT
ATOM      1  C   UNL A   1      41.202  21.277  26.524  1.00  0.00     0.202 C 
ENDROOT
BRANCH   1   2
ATOM      2  C   UNL A   1      39.949  22.088  26.866  1.00  0.00     0.261 C 
BRANCH   2   3
ATOM      3  O   UNL A   1      38.838  22.005  25.962  1.00  0.00    -0.463 OA
BRANCH   3   4
ATOM      4  C   UNL A   1      37.804  22.864  25.930  1.00  0.00     0.307 C 
ATOM      5  O   UNL A   1      37.991  24.072  25.798  1.00  0.00    -0.252 OA
BRANCH   4   6
ATOM      6  C   UNL A   1      36.406  22.346  26.113  1.00  0.00     0.150 C 
BRANCH   6   7
ATOM      7  C   UNL A   1      35.357  23.020  25.247  1.00  0.00     0.187 C 
ATOM      8  S   UNL A   1      34.584  21.771  24.180  1.00  0.00    -0.019 SA
ATOM      9  C   UNL A   1      34.190  23.580  26.029  1.00  0.00     0.348 C 
ATOM     10  C   UNL A   1      33.247  21.569  25.304  1.00  0.00     0.343 C 
ATOM     11  N   UNL A   1      33.187  22.644  26.161  1.00  0.00    -0.078 N 
ATOM     12  O   UNL A   1      34.156  24.716  26.491  1.00  0.00    -0.243 OA
ATOM     13  N   UNL A   1      32.448  20.565  25.341  1.00  0.00    -0.233 N 
ATOM     14  H   UNL A   1      31.644  20.620  25.908  1.00  0.00     0.313 HD
BRANCH  11  15
ATOM     15  N   UNL A   1      32.123  23.020  27.017  1.00  0.00    -0.182 N 
ATOM     16  C   UNL A   1      30.893  23.514  26.638  1.00  0.00     0.286 C 
ATOM     17  H   UNL A   1      32.277  22.917  27.984  1.00  0.00     0.217 HD
ATOM     18  O   UNL A   1      29.873  23.210  27.252  1.00  0.00    -0.266 OA
BRANCH  16  19
ATOM     19  C   UNL A   1      30.806  24.582  25.641  1.00  0.00     0.043 A 
ATOM     20  C   UNL A   1      30.833  25.903  26.112  1.00  0.00     0.021 A 
ATOM     21  C   UNL A   1      30.730  24.295  24.276  1.00  0.00     0.021 A 
ATOM     22  C   UNL A   1      30.900  26.956  25.203  1.00  0.00     0.086 A 
ATOM     23  C   UNL A   1      30.792  25.352  23.361  1.00  0.00     0.086 A 
ATOM     24  C   UNL A   1      30.918  26.673  23.830  1.00  0.00     0.269 A 
BRANCH  24  25
ATOM     25  N   UNL A   1      31.149  27.766  22.875  1.00  0.00     0.062 N 
ATOM     26  O   UNL A   1      30.283  27.971  22.011  1.00  0.00    -0.258 OA
ATOM     27  O   UNL A   1      32.196  28.419  22.986  1.00  0.00    -0.258 OA
ENDBRANCH  24  25
ENDBRANCH  16  19
ENDBRANCH  11  15
BRANCH  13  28
ATOM     28  C   UNL A   1      32.675  19.397  24.608  1.00  0.00     0.125 A 
ATOM     29  C   UNL A   1      33.602  18.469  25.077  1.00  0.00     0.051 A 
ATOM     30  C   UNL A   1      32.147  19.244  23.317  1.00  0.00     0.051 A 
ATOM     31  C   UNL A   1      33.992  17.397  24.276  1.00  0.00     0.004 A 
ATOM     32  C   UNL A   1      32.532  18.170  22.515  1.00  0.00     0.004 A 
ATOM     33  C   UNL A   1      33.460  17.249  22.995  1.00  0.00     0.000 A 
ENDBRANCH  13  28
ENDBRANCH   6   7
ENDBRANCH   4   6
ENDBRANCH   3   4
ENDBRANCH   2   3
ENDBRANCH   1   2
BRANCH   1  34
ATOM     34  O   UNL A   1      42.038  21.728  25.473  1.00  0.00    -0.374 OA
BRANCH  34  35
ATOM     35  C   UNL A   1      43.419  21.367  25.481  1.00  0.00     0.202 C 
BRANCH  35  36
ATOM     36  C   UNL A   1      44.378  22.369  24.845  1.00  0.00     0.261 C 
BRANCH  36  37
ATOM     37  O   UNL A   1      44.019  23.708  25.231  1.00  0.00    -0.460 OA
BRANCH  37  38
ATOM     38  C   UNL A   1      44.604  24.153  26.364  1.00  0.00     0.338 C 
ATOM     39  O   UNL A   1      45.749  23.963  26.734  1.00  0.00    -0.246 OA
BRANCH  38  40
ATOM     40  C   UNL A   1      43.703  25.097  27.042  1.00  0.00     0.060 A 
ATOM     41  C   UNL A   1      44.063  26.450  27.036  1.00  0.00     0.016 A 
ATOM     42  C   UNL A   1      42.602  24.647  27.772  1.00  0.00     0.016 A 
ATOM     43  C   UNL A   1      43.375  27.350  27.840  1.00  0.00     0.010 A 
ATOM     44  C   UNL A   1      41.921  25.548  28.593  1.00  0.00     0.010 A 
ATOM     45  C   UNL A   1      42.352  26.885  28.676  1.00  0.00    -0.014 A 
BRANCH  45  46
ATOM     46  C   UNL A   1      41.954  27.724  29.827  1.00  0.00     0.031 A 
ATOM     47  C   UNL A   1      40.730  28.589  29.676  1.00  0.00     0.074 A 
ATOM     48  C   UNL A   1      42.616  27.669  30.994  1.00  0.00     0.049 A 
ATOM     49  N   UNL A   1      40.165  29.392  30.538  1.00  0.00    -0.248 NA
ATOM     50  C   UNL A   1      40.049  28.536  28.370  1.00  0.00     0.031 C 
ATOM     51  C   UNL A   1      43.783  26.834  31.268  1.00  0.00     0.029 A 
ATOM     52  N   UNL A   1      42.390  28.335  32.170  1.00  0.00    -0.354 N 
ATOM     53  C   UNL A   1      39.073  29.944  29.878  1.00  0.00     0.074 A 
ATOM     54  C   UNL A   1      39.069  29.409  28.536  1.00  0.00     0.031 C 
ATOM     55  C   UNL A   1      44.175  27.041  32.537  1.00  0.00     0.029 A 
ATOM     56  C   UNL A   1      43.299  28.036  33.153  1.00  0.00     0.049 A 
ATOM     57  H   UNL A   1      41.645  28.966  32.298  1.00  0.00     0.167 HD
ATOM     58  C   UNL A   1      38.150  30.812  30.351  1.00  0.00     0.037 A 
ATOM     59  C   UNL A   1      43.408  28.523  34.404  1.00  0.00     0.037 A 
ATOM     60  C   UNL A   1      38.156  31.339  31.688  1.00  0.00     0.049 A 
ATOM     61  C   UNL A   1      42.398  29.527  34.891  1.00  0.00     0.074 A 
ATOM     62  C   UNL A   1      37.265  32.219  32.276  1.00  0.00     0.029 A 
ATOM     63  N   UNL A   1      39.109  31.031  32.648  1.00  0.00    -0.354 N 
ATOM     64  N   UNL A   1      41.358  30.026  34.268  1.00  0.00    -0.248 NA
ATOM     65  C   UNL A   1      42.572  30.026  36.262  1.00  0.00     0.031 C 
ATOM     66  C   UNL A   1      37.704  32.476  33.579  1.00  0.00     0.029 A 
ATOM     67  C   UNL A   1      38.838  31.716  33.819  1.00  0.00     0.049 A 
ATOM     68  H   UNL A   1      39.867  30.416  32.515  1.00  0.00     0.167 HD
ATOM     69  C   UNL A   1      40.734  30.869  35.181  1.00  0.00     0.074 A 
ATOM     70  C   UNL A   1      41.509  30.804  36.402  1.00  0.00     0.031 C 
ATOM     71  C   UNL A   1      39.616  31.623  35.027  1.00  0.00     0.037 A 
BRANCH  58  72
ATOM     72  C   UNL A   1      37.081  31.265  29.401  1.00  0.00     0.057 A 
ATOM     73  C   UNL A   1      37.128  32.515  28.770  1.00  0.00     0.134 A 
ATOM     74  C   UNL A   1      35.990  30.436  29.111  1.00  0.00     0.134 A 
ATOM     75  F   UNL A   1      38.134  33.366  29.023  1.00  0.00    -0.206 F 
ATOM     76  C   UNL A   1      36.116  32.935  27.905  1.00  0.00     0.040 A 
ATOM     77  C   UNL A   1      34.985  30.833  28.227  1.00  0.00     0.040 A 
ATOM     78  F   UNL A   1      35.882  29.227  29.682  1.00  0.00    -0.206 F 
ATOM     79  C   UNL A   1      35.043  32.091  27.627  1.00  0.00     0.006 A 
ENDBRANCH  58  72
BRANCH  59  80
ATOM     80  C   UNL A   1      44.509  28.063  35.288  1.00  0.00     0.057 A 
ATOM     81  C   UNL A   1      44.340  26.974  36.150  1.00  0.00     0.134 A 
ATOM     82  C   UNL A   1      45.747  28.715  35.308  1.00  0.00     0.134 A 
ATOM     83  F   UNL A   1      43.169  26.322  36.192  1.00  0.00    -0.206 F 
ATOM     84  C   UNL A   1      45.355  26.561  37.014  1.00  0.00     0.040 A 
ATOM     85  C   UNL A   1      46.780  28.299  36.149  1.00  0.00     0.040 A 
ATOM     86  F   UNL A   1      45.972  29.766  34.505  1.00  0.00    -0.206 F 
ATOM     87  C   UNL A   1      46.582  27.222  37.012  1.00  0.00     0.006 A 
ENDBRANCH  59  80
BRANCH  71  88
ATOM     88  C   UNL A   1      39.140  32.392  36.224  1.00  0.00     0.057 A 
ATOM     89  C   UNL A   1      39.554  33.706  36.476  1.00  0.00     0.134 A 
ATOM     90  C   UNL A   1      38.226  31.817  37.116  1.00  0.00     0.134 A 
ATOM     91  F   UNL A   1      40.435  34.309  35.664  1.00  0.00    -0.206 F 
ATOM     92  C   UNL A   1      39.100  34.410  37.592  1.00  0.00     0.040 A 
ATOM     93  C   UNL A   1      37.743  32.522  38.220  1.00  0.00     0.040 A 
ATOM     94  F   UNL A   1      37.779  30.567  36.924  1.00  0.00    -0.206 F 
ATOM     95  C   UNL A   1      38.187  33.819  38.464  1.00  0.00     0.006 A 
ENDBRANCH  71  88
ENDBRANCH  45  46
ENDBRANCH  38  40
ENDBRANCH  37  38
ENDBRANCH  36  37
ENDBRANCH  35  36
ENDBRANCH  34  35
ENDBRANCH   1  34
TORSDOF 19
ENDMDL
