MODEL 1
REMARK VINA RESULT:     -10.6      0.000      0.000
REMARK SMILES CCN1C(=O)CC[C@H](C(=O)OCCOCCOC(=O)c2ccc(-c3c4nc(c(-c5c(F)cccc5F)c5ccc([nH]5)c(-c5c(F)cccc5F)c5nc(c(-c6c(F)cccc6F)c6ccc3[nH]6)C=C5)C=C4)cc2)[C@@H]1c1ccc(OC)cc1
REMARK SMILES IDX 14 1 13 2 12 3 11 4 9 5 10 6 8 7 3 8 4 9 74 10 5 11 6 12
REMARK SMILES IDX 7 13 2 14 1 15 75 16 76 17 82 18 77 19 81 20 78 21 79 22
REMARK SMILES IDX 80 23 15 24 16 25 17 26 18 27 19 28 20 29 21 30 73 31 22 32
REMARK SMILES IDX 72 33 23 34 24 35 25 36 66 37 26 38 71 39 65 40 67 41 27 42
REMARK SMILES IDX 70 43 64 44 63 45 28 47 54 48 37 49 53 50 38 51 41 52 52 53
REMARK SMILES IDX 68 54 39 55 40 56 51 58 69 59 42 60 29 61 30 62 35 63 31 64
REMARK SMILES IDX 32 65 34 66 36 67 33 68 55 69 56 70 61 71 57 72 58 73 60 74
REMARK SMILES IDX 62 75 59 76 43 77 44 78 49 79 45 80 46 81 48 82 50 83 47 84
REMARK H PARENT 67 46 41 57
REMARK Flexibility Score: inf
ROOT
ATOM      1  O   UNL A   1      34.064  31.204  27.532  1.00  0.00    -0.374 OA
ENDROOT
BRANCH   1   2
ATOM      2  C   UNL A   1      34.590  29.910  27.253  1.00  0.00     0.202 C 
BRANCH   2   3
ATOM      3  C   UNL A   1      33.695  28.717  27.593  1.00  0.00     0.261 C 
BRANCH   3   4
ATOM      4  O   UNL A   1      33.031  28.169  26.442  1.00  0.00    -0.463 OA
BRANCH   4   5
ATOM      5  C   UNL A   1      31.943  27.400  26.704  1.00  0.00     0.311 C 
ATOM      6  O   UNL A   1      31.111  27.631  27.575  1.00  0.00    -0.252 OA
BRANCH   5   7
ATOM      7  C   UNL A   1      31.865  26.154  25.852  1.00  0.00     0.127 C 
ATOM      8  N   UNL A   1      32.108  25.311  23.534  1.00  0.00    -0.335 N 
ATOM      9  C   UNL A   1      31.490  24.111  23.867  1.00  0.00     0.223 C 
ATOM     10  C   UNL A   1      31.960  26.523  24.367  1.00  0.00     0.129 C 
ATOM     11  O   UNL A   1      31.461  23.127  23.129  1.00  0.00    -0.275 OA
ATOM     12  C   UNL A   1      30.890  23.964  25.261  1.00  0.00     0.101 C 
ATOM     13  C   UNL A   1      30.678  25.232  26.070  1.00  0.00     0.028 C 
BRANCH   8  14
ATOM     14  C   UNL A   1      32.876  25.512  22.294  1.00  0.00     0.117 C 
ATOM     15  C   UNL A   1      32.145  25.827  21.001  1.00  0.00     0.027 C 
ENDBRANCH   8  14
BRANCH  10  16
ATOM     16  C   UNL A   1      30.816  27.427  23.888  1.00  0.00    -0.024 A 
ATOM     17  C   UNL A   1      29.524  26.945  23.631  1.00  0.00     0.010 A 
ATOM     18  C   UNL A   1      31.044  28.806  23.735  1.00  0.00     0.010 A 
ATOM     19  C   UNL A   1      28.491  27.819  23.284  1.00  0.00     0.047 A 
ATOM     20  C   UNL A   1      30.003  29.682  23.415  1.00  0.00     0.047 A 
ATOM     21  C   UNL A   1      28.718  29.192  23.202  1.00  0.00     0.118 A 
BRANCH  21  22
ATOM     22  O   UNL A   1      27.621  29.943  22.884  1.00  0.00    -0.497 OA
ATOM     23  C   UNL A   1      27.779  31.351  22.983  1.00  0.00     0.278 C 
ENDBRANCH  21  22
ENDBRANCH  10  16
ENDBRANCH   5   7
ENDBRANCH   4   5
ENDBRANCH   3   4
ENDBRANCH   2   3
ENDBRANCH   1   2
BRANCH   1  24
ATOM     24  C   UNL A   1      32.678  31.430  27.277  1.00  0.00     0.202 C 
BRANCH  24  25
ATOM     25  C   UNL A   1      32.190  32.885  27.323  1.00  0.00     0.261 C 
BRANCH  25  26
ATOM     26  O   UNL A   1      33.268  33.840  27.406  1.00  0.00    -0.460 OA
BRANCH  26  27
ATOM     27  C   UNL A   1      33.295  34.554  28.557  1.00  0.00     0.338 C 
ATOM     28  O   UNL A   1      32.457  35.357  28.947  1.00  0.00    -0.246 OA
BRANCH  27  29
ATOM     29  C   UNL A   1      34.426  34.160  29.415  1.00  0.00     0.060 A 
ATOM     30  C   UNL A   1      35.719  34.407  28.934  1.00  0.00     0.016 A 
ATOM     31  C   UNL A   1      34.233  33.392  30.564  1.00  0.00     0.016 A 
ATOM     32  C   UNL A   1      36.821  33.831  29.565  1.00  0.00     0.010 A 
ATOM     33  C   UNL A   1      35.343  32.809  31.193  1.00  0.00     0.010 A 
ATOM     34  C   UNL A   1      36.636  32.987  30.669  1.00  0.00    -0.014 A 
BRANCH  34  35
ATOM     35  C   UNL A   1      37.778  32.177  31.169  1.00  0.00     0.031 A 
ATOM     36  C   UNL A   1      38.345  32.461  32.534  1.00  0.00     0.074 A 
ATOM     37  C   UNL A   1      38.283  31.167  30.439  1.00  0.00     0.049 A 
ATOM     38  N   UNL A   1      39.339  31.878  33.155  1.00  0.00    -0.248 NA
ATOM     39  C   UNL A   1      37.704  33.539  33.304  1.00  0.00     0.031 C 
ATOM     40  C   UNL A   1      37.802  30.756  29.122  1.00  0.00     0.029 A 
ATOM     41  N   UNL A   1      39.318  30.305  30.705  1.00  0.00    -0.354 N 
ATOM     42  C   UNL A   1      39.444  32.515  34.384  1.00  0.00     0.074 A 
ATOM     43  C   UNL A   1      38.428  33.547  34.414  1.00  0.00     0.031 C 
ATOM     44  C   UNL A   1      38.557  29.734  28.686  1.00  0.00     0.029 A 
ATOM     45  C   UNL A   1      39.591  29.440  29.675  1.00  0.00     0.049 A 
ATOM     46  H   UNL A   1      39.817  30.307  31.554  1.00  0.00     0.167 HD
ATOM     47  C   UNL A   1      40.298  32.257  35.403  1.00  0.00     0.037 A 
ATOM     48  C   UNL A   1      40.573  28.531  29.528  1.00  0.00     0.037 A 
ATOM     49  C   UNL A   1      41.301  31.224  35.389  1.00  0.00     0.049 A 
ATOM     50  C   UNL A   1      41.554  28.309  30.646  1.00  0.00     0.074 A 
ATOM     51  C   UNL A   1      42.183  30.867  36.396  1.00  0.00     0.029 A 
ATOM     52  N   UNL A   1      41.560  30.390  34.315  1.00  0.00    -0.354 N 
ATOM     53  N   UNL A   1      41.611  28.889  31.819  1.00  0.00    -0.248 NA
ATOM     54  C   UNL A   1      42.597  27.295  30.425  1.00  0.00     0.031 C 
ATOM     55  C   UNL A   1      43.001  29.839  35.916  1.00  0.00     0.029 A 
ATOM     56  C   UNL A   1      42.603  29.532  34.625  1.00  0.00     0.049 A 
ATOM     57  H   UNL A   1      41.074  30.402  33.458  1.00  0.00     0.167 HD
ATOM     58  C   UNL A   1      42.673  28.291  32.486  1.00  0.00     0.074 A 
ATOM     59  C   UNL A   1      43.228  27.299  31.590  1.00  0.00     0.031 C 
ATOM     60  C   UNL A   1      43.140  28.539  33.733  1.00  0.00     0.037 A 
BRANCH  47  61
ATOM     61  C   UNL A   1      40.196  33.114  36.627  1.00  0.00     0.057 A 
ATOM     62  C   UNL A   1      41.023  34.228  36.815  1.00  0.00     0.134 A 
ATOM     63  C   UNL A   1      39.219  32.858  37.596  1.00  0.00     0.134 A 
ATOM     64  F   UNL A   1      41.985  34.519  35.926  1.00  0.00    -0.206 F 
ATOM     65  C   UNL A   1      40.887  35.055  37.931  1.00  0.00     0.040 A 
ATOM     66  C   UNL A   1      39.061  33.687  38.707  1.00  0.00     0.040 A 
ATOM     67  F   UNL A   1      38.395  31.807  37.471  1.00  0.00    -0.206 F 
ATOM     68  C   UNL A   1      39.898  34.789  38.878  1.00  0.00     0.006 A 
ENDBRANCH  47  61
BRANCH  48  69
ATOM     69  C   UNL A   1      40.703  27.775  28.257  1.00  0.00     0.057 A 
ATOM     70  C   UNL A   1      40.105  26.522  28.086  1.00  0.00     0.134 A 
ATOM     71  C   UNL A   1      41.463  28.280  27.194  1.00  0.00     0.134 A 
ATOM     72  F   UNL A   1      39.384  25.978  29.078  1.00  0.00    -0.206 F 
ATOM     73  C   UNL A   1      40.274  25.787  26.911  1.00  0.00     0.040 A 
ATOM     74  C   UNL A   1      41.621  27.567  26.006  1.00  0.00     0.040 A 
ATOM     75  F   UNL A   1      42.061  29.475  27.298  1.00  0.00    -0.206 F 
ATOM     76  C   UNL A   1      41.033  26.312  25.866  1.00  0.00     0.006 A 
ENDBRANCH  48  69
BRANCH  60  77
ATOM     77  C   UNL A   1      44.278  27.695  34.220  1.00  0.00     0.057 A 
ATOM     78  C   UNL A   1      45.610  28.111  34.100  1.00  0.00     0.134 A 
ATOM     79  C   UNL A   1      44.035  26.464  34.843  1.00  0.00     0.134 A 
ATOM     80  F   UNL A   1      45.907  29.273  33.500  1.00  0.00    -0.206 F 
ATOM     81  C   UNL A   1      46.663  27.322  34.566  1.00  0.00     0.040 A 
ATOM     82  C   UNL A   1      45.079  25.677  35.331  1.00  0.00     0.040 A 
ATOM     83  F   UNL A   1      42.781  26.012  34.994  1.00  0.00    -0.206 F 
ATOM     84  C   UNL A   1      46.397  26.104  35.188  1.00  0.00     0.006 A 
ENDBRANCH  60  77
ENDBRANCH  34  35
ENDBRANCH  27  29
ENDBRANCH  26  27
ENDBRANCH  25  26
ENDBRANCH  24  25
ENDBRANCH   1  24
TORSDOF 17
ENDMDL
MODEL 2
REMARK VINA RESULT:     -10.5      4.906      9.270
REMARK SMILES CCN1C(=O)CC[C@H](C(=O)OCCOCCOC(=O)c2ccc(-c3c4nc(c(-c5c(F)cccc5F)c5ccc([nH]5)c(-c5c(F)cccc5F)c5nc(c(-c6c(F)cccc6F)c6ccc3[nH]6)C=C5)C=C4)cc2)[C@@H]1c1ccc(OC)cc1
REMARK SMILES IDX 14 1 13 2 12 3 11 4 9 5 10 6 8 7 3 8 4 9 74 10 5 11 6 12
REMARK SMILES IDX 7 13 2 14 1 15 75 16 76 17 82 18 77 19 81 20 78 21 79 22
REMARK SMILES IDX 80 23 15 24 16 25 17 26 18 27 19 28 20 29 21 30 73 31 22 32
REMARK SMILES IDX 72 33 23 34 24 35 25 36 66 37 26 38 71 39 65 40 67 41 27 42
REMARK SMILES IDX 70 43 64 44 63 45 28 47 54 48 37 49 53 50 38 51 41 52 52 53
REMARK SMILES IDX 68 54 39 55 40 56 51 58 69 59 42 60 29 61 30 62 35 63 31 64
REMARK SMILES IDX 32 65 34 66 36 67 33 68 55 69 56 70 61 71 57 72 58 73 60 74
REMARK SMILES IDX 62 75 59 76 43 77 44 78 49 79 45 80 46 81 48 82 50 83 47 84
REMARK H PARENT 67 46 41 57
REMARK Flexibility Score: inf
ROOT
ATOM      1  O   UNL A   1      37.128  20.498  24.911  1.00  0.00    -0.374 OA
ENDROOT
BRANCH   1   2
ATOM      2  C   UNL A   1      37.346  21.674  25.683  1.00  0.00     0.202 C 
BRANCH   2   3
ATOM      3  C   UNL A   1      37.387  23.000  24.919  1.00  0.00     0.261 C 
BRANCH   3   4
ATOM      4  O   UNL A   1      36.111  23.659  24.874  1.00  0.00    -0.463 OA
BRANCH   4   5
ATOM      5  C   UNL A   1      35.428  23.532  23.706  1.00  0.00     0.311 C 
ATOM      6  O   UNL A   1      35.884  23.052  22.673  1.00  0.00    -0.252 OA
BRANCH   5   7
ATOM      7  C   UNL A   1      34.032  24.107  23.758  1.00  0.00     0.127 C 
ATOM      8  N   UNL A   1      31.893  24.028  25.008  1.00  0.00    -0.335 N 
ATOM      9  C   UNL A   1      31.230  24.699  23.987  1.00  0.00     0.223 C 
ATOM     10  C   UNL A   1      33.184  23.345  24.783  1.00  0.00     0.129 C 
ATOM     11  O   UNL A   1      30.088  25.149  24.090  1.00  0.00    -0.275 OA
ATOM     12  C   UNL A   1      31.984  24.982  22.692  1.00  0.00     0.101 C 
ATOM     13  C   UNL A   1      33.270  24.212  22.449  1.00  0.00     0.028 C 
BRANCH   8  14
ATOM     14  C   UNL A   1      31.338  23.855  26.360  1.00  0.00     0.117 C 
ATOM     15  C   UNL A   1      30.266  22.807  26.604  1.00  0.00     0.027 C 
ENDBRANCH   8  14
BRANCH  10  16
ATOM     16  C   UNL A   1      33.008  21.858  24.445  1.00  0.00    -0.024 A 
ATOM     17  C   UNL A   1      32.300  21.413  23.319  1.00  0.00     0.010 A 
ATOM     18  C   UNL A   1      33.612  20.889  25.265  1.00  0.00     0.010 A 
ATOM     19  C   UNL A   1      32.243  20.053  23.001  1.00  0.00     0.047 A 
ATOM     20  C   UNL A   1      33.578  19.532  24.931  1.00  0.00     0.047 A 
ATOM     21  C   UNL A   1      32.904  19.111  23.788  1.00  0.00     0.118 A 
BRANCH  21  22
ATOM     22  O   UNL A   1      32.797  17.819  23.355  1.00  0.00    -0.497 OA
ATOM     23  C   UNL A   1      33.977  17.033  23.443  1.00  0.00     0.278 C 
ENDBRANCH  21  22
ENDBRANCH  10  16
ENDBRANCH   5   7
ENDBRANCH   4   5
ENDBRANCH   3   4
ENDBRANCH   2   3
ENDBRANCH   1   2
BRANCH   1  24
ATOM     24  C   UNL A   1      38.149  19.500  24.911  1.00  0.00     0.202 C 
BRANCH  24  25
ATOM     25  C   UNL A   1      39.315  19.698  25.888  1.00  0.00     0.261 C 
BRANCH  25  26
ATOM     26  O   UNL A   1      40.494  18.951  25.522  1.00  0.00    -0.460 OA
BRANCH  26  27
ATOM     27  C   UNL A   1      41.603  19.274  26.230  1.00  0.00     0.338 C 
ATOM     28  O   UNL A   1      42.584  18.569  26.426  1.00  0.00    -0.246 OA
BRANCH  27  29
ATOM     29  C   UNL A   1      41.581  20.682  26.665  1.00  0.00     0.060 A 
ATOM     30  C   UNL A   1      41.831  21.662  25.695  1.00  0.00     0.016 A 
ATOM     31  C   UNL A   1      41.516  21.024  28.017  1.00  0.00     0.016 A 
ATOM     32  C   UNL A   1      42.083  22.978  26.081  1.00  0.00     0.010 A 
ATOM     33  C   UNL A   1      41.776  22.346  28.402  1.00  0.00     0.010 A 
ATOM     34  C   UNL A   1      42.106  23.319  27.441  1.00  0.00    -0.014 A 
BRANCH  34  35
ATOM     35  C   UNL A   1      42.627  24.649  27.851  1.00  0.00     0.031 A 
ATOM     36  C   UNL A   1      41.659  25.750  28.191  1.00  0.00     0.074 A 
ATOM     37  C   UNL A   1      43.949  24.870  27.966  1.00  0.00     0.049 A 
ATOM     38  N   UNL A   1      41.903  26.980  28.566  1.00  0.00    -0.248 NA
ATOM     39  C   UNL A   1      40.228  25.420  28.106  1.00  0.00     0.031 C 
ATOM     40  C   UNL A   1      44.994  23.882  27.709  1.00  0.00     0.029 A 
ATOM     41  N   UNL A   1      44.635  26.004  28.324  1.00  0.00    -0.354 N 
ATOM     42  C   UNL A   1      40.662  27.571  28.760  1.00  0.00     0.074 A 
ATOM     43  C   UNL A   1      39.663  26.572  28.439  1.00  0.00     0.031 C 
ATOM     44  C   UNL A   1      46.192  24.462  27.898  1.00  0.00     0.029 A 
ATOM     45  C   UNL A   1      45.999  25.864  28.257  1.00  0.00     0.049 A 
ATOM     46  H   UNL A   1      44.192  26.838  28.603  1.00  0.00     0.167 HD
ATOM     47  C   UNL A   1      40.376  28.826  29.181  1.00  0.00     0.037 A 
ATOM     48  C   UNL A   1      46.984  26.765  28.437  1.00  0.00     0.037 A 
ATOM     49  C   UNL A   1      41.360  29.821  29.518  1.00  0.00     0.049 A 
ATOM     50  C   UNL A   1      46.640  28.172  28.838  1.00  0.00     0.074 A 
ATOM     51  C   UNL A   1      41.158  31.106  29.992  1.00  0.00     0.029 A 
ATOM     52  N   UNL A   1      42.729  29.645  29.409  1.00  0.00    -0.354 N 
ATOM     53  N   UNL A   1      45.463  28.702  29.059  1.00  0.00    -0.248 NA
ATOM     54  C   UNL A   1      47.764  29.103  29.027  1.00  0.00     0.031 C 
ATOM     55  C   UNL A   1      42.406  31.721  30.136  1.00  0.00     0.029 A 
ATOM     56  C   UNL A   1      43.385  30.806  29.786  1.00  0.00     0.049 A 
ATOM     57  H   UNL A   1      43.172  28.817  29.110  1.00  0.00     0.167 HD
ATOM     58  C   UNL A   1      45.704  30.015  29.444  1.00  0.00     0.074 A 
ATOM     59  C   UNL A   1      47.140  30.200  29.431  1.00  0.00     0.031 C 
ATOM     60  C   UNL A   1      44.813  30.977  29.784  1.00  0.00     0.037 A 
BRANCH  47  61
ATOM     61  C   UNL A   1      38.932  29.206  29.296  1.00  0.00     0.057 A 
ATOM     62  C   UNL A   1      38.193  29.630  28.185  1.00  0.00     0.134 A 
ATOM     63  C   UNL A   1      38.259  29.088  30.518  1.00  0.00     0.134 A 
ATOM     64  F   UNL A   1      38.785  29.774  26.989  1.00  0.00    -0.206 F 
ATOM     65  C   UNL A   1      36.834  29.931  28.286  1.00  0.00     0.040 A 
ATOM     66  C   UNL A   1      36.897  29.369  30.628  1.00  0.00     0.040 A 
ATOM     67  F   UNL A   1      38.911  28.684  31.618  1.00  0.00    -0.206 F 
ATOM     68  C   UNL A   1      36.180  29.793  29.510  1.00  0.00     0.006 A 
ENDBRANCH  47  61
BRANCH  48  69
ATOM     69  C   UNL A   1      48.398  26.374  28.212  1.00  0.00     0.057 A 
ATOM     70  C   UNL A   1      48.998  26.491  26.953  1.00  0.00     0.134 A 
ATOM     71  C   UNL A   1      49.172  25.840  29.250  1.00  0.00     0.134 A 
ATOM     72  F   UNL A   1      48.299  26.974  25.916  1.00  0.00    -0.206 F 
ATOM     73  C   UNL A   1      50.310  26.071  26.728  1.00  0.00     0.040 A 
ATOM     74  C   UNL A   1      50.492  25.439  29.045  1.00  0.00     0.040 A 
ATOM     75  F   UNL A   1      48.652  25.703  30.478  1.00  0.00    -0.206 F 
ATOM     76  C   UNL A   1      51.062  25.546  27.779  1.00  0.00     0.006 A 
ENDBRANCH  48  69
BRANCH  60  77
ATOM     77  C   UNL A   1      45.366  32.302  30.213  1.00  0.00     0.057 A 
ATOM     78  C   UNL A   1      45.560  33.350  29.305  1.00  0.00     0.134 A 
ATOM     79  C   UNL A   1      45.679  32.540  31.557  1.00  0.00     0.134 A 
ATOM     80  F   UNL A   1      45.292  33.179  28.002  1.00  0.00    -0.206 F 
ATOM     81  C   UNL A   1      46.065  34.585  29.717  1.00  0.00     0.040 A 
ATOM     82  C   UNL A   1      46.165  33.778  31.984  1.00  0.00     0.040 A 
ATOM     83  F   UNL A   1      45.510  31.579  32.477  1.00  0.00    -0.206 F 
ATOM     84  C   UNL A   1      46.364  34.802  31.061  1.00  0.00     0.006 A 
ENDBRANCH  60  77
ENDBRANCH  34  35
ENDBRANCH  27  29
ENDBRANCH  26  27
ENDBRANCH  25  26
ENDBRANCH  24  25
ENDBRANCH   1  24
TORSDOF 17
ENDMDL
MODEL 3
REMARK VINA RESULT:     -10.5      5.117      9.919
REMARK SMILES CCN1C(=O)CC[C@H](C(=O)OCCOCCOC(=O)c2ccc(-c3c4nc(c(-c5c(F)cccc5F)c5ccc([nH]5)c(-c5c(F)cccc5F)c5nc(c(-c6c(F)cccc6F)c6ccc3[nH]6)C=C5)C=C4)cc2)[C@@H]1c1ccc(OC)cc1
REMARK SMILES IDX 14 1 13 2 12 3 11 4 9 5 10 6 8 7 3 8 4 9 74 10 5 11 6 12
REMARK SMILES IDX 7 13 2 14 1 15 75 16 76 17 82 18 77 19 81 20 78 21 79 22
REMARK SMILES IDX 80 23 15 24 16 25 17 26 18 27 19 28 20 29 21 30 73 31 22 32
REMARK SMILES IDX 72 33 23 34 24 35 25 36 66 37 26 38 71 39 65 40 67 41 27 42
REMARK SMILES IDX 70 43 64 44 63 45 28 47 54 48 37 49 53 50 38 51 41 52 52 53
REMARK SMILES IDX 68 54 39 55 40 56 51 58 69 59 42 60 29 61 30 62 35 63 31 64
REMARK SMILES IDX 32 65 34 66 36 67 33 68 55 69 56 70 61 71 57 72 58 73 60 74
REMARK SMILES IDX 62 75 59 76 43 77 44 78 49 79 45 80 46 81 48 82 50 83 47 84
REMARK H PARENT 67 46 41 57
REMARK Flexibility Score: inf
ROOT
ATOM      1  O   UNL A   1      38.041  22.738  25.317  1.00  0.00    -0.374 OA
ENDROOT
BRANCH   1   2
ATOM      2  C   UNL A   1      37.163  22.047  24.434  1.00  0.00     0.202 C 
BRANCH   2   3
ATOM      3  C   UNL A   1      36.594  22.851  23.263  1.00  0.00     0.261 C 
BRANCH   3   4
ATOM      4  O   UNL A   1      35.567  23.773  23.663  1.00  0.00    -0.463 OA
BRANCH   4   5
ATOM      5  C   UNL A   1      34.347  23.570  23.101  1.00  0.00     0.311 C 
ATOM      6  O   UNL A   1      34.151  23.320  21.917  1.00  0.00    -0.252 OA
BRANCH   5   7
ATOM      7  C   UNL A   1      33.200  23.744  24.070  1.00  0.00     0.127 C 
ATOM      8  N   UNL A   1      32.294  22.964  26.241  1.00  0.00    -0.335 N 
ATOM      9  C   UNL A   1      31.058  23.542  25.974  1.00  0.00     0.223 C 
ATOM     10  C   UNL A   1      33.270  22.678  25.169  1.00  0.00     0.129 C 
ATOM     11  O   UNL A   1      30.161  23.658  26.808  1.00  0.00    -0.275 OA
ATOM     12  C   UNL A   1      30.823  24.153  24.597  1.00  0.00     0.101 C 
ATOM     13  C   UNL A   1      31.797  23.784  23.492  1.00  0.00     0.028 C 
BRANCH   8  14
ATOM     14  C   UNL A   1      32.704  22.505  27.579  1.00  0.00     0.117 C 
ATOM     15  C   UNL A   1      34.174  22.521  27.960  1.00  0.00     0.027 C 
ENDBRANCH   8  14
BRANCH  10  16
ATOM     16  C   UNL A   1      33.150  21.243  24.637  1.00  0.00    -0.024 A 
ATOM     17  C   UNL A   1      32.199  20.867  23.677  1.00  0.00     0.010 A 
ATOM     18  C   UNL A   1      34.050  20.262  25.087  1.00  0.00     0.010 A 
ATOM     19  C   UNL A   1      32.185  19.570  23.154  1.00  0.00     0.047 A 
ATOM     20  C   UNL A   1      34.053  18.974  24.543  1.00  0.00     0.047 A 
ATOM     21  C   UNL A   1      33.128  18.629  23.563  1.00  0.00     0.118 A 
BRANCH  21  22
ATOM     22  O   UNL A   1      33.028  17.408  22.956  1.00  0.00    -0.497 OA
ATOM     23  C   UNL A   1      34.087  16.497  23.212  1.00  0.00     0.278 C 
ENDBRANCH  21  22
ENDBRANCH  10  16
ENDBRANCH   5   7
ENDBRANCH   4   5
ENDBRANCH   3   4
ENDBRANCH   2   3
ENDBRANCH   1   2
BRANCH   1  24
ATOM     24  C   UNL A   1      38.897  21.959  26.152  1.00  0.00     0.202 C 
BRANCH  24  25
ATOM     25  C   UNL A   1      39.300  20.572  25.634  1.00  0.00     0.261 C 
BRANCH  25  26
ATOM     26  O   UNL A   1      40.125  19.838  26.563  1.00  0.00    -0.460 OA
BRANCH  26  27
ATOM     27  C   UNL A   1      41.426  19.740  26.198  1.00  0.00     0.338 C 
ATOM     28  O   UNL A   1      41.939  18.854  25.526  1.00  0.00    -0.246 OA
BRANCH  27  29
ATOM     29  C   UNL A   1      42.194  20.932  26.595  1.00  0.00     0.060 A 
ATOM     30  C   UNL A   1      42.207  21.270  27.956  1.00  0.00     0.016 A 
ATOM     31  C   UNL A   1      42.721  21.807  25.644  1.00  0.00     0.016 A 
ATOM     32  C   UNL A   1      42.688  22.514  28.362  1.00  0.00     0.010 A 
ATOM     33  C   UNL A   1      43.197  23.060  26.055  1.00  0.00     0.010 A 
ATOM     34  C   UNL A   1      43.139  23.438  27.409  1.00  0.00    -0.014 A 
BRANCH  34  35
ATOM     35  C   UNL A   1      43.401  24.842  27.820  1.00  0.00     0.031 A 
ATOM     36  C   UNL A   1      44.821  25.332  27.915  1.00  0.00     0.074 A 
ATOM     37  C   UNL A   1      42.388  25.692  28.065  1.00  0.00     0.049 A 
ATOM     38  N   UNL A   1      45.267  26.514  28.258  1.00  0.00    -0.248 NA
ATOM     39  C   UNL A   1      45.877  24.367  27.571  1.00  0.00     0.031 C 
ATOM     40  C   UNL A   1      40.969  25.362  27.970  1.00  0.00     0.029 A 
ATOM     41  N   UNL A   1      42.404  27.010  28.451  1.00  0.00    -0.354 N 
ATOM     42  C   UNL A   1      46.651  26.437  28.172  1.00  0.00     0.074 A 
ATOM     43  C   UNL A   1      46.974  25.084  27.769  1.00  0.00     0.031 C 
ATOM     44  C   UNL A   1      40.250  26.445  28.310  1.00  0.00     0.029 A 
ATOM     45  C   UNL A   1      41.155  27.531  28.676  1.00  0.00     0.049 A 
ATOM     46  H   UNL A   1      43.233  27.532  28.555  1.00  0.00     0.167 HD
ATOM     47  C   UNL A   1      47.569  27.406  28.395  1.00  0.00     0.037 A 
ATOM     48  C   UNL A   1      40.777  28.734  29.148  1.00  0.00     0.037 A 
ATOM     49  C   UNL A   1      47.257  28.757  28.782  1.00  0.00     0.049 A 
ATOM     50  C   UNL A   1      41.819  29.773  29.455  1.00  0.00     0.074 A 
ATOM     51  C   UNL A   1      48.127  29.816  28.990  1.00  0.00     0.029 A 
ATOM     52  N   UNL A   1      45.981  29.234  29.025  1.00  0.00    -0.354 N 
ATOM     53  N   UNL A   1      43.121  29.698  29.327  1.00  0.00    -0.248 NA
ATOM     54  C   UNL A   1      41.339  31.070  29.958  1.00  0.00     0.031 C 
ATOM     55  C   UNL A   1      47.376  30.925  29.395  1.00  0.00     0.029 A 
ATOM     56  C   UNL A   1      46.039  30.566  29.403  1.00  0.00     0.049 A 
ATOM     57  H   UNL A   1      45.154  28.706  28.941  1.00  0.00     0.167 HD
ATOM     58  C   UNL A   1      43.612  30.942  29.701  1.00  0.00     0.074 A 
ATOM     59  C   UNL A   1      42.468  31.756  30.057  1.00  0.00     0.031 C 
ATOM     60  C   UNL A   1      44.896  31.372  29.741  1.00  0.00     0.037 A 
BRANCH  47  61
ATOM     61  C   UNL A   1      49.013  27.042  28.236  1.00  0.00     0.057 A 
ATOM     62  C   UNL A   1      49.679  27.192  27.014  1.00  0.00     0.134 A 
ATOM     63  C   UNL A   1      49.760  26.595  29.333  1.00  0.00     0.134 A 
ATOM     64  F   UNL A   1      49.015  27.605  25.924  1.00  0.00    -0.206 F 
ATOM     65  C   UNL A   1      51.038  26.902  26.885  1.00  0.00     0.040 A 
ATOM     66  C   UNL A   1      51.123  26.319  29.221  1.00  0.00     0.040 A 
ATOM     67  F   UNL A   1      49.180  26.435  30.532  1.00  0.00    -0.206 F 
ATOM     68  C   UNL A   1      51.766  26.472  27.994  1.00  0.00     0.006 A 
ENDBRANCH  47  61
BRANCH  48  69
ATOM     69  C   UNL A   1      39.341  29.020  29.390  1.00  0.00     0.057 A 
ATOM     70  C   UNL A   1      38.745  28.775  30.632  1.00  0.00     0.134 A 
ATOM     71  C   UNL A   1      38.522  29.514  28.367  1.00  0.00     0.134 A 
ATOM     72  F   UNL A   1      39.474  28.280  31.643  1.00  0.00    -0.206 F 
ATOM     73  C   UNL A   1      37.382  28.991  30.843  1.00  0.00     0.040 A 
ATOM     74  C   UNL A   1      37.164  29.756  28.570  1.00  0.00     0.040 A 
ATOM     75  F   UNL A   1      39.035  29.768  27.154  1.00  0.00    -0.206 F 
ATOM     76  C   UNL A   1      36.588  29.487  29.810  1.00  0.00     0.006 A 
ENDBRANCH  48  69
BRANCH  60  77
ATOM     77  C   UNL A   1      45.130  32.797  30.139  1.00  0.00     0.057 A 
ATOM     78  C   UNL A   1      45.314  33.170  31.476  1.00  0.00     0.134 A 
ATOM     79  C   UNL A   1      45.202  33.804  29.168  1.00  0.00     0.134 A 
ATOM     80  F   UNL A   1      45.242  32.253  32.453  1.00  0.00    -0.206 F 
ATOM     81  C   UNL A   1      45.543  34.499  31.835  1.00  0.00     0.040 A 
ATOM     82  C   UNL A   1      45.451  35.133  29.514  1.00  0.00     0.040 A 
ATOM     83  F   UNL A   1      45.041  33.511  27.868  1.00  0.00    -0.206 F 
ATOM     84  C   UNL A   1      45.617  35.483  30.852  1.00  0.00     0.006 A 
ENDBRANCH  60  77
ENDBRANCH  34  35
ENDBRANCH  27  29
ENDBRANCH  26  27
ENDBRANCH  25  26
ENDBRANCH  24  25
ENDBRANCH   1  24
TORSDOF 17
ENDMDL
