MODEL 1
REMARK VINA RESULT:     -12.5      0.000      0.000
REMARK SMILES Cc1cc(S(F)(F)(F)(F)F)cc2c1O[C@H](C(F)(F)F)C(C(=O)OCCOCCOC(=O)c1ccc(-c3c4nc(c(-c5c(F)cccc5F)c5ccc([nH]5)c(-c5c(F)cccc5F)c5nc(c(-c6c(F)cccc6F)c6ccc3[nH]6)C=C5)C=C4)cc1)=C2
REMARK SMILES IDX 27 1 26 2 25 3 24 4 23 5 21 6 22 7 20 8 1 9 2 10 3 11 13 12
REMARK SMILES IDX 4 13 12 14 14 15 11 16 86 17 15 18 5 19 6 20 7 21 8 22 9 23
REMARK SMILES IDX 10 24 16 25 17 26 18 27 19 28 28 29 29 30 30 31 31 32 32 33
REMARK SMILES IDX 33 34 85 35 34 36 84 37 35 38 36 39 37 40 78 41 38 42 83 43
REMARK SMILES IDX 77 44 79 45 39 46 82 47 76 48 75 49 40 51 66 52 49 53 65 54
REMARK SMILES IDX 50 55 53 56 64 57 80 58 51 59 52 60 63 62 81 63 54 64 41 65
REMARK SMILES IDX 42 66 47 67 43 68 44 69 46 70 48 71 45 72 67 73 68 74 73 75
REMARK SMILES IDX 69 76 70 77 72 78 74 79 71 80 55 81 56 82 61 83 57 84 58 85
REMARK SMILES IDX 60 86 62 87 59 88
REMARK H PARENT 79 50 53 61
REMARK Flexibility Score: inf
ROOT
ATOM      1  C   UNL A   1      34.665  33.509  29.275  1.00  0.00     0.202 C 
ENDROOT
BRANCH   1   2
ATOM      2  O   UNL A   1      34.001  32.332  28.835  1.00  0.00    -0.374 OA
BRANCH   2   3
ATOM      3  C   UNL A   1      34.565  31.902  27.605  1.00  0.00     0.202 C 
BRANCH   3   4
ATOM      4  C   UNL A   1      34.550  30.383  27.544  1.00  0.00     0.261 C 
BRANCH   4   5
ATOM      5  O   UNL A   1      33.685  29.960  26.501  1.00  0.00    -0.460 OA
BRANCH   5   6
ATOM      6  C   UNL A   1      32.627  29.055  26.780  1.00  0.00     0.338 C 
ATOM      7  O   UNL A   1      31.741  29.358  27.639  1.00  0.00    -0.246 OA
BRANCH   6   8
ATOM      8  C   UNL A   1      32.554  27.722  26.052  1.00  0.00     0.087 C 
ATOM      9  C   UNL A   1      31.009  23.596  23.411  1.00  0.00     0.048 C 
ATOM     10  C   UNL A   1      32.313  24.060  24.041  1.00  0.00    -0.007 A 
ATOM     11  C   UNL A   1      33.447  23.285  23.944  1.00  0.00     0.031 A 
ATOM     12  C   UNL A   1      32.374  25.283  24.707  1.00  0.00     0.130 A 
ATOM     13  C   UNL A   1      34.645  23.709  24.505  1.00  0.00     0.108 A 
ATOM     14  C   UNL A   1      33.596  25.712  25.272  1.00  0.00     0.019 A 
ATOM     15  O   UNL A   1      31.199  26.153  24.846  1.00  0.00    -0.475 OA
ATOM     16  C   UNL A   1      34.730  24.907  25.156  1.00  0.00     0.036 A 
ATOM     17  C   UNL A   1      33.631  27.001  25.965  1.00  0.00     0.027 C 
ATOM     18  C   UNL A   1      31.335  27.324  25.505  1.00  0.00     0.316 C 
BRANCH  13  19
ATOM     19  S   UNL A   1      36.115  22.660  24.370  1.00  0.00     0.310 S 
ATOM     20  F   UNL A   1      35.401  21.255  24.188  1.00  0.00    -0.094 F 
ATOM     21  F   UNL A   1      36.114  22.383  25.920  1.00  0.00    -0.094 F 
ATOM     22  F   UNL A   1      37.473  21.921  24.209  1.00  0.00    -0.094 F 
ATOM     23  F   UNL A   1      36.029  22.824  22.801  1.00  0.00    -0.094 F 
ATOM     24  F   UNL A   1      34.681  23.312  24.502  1.00  0.00    -0.094 F 
ENDBRANCH  13  19
BRANCH  18  25
ATOM     25  C   UNL A   1      31.129  28.344  24.396  1.00  0.00     0.430 C 
ATOM     26  F   UNL A   1      30.148  27.938  23.596  1.00  0.00    -0.167 F 
ATOM     27  F   UNL A   1      30.808  29.520  24.929  1.00  0.00    -0.167 F 
ATOM     28  F   UNL A   1      32.252  28.468  23.694  1.00  0.00    -0.167 F 
ENDBRANCH  18  25
ENDBRANCH   6   8
ENDBRANCH   5   6
ENDBRANCH   4   5
ENDBRANCH   3   4
ENDBRANCH   2   3
ENDBRANCH   1   2
BRANCH   1  29
ATOM     29  C   UNL A   1      34.516  33.640  30.781  1.00  0.00     0.261 C 
BRANCH  29  30
ATOM     30  O   UNL A   1      34.583  32.353  31.378  1.00  0.00    -0.460 OA
BRANCH  30  31
ATOM     31  C   UNL A   1      35.690  32.007  32.198  1.00  0.00     0.338 C 
ATOM     32  O   UNL A   1      35.720  32.375  33.414  1.00  0.00    -0.246 OA
BRANCH  31  33
ATOM     33  C   UNL A   1      36.840  31.199  31.620  1.00  0.00     0.060 A 
ATOM     34  C   UNL A   1      36.854  30.781  30.293  1.00  0.00     0.016 A 
ATOM     35  C   UNL A   1      37.930  31.033  32.338  1.00  0.00     0.016 A 
ATOM     36  C   UNL A   1      38.120  30.688  29.674  1.00  0.00     0.010 A 
ATOM     37  C   UNL A   1      39.070  30.441  31.783  1.00  0.00     0.010 A 
ATOM     38  C   UNL A   1      39.175  30.270  30.482  1.00  0.00    -0.014 A 
BRANCH  38  39
ATOM     39  C   UNL A   1      40.415  29.632  29.878  1.00  0.00     0.031 A 
ATOM     40  C   UNL A   1      40.398  28.307  29.438  1.00  0.00     0.074 A 
ATOM     41  C   UNL A   1      41.465  30.507  29.660  1.00  0.00     0.049 A 
ATOM     42  N   UNL A   1      41.332  27.674  28.728  1.00  0.00    -0.248 NA
ATOM     43  C   UNL A   1      39.298  27.367  29.698  1.00  0.00     0.031 C 
ATOM     44  C   UNL A   1      41.487  31.847  30.093  1.00  0.00     0.029 A 
ATOM     45  N   UNL A   1      42.651  30.257  29.006  1.00  0.00    -0.354 N 
ATOM     46  C   UNL A   1      40.951  26.418  28.481  1.00  0.00     0.074 A 
ATOM     47  C   UNL A   1      39.640  26.202  29.106  1.00  0.00     0.031 C 
ATOM     48  C   UNL A   1      42.672  32.393  29.716  1.00  0.00     0.029 A 
ATOM     49  C   UNL A   1      43.412  31.404  29.041  1.00  0.00     0.049 A 
ATOM     50  H   UNL A   1      42.911  29.404  28.587  1.00  0.00     0.167 HD
ATOM     51  C   UNL A   1      41.645  25.448  27.757  1.00  0.00     0.037 A 
ATOM     52  C   UNL A   1      44.682  31.596  28.520  1.00  0.00     0.037 A 
ATOM     53  C   UNL A   1      42.898  25.654  27.199  1.00  0.00     0.049 A 
ATOM     54  C   UNL A   1      45.402  30.606  27.846  1.00  0.00     0.074 A 
ATOM     55  C   UNL A   1      43.607  24.689  26.460  1.00  0.00     0.029 A 
ATOM     56  N   UNL A   1      43.668  26.794  27.254  1.00  0.00    -0.354 N 
ATOM     57  N   UNL A   1      45.005  29.365  27.565  1.00  0.00    -0.248 NA
ATOM     58  C   UNL A   1      46.761  30.789  27.318  1.00  0.00     0.031 C 
ATOM     59  C   UNL A   1      44.794  25.235  26.082  1.00  0.00     0.029 A 
ATOM     60  C   UNL A   1      44.845  26.551  26.580  1.00  0.00     0.049 A 
ATOM     61  H   UNL A   1      43.421  27.637  27.699  1.00  0.00     0.167 HD
ATOM     62  C   UNL A   1      45.957  28.718  26.890  1.00  0.00     0.074 A 
ATOM     63  C   UNL A   1      47.104  29.623  26.729  1.00  0.00     0.031 C 
ATOM     64  C   UNL A   1      45.916  27.412  26.400  1.00  0.00     0.037 A 
BRANCH  51  65
ATOM     65  C   UNL A   1      40.991  24.088  27.570  1.00  0.00     0.057 A 
ATOM     66  C   UNL A   1      39.997  23.950  26.720  1.00  0.00     0.134 A 
ATOM     67  C   UNL A   1      41.458  22.998  28.312  1.00  0.00     0.134 A 
ATOM     68  F   UNL A   1      39.547  24.988  26.020  1.00  0.00    -0.206 F 
ATOM     69  C   UNL A   1      39.427  22.689  26.570  1.00  0.00     0.040 A 
ATOM     70  C   UNL A   1      41.096  21.770  28.003  1.00  0.00     0.040 A 
ATOM     71  F   UNL A   1      42.275  23.203  29.341  1.00  0.00    -0.206 F 
ATOM     72  C   UNL A   1      40.236  21.585  26.923  1.00  0.00     0.006 A 
ENDBRANCH  51  65
BRANCH  52  73
ATOM     73  C   UNL A   1      45.328  32.962  28.692  1.00  0.00     0.057 A 
ATOM     74  C   UNL A   1      46.067  33.209  29.752  1.00  0.00     0.134 A 
ATOM     75  C   UNL A   1      45.129  33.941  27.714  1.00  0.00     0.134 A 
ATOM     76  F   UNL A   1      46.250  32.281  30.687  1.00  0.00    -0.206 F 
ATOM     77  C   UNL A   1      46.652  34.465  29.871  1.00  0.00     0.040 A 
ATOM     78  C   UNL A   1      45.865  35.033  27.694  1.00  0.00     0.040 A 
ATOM     79  F   UNL A   1      44.184  33.769  26.793  1.00  0.00    -0.206 F 
ATOM     80  C   UNL A   1      46.845  35.188  28.673  1.00  0.00     0.006 A 
ENDBRANCH  52  73
BRANCH  64  81
ATOM     81  C   UNL A   1      47.118  26.904  25.621  1.00  0.00     0.057 A 
ATOM     82  C   UNL A   1      47.290  27.223  24.357  1.00  0.00     0.134 A 
ATOM     83  C   UNL A   1      48.109  26.215  26.327  1.00  0.00     0.134 A 
ATOM     84  F   UNL A   1      46.345  27.870  23.681  1.00  0.00    -0.206 F 
ATOM     85  C   UNL A   1      48.487  26.869  23.743  1.00  0.00     0.040 A 
ATOM     86  C   UNL A   1      49.325  26.093  25.836  1.00  0.00     0.040 A 
ATOM     87  F   UNL A   1      47.822  25.677  27.510  1.00  0.00    -0.206 F 
ATOM     88  C   UNL A   1      49.596  26.664  24.594  1.00  0.00     0.006 A 
ENDBRANCH  64  81
ENDBRANCH  38  39
ENDBRANCH  31  33
ENDBRANCH  30  31
ENDBRANCH  29  30
ENDBRANCH   1  29
TORSDOF 16
ENDMDL
MODEL 2
REMARK VINA RESULT:     -12.5      4.516      9.495
REMARK SMILES Cc1cc(S(F)(F)(F)(F)F)cc2c1O[C@H](C(F)(F)F)C(C(=O)OCCOCCOC(=O)c1ccc(-c3c4nc(c(-c5c(F)cccc5F)c5ccc([nH]5)c(-c5c(F)cccc5F)c5nc(c(-c6c(F)cccc6F)c6ccc3[nH]6)C=C5)C=C4)cc1)=C2
REMARK SMILES IDX 27 1 26 2 25 3 24 4 23 5 21 6 22 7 20 8 1 9 2 10 3 11 13 12
REMARK SMILES IDX 4 13 12 14 14 15 11 16 86 17 15 18 5 19 6 20 7 21 8 22 9 23
REMARK SMILES IDX 10 24 16 25 17 26 18 27 19 28 28 29 29 30 30 31 31 32 32 33
REMARK SMILES IDX 33 34 85 35 34 36 84 37 35 38 36 39 37 40 78 41 38 42 83 43
REMARK SMILES IDX 77 44 79 45 39 46 82 47 76 48 75 49 40 51 66 52 49 53 65 54
REMARK SMILES IDX 50 55 53 56 64 57 80 58 51 59 52 60 63 62 81 63 54 64 41 65
REMARK SMILES IDX 42 66 47 67 43 68 44 69 46 70 48 71 45 72 67 73 68 74 73 75
REMARK SMILES IDX 69 76 70 77 72 78 74 79 71 80 55 81 56 82 61 83 57 84 58 85
REMARK SMILES IDX 60 86 62 87 59 88
REMARK H PARENT 79 50 53 61
REMARK Flexibility Score: inf
ROOT
ATOM      1  C   UNL A   1      41.493  21.150  26.675  1.00  0.00     0.202 C 
ENDROOT
BRANCH   1   2
ATOM      2  O   UNL A   1      40.384  20.840  25.843  1.00  0.00    -0.374 OA
BRANCH   2   3
ATOM      3  C   UNL A   1      39.318  21.735  26.122  1.00  0.00     0.202 C 
BRANCH   3   4
ATOM      4  C   UNL A   1      38.069  21.280  25.386  1.00  0.00     0.261 C 
BRANCH   4   5
ATOM      5  O   UNL A   1      37.304  22.413  25.003  1.00  0.00    -0.460 OA
BRANCH   5   6
ATOM      6  C   UNL A   1      36.004  22.607  25.541  1.00  0.00     0.338 C 
ATOM      7  O   UNL A   1      35.632  21.944  26.559  1.00  0.00    -0.246 OA
BRANCH   6   8
ATOM      8  C   UNL A   1      35.056  23.605  24.897  1.00  0.00     0.087 C 
ATOM      9  C   UNL A   1      31.889  26.077  21.696  1.00  0.00     0.048 C 
ATOM     10  C   UNL A   1      32.447  26.332  23.087  1.00  0.00    -0.007 A 
ATOM     11  C   UNL A   1      32.085  27.462  23.786  1.00  0.00     0.031 A 
ATOM     12  C   UNL A   1      33.315  25.412  23.674  1.00  0.00     0.130 A 
ATOM     13  C   UNL A   1      32.580  27.694  25.064  1.00  0.00     0.108 A 
ATOM     14  C   UNL A   1      33.811  25.649  24.975  1.00  0.00     0.019 A 
ATOM     15  O   UNL A   1      33.739  24.190  22.980  1.00  0.00    -0.475 OA
ATOM     16  C   UNL A   1      33.426  26.803  25.661  1.00  0.00     0.036 A 
ATOM     17  C   UNL A   1      34.721  24.667  25.567  1.00  0.00     0.027 C 
ATOM     18  C   UNL A   1      34.582  23.345  23.611  1.00  0.00     0.316 C 
BRANCH  13  19
ATOM     19  S   UNL A   1      32.095  29.196  25.950  1.00  0.00     0.310 S 
ATOM     20  F   UNL A   1      30.913  29.672  25.004  1.00  0.00    -0.094 F 
ATOM     21  F   UNL A   1      33.060  30.079  25.072  1.00  0.00    -0.094 F 
ATOM     22  F   UNL A   1      31.769  30.411  26.865  1.00  0.00    -0.094 F 
ATOM     23  F   UNL A   1      31.026  28.333  26.730  1.00  0.00    -0.094 F 
ATOM     24  F   UNL A   1      32.329  27.985  24.961  1.00  0.00    -0.094 F 
ENDBRANCH  13  19
BRANCH  18  25
ATOM     25  C   UNL A   1      33.709  22.120  23.830  1.00  0.00     0.430 C 
ATOM     26  F   UNL A   1      34.478  21.041  23.940  1.00  0.00    -0.167 F 
ATOM     27  F   UNL A   1      33.000  22.274  24.945  1.00  0.00    -0.167 F 
ATOM     28  F   UNL A   1      32.884  21.973  22.797  1.00  0.00    -0.167 F 
ENDBRANCH  18  25
ENDBRANCH   6   8
ENDBRANCH   5   6
ENDBRANCH   4   5
ENDBRANCH   3   4
ENDBRANCH   2   3
ENDBRANCH   1   2
BRANCH   1  29
ATOM     29  C   UNL A   1      42.699  21.476  25.809  1.00  0.00     0.261 C 
BRANCH  29  30
ATOM     30  O   UNL A   1      42.467  22.690  25.110  1.00  0.00    -0.460 OA
BRANCH  30  31
ATOM     31  C   UNL A   1      43.297  23.817  25.352  1.00  0.00     0.338 C 
ATOM     32  O   UNL A   1      44.304  24.037  24.609  1.00  0.00    -0.246 OA
BRANCH  31  33
ATOM     33  C   UNL A   1      42.980  24.760  26.501  1.00  0.00     0.060 A 
ATOM     34  C   UNL A   1      43.740  25.897  26.752  1.00  0.00     0.016 A 
ATOM     35  C   UNL A   1      41.861  24.596  27.175  1.00  0.00     0.016 A 
ATOM     36  C   UNL A   1      43.056  27.007  27.298  1.00  0.00     0.010 A 
ATOM     37  C   UNL A   1      41.453  25.537  28.126  1.00  0.00     0.010 A 
ATOM     38  C   UNL A   1      42.028  26.719  28.194  1.00  0.00    -0.014 A 
BRANCH  38  39
ATOM     39  C   UNL A   1      41.582  27.744  29.224  1.00  0.00     0.031 A 
ATOM     40  C   UNL A   1      40.475  28.561  28.990  1.00  0.00     0.074 A 
ATOM     41  C   UNL A   1      42.251  27.672  30.435  1.00  0.00     0.049 A 
ATOM     42  N   UNL A   1      39.859  29.364  29.859  1.00  0.00    -0.248 NA
ATOM     43  C   UNL A   1      39.785  28.664  27.696  1.00  0.00     0.031 C 
ATOM     44  C   UNL A   1      43.363  26.844  30.681  1.00  0.00     0.029 A 
ATOM     45  N   UNL A   1      41.976  28.365  31.593  1.00  0.00    -0.354 N 
ATOM     46  C   UNL A   1      38.825  29.971  29.272  1.00  0.00     0.074 A 
ATOM     47  C   UNL A   1      38.767  29.534  27.871  1.00  0.00     0.031 C 
ATOM     48  C   UNL A   1      43.761  27.043  31.964  1.00  0.00     0.029 A 
ATOM     49  C   UNL A   1      42.904  27.999  32.543  1.00  0.00     0.049 A 
ATOM     50  H   UNL A   1      41.244  29.011  31.720  1.00  0.00     0.167 HD
ATOM     51  C   UNL A   1      37.928  30.870  29.852  1.00  0.00     0.037 A 
ATOM     52  C   UNL A   1      43.014  28.462  33.845  1.00  0.00     0.037 A 
ATOM     53  C   UNL A   1      38.012  31.300  31.167  1.00  0.00     0.049 A 
ATOM     54  C   UNL A   1      42.151  29.406  34.407  1.00  0.00     0.074 A 
ATOM     55  C   UNL A   1      37.112  32.200  31.768  1.00  0.00     0.029 A 
ATOM     56  N   UNL A   1      38.955  30.952  32.109  1.00  0.00    -0.354 N 
ATOM     57  N   UNL A   1      41.095  29.982  33.833  1.00  0.00    -0.248 NA
ATOM     58  C   UNL A   1      42.278  29.928  35.775  1.00  0.00     0.031 C 
ATOM     59  C   UNL A   1      37.510  32.399  33.053  1.00  0.00     0.029 A 
ATOM     60  C   UNL A   1      38.667  31.628  33.275  1.00  0.00     0.049 A 
ATOM     61  H   UNL A   1      39.704  30.329  31.973  1.00  0.00     0.167 HD
ATOM     62  C   UNL A   1      40.503  30.817  34.689  1.00  0.00     0.074 A 
ATOM     63  C   UNL A   1      41.261  30.800  35.949  1.00  0.00     0.031 C 
ATOM     64  C   UNL A   1      39.361  31.590  34.474  1.00  0.00     0.037 A 
BRANCH  51  65
ATOM     65  C   UNL A   1      36.795  31.407  28.992  1.00  0.00     0.057 A 
ATOM     66  C   UNL A   1      35.765  30.639  28.709  1.00  0.00     0.134 A 
ATOM     67  C   UNL A   1      36.866  32.718  28.509  1.00  0.00     0.134 A 
ATOM     68  F   UNL A   1      35.701  29.389  29.160  1.00  0.00    -0.206 F 
ATOM     69  C   UNL A   1      34.744  31.167  27.925  1.00  0.00     0.040 A 
ATOM     70  C   UNL A   1      35.809  33.299  27.982  1.00  0.00     0.040 A 
ATOM     71  F   UNL A   1      38.014  33.385  28.583  1.00  0.00    -0.206 F 
ATOM     72  C   UNL A   1      34.621  32.575  27.913  1.00  0.00     0.006 A 
ENDBRANCH  51  65
BRANCH  52  73
ATOM     73  C   UNL A   1      44.136  27.911  34.709  1.00  0.00     0.057 A 
ATOM     74  C   UNL A   1      43.934  26.837  35.441  1.00  0.00     0.134 A 
ATOM     75  C   UNL A   1      45.377  28.556  34.712  1.00  0.00     0.134 A 
ATOM     76  F   UNL A   1      42.752  26.227  35.446  1.00  0.00    -0.206 F 
ATOM     77  C   UNL A   1      44.987  26.354  36.211  1.00  0.00     0.040 A 
ATOM     78  C   UNL A   1      46.437  27.977  35.237  1.00  0.00     0.040 A 
ATOM     79  F   UNL A   1      45.488  29.770  34.180  1.00  0.00    -0.206 F 
ATOM     80  C   UNL A   1      46.289  26.707  35.792  1.00  0.00     0.006 A 
ENDBRANCH  52  73
BRANCH  64  81
ATOM     81  C   UNL A   1      38.848  32.442  35.623  1.00  0.00     0.057 A 
ATOM     82  C   UNL A   1      38.159  31.906  36.608  1.00  0.00     0.134 A 
ATOM     83  C   UNL A   1      39.259  33.777  35.680  1.00  0.00     0.134 A 
ATOM     84  F   UNL A   1      37.760  30.639  36.551  1.00  0.00    -0.206 F 
ATOM     85  C   UNL A   1      37.859  32.698  37.711  1.00  0.00     0.040 A 
ATOM     86  C   UNL A   1      39.195  34.455  36.807  1.00  0.00     0.040 A 
ATOM     87  F   UNL A   1      39.721  34.371  34.583  1.00  0.00    -0.206 F 
ATOM     88  C   UNL A   1      38.704  33.808  37.940  1.00  0.00     0.006 A 
ENDBRANCH  64  81
ENDBRANCH  38  39
ENDBRANCH  31  33
ENDBRANCH  30  31
ENDBRANCH  29  30
ENDBRANCH   1  29
TORSDOF 16
ENDMDL
MODEL 3
REMARK VINA RESULT:     -12.5      5.339     10.754
REMARK SMILES Cc1cc(S(F)(F)(F)(F)F)cc2c1O[C@H](C(F)(F)F)C(C(=O)OCCOCCOC(=O)c1ccc(-c3c4nc(c(-c5c(F)cccc5F)c5ccc([nH]5)c(-c5c(F)cccc5F)c5nc(c(-c6c(F)cccc6F)c6ccc3[nH]6)C=C5)C=C4)cc1)=C2
REMARK SMILES IDX 27 1 26 2 25 3 24 4 23 5 21 6 22 7 20 8 1 9 2 10 3 11 13 12
REMARK SMILES IDX 4 13 12 14 14 15 11 16 86 17 15 18 5 19 6 20 7 21 8 22 9 23
REMARK SMILES IDX 10 24 16 25 17 26 18 27 19 28 28 29 29 30 30 31 31 32 32 33
REMARK SMILES IDX 33 34 85 35 34 36 84 37 35 38 36 39 37 40 78 41 38 42 83 43
REMARK SMILES IDX 77 44 79 45 39 46 82 47 76 48 75 49 40 51 66 52 49 53 65 54
REMARK SMILES IDX 50 55 53 56 64 57 80 58 51 59 52 60 63 62 81 63 54 64 41 65
REMARK SMILES IDX 42 66 47 67 43 68 44 69 46 70 48 71 45 72 67 73 68 74 73 75
REMARK SMILES IDX 69 76 70 77 72 78 74 79 71 80 55 81 56 82 61 83 57 84 58 85
REMARK SMILES IDX 60 86 62 87 59 88
REMARK H PARENT 79 50 53 61
REMARK Flexibility Score: inf
ROOT
ATOM      1  C   UNL A   1      42.240  19.268  27.293  1.00  0.00     0.202 C 
ENDROOT
BRANCH   1   2
ATOM      2  O   UNL A   1      42.639  18.229  26.410  1.00  0.00    -0.374 OA
BRANCH   2   3
ATOM      3  C   UNL A   1      43.972  18.459  25.980  1.00  0.00     0.202 C 
BRANCH   3   4
ATOM      4  C   UNL A   1      43.956  19.269  24.693  1.00  0.00     0.261 C 
BRANCH   4   5
ATOM      5  O   UNL A   1      44.754  20.431  24.855  1.00  0.00    -0.460 OA
BRANCH   5   6
ATOM      6  C   UNL A   1      44.160  21.646  25.290  1.00  0.00     0.338 C 
ATOM      7  O   UNL A   1      42.994  21.961  24.892  1.00  0.00    -0.246 OA
BRANCH   6   8
ATOM      8  C   UNL A   1      44.918  22.569  26.229  1.00  0.00     0.087 C 
ATOM      9  C   UNL A   1      48.455  25.555  28.456  1.00  0.00     0.048 C 
ATOM     10  C   UNL A   1      47.040  25.109  28.791  1.00  0.00    -0.007 A 
ATOM     11  C   UNL A   1      46.424  25.551  29.940  1.00  0.00     0.031 A 
ATOM     12  C   UNL A   1      46.349  24.263  27.925  1.00  0.00     0.130 A 
ATOM     13  C   UNL A   1      45.127  25.159  30.245  1.00  0.00     0.108 A 
ATOM     14  C   UNL A   1      45.028  23.870  28.236  1.00  0.00     0.019 A 
ATOM     15  O   UNL A   1      46.952  23.756  26.686  1.00  0.00    -0.475 OA
ATOM     16  C   UNL A   1      44.428  24.336  29.408  1.00  0.00     0.036 A 
ATOM     17  C   UNL A   1      44.326  22.981  27.310  1.00  0.00     0.027 C 
ATOM     18  C   UNL A   1      46.221  22.939  25.897  1.00  0.00     0.316 C 
BRANCH  13  19
ATOM     19  S   UNL A   1      44.351  25.749  31.771  1.00  0.00     0.310 S 
ATOM     20  F   UNL A   1      45.203  27.069  31.989  1.00  0.00    -0.094 F 
ATOM     21  F   UNL A   1      45.416  24.998  32.655  1.00  0.00    -0.094 F 
ATOM     22  F   UNL A   1      43.535  26.140  33.035  1.00  0.00    -0.094 F 
ATOM     23  F   UNL A   1      43.373  26.614  30.882  1.00  0.00    -0.094 F 
ATOM     24  F   UNL A   1      45.230  25.455  30.490  1.00  0.00    -0.094 F 
ENDBRANCH  13  19
BRANCH  18  25
ATOM     25  C   UNL A   1      46.008  23.794  24.657  1.00  0.00     0.430 C 
ATOM     26  F   UNL A   1      44.939  24.566  24.829  1.00  0.00    -0.167 F 
ATOM     27  F   UNL A   1      47.078  24.556  24.455  1.00  0.00    -0.167 F 
ATOM     28  F   UNL A   1      45.819  23.005  23.603  1.00  0.00    -0.167 F 
ENDBRANCH  18  25
ENDBRANCH   6   8
ENDBRANCH   5   6
ENDBRANCH   4   5
ENDBRANCH   3   4
ENDBRANCH   2   3
ENDBRANCH   1   2
BRANCH   1  29
ATOM     29  C   UNL A   1      40.997  19.949  26.743  1.00  0.00     0.261 C 
BRANCH  29  30
ATOM     30  O   UNL A   1      40.788  21.176  27.426  1.00  0.00    -0.460 OA
BRANCH  30  31
ATOM     31  C   UNL A   1      40.194  22.274  26.748  1.00  0.00     0.338 C 
ATOM     32  O   UNL A   1      39.294  22.069  25.874  1.00  0.00    -0.246 OA
BRANCH  31  33
ATOM     33  C   UNL A   1      40.637  23.692  27.065  1.00  0.00     0.060 A 
ATOM     34  C   UNL A   1      40.798  24.653  26.073  1.00  0.00     0.016 A 
ATOM     35  C   UNL A   1      40.709  24.075  28.322  1.00  0.00     0.016 A 
ATOM     36  C   UNL A   1      40.521  25.990  26.438  1.00  0.00     0.010 A 
ATOM     37  C   UNL A   1      40.949  25.413  28.651  1.00  0.00     0.010 A 
ATOM     38  C   UNL A   1      40.858  26.358  27.739  1.00  0.00    -0.014 A 
BRANCH  38  39
ATOM     39  C   UNL A   1      41.115  27.812  28.097  1.00  0.00     0.031 A 
ATOM     40  C   UNL A   1      40.074  28.644  28.510  1.00  0.00     0.074 A 
ATOM     41  C   UNL A   1      42.453  28.169  28.134  1.00  0.00     0.049 A 
ATOM     42  N   UNL A   1      40.168  29.870  29.027  1.00  0.00    -0.248 NA
ATOM     43  C   UNL A   1      38.651  28.281  28.440  1.00  0.00     0.031 C 
ATOM     44  C   UNL A   1      43.510  27.333  27.727  1.00  0.00     0.029 A 
ATOM     45  N   UNL A   1      42.998  29.361  28.557  1.00  0.00    -0.354 N 
ATOM     46  C   UNL A   1      38.953  30.342  29.318  1.00  0.00     0.074 A 
ATOM     47  C   UNL A   1      37.961  29.328  28.939  1.00  0.00     0.031 C 
ATOM     48  C   UNL A   1      44.674  28.013  27.890  1.00  0.00     0.029 A 
ATOM     49  C   UNL A   1      44.365  29.288  28.403  1.00  0.00     0.049 A 
ATOM     50  H   UNL A   1      42.497  30.133  28.908  1.00  0.00     0.167 HD
ATOM     51  C   UNL A   1      38.637  31.576  29.888  1.00  0.00     0.037 A 
ATOM     52  C   UNL A   1      45.304  30.267  28.687  1.00  0.00     0.037 A 
ATOM     53  C   UNL A   1      39.581  32.539  30.212  1.00  0.00     0.049 A 
ATOM     54  C   UNL A   1      44.982  31.525  29.202  1.00  0.00     0.074 A 
ATOM     55  C   UNL A   1      39.278  33.785  30.793  1.00  0.00     0.029 A 
ATOM     56  N   UNL A   1      40.945  32.474  30.036  1.00  0.00    -0.354 N 
ATOM     57  N   UNL A   1      43.773  31.981  29.530  1.00  0.00    -0.248 NA
ATOM     58  C   UNL A   1      45.966  32.581  29.476  1.00  0.00     0.031 C 
ATOM     59  C   UNL A   1      40.444  34.467  30.957  1.00  0.00     0.029 A 
ATOM     60  C   UNL A   1      41.493  33.658  30.480  1.00  0.00     0.049 A 
ATOM     61  H   UNL A   1      41.443  31.714  29.657  1.00  0.00     0.167 HD
ATOM     62  C   UNL A   1      43.863  33.223  30.009  1.00  0.00     0.074 A 
ATOM     63  C   UNL A   1      45.275  33.629  29.973  1.00  0.00     0.031 C 
ATOM     64  C   UNL A   1      42.827  34.033  30.476  1.00  0.00     0.037 A 
BRANCH  51  65
ATOM     65  C   UNL A   1      37.174  31.883  30.168  1.00  0.00     0.057 A 
ATOM     66  C   UNL A   1      36.661  31.608  31.347  1.00  0.00     0.134 A 
ATOM     67  C   UNL A   1      36.390  32.455  29.160  1.00  0.00     0.134 A 
ATOM     68  F   UNL A   1      37.403  31.057  32.304  1.00  0.00    -0.206 F 
ATOM     69  C   UNL A   1      35.320  31.909  31.570  1.00  0.00     0.040 A 
ATOM     70  C   UNL A   1      35.207  32.961  29.434  1.00  0.00     0.040 A 
ATOM     71  F   UNL A   1      36.846  32.485  27.911  1.00  0.00    -0.206 F 
ATOM     72  C   UNL A   1      34.754  32.911  30.751  1.00  0.00     0.006 A 
ENDBRANCH  51  65
BRANCH  52  73
ATOM     73  C   UNL A   1      46.768  29.953  28.423  1.00  0.00     0.057 A 
ATOM     74  C   UNL A   1      47.505  29.416  29.371  1.00  0.00     0.134 A 
ATOM     75  C   UNL A   1      47.313  30.239  27.167  1.00  0.00     0.134 A 
ATOM     76  F   UNL A   1      46.990  29.151  30.568  1.00  0.00    -0.206 F 
ATOM     77  C   UNL A   1      48.837  29.132  29.090  1.00  0.00     0.040 A 
ATOM     78  C   UNL A   1      48.487  29.757  26.817  1.00  0.00     0.040 A 
ATOM     79  F   UNL A   1      46.639  31.009  26.318  1.00  0.00    -0.206 F 
ATOM     80  C   UNL A   1      49.173  28.957  27.729  1.00  0.00     0.006 A 
ENDBRANCH  52  73
BRANCH  64  81
ATOM     81  C   UNL A   1      43.183  35.409  31.014  1.00  0.00     0.057 A 
ATOM     82  C   UNL A   1      43.465  35.586  32.287  1.00  0.00     0.134 A 
ATOM     83  C   UNL A   1      43.352  36.447  30.092  1.00  0.00     0.134 A 
ATOM     84  F   UNL A   1      43.298  34.603  33.167  1.00  0.00    -0.206 F 
ATOM     85  C   UNL A   1      43.944  36.828  32.691  1.00  0.00     0.040 A 
ATOM     86  C   UNL A   1      44.026  37.531  30.414  1.00  0.00     0.040 A 
ATOM     87  F   UNL A   1      42.825  36.338  28.875  1.00  0.00    -0.206 F 
ATOM     88  C   UNL A   1      44.563  37.619  31.697  1.00  0.00     0.006 A 
ENDBRANCH  64  81
ENDBRANCH  38  39
ENDBRANCH  31  33
ENDBRANCH  30  31
ENDBRANCH  29  30
ENDBRANCH   1  29
TORSDOF 16
ENDMDL
