MODEL 1
REMARK VINA RESULT:     -11.3      0.000      0.000
REMARK SMILES C[C@@H](Nc1cccc(C(=O)OCCOCCOC(=O)c2ccc(-c3c4nc(c(-c5c(F)cccc5F)c5ccc([nH]5)c(-c5c(F)cccc5F)c5nc(c(-c6c(F)cccc6F)c6ccc3[nH]6)C=C5)C=C4)cc2)c1)C1CC[NH+](C)CC1
REMARK SMILES IDX 13 1 12 2 11 3 9 4 10 5 8 6 4 7 5 8 74 9 6 10 7 11 3 12 2 14
REMARK SMILES IDX 1 15 75 16 76 17 81 18 77 19 80 20 78 21 79 22 14 24 15 25
REMARK SMILES IDX 16 26 17 27 18 28 19 29 20 30 21 31 73 32 22 33 72 34 23 35
REMARK SMILES IDX 24 36 25 37 66 38 26 39 71 40 65 41 67 42 27 43 70 44 64 45
REMARK SMILES IDX 63 46 28 48 54 49 37 50 53 51 38 52 41 53 52 54 68 55 39 56
REMARK SMILES IDX 40 57 51 59 69 60 42 61 29 62 30 63 35 64 31 65 32 66 34 67
REMARK SMILES IDX 36 68 33 69 55 70 56 71 61 72 57 73 58 74 60 75 62 76 59 77
REMARK SMILES IDX 43 78 44 79 49 80 45 81 46 82 48 83 50 84 47 85
REMARK H PARENT 3 13 78 23 67 47 41 58
REMARK Flexibility Score: inf
ROOT
ATOM      1  C   UNL A   1      33.120  35.529  30.177  1.00  0.00     0.202 C 
ENDROOT
BRANCH   1   2
ATOM      2  C   UNL A   1      33.531  35.277  28.730  1.00  0.00     0.261 C 
BRANCH   2   3
ATOM      3  O   UNL A   1      33.751  33.884  28.486  1.00  0.00    -0.460 OA
BRANCH   3   4
ATOM      4  C   UNL A   1      32.796  33.300  27.729  1.00  0.00     0.338 C 
ATOM      5  O   UNL A   1      31.807  33.829  27.249  1.00  0.00    -0.246 OA
BRANCH   4   6
ATOM      6  C   UNL A   1      33.071  31.869  27.565  1.00  0.00     0.062 A 
ATOM      7  C   UNL A   1      32.780  29.130  26.028  1.00  0.00     0.035 A 
ATOM      8  C   UNL A   1      34.433  28.635  26.613  1.00  0.00     0.026 A 
ATOM      9  C   UNL A   1      32.024  30.689  26.599  1.00  0.00     0.041 A 
ATOM     10  C   UNL A   1      35.401  29.760  27.661  1.00  0.00     0.003 A 
ATOM     11  C   UNL A   1      34.747  31.400  28.072  1.00  0.00     0.016 A 
BRANCH   7  12
ATOM     12  N   UNL A   1      32.282  28.520  24.872  1.00  0.00    -0.382 N 
ATOM     13  H   UNL A   1      32.737  28.621  24.006  1.00  0.00     0.160 HD
BRANCH  12  14
ATOM     14  C   UNL A   1      31.043  27.717  25.001  1.00  0.00     0.079 C 
ATOM     15  C   UNL A   1      31.182  26.714  26.151  1.00  0.00     0.031 C 
BRANCH  14  16
ATOM     16  C   UNL A   1      30.372  27.044  23.758  1.00  0.00     0.022 C 
ATOM     17  C   UNL A   1      30.014  25.560  23.797  1.00  0.00     0.067 C 
ATOM     18  C   UNL A   1      31.034  27.289  22.423  1.00  0.00     0.067 C 
ATOM     19  C   UNL A   1      31.133  24.578  23.412  1.00  0.00     0.262 C 
ATOM     20  C   UNL A   1      32.150  26.289  22.099  1.00  0.00     0.262 C 
ATOM     21  N   UNL A   1      32.571  25.193  23.257  1.00  0.00    -0.337 N 
ATOM     22  C   UNL A   1      34.363  24.873  24.253  1.00  0.00     0.332 C 
ATOM     23  H   UNL A   1      33.463  24.846  23.612  1.00  0.00     0.347 HD
ENDBRANCH  14  16
ENDBRANCH  12  14
ENDBRANCH   7  12
ENDBRANCH   4   6
ENDBRANCH   3   4
ENDBRANCH   2   3
ENDBRANCH   1   2
BRANCH   1  24
ATOM     24  O   UNL A   1      33.273  34.467  31.113  1.00  0.00    -0.374 OA
BRANCH  24  25
ATOM     25  C   UNL A   1      34.074  34.672  32.274  1.00  0.00     0.202 C 
BRANCH  25  26
ATOM     26  C   UNL A   1      34.273  33.503  33.246  1.00  0.00     0.261 C 
BRANCH  26  27
ATOM     27  O   UNL A   1      34.988  32.392  32.683  1.00  0.00    -0.460 OA
BRANCH  27  28
ATOM     28  C   UNL A   1      36.211  32.190  33.231  1.00  0.00     0.338 C 
ATOM     29  O   UNL A   1      36.582  32.495  34.352  1.00  0.00    -0.246 OA
BRANCH  28  30
ATOM     30  C   UNL A   1      37.047  31.374  32.335  1.00  0.00     0.060 A 
ATOM     31  C   UNL A   1      37.946  30.479  32.931  1.00  0.00     0.016 A 
ATOM     32  C   UNL A   1      37.055  31.581  30.956  1.00  0.00     0.016 A 
ATOM     33  C   UNL A   1      38.902  29.832  32.155  1.00  0.00     0.010 A 
ATOM     34  C   UNL A   1      38.025  30.942  30.179  1.00  0.00     0.010 A 
ATOM     35  C   UNL A   1      38.979  30.102  30.784  1.00  0.00    -0.014 A 
BRANCH  35  36
ATOM     36  C   UNL A   1      40.175  29.655  30.035  1.00  0.00     0.031 A 
ATOM     37  C   UNL A   1      41.317  30.617  29.856  1.00  0.00     0.074 A 
ATOM     38  C   UNL A   1      40.269  28.395  29.579  1.00  0.00     0.049 A 
ATOM     39  N   UNL A   1      42.457  30.448  29.237  1.00  0.00    -0.248 NA
ATOM     40  C   UNL A   1      41.152  31.948  30.462  1.00  0.00     0.031 C 
ATOM     41  C   UNL A   1      39.253  27.358  29.747  1.00  0.00     0.029 A 
ATOM     42  N   UNL A   1      41.275  27.775  28.884  1.00  0.00    -0.354 N 
ATOM     43  C   UNL A   1      43.142  31.649  29.377  1.00  0.00     0.074 A 
ATOM     44  C   UNL A   1      42.279  32.548  30.110  1.00  0.00     0.031 C 
ATOM     45  C   UNL A   1      39.687  26.227  29.165  1.00  0.00     0.029 A 
ATOM     46  C   UNL A   1      40.994  26.472  28.559  1.00  0.00     0.049 A 
ATOM     47  H   UNL A   1      42.118  28.222  28.641  1.00  0.00     0.167 HD
ATOM     48  C   UNL A   1      44.385  31.968  28.942  1.00  0.00     0.037 A 
ATOM     49  C   UNL A   1      41.708  25.586  27.838  1.00  0.00     0.037 A 
ATOM     50  C   UNL A   1      45.238  31.071  28.209  1.00  0.00     0.049 A 
ATOM     51  C   UNL A   1      43.047  25.995  27.286  1.00  0.00     0.074 A 
ATOM     52  C   UNL A   1      46.514  31.297  27.723  1.00  0.00     0.029 A 
ATOM     53  N   UNL A   1      44.895  29.777  27.850  1.00  0.00    -0.354 N 
ATOM     54  N   UNL A   1      43.691  27.129  27.429  1.00  0.00    -0.248 NA
ATOM     55  C   UNL A   1      43.757  25.001  26.469  1.00  0.00     0.031 C 
ATOM     56  C   UNL A   1      46.924  30.153  27.030  1.00  0.00     0.029 A 
ATOM     57  C   UNL A   1      45.924  29.199  27.127  1.00  0.00     0.049 A 
ATOM     58  H   UNL A   1      44.045  29.334  28.075  1.00  0.00     0.167 HD
ATOM     59  C   UNL A   1      44.892  26.974  26.749  1.00  0.00     0.074 A 
ATOM     60  C   UNL A   1      44.891  25.633  26.201  1.00  0.00     0.031 C 
ATOM     61  C   UNL A   1      45.907  27.860  26.593  1.00  0.00     0.037 A 
BRANCH  48  62
ATOM     62  C   UNL A   1      44.876  33.358  29.226  1.00  0.00     0.057 A 
ATOM     63  C   UNL A   1      44.699  34.408  28.316  1.00  0.00     0.134 A 
ATOM     64  C   UNL A   1      45.523  33.652  30.433  1.00  0.00     0.134 A 
ATOM     65  F   UNL A   1      44.101  34.189  27.135  1.00  0.00    -0.206 F 
ATOM     66  C   UNL A   1      45.170  35.695  28.584  1.00  0.00     0.040 A 
ATOM     67  C   UNL A   1      45.976  34.940  30.724  1.00  0.00     0.040 A 
ATOM     68  F   UNL A   1      45.724  32.694  31.350  1.00  0.00    -0.206 F 
ATOM     69  C   UNL A   1      45.805  35.965  29.794  1.00  0.00     0.006 A 
ENDBRANCH  48  62
BRANCH  49  70
ATOM     70  C   UNL A   1      41.168  24.226  27.587  1.00  0.00     0.057 A 
ATOM     71  C   UNL A   1      40.138  24.013  26.664  1.00  0.00     0.134 A 
ATOM     72  C   UNL A   1      41.658  23.110  28.277  1.00  0.00     0.134 A 
ATOM     73  F   UNL A   1      39.613  25.046  25.990  1.00  0.00    -0.206 F 
ATOM     74  C   UNL A   1      39.604  22.742  26.445  1.00  0.00     0.040 A 
ATOM     75  C   UNL A   1      41.149  21.830  28.051  1.00  0.00     0.040 A 
ATOM     76  F   UNL A   1      42.644  23.247  29.175  1.00  0.00    -0.206 F 
ATOM     77  C   UNL A   1      40.114  21.645  27.137  1.00  0.00     0.006 A 
ENDBRANCH  49  70
BRANCH  61  78
ATOM     78  C   UNL A   1      47.113  27.395  25.831  1.00  0.00     0.057 A 
ATOM     79  C   UNL A   1      48.184  26.750  26.460  1.00  0.00     0.134 A 
ATOM     80  C   UNL A   1      47.183  27.563  24.440  1.00  0.00     0.134 A 
ATOM     81  F   UNL A   1      48.184  26.570  27.789  1.00  0.00    -0.206 F 
ATOM     82  C   UNL A   1      49.294  26.307  25.737  1.00  0.00     0.040 A 
ATOM     83  C   UNL A   1      48.275  27.101  23.705  1.00  0.00     0.040 A 
ATOM     84  F   UNL A   1      46.186  28.165  23.775  1.00  0.00    -0.206 F 
ATOM     85  C   UNL A   1      49.338  26.477  24.354  1.00  0.00     0.006 A 
ENDBRANCH  61  78
ENDBRANCH  35  36
ENDBRANCH  28  30
ENDBRANCH  27  28
ENDBRANCH  26  27
ENDBRANCH  25  26
ENDBRANCH  24  25
ENDBRANCH   1  24
TORSDOF 17
ENDMDL
MODEL 2
REMARK VINA RESULT:     -11.3      3.839      6.736
REMARK SMILES C[C@@H](Nc1cccc(C(=O)OCCOCCOC(=O)c2ccc(-c3c4nc(c(-c5c(F)cccc5F)c5ccc([nH]5)c(-c5c(F)cccc5F)c5nc(c(-c6c(F)cccc6F)c6ccc3[nH]6)C=C5)C=C4)cc2)c1)C1CC[NH+](C)CC1
REMARK SMILES IDX 13 1 12 2 11 3 9 4 10 5 8 6 4 7 5 8 74 9 6 10 7 11 3 12 2 14
REMARK SMILES IDX 1 15 75 16 76 17 81 18 77 19 80 20 78 21 79 22 14 24 15 25
REMARK SMILES IDX 16 26 17 27 18 28 19 29 20 30 21 31 73 32 22 33 72 34 23 35
REMARK SMILES IDX 24 36 25 37 66 38 26 39 71 40 65 41 67 42 27 43 70 44 64 45
REMARK SMILES IDX 63 46 28 48 54 49 37 50 53 51 38 52 41 53 52 54 68 55 39 56
REMARK SMILES IDX 40 57 51 59 69 60 42 61 29 62 30 63 35 64 31 65 32 66 34 67
REMARK SMILES IDX 36 68 33 69 55 70 56 71 61 72 57 73 58 74 60 75 62 76 59 77
REMARK SMILES IDX 43 78 44 79 49 80 45 81 46 82 48 83 50 84 47 85
REMARK H PARENT 3 13 78 23 67 47 41 58
REMARK Flexibility Score: inf
ROOT
ATOM      1  C   UNL A   1      33.000  30.308  26.474  1.00  0.00     0.202 C 
ENDROOT
BRANCH   1   2
ATOM      2  C   UNL A   1      33.427  28.993  25.831  1.00  0.00     0.261 C 
BRANCH   2   3
ATOM      3  O   UNL A   1      33.681  29.156  24.432  1.00  0.00    -0.460 OA
BRANCH   3   4
ATOM      4  C   UNL A   1      32.735  28.615  23.634  1.00  0.00     0.338 C 
ATOM      5  O   UNL A   1      32.218  29.121  22.651  1.00  0.00    -0.246 OA
BRANCH   4   6
ATOM      6  C   UNL A   1      32.342  27.290  24.124  1.00  0.00     0.062 A 
ATOM      7  C   UNL A   1      32.981  24.515  25.482  1.00  0.00     0.035 A 
ATOM      8  C   UNL A   1      31.283  24.457  26.143  1.00  0.00     0.026 A 
ATOM      9  C   UNL A   1      33.492  25.859  24.361  1.00  0.00     0.041 A 
ATOM     10  C   UNL A   1      30.128  25.817  25.802  1.00  0.00     0.003 A 
ATOM     11  C   UNL A   1      30.684  27.260  24.855  1.00  0.00     0.016 A 
BRANCH   7  12
ATOM     12  N   UNL A   1      33.966  23.766  26.134  1.00  0.00    -0.382 N 
ATOM     13  H   UNL A   1      34.673  24.202  26.660  1.00  0.00     0.160 HD
BRANCH  12  14
ATOM     14  C   UNL A   1      33.904  22.291  26.002  1.00  0.00     0.079 C 
ATOM     15  C   UNL A   1      34.379  21.625  27.298  1.00  0.00     0.031 C 
BRANCH  14  16
ATOM     16  C   UNL A   1      34.495  21.557  24.753  1.00  0.00     0.022 C 
ATOM     17  C   UNL A   1      35.656  20.579  24.925  1.00  0.00     0.067 C 
ATOM     18  C   UNL A   1      34.839  22.424  23.565  1.00  0.00     0.067 C 
ATOM     19  C   UNL A   1      37.068  21.189  24.925  1.00  0.00     0.262 C 
ATOM     20  C   UNL A   1      36.252  23.015  23.626  1.00  0.00     0.262 C 
ATOM     21  N   UNL A   1      37.145  22.757  24.989  1.00  0.00    -0.337 N 
ATOM     22  C   UNL A   1      37.945  24.080  26.372  1.00  0.00     0.332 C 
ATOM     23  H   UNL A   1      37.740  23.351  25.567  1.00  0.00     0.347 HD
ENDBRANCH  14  16
ENDBRANCH  12  14
ENDBRANCH   7  12
ENDBRANCH   4   6
ENDBRANCH   3   4
ENDBRANCH   2   3
ENDBRANCH   1   2
BRANCH   1  24
ATOM     24  O   UNL A   1      31.808  30.930  26.004  1.00  0.00    -0.374 OA
BRANCH  24  25
ATOM     25  C   UNL A   1      31.239  32.000  26.754  1.00  0.00     0.202 C 
BRANCH  25  26
ATOM     26  C   UNL A   1      32.048  33.291  26.924  1.00  0.00     0.261 C 
BRANCH  26  27
ATOM     27  O   UNL A   1      32.313  33.636  28.293  1.00  0.00    -0.460 OA
BRANCH  27  28
ATOM     28  C   UNL A   1      33.430  34.385  28.466  1.00  0.00     0.338 C 
ATOM     29  O   UNL A   1      33.497  35.594  28.617  1.00  0.00    -0.246 OA
BRANCH  28  30
ATOM     30  C   UNL A   1      34.611  33.520  28.622  1.00  0.00     0.060 A 
ATOM     31  C   UNL A   1      34.408  32.246  29.168  1.00  0.00     0.016 A 
ATOM     32  C   UNL A   1      35.899  33.995  28.376  1.00  0.00     0.016 A 
ATOM     33  C   UNL A   1      35.498  31.462  29.529  1.00  0.00     0.010 A 
ATOM     34  C   UNL A   1      36.994  33.212  28.753  1.00  0.00     0.010 A 
ATOM     35  C   UNL A   1      36.794  31.964  29.372  1.00  0.00    -0.014 A 
BRANCH  35  36
ATOM     36  C   UNL A   1      37.917  31.263  30.035  1.00  0.00     0.031 A 
ATOM     37  C   UNL A   1      38.190  31.545  31.487  1.00  0.00     0.074 A 
ATOM     38  C   UNL A   1      38.638  30.342  29.374  1.00  0.00     0.049 A 
ATOM     39  N   UNL A   1      39.116  31.054  32.269  1.00  0.00    -0.248 NA
ATOM     40  C   UNL A   1      37.294  32.509  32.145  1.00  0.00     0.031 C 
ATOM     41  C   UNL A   1      38.425  29.942  27.984  1.00  0.00     0.029 A 
ATOM     42  N   UNL A   1      39.695  29.575  29.790  1.00  0.00    -0.354 N 
ATOM     43  C   UNL A   1      38.915  31.649  33.509  1.00  0.00     0.074 A 
ATOM     44  C   UNL A   1      37.801  32.561  33.367  1.00  0.00     0.031 C 
ATOM     45  C   UNL A   1      39.330  29.001  27.661  1.00  0.00     0.029 A 
ATOM     46  C   UNL A   1      40.201  28.760  28.809  1.00  0.00     0.049 A 
ATOM     47  H   UNL A   1      40.057  29.606  30.706  1.00  0.00     0.167 HD
ATOM     48  C   UNL A   1      39.592  31.444  34.664  1.00  0.00     0.037 A 
ATOM     49  C   UNL A   1      41.260  27.927  28.835  1.00  0.00     0.037 A 
ATOM     50  C   UNL A   1      40.702  30.539  34.799  1.00  0.00     0.049 A 
ATOM     51  C   UNL A   1      42.054  27.786  30.107  1.00  0.00     0.074 A 
ATOM     52  C   UNL A   1      41.456  30.258  35.925  1.00  0.00     0.029 A 
ATOM     53  N   UNL A   1      41.221  29.772  33.767  1.00  0.00    -0.354 N 
ATOM     54  N   UNL A   1      41.853  28.346  31.275  1.00  0.00    -0.248 NA
ATOM     55  C   UNL A   1      43.225  26.899  30.060  1.00  0.00     0.031 C 
ATOM     56  C   UNL A   1      42.461  29.355  35.562  1.00  0.00     0.029 A 
ATOM     57  C   UNL A   1      42.302  29.037  34.223  1.00  0.00     0.049 A 
ATOM     58  H   UNL A   1      40.873  29.754  32.846  1.00  0.00     0.167 HD
ATOM     59  C   UNL A   1      42.850  27.857  32.109  1.00  0.00     0.074 A 
ATOM     60  C   UNL A   1      43.649  26.947  31.314  1.00  0.00     0.031 C 
ATOM     61  C   UNL A   1      43.083  28.132  33.417  1.00  0.00     0.037 A 
BRANCH  48  62
ATOM     62  C   UNL A   1      39.163  32.240  35.862  1.00  0.00     0.057 A 
ATOM     63  C   UNL A   1      38.254  31.736  36.801  1.00  0.00     0.134 A 
ATOM     64  C   UNL A   1      39.678  33.523  36.087  1.00  0.00     0.134 A 
ATOM     65  F   UNL A   1      37.711  30.520  36.636  1.00  0.00    -0.206 F 
ATOM     66  C   UNL A   1      37.852  32.489  37.906  1.00  0.00     0.040 A 
ATOM     67  C   UNL A   1      39.304  34.276  37.201  1.00  0.00     0.040 A 
ATOM     68  F   UNL A   1      40.554  34.066  35.228  1.00  0.00    -0.206 F 
ATOM     69  C   UNL A   1      38.382  33.761  38.111  1.00  0.00     0.006 A 
ENDBRANCH  48  62
BRANCH  49  70
ATOM     70  C   UNL A   1      41.638  27.168  27.617  1.00  0.00     0.057 A 
ATOM     71  C   UNL A   1      42.442  27.742  26.626  1.00  0.00     0.134 A 
ATOM     72  C   UNL A   1      41.190  25.858  27.408  1.00  0.00     0.134 A 
ATOM     73  F   UNL A   1      42.882  29.001  26.759  1.00  0.00    -0.206 F 
ATOM     74  C   UNL A   1      42.776  27.045  25.463  1.00  0.00     0.040 A 
ATOM     75  C   UNL A   1      41.536  25.142  26.261  1.00  0.00     0.040 A 
ATOM     76  F   UNL A   1      40.417  25.252  28.320  1.00  0.00    -0.206 F 
ATOM     77  C   UNL A   1      42.327  25.739  25.282  1.00  0.00     0.006 A 
ENDBRANCH  49  70
BRANCH  61  78
ATOM     78  C   UNL A   1      44.224  27.416  34.076  1.00  0.00     0.057 A 
ATOM     79  C   UNL A   1      45.507  27.973  34.147  1.00  0.00     0.134 A 
ATOM     80  C   UNL A   1      44.026  26.167  34.682  1.00  0.00     0.134 A 
ATOM     81  F   UNL A   1      45.765  29.159  33.576  1.00  0.00    -0.206 F 
ATOM     82  C   UNL A   1      46.558  27.304  34.777  1.00  0.00     0.040 A 
ATOM     83  C   UNL A   1      45.062  25.502  35.338  1.00  0.00     0.040 A 
ATOM     84  F   UNL A   1      42.819  25.582  34.659  1.00  0.00    -0.206 F 
ATOM     85  C   UNL A   1      46.335  26.067  35.380  1.00  0.00     0.006 A 
ENDBRANCH  61  78
ENDBRANCH  35  36
ENDBRANCH  28  30
ENDBRANCH  27  28
ENDBRANCH  26  27
ENDBRANCH  25  26
ENDBRANCH  24  25
ENDBRANCH   1  24
TORSDOF 17
ENDMDL
MODEL 3
REMARK VINA RESULT:     -11.2      3.850      6.780
REMARK SMILES C[C@@H](Nc1cccc(C(=O)OCCOCCOC(=O)c2ccc(-c3c4nc(c(-c5c(F)cccc5F)c5ccc([nH]5)c(-c5c(F)cccc5F)c5nc(c(-c6c(F)cccc6F)c6ccc3[nH]6)C=C5)C=C4)cc2)c1)C1CC[NH+](C)CC1
REMARK SMILES IDX 13 1 12 2 11 3 9 4 10 5 8 6 4 7 5 8 74 9 6 10 7 11 3 12 2 14
REMARK SMILES IDX 1 15 75 16 76 17 81 18 77 19 80 20 78 21 79 22 14 24 15 25
REMARK SMILES IDX 16 26 17 27 18 28 19 29 20 30 21 31 73 32 22 33 72 34 23 35
REMARK SMILES IDX 24 36 25 37 66 38 26 39 71 40 65 41 67 42 27 43 70 44 64 45
REMARK SMILES IDX 63 46 28 48 54 49 37 50 53 51 38 52 41 53 52 54 68 55 39 56
REMARK SMILES IDX 40 57 51 59 69 60 42 61 29 62 30 63 35 64 31 65 32 66 34 67
REMARK SMILES IDX 36 68 33 69 55 70 56 71 61 72 57 73 58 74 60 75 62 76 59 77
REMARK SMILES IDX 43 78 44 79 49 80 45 81 46 82 48 83 50 84 47 85
REMARK H PARENT 3 13 78 23 67 47 41 58
REMARK Flexibility Score: inf
ROOT
ATOM      1  C   UNL A   1      32.497  29.712  26.420  1.00  0.00     0.202 C 
ENDROOT
BRANCH   1   2
ATOM      2  C   UNL A   1      33.912  29.316  26.013  1.00  0.00     0.261 C 
BRANCH   2   3
ATOM      3  O   UNL A   1      33.910  28.142  25.195  1.00  0.00    -0.460 OA
BRANCH   3   4
ATOM      4  C   UNL A   1      33.425  28.339  23.950  1.00  0.00     0.338 C 
ATOM      5  O   UNL A   1      33.460  29.369  23.297  1.00  0.00    -0.246 OA
BRANCH   4   6
ATOM      6  C   UNL A   1      32.777  27.123  23.449  1.00  0.00     0.062 A 
ATOM      7  C   UNL A   1      32.833  24.099  22.553  1.00  0.00     0.035 A 
ATOM      8  C   UNL A   1      31.109  23.909  23.113  1.00  0.00     0.026 A 
ATOM      9  C   UNL A   1      33.644  25.732  22.591  1.00  0.00     0.041 A 
ATOM     10  C   UNL A   1      30.231  25.320  23.847  1.00  0.00     0.003 A 
ATOM     11  C   UNL A   1      31.092  26.899  24.078  1.00  0.00     0.016 A 
BRANCH   7  12
ATOM     12  N   UNL A   1      33.627  22.950  22.468  1.00  0.00    -0.382 N 
ATOM     13  H   UNL A   1      33.645  22.402  21.652  1.00  0.00     0.160 HD
BRANCH  12  14
ATOM     14  C   UNL A   1      34.440  22.591  23.654  1.00  0.00     0.079 C 
ATOM     15  C   UNL A   1      35.911  22.949  23.414  1.00  0.00     0.031 C 
BRANCH  14  16
ATOM     16  C   UNL A   1      34.316  21.187  24.335  1.00  0.00     0.022 C 
ATOM     17  C   UNL A   1      32.962  20.483  24.385  1.00  0.00     0.067 C 
ATOM     18  C   UNL A   1      34.918  21.055  25.714  1.00  0.00     0.067 C 
ATOM     19  C   UNL A   1      32.042  20.856  25.559  1.00  0.00     0.262 C 
ATOM     20  C   UNL A   1      33.961  21.453  26.842  1.00  0.00     0.262 C 
ATOM     21  N   UNL A   1      32.493  22.084  26.430  1.00  0.00    -0.337 N 
ATOM     22  C   UNL A   1      31.638  23.934  26.820  1.00  0.00     0.332 C 
ATOM     23  H   UNL A   1      31.941  22.872  26.770  1.00  0.00     0.347 HD
ENDBRANCH  14  16
ENDBRANCH  12  14
ENDBRANCH   7  12
ENDBRANCH   4   6
ENDBRANCH   3   4
ENDBRANCH   2   3
ENDBRANCH   1   2
BRANCH   1  24
ATOM     24  O   UNL A   1      32.333  30.854  27.255  1.00  0.00    -0.374 OA
BRANCH  24  25
ATOM     25  C   UNL A   1      31.544  31.947  26.792  1.00  0.00     0.202 C 
BRANCH  25  26
ATOM     26  C   UNL A   1      32.105  33.368  26.928  1.00  0.00     0.261 C 
BRANCH  26  27
ATOM     27  O   UNL A   1      32.301  33.789  28.287  1.00  0.00    -0.460 OA
BRANCH  27  28
ATOM     28  C   UNL A   1      33.437  34.503  28.484  1.00  0.00     0.338 C 
ATOM     29  O   UNL A   1      33.537  35.707  28.653  1.00  0.00    -0.246 OA
BRANCH  28  30
ATOM     30  C   UNL A   1      34.590  33.601  28.642  1.00  0.00     0.060 A 
ATOM     31  C   UNL A   1      34.364  32.372  29.276  1.00  0.00     0.016 A 
ATOM     32  C   UNL A   1      35.883  34.007  28.309  1.00  0.00     0.016 A 
ATOM     33  C   UNL A   1      35.440  31.568  29.638  1.00  0.00     0.010 A 
ATOM     34  C   UNL A   1      36.964  33.204  28.686  1.00  0.00     0.010 A 
ATOM     35  C   UNL A   1      36.746  32.006  29.392  1.00  0.00    -0.014 A 
BRANCH  35  36
ATOM     36  C   UNL A   1      37.871  31.301  30.047  1.00  0.00     0.031 A 
ATOM     37  C   UNL A   1      38.156  31.586  31.496  1.00  0.00     0.074 A 
ATOM     38  C   UNL A   1      38.583  30.377  29.382  1.00  0.00     0.049 A 
ATOM     39  N   UNL A   1      39.086  31.093  32.272  1.00  0.00    -0.248 NA
ATOM     40  C   UNL A   1      37.269  32.555  32.159  1.00  0.00     0.031 C 
ATOM     41  C   UNL A   1      38.357  29.974  27.995  1.00  0.00     0.029 A 
ATOM     42  N   UNL A   1      39.640  29.606  29.792  1.00  0.00    -0.354 N 
ATOM     43  C   UNL A   1      38.898  31.691  33.512  1.00  0.00     0.074 A 
ATOM     44  C   UNL A   1      37.786  32.607  33.377  1.00  0.00     0.031 C 
ATOM     45  C   UNL A   1      39.256  29.029  27.666  1.00  0.00     0.029 A 
ATOM     46  C   UNL A   1      40.135  28.787  28.808  1.00  0.00     0.049 A 
ATOM     47  H   UNL A   1      40.009  29.638  30.704  1.00  0.00     0.167 HD
ATOM     48  C   UNL A   1      39.583  31.486  34.662  1.00  0.00     0.037 A 
ATOM     49  C   UNL A   1      41.191  27.950  28.828  1.00  0.00     0.037 A 
ATOM     50  C   UNL A   1      40.690  30.577  34.790  1.00  0.00     0.049 A 
ATOM     51  C   UNL A   1      41.994  27.809  30.093  1.00  0.00     0.074 A 
ATOM     52  C   UNL A   1      41.452  30.295  35.911  1.00  0.00     0.029 A 
ATOM     53  N   UNL A   1      41.198  29.806  33.756  1.00  0.00    -0.354 N 
ATOM     54  N   UNL A   1      41.804  28.372  31.262  1.00  0.00    -0.248 NA
ATOM     55  C   UNL A   1      43.161  26.917  30.039  1.00  0.00     0.031 C 
ATOM     56  C   UNL A   1      42.451  29.388  35.542  1.00  0.00     0.029 A 
ATOM     57  C   UNL A   1      42.280  29.067  34.205  1.00  0.00     0.049 A 
ATOM     58  H   UNL A   1      40.843  29.787  32.838  1.00  0.00     0.167 HD
ATOM     59  C   UNL A   1      42.806  27.880  32.089  1.00  0.00     0.074 A 
ATOM     60  C   UNL A   1      43.595  26.965  31.290  1.00  0.00     0.031 C 
ATOM     61  C   UNL A   1      43.050  28.157  33.395  1.00  0.00     0.037 A 
BRANCH  48  62
ATOM     62  C   UNL A   1      39.167  32.287  35.862  1.00  0.00     0.057 A 
ATOM     63  C   UNL A   1      38.282  31.778  36.822  1.00  0.00     0.134 A 
ATOM     64  C   UNL A   1      39.669  33.578  36.067  1.00  0.00     0.134 A 
ATOM     65  F   UNL A   1      37.753  30.554  36.677  1.00  0.00    -0.206 F 
ATOM     66  C   UNL A   1      37.892  32.535  37.929  1.00  0.00     0.040 A 
ATOM     67  C   UNL A   1      39.306  34.335  37.182  1.00  0.00     0.040 A 
ATOM     68  F   UNL A   1      40.521  34.124  35.187  1.00  0.00    -0.206 F 
ATOM     69  C   UNL A   1      38.409  33.815  38.114  1.00  0.00     0.006 A 
ENDBRANCH  48  62
BRANCH  49  70
ATOM     70  C   UNL A   1      41.556  27.187  27.609  1.00  0.00     0.057 A 
ATOM     71  C   UNL A   1      41.105  25.877  27.411  1.00  0.00     0.134 A 
ATOM     72  C   UNL A   1      42.378  27.743  26.621  1.00  0.00     0.134 A 
ATOM     73  F   UNL A   1      40.335  25.282  28.333  1.00  0.00    -0.206 F 
ATOM     74  C   UNL A   1      41.470  25.141  26.282  1.00  0.00     0.040 A 
ATOM     75  C   UNL A   1      42.731  27.028  25.476  1.00  0.00     0.040 A 
ATOM     76  F   UNL A   1      42.843  28.994  26.751  1.00  0.00    -0.206 F 
ATOM     77  C   UNL A   1      42.281  25.719  25.308  1.00  0.00     0.006 A 
ENDBRANCH  49  70
BRANCH  61  78
ATOM     78  C   UNL A   1      44.194  27.438  34.047  1.00  0.00     0.057 A 
ATOM     79  C   UNL A   1      44.036  26.179  34.640  1.00  0.00     0.134 A 
ATOM     80  C   UNL A   1      45.480  27.997  34.045  1.00  0.00     0.134 A 
ATOM     81  F   UNL A   1      42.829  25.596  34.686  1.00  0.00    -0.206 F 
ATOM     82  C   UNL A   1      45.111  25.512  35.230  1.00  0.00     0.040 A 
ATOM     83  C   UNL A   1      46.567  27.327  34.607  1.00  0.00     0.040 A 
ATOM     84  F   UNL A   1      45.701  29.195  33.485  1.00  0.00    -0.206 F 
ATOM     85  C   UNL A   1      46.383  26.083  35.208  1.00  0.00     0.006 A 
ENDBRANCH  61  78
ENDBRANCH  35  36
ENDBRANCH  28  30
ENDBRANCH  27  28
ENDBRANCH  26  27
ENDBRANCH  25  26
ENDBRANCH  24  25
ENDBRANCH   1  24
TORSDOF 17
ENDMDL
