MODEL 1
REMARK VINA RESULT:     -11.5      0.000      0.000
REMARK SMILES CC(=O)O[C@@H]1[C@H](O)C(C)=C(CC[C@@H](C)CC(=O)OCCOCCOC(=O)c2ccc(-c3c4nc(c(-c5c(F)cccc5F)c5ccc([nH]5)c(-c5c(F)cccc5F)c5nc(c(-c6c(F)cccc6F)c6ccc3[nH]6)C=C5)C=C4)cc2)[C@@]2(C)CCCC(C)(C)[C@H]12
REMARK SMILES IDX 19 1 18 2 16 3 17 4 15 5 13 6 14 7 12 8 11 9 10 10 5 11 6 12
REMARK SMILES IDX 89 13 8 14 81 15 86 16 9 17 83 18 82 19 85 20 87 21 88 22
REMARK SMILES IDX 84 23 4 24 2 25 1 26 3 27 7 28 20 30 21 31 22 32 23 33 24 34
REMARK SMILES IDX 25 35 26 36 27 37 28 38 80 39 29 40 79 41 30 42 31 43 32 44
REMARK SMILES IDX 73 45 33 46 78 47 72 48 74 49 34 50 77 51 71 52 70 53 35 55
REMARK SMILES IDX 61 56 44 57 60 58 45 59 48 60 59 61 75 62 46 63 47 64 58 66
REMARK SMILES IDX 76 67 49 68 36 69 37 70 42 71 38 72 39 73 41 74 43 75 40 76
REMARK SMILES IDX 62 77 63 78 68 79 64 80 65 81 67 82 69 83 66 84 50 85 51 86
REMARK SMILES IDX 56 87 52 88 53 89 55 90 57 91 54 92
REMARK H PARENT 7 29 74 54 48 65
REMARK Flexibility Score: inf
ROOT
ATOM      1  C   UNL A   1      33.276  34.298  28.628  1.00  0.00     0.261 C 
ENDROOT
BRANCH   1   2
ATOM      2  O   UNL A   1      33.920  33.058  28.952  1.00  0.00    -0.463 OA
BRANCH   2   3
ATOM      3  C   UNL A   1      33.954  32.152  27.940  1.00  0.00     0.306 C 
ATOM      4  O   UNL A   1      32.989  31.847  27.246  1.00  0.00    -0.252 OA
BRANCH   3   5
ATOM      5  C   UNL A   1      35.279  31.431  27.817  1.00  0.00     0.126 C 
BRANCH   5   6
ATOM      6  C   UNL A   1      35.333  29.896  27.969  1.00  0.00    -0.003 C 
ATOM      7  C   UNL A   1      36.693  29.435  27.411  1.00  0.00     0.008 C 
BRANCH   6   8
ATOM      8  C   UNL A   1      34.155  29.203  27.242  1.00  0.00     0.008 C 
BRANCH   8   9
ATOM      9  C   UNL A   1      34.471  27.819  26.659  1.00  0.00     0.032 C 
BRANCH   9  10
ATOM     10  C   UNL A   1      34.059  27.648  25.176  1.00  0.00    -0.062 C 
ATOM     11  C   UNL A   1      31.099  27.753  24.859  1.00  0.00     0.213 C 
ATOM     12  C   UNL A   1      32.032  28.967  25.206  1.00  0.00     0.181 C 
ATOM     13  C   UNL A   1      31.834  26.409  25.284  1.00  0.00     0.049 C 
ATOM     14  C   UNL A   1      33.422  28.726  24.642  1.00  0.00    -0.042 C 
ATOM     15  C   UNL A   1      33.359  26.259  24.851  1.00  0.00    -0.004 C 
ATOM     16  C   UNL A   1      31.018  25.073  25.500  1.00  0.00    -0.028 C 
ATOM     17  C   UNL A   1      33.658  29.191  23.226  1.00  0.00     0.042 C 
ATOM     18  C   UNL A   1      34.073  25.068  25.586  1.00  0.00     0.011 C 
ATOM     19  C   UNL A   1      33.529  25.969  23.343  1.00  0.00     0.016 C 
ATOM     20  C   UNL A   1      31.853  24.224  26.501  1.00  0.00     0.007 C 
ATOM     21  C   UNL A   1      30.716  24.163  24.298  1.00  0.00     0.011 C 
ATOM     22  C   UNL A   1      29.652  25.390  26.147  1.00  0.00     0.011 C 
ATOM     23  C   UNL A   1      33.216  23.851  25.929  1.00  0.00     0.001 C 
BRANCH  11  24
ATOM     24  O   UNL A   1      30.600  28.138  23.537  1.00  0.00    -0.459 OA
BRANCH  24  25
ATOM     25  C   UNL A   1      29.563  28.402  22.756  1.00  0.00     0.303 C 
ATOM     26  C   UNL A   1      28.213  27.989  23.172  1.00  0.00     0.139 C 
ATOM     27  O   UNL A   1      29.742  28.986  21.690  1.00  0.00    -0.253 OA
ENDBRANCH  24  25
ENDBRANCH  11  24
BRANCH  12  28
ATOM     28  O   UNL A   1      31.516  30.216  24.758  1.00  0.00    -0.385 OA
ATOM     29  H   UNL A   1      32.109  30.589  24.086  1.00  0.00     0.211 HD
ENDBRANCH  12  28
ENDBRANCH   9  10
ENDBRANCH   8   9
ENDBRANCH   6   8
ENDBRANCH   5   6
ENDBRANCH   3   5
ENDBRANCH   2   3
ENDBRANCH   1   2
BRANCH   1  30
ATOM     30  C   UNL A   1      33.359  35.396  29.698  1.00  0.00     0.202 C 
BRANCH  30  31
ATOM     31  O   UNL A   1      33.002  35.068  31.034  1.00  0.00    -0.374 OA
BRANCH  31  32
ATOM     32  C   UNL A   1      34.054  34.993  31.995  1.00  0.00     0.202 C 
BRANCH  32  33
ATOM     33  C   UNL A   1      34.279  33.642  32.677  1.00  0.00     0.261 C 
BRANCH  33  34
ATOM     34  O   UNL A   1      35.366  32.899  32.102  1.00  0.00    -0.460 OA
BRANCH  34  35
ATOM     35  C   UNL A   1      36.196  32.325  33.008  1.00  0.00     0.338 C 
ATOM     36  O   UNL A   1      36.163  32.415  34.220  1.00  0.00    -0.246 OA
BRANCH  35  37
ATOM     37  C   UNL A   1      37.260  31.607  32.292  1.00  0.00     0.060 A 
ATOM     38  C   UNL A   1      38.241  30.885  32.972  1.00  0.00     0.016 A 
ATOM     39  C   UNL A   1      37.308  31.734  30.907  1.00  0.00     0.016 A 
ATOM     40  C   UNL A   1      39.293  30.310  32.249  1.00  0.00     0.010 A 
ATOM     41  C   UNL A   1      38.295  31.070  30.184  1.00  0.00     0.010 A 
ATOM     42  C   UNL A   1      39.334  30.398  30.846  1.00  0.00    -0.014 A 
BRANCH  42  43
ATOM     43  C   UNL A   1      40.502  29.907  30.058  1.00  0.00     0.031 A 
ATOM     44  C   UNL A   1      41.651  30.848  29.768  1.00  0.00     0.074 A 
ATOM     45  C   UNL A   1      40.531  28.655  29.561  1.00  0.00     0.049 A 
ATOM     46  N   UNL A   1      42.692  30.679  28.990  1.00  0.00    -0.248 NA
ATOM     47  C   UNL A   1      41.595  32.178  30.398  1.00  0.00     0.031 C 
ATOM     48  C   UNL A   1      39.477  27.652  29.719  1.00  0.00     0.029 A 
ATOM     49  N   UNL A   1      41.489  28.013  28.814  1.00  0.00    -0.354 N 
ATOM     50  C   UNL A   1      43.371  31.893  28.995  1.00  0.00     0.074 A 
ATOM     51  C   UNL A   1      42.597  32.807  29.804  1.00  0.00     0.031 C 
ATOM     52  C   UNL A   1      39.862  26.512  29.120  1.00  0.00     0.029 A 
ATOM     53  C   UNL A   1      41.169  26.714  28.500  1.00  0.00     0.049 A 
ATOM     54  H   UNL A   1      42.328  28.444  28.530  1.00  0.00     0.167 HD
ATOM     55  C   UNL A   1      44.551  32.214  28.412  1.00  0.00     0.037 A 
ATOM     56  C   UNL A   1      41.849  25.793  27.790  1.00  0.00     0.037 A 
ATOM     57  C   UNL A   1      45.375  31.279  27.695  1.00  0.00     0.049 A 
ATOM     58  C   UNL A   1      43.191  26.150  27.210  1.00  0.00     0.074 A 
ATOM     59  C   UNL A   1      46.629  31.479  27.145  1.00  0.00     0.029 A 
ATOM     60  N   UNL A   1      45.036  29.957  27.453  1.00  0.00    -0.354 N 
ATOM     61  N   UNL A   1      43.837  27.290  27.258  1.00  0.00    -0.248 NA
ATOM     62  C   UNL A   1      43.903  25.090  26.481  1.00  0.00     0.031 C 
ATOM     63  C   UNL A   1      47.039  30.283  26.547  1.00  0.00     0.029 A 
ATOM     64  C   UNL A   1      46.057  29.330  26.760  1.00  0.00     0.049 A 
ATOM     65  H   UNL A   1      44.195  29.528  27.733  1.00  0.00     0.167 HD
ATOM     66  C   UNL A   1      45.039  27.076  26.595  1.00  0.00     0.074 A 
ATOM     67  C   UNL A   1      45.040  25.695  26.165  1.00  0.00     0.031 C 
ATOM     68  C   UNL A   1      46.050  27.946  26.361  1.00  0.00     0.037 A 
BRANCH  55  69
ATOM     69  C   UNL A   1      45.035  33.630  28.547  1.00  0.00     0.057 A 
ATOM     70  C   UNL A   1      45.868  34.035  29.600  1.00  0.00     0.134 A 
ATOM     71  C   UNL A   1      44.691  34.597  27.592  1.00  0.00     0.134 A 
ATOM     72  F   UNL A   1      46.228  33.164  30.555  1.00  0.00    -0.206 F 
ATOM     73  C   UNL A   1      46.309  35.354  29.718  1.00  0.00     0.040 A 
ATOM     74  C   UNL A   1      45.153  35.911  27.683  1.00  0.00     0.040 A 
ATOM     75  F   UNL A   1      43.906  34.277  26.552  1.00  0.00    -0.206 F 
ATOM     76  C   UNL A   1      45.958  36.295  28.753  1.00  0.00     0.006 A 
ENDBRANCH  55  69
BRANCH  56  77
ATOM     77  C   UNL A   1      41.292  24.426  27.614  1.00  0.00     0.057 A 
ATOM     78  C   UNL A   1      40.259  24.182  26.701  1.00  0.00     0.134 A 
ATOM     79  C   UNL A   1      41.764  23.340  28.359  1.00  0.00     0.134 A 
ATOM     80  F   UNL A   1      39.752  25.187  25.972  1.00  0.00    -0.206 F 
ATOM     81  C   UNL A   1      39.700  22.913  26.549  1.00  0.00     0.040 A 
ATOM     82  C   UNL A   1      41.231  22.059  28.199  1.00  0.00     0.040 A 
ATOM     83  F   UNL A   1      42.756  23.505  29.245  1.00  0.00    -0.206 F 
ATOM     84  C   UNL A   1      40.190  21.844  27.298  1.00  0.00     0.006 A 
ENDBRANCH  56  77
BRANCH  68  85
ATOM     85  C   UNL A   1      47.262  27.422  25.650  1.00  0.00     0.057 A 
ATOM     86  C   UNL A   1      47.429  27.568  24.268  1.00  0.00     0.134 A 
ATOM     87  C   UNL A   1      48.299  26.813  26.369  1.00  0.00     0.134 A 
ATOM     88  F   UNL A   1      46.468  28.135  23.523  1.00  0.00    -0.206 F 
ATOM     89  C   UNL A   1      48.577  27.108  23.621  1.00  0.00     0.040 A 
ATOM     90  C   UNL A   1      49.462  26.370  25.737  1.00  0.00     0.040 A 
ATOM     91  F   UNL A   1      48.204  26.652  27.697  1.00  0.00    -0.206 F 
ATOM     92  C   UNL A   1      49.601  26.513  24.358  1.00  0.00     0.006 A 
ENDBRANCH  68  85
ENDBRANCH  42  43
ENDBRANCH  35  37
ENDBRANCH  34  35
ENDBRANCH  33  34
ENDBRANCH  32  33
ENDBRANCH  31  32
ENDBRANCH  30  31
ENDBRANCH   1  30
TORSDOF 21
ENDMDL
MODEL 2
REMARK VINA RESULT:     -11.4      4.691      7.501
REMARK SMILES CC(=O)O[C@@H]1[C@H](O)C(C)=C(CC[C@@H](C)CC(=O)OCCOCCOC(=O)c2ccc(-c3c4nc(c(-c5c(F)cccc5F)c5ccc([nH]5)c(-c5c(F)cccc5F)c5nc(c(-c6c(F)cccc6F)c6ccc3[nH]6)C=C5)C=C4)cc2)[C@@]2(C)CCCC(C)(C)[C@H]12
REMARK SMILES IDX 19 1 18 2 16 3 17 4 15 5 13 6 14 7 12 8 11 9 10 10 5 11 6 12
REMARK SMILES IDX 89 13 8 14 81 15 86 16 9 17 83 18 82 19 85 20 87 21 88 22
REMARK SMILES IDX 84 23 4 24 2 25 1 26 3 27 7 28 20 30 21 31 22 32 23 33 24 34
REMARK SMILES IDX 25 35 26 36 27 37 28 38 80 39 29 40 79 41 30 42 31 43 32 44
REMARK SMILES IDX 73 45 33 46 78 47 72 48 74 49 34 50 77 51 71 52 70 53 35 55
REMARK SMILES IDX 61 56 44 57 60 58 45 59 48 60 59 61 75 62 46 63 47 64 58 66
REMARK SMILES IDX 76 67 49 68 36 69 37 70 42 71 38 72 39 73 41 74 43 75 40 76
REMARK SMILES IDX 62 77 63 78 68 79 64 80 65 81 67 82 69 83 66 84 50 85 51 86
REMARK SMILES IDX 56 87 52 88 53 89 55 90 57 91 54 92
REMARK H PARENT 7 29 74 54 48 65
REMARK Flexibility Score: inf
ROOT
ATOM      1  C   UNL A   1      34.768  31.866  28.373  1.00  0.00     0.261 C 
ENDROOT
BRANCH   1   2
ATOM      2  O   UNL A   1      33.614  31.563  27.576  1.00  0.00    -0.463 OA
BRANCH   2   3
ATOM      3  C   UNL A   1      33.459  30.246  27.276  1.00  0.00     0.306 C 
ATOM      4  O   UNL A   1      34.367  29.421  27.275  1.00  0.00    -0.252 OA
BRANCH   3   5
ATOM      5  C   UNL A   1      32.066  29.893  26.803  1.00  0.00     0.126 C 
BRANCH   5   6
ATOM      6  C   UNL A   1      31.864  28.711  25.831  1.00  0.00    -0.003 C 
ATOM      7  C   UNL A   1      31.000  29.229  24.665  1.00  0.00     0.008 C 
BRANCH   6   8
ATOM      8  C   UNL A   1      31.207  27.497  26.530  1.00  0.00     0.008 C 
BRANCH   8   9
ATOM      9  C   UNL A   1      32.026  26.199  26.491  1.00  0.00     0.032 C 
BRANCH   9  10
ATOM     10  C   UNL A   1      31.268  24.990  25.891  1.00  0.00    -0.062 C 
ATOM     11  C   UNL A   1      33.082  22.656  25.518  1.00  0.00     0.213 C 
ATOM     12  C   UNL A   1      32.566  23.211  26.893  1.00  0.00     0.181 C 
ATOM     13  C   UNL A   1      33.006  23.820  24.439  1.00  0.00     0.049 C 
ATOM     14  C   UNL A   1      31.224  23.896  26.701  1.00  0.00    -0.042 C 
ATOM     15  C   UNL A   1      31.655  24.661  24.385  1.00  0.00    -0.004 C 
ATOM     16  C   UNL A   1      33.854  23.747  23.108  1.00  0.00    -0.028 C 
ATOM     17  C   UNL A   1      30.003  23.016  26.813  1.00  0.00     0.042 C 
ATOM     18  C   UNL A   1      31.800  25.970  23.530  1.00  0.00     0.011 C 
ATOM     19  C   UNL A   1      30.487  23.881  23.742  1.00  0.00     0.016 C 
ATOM     20  C   UNL A   1      34.074  25.222  22.664  1.00  0.00     0.007 C 
ATOM     21  C   UNL A   1      33.292  23.000  21.887  1.00  0.00     0.011 C 
ATOM     22  C   UNL A   1      35.233  23.113  23.397  1.00  0.00     0.011 C 
ATOM     23  C   UNL A   1      32.757  25.918  22.340  1.00  0.00     0.001 C 
BRANCH  11  24
ATOM     24  O   UNL A   1      32.445  21.337  25.480  1.00  0.00    -0.459 OA
BRANCH  24  25
ATOM     25  C   UNL A   1      32.466  20.087  25.043  1.00  0.00     0.303 C 
ATOM     26  C   UNL A   1      32.470  19.821  23.595  1.00  0.00     0.139 C 
ATOM     27  O   UNL A   1      32.478  19.163  25.853  1.00  0.00    -0.253 OA
ENDBRANCH  24  25
ENDBRANCH  11  24
BRANCH  12  28
ATOM     28  O   UNL A   1      32.482  22.213  27.904  1.00  0.00    -0.385 OA
ATOM     29  H   UNL A   1      32.077  22.592  28.700  1.00  0.00     0.211 HD
ENDBRANCH  12  28
ENDBRANCH   9  10
ENDBRANCH   8   9
ENDBRANCH   6   8
ENDBRANCH   5   6
ENDBRANCH   3   5
ENDBRANCH   2   3
ENDBRANCH   1   2
BRANCH   1  30
ATOM     30  C   UNL A   1      34.572  32.942  29.452  1.00  0.00     0.202 C 
BRANCH  30  31
ATOM     31  O   UNL A   1      34.706  34.307  29.080  1.00  0.00    -0.374 OA
BRANCH  31  32
ATOM     32  C   UNL A   1      33.514  35.022  28.763  1.00  0.00     0.202 C 
BRANCH  32  33
ATOM     33  C   UNL A   1      32.941  35.937  29.847  1.00  0.00     0.261 C 
BRANCH  33  34
ATOM     34  O   UNL A   1      32.388  35.212  30.957  1.00  0.00    -0.460 OA
BRANCH  34  35
ATOM     35  C   UNL A   1      32.712  35.714  32.175  1.00  0.00     0.338 C 
ATOM     36  O   UNL A   1      32.152  36.597  32.796  1.00  0.00    -0.246 OA
BRANCH  35  37
ATOM     37  C   UNL A   1      33.953  35.079  32.639  1.00  0.00     0.060 A 
ATOM     38  C   UNL A   1      35.187  35.721  32.537  1.00  0.00     0.016 A 
ATOM     39  C   UNL A   1      33.873  33.773  33.115  1.00  0.00     0.016 A 
ATOM     40  C   UNL A   1      36.351  35.031  32.894  1.00  0.00     0.010 A 
ATOM     41  C   UNL A   1      35.021  33.129  33.570  1.00  0.00     0.010 A 
ATOM     42  C   UNL A   1      36.282  33.725  33.412  1.00  0.00    -0.014 A 
BRANCH  42  43
ATOM     43  C   UNL A   1      37.507  32.917  33.682  1.00  0.00     0.031 A 
ATOM     44  C   UNL A   1      38.278  33.141  34.964  1.00  0.00     0.074 A 
ATOM     45  C   UNL A   1      37.964  32.023  32.783  1.00  0.00     0.049 A 
ATOM     46  N   UNL A   1      39.437  32.657  35.336  1.00  0.00    -0.248 NA
ATOM     47  C   UNL A   1      37.689  34.077  35.938  1.00  0.00     0.031 C 
ATOM     48  C   UNL A   1      37.354  31.732  31.485  1.00  0.00     0.029 A 
ATOM     49  N   UNL A   1      39.059  31.194  32.827  1.00  0.00    -0.354 N 
ATOM     50  C   UNL A   1      39.735  33.274  36.548  1.00  0.00     0.074 A 
ATOM     51  C   UNL A   1      38.667  34.209  36.820  1.00  0.00     0.031 C 
ATOM     52  C   UNL A   1      38.061  30.767  30.873  1.00  0.00     0.029 A 
ATOM     53  C   UNL A   1      39.197  30.399  31.714  1.00  0.00     0.049 A 
ATOM     54  H   UNL A   1      39.686  31.170  33.585  1.00  0.00     0.167 HD
ATOM     55  C   UNL A   1      40.783  33.059  37.380  1.00  0.00     0.037 A 
ATOM     56  C   UNL A   1      40.135  29.482  31.405  1.00  0.00     0.037 A 
ATOM     57  C   UNL A   1      41.791  32.057  37.163  1.00  0.00     0.049 A 
ATOM     58  C   UNL A   1      41.251  29.211  32.376  1.00  0.00     0.074 A 
ATOM     59  C   UNL A   1      42.840  31.698  37.990  1.00  0.00     0.029 A 
ATOM     60  N   UNL A   1      41.856  31.236  36.050  1.00  0.00    -0.354 N 
ATOM     61  N   UNL A   1      41.495  29.774  33.535  1.00  0.00    -0.248 NA
ATOM     62  C   UNL A   1      42.220  28.170  32.001  1.00  0.00     0.031 C 
ATOM     63  C   UNL A   1      43.558  30.674  37.363  1.00  0.00     0.029 A 
ATOM     64  C   UNL A   1      42.930  30.370  36.167  1.00  0.00     0.049 A 
ATOM     65  H   UNL A   1      41.231  31.262  35.289  1.00  0.00     0.167 HD
ATOM     66  C   UNL A   1      42.623  29.138  34.038  1.00  0.00     0.074 A 
ATOM     67  C   UNL A   1      43.008  28.137  33.067  1.00  0.00     0.031 C 
ATOM     68  C   UNL A   1      43.283  29.364  35.199  1.00  0.00     0.037 A 
BRANCH  55  69
ATOM     69  C   UNL A   1      40.877  33.908  38.617  1.00  0.00     0.057 A 
ATOM     70  C   UNL A   1      40.207  33.575  39.802  1.00  0.00     0.134 A 
ATOM     71  C   UNL A   1      41.677  35.059  38.633  1.00  0.00     0.134 A 
ATOM     72  F   UNL A   1      39.417  32.492  39.854  1.00  0.00    -0.206 F 
ATOM     73  C   UNL A   1      40.299  34.372  40.944  1.00  0.00     0.040 A 
ATOM     74  C   UNL A   1      41.802  35.847  39.778  1.00  0.00     0.040 A 
ATOM     75  F   UNL A   1      42.355  35.434  37.537  1.00  0.00    -0.206 F 
ATOM     76  C   UNL A   1      41.106  35.509  40.937  1.00  0.00     0.006 A 
ENDBRANCH  55  69
BRANCH  56  77
ATOM     77  C   UNL A   1      40.044  28.723  30.130  1.00  0.00     0.057 A 
ATOM     78  C   UNL A   1      40.697  29.172  28.976  1.00  0.00     0.134 A 
ATOM     79  C   UNL A   1      39.295  27.545  30.029  1.00  0.00     0.134 A 
ATOM     80  F   UNL A   1      41.414  30.306  29.006  1.00  0.00    -0.206 F 
ATOM     81  C   UNL A   1      40.593  28.492  27.763  1.00  0.00     0.040 A 
ATOM     82  C   UNL A   1      39.203  26.840  28.828  1.00  0.00     0.040 A 
ATOM     83  F   UNL A   1      38.651  27.057  31.099  1.00  0.00    -0.206 F 
ATOM     84  C   UNL A   1      39.846  27.317  27.687  1.00  0.00     0.006 A 
ENDBRANCH  56  77
BRANCH  68  85
ATOM     85  C   UNL A   1      44.459  28.485  35.508  1.00  0.00     0.057 A 
ATOM     86  C   UNL A   1      44.321  27.292  36.227  1.00  0.00     0.134 A 
ATOM     87  C   UNL A   1      45.735  28.813  35.031  1.00  0.00     0.134 A 
ATOM     88  F   UNL A   1      43.128  26.928  36.719  1.00  0.00    -0.206 F 
ATOM     89  C   UNL A   1      45.417  26.464  36.479  1.00  0.00     0.040 A 
ATOM     90  C   UNL A   1      46.832  27.982  35.255  1.00  0.00     0.040 A 
ATOM     91  F   UNL A   1      45.931  29.937  34.326  1.00  0.00    -0.206 F 
ATOM     92  C   UNL A   1      46.675  26.805  35.985  1.00  0.00     0.006 A 
ENDBRANCH  68  85
ENDBRANCH  42  43
ENDBRANCH  35  37
ENDBRANCH  34  35
ENDBRANCH  33  34
ENDBRANCH  32  33
ENDBRANCH  31  32
ENDBRANCH  30  31
ENDBRANCH   1  30
TORSDOF 21
ENDMDL
MODEL 3
REMARK VINA RESULT:     -11.1      4.647      9.731
REMARK SMILES CC(=O)O[C@@H]1[C@H](O)C(C)=C(CC[C@@H](C)CC(=O)OCCOCCOC(=O)c2ccc(-c3c4nc(c(-c5c(F)cccc5F)c5ccc([nH]5)c(-c5c(F)cccc5F)c5nc(c(-c6c(F)cccc6F)c6ccc3[nH]6)C=C5)C=C4)cc2)[C@@]2(C)CCCC(C)(C)[C@H]12
REMARK SMILES IDX 19 1 18 2 16 3 17 4 15 5 13 6 14 7 12 8 11 9 10 10 5 11 6 12
REMARK SMILES IDX 89 13 8 14 81 15 86 16 9 17 83 18 82 19 85 20 87 21 88 22
REMARK SMILES IDX 84 23 4 24 2 25 1 26 3 27 7 28 20 30 21 31 22 32 23 33 24 34
REMARK SMILES IDX 25 35 26 36 27 37 28 38 80 39 29 40 79 41 30 42 31 43 32 44
REMARK SMILES IDX 73 45 33 46 78 47 72 48 74 49 34 50 77 51 71 52 70 53 35 55
REMARK SMILES IDX 61 56 44 57 60 58 45 59 48 60 59 61 75 62 46 63 47 64 58 66
REMARK SMILES IDX 76 67 49 68 36 69 37 70 42 71 38 72 39 73 41 74 43 75 40 76
REMARK SMILES IDX 62 77 63 78 68 79 64 80 65 81 67 82 69 83 66 84 50 85 51 86
REMARK SMILES IDX 56 87 52 88 53 89 55 90 57 91 54 92
REMARK H PARENT 7 29 74 54 48 65
REMARK Flexibility Score: inf
ROOT
ATOM      1  C   UNL A   1      39.380  21.830  26.169  1.00  0.00     0.261 C 
ENDROOT
BRANCH   1   2
ATOM      2  O   UNL A   1      38.236  21.547  25.350  1.00  0.00    -0.463 OA
BRANCH   2   3
ATOM      3  C   UNL A   1      37.382  22.591  25.185  1.00  0.00     0.306 C 
ATOM      4  O   UNL A   1      37.674  23.767  25.376  1.00  0.00    -0.252 OA
BRANCH   3   5
ATOM      5  C   UNL A   1      35.965  22.169  24.863  1.00  0.00     0.126 C 
BRANCH   5   6
ATOM      6  C   UNL A   1      34.949  21.963  26.006  1.00  0.00    -0.003 C 
ATOM      7  C   UNL A   1      33.771  21.158  25.423  1.00  0.00     0.008 C 
BRANCH   6   8
ATOM      8  C   UNL A   1      34.476  23.309  26.606  1.00  0.00     0.008 C 
BRANCH   8   9
ATOM      9  C   UNL A   1      34.018  24.356  25.582  1.00  0.00     0.032 C 
BRANCH   9  10
ATOM     10  C   UNL A   1      32.605  24.930  25.852  1.00  0.00    -0.062 C 
ATOM     11  C   UNL A   1      31.417  26.085  23.377  1.00  0.00     0.213 C 
ATOM     12  C   UNL A   1      31.635  24.558  23.668  1.00  0.00     0.181 C 
ATOM     13  C   UNL A   1      32.426  26.923  24.274  1.00  0.00     0.049 C 
ATOM     14  C   UNL A   1      31.606  24.310  25.167  1.00  0.00    -0.042 C 
ATOM     15  C   UNL A   1      32.528  26.517  25.810  1.00  0.00    -0.004 C 
ATOM     16  C   UNL A   1      32.790  28.416  23.905  1.00  0.00    -0.028 C 
ATOM     17  C   UNL A   1      30.251  24.039  25.773  1.00  0.00     0.042 C 
ATOM     18  C   UNL A   1      33.766  27.172  26.520  1.00  0.00     0.011 C 
ATOM     19  C   UNL A   1      31.300  26.966  26.632  1.00  0.00     0.016 C 
ATOM     20  C   UNL A   1      34.201  28.671  24.508  1.00  0.00     0.007 C 
ATOM     21  C   UNL A   1      31.888  29.562  24.395  1.00  0.00     0.011 C 
ATOM     22  C   UNL A   1      32.878  28.572  22.371  1.00  0.00     0.011 C 
ATOM     23  C   UNL A   1      34.196  28.554  26.029  1.00  0.00     0.001 C 
BRANCH  11  24
ATOM     24  O   UNL A   1      29.955  26.167  23.335  1.00  0.00    -0.459 OA
BRANCH  24  25
ATOM     25  C   UNL A   1      28.855  26.848  23.618  1.00  0.00     0.303 C 
ATOM     26  C   UNL A   1      27.794  26.217  24.421  1.00  0.00     0.139 C 
ATOM     27  O   UNL A   1      28.731  27.998  23.203  1.00  0.00    -0.253 OA
ENDBRANCH  24  25
ENDBRANCH  11  24
BRANCH  12  28
ATOM     28  O   UNL A   1      30.697  23.721  23.000  1.00  0.00    -0.385 OA
ATOM     29  H   UNL A   1      29.930  24.248  22.727  1.00  0.00     0.211 HD
ENDBRANCH  12  28
ENDBRANCH   9  10
ENDBRANCH   8   9
ENDBRANCH   6   8
ENDBRANCH   5   6
ENDBRANCH   3   5
ENDBRANCH   2   3
ENDBRANCH   1   2
BRANCH   1  30
ATOM     30  C   UNL A   1      40.372  20.672  26.356  1.00  0.00     0.202 C 
BRANCH  30  31
ATOM     31  O   UNL A   1      41.682  20.971  26.819  1.00  0.00    -0.374 OA
BRANCH  31  32
ATOM     32  C   UNL A   1      42.778  20.517  26.027  1.00  0.00     0.202 C 
BRANCH  32  33
ATOM     33  C   UNL A   1      43.644  21.586  25.359  1.00  0.00     0.261 C 
BRANCH  33  34
ATOM     34  O   UNL A   1      42.913  22.782  25.044  1.00  0.00    -0.460 OA
BRANCH  34  35
ATOM     35  C   UNL A   1      43.670  23.906  24.987  1.00  0.00     0.338 C 
ATOM     36  O   UNL A   1      44.683  24.098  24.341  1.00  0.00    -0.246 OA
BRANCH  35  37
ATOM     37  C   UNL A   1      43.130  24.894  25.931  1.00  0.00     0.060 A 
ATOM     38  C   UNL A   1      43.641  26.190  26.007  1.00  0.00     0.016 A 
ATOM     39  C   UNL A   1      42.140  24.473  26.813  1.00  0.00     0.016 A 
ATOM     40  C   UNL A   1      43.164  27.058  26.996  1.00  0.00     0.010 A 
ATOM     41  C   UNL A   1      41.593  25.373  27.724  1.00  0.00     0.010 A 
ATOM     42  C   UNL A   1      42.136  26.658  27.869  1.00  0.00    -0.014 A 
BRANCH  42  43
ATOM     43  C   UNL A   1      41.695  27.510  29.012  1.00  0.00     0.031 A 
ATOM     44  C   UNL A   1      42.444  27.439  30.325  1.00  0.00     0.074 A 
ATOM     45  C   UNL A   1      40.614  28.308  28.910  1.00  0.00     0.049 A 
ATOM     46  N   UNL A   1      42.152  27.979  31.482  1.00  0.00    -0.248 NA
ATOM     47  C   UNL A   1      43.658  26.605  30.351  1.00  0.00     0.031 C 
ATOM     48  C   UNL A   1      39.766  28.446  27.725  1.00  0.00     0.029 A 
ATOM     49  N   UNL A   1      40.039  29.154  29.828  1.00  0.00    -0.354 N 
ATOM     50  C   UNL A   1      43.107  27.502  32.375  1.00  0.00     0.074 A 
ATOM     51  C   UNL A   1      43.951  26.586  31.642  1.00  0.00     0.031 C 
ATOM     52  C   UNL A   1      38.804  29.349  27.976  1.00  0.00     0.029 A 
ATOM     53  C   UNL A   1      38.939  29.824  29.350  1.00  0.00     0.049 A 
ATOM     54  H   UNL A   1      40.384  29.269  30.743  1.00  0.00     0.167 HD
ATOM     55  C   UNL A   1      43.292  27.823  33.679  1.00  0.00     0.037 A 
ATOM     56  C   UNL A   1      38.129  30.716  29.953  1.00  0.00     0.037 A 
ATOM     57  C   UNL A   1      42.520  28.811  34.382  1.00  0.00     0.049 A 
ATOM     58  C   UNL A   1      38.395  31.110  31.380  1.00  0.00     0.074 A 
ATOM     59  C   UNL A   1      42.686  29.274  35.675  1.00  0.00     0.029 A 
ATOM     60  N   UNL A   1      41.452  29.507  33.839  1.00  0.00    -0.354 N 
ATOM     61  N   UNL A   1      39.326  30.680  32.197  1.00  0.00    -0.248 NA
ATOM     62  C   UNL A   1      37.502  32.119  31.969  1.00  0.00     0.031 C 
ATOM     63  C   UNL A   1      41.701  30.235  35.923  1.00  0.00     0.029 A 
ATOM     64  C   UNL A   1      40.948  30.397  34.772  1.00  0.00     0.049 A 
ATOM     65  H   UNL A   1      41.104  29.388  32.926  1.00  0.00     0.167 HD
ATOM     66  C   UNL A   1      39.150  31.384  33.382  1.00  0.00     0.074 A 
ATOM     67  C   UNL A   1      38.032  32.280  33.174  1.00  0.00     0.031 C 
ATOM     68  C   UNL A   1      39.849  31.297  34.538  1.00  0.00     0.037 A 
BRANCH  55  69
ATOM     69  C   UNL A   1      44.389  27.115  34.423  1.00  0.00     0.057 A 
ATOM     70  C   UNL A   1      44.182  25.886  35.064  1.00  0.00     0.134 A 
ATOM     71  C   UNL A   1      45.682  27.655  34.471  1.00  0.00     0.134 A 
ATOM     72  F   UNL A   1      42.967  25.318  35.066  1.00  0.00    -0.206 F 
ATOM     73  C   UNL A   1      45.207  25.239  35.756  1.00  0.00     0.040 A 
ATOM     74  C   UNL A   1      46.723  27.001  35.132  1.00  0.00     0.040 A 
ATOM     75  F   UNL A   1      45.956  28.823  33.872  1.00  0.00    -0.206 F 
ATOM     76  C   UNL A   1      46.486  25.793  35.784  1.00  0.00     0.006 A 
ENDBRANCH  55  69
BRANCH  56  77
ATOM     77  C   UNL A   1      37.004  31.331  29.200  1.00  0.00     0.057 A 
ATOM     78  C   UNL A   1      35.828  30.613  28.949  1.00  0.00     0.134 A 
ATOM     79  C   UNL A   1      37.081  32.636  28.701  1.00  0.00     0.134 A 
ATOM     80  F   UNL A   1      35.703  29.351  29.385  1.00  0.00    -0.206 F 
ATOM     81  C   UNL A   1      34.778  31.162  28.212  1.00  0.00     0.040 A 
ATOM     82  C   UNL A   1      36.027  33.207  27.985  1.00  0.00     0.040 A 
ATOM     83  F   UNL A   1      38.177  33.379  28.913  1.00  0.00    -0.206 F 
ATOM     84  C   UNL A   1      34.874  32.466  27.731  1.00  0.00     0.006 A 
ENDBRANCH  56  77
BRANCH  68  85
ATOM     85  C   UNL A   1      39.460  32.222  35.653  1.00  0.00     0.057 A 
ATOM     86  C   UNL A   1      38.568  31.833  36.659  1.00  0.00     0.134 A 
ATOM     87  C   UNL A   1      40.030  33.499  35.747  1.00  0.00     0.134 A 
ATOM     88  F   UNL A   1      37.982  30.627  36.620  1.00  0.00    -0.206 F 
ATOM     89  C   UNL A   1      38.240  32.690  37.711  1.00  0.00     0.040 A 
ATOM     90  C   UNL A   1      39.728  34.355  36.807  1.00  0.00     0.040 A 
ATOM     91  F   UNL A   1      40.900  33.927  34.820  1.00  0.00    -0.206 F 
ATOM     92  C   UNL A   1      38.827  33.952  37.791  1.00  0.00     0.006 A 
ENDBRANCH  68  85
ENDBRANCH  42  43
ENDBRANCH  35  37
ENDBRANCH  34  35
ENDBRANCH  33  34
ENDBRANCH  32  33
ENDBRANCH  31  32
ENDBRANCH  30  31
ENDBRANCH   1  30
TORSDOF 21
ENDMDL
