MODEL 1
REMARK VINA RESULT:     -10.5      0.000      0.000
REMARK SMILES CC[C@H](CNC(=O)[C@H]1CSc2ccccc21)C(=O)OCCOCCOC(=O)c1ccc(-c2c3nc(c(-c4c(F)cccc4F)c4ccc([nH]4)c(-c4c(F)cccc4F)c4nc(c(-c5c(F)cccc5F)c5ccc2[nH]5)C=C4)C=C3)cc1
REMARK SMILES IDX 21 1 20 2 19 3 17 4 18 5 3 6 2 7 1 8 4 9 5 10 6 11 7 13 8 14
REMARK SMILES IDX 9 15 16 16 10 17 11 18 15 19 12 20 14 21 13 22 22 23 23 24
REMARK SMILES IDX 24 25 25 26 26 27 27 28 28 29 29 30 81 31 30 32 80 33 31 34
REMARK SMILES IDX 32 35 33 36 74 37 34 38 79 39 73 40 75 41 35 42 78 43 72 44
REMARK SMILES IDX 71 45 36 47 62 48 45 49 61 50 46 51 49 52 60 53 76 54 47 55
REMARK SMILES IDX 48 56 59 58 77 59 50 60 37 61 38 62 43 63 39 64 40 65 42 66
REMARK SMILES IDX 44 67 41 68 63 69 64 70 69 71 65 72 66 73 68 74 70 75 67 76
REMARK SMILES IDX 51 77 52 78 57 79 53 80 54 81 56 82 58 83 55 84
REMARK H PARENT 5 12 75 46 49 57
REMARK Flexibility Score: inf
ROOT
ATOM      1  C   UNL A   1      33.974  33.852  28.975  1.00  0.00     0.202 C 
ENDROOT
BRANCH   1   2
ATOM      2  C   UNL A   1      34.627  32.481  28.788  1.00  0.00     0.261 C 
BRANCH   2   3
ATOM      3  O   UNL A   1      33.877  31.653  27.884  1.00  0.00    -0.463 OA
BRANCH   3   4
ATOM      4  C   UNL A   1      34.424  30.438  27.624  1.00  0.00     0.310 C 
ATOM      5  O   UNL A   1      35.454  30.010  28.134  1.00  0.00    -0.252 OA
BRANCH   4   6
ATOM      6  C   UNL A   1      33.603  29.607  26.652  1.00  0.00     0.118 C 
BRANCH   6   7
ATOM      7  C   UNL A   1      32.118  29.731  27.029  1.00  0.00     0.014 C 
ATOM      8  C   UNL A   1      31.611  28.471  27.724  1.00  0.00     0.005 C 
ENDBRANCH   6   7
BRANCH   6   9
ATOM      9  C   UNL A   1      34.088  28.154  26.494  1.00  0.00     0.131 C 
BRANCH   9  10
ATOM     10  N   UNL A   1      33.766  27.553  25.198  1.00  0.00    -0.355 N 
ATOM     11  C   UNL A   1      33.395  26.275  24.864  1.00  0.00     0.228 C 
ATOM     12  H   UNL A   1      33.827  28.172  24.435  1.00  0.00     0.163 HD
ATOM     13  O   UNL A   1      33.054  26.062  23.700  1.00  0.00    -0.274 OA
BRANCH  11  14
ATOM     14  C   UNL A   1      33.422  25.180  25.916  1.00  0.00     0.120 C 
ATOM     15  C   UNL A   1      32.071  24.460  26.058  1.00  0.00     0.093 C 
ATOM     16  C   UNL A   1      34.422  24.069  25.666  1.00  0.00    -0.021 A 
ATOM     17  S   UNL A   1      32.448  22.927  26.979  1.00  0.00    -0.125 SA
ATOM     18  C   UNL A   1      34.084  22.872  26.305  1.00  0.00     0.011 A 
ATOM     19  C   UNL A   1      35.620  24.155  24.968  1.00  0.00     0.006 A 
ATOM     20  C   UNL A   1      34.963  21.800  26.343  1.00  0.00     0.015 A 
ATOM     21  C   UNL A   1      36.521  23.092  25.009  1.00  0.00     0.000 A 
ATOM     22  C   UNL A   1      36.203  21.925  25.711  1.00  0.00     0.001 A 
ENDBRANCH  11  14
ENDBRANCH   9  10
ENDBRANCH   6   9
ENDBRANCH   4   6
ENDBRANCH   3   4
ENDBRANCH   2   3
ENDBRANCH   1   2
BRANCH   1  23
ATOM     23  O   UNL A   1      33.620  34.225  30.304  1.00  0.00    -0.374 OA
BRANCH  23  24
ATOM     24  C   UNL A   1      34.648  34.318  31.289  1.00  0.00     0.202 C 
BRANCH  24  25
ATOM     25  C   UNL A   1      34.440  33.552  32.603  1.00  0.00     0.261 C 
BRANCH  25  26
ATOM     26  O   UNL A   1      35.100  32.270  32.601  1.00  0.00    -0.460 OA
BRANCH  26  27
ATOM     27  C   UNL A   1      36.284  32.233  33.262  1.00  0.00     0.338 C 
ATOM     28  O   UNL A   1      36.487  32.512  34.434  1.00  0.00    -0.246 OA
BRANCH  27  29
ATOM     29  C   UNL A   1      37.302  31.583  32.415  1.00  0.00     0.060 A 
ATOM     30  C   UNL A   1      37.210  31.593  31.023  1.00  0.00     0.016 A 
ATOM     31  C   UNL A   1      38.405  30.994  33.049  1.00  0.00     0.016 A 
ATOM     32  C   UNL A   1      38.244  31.033  30.266  1.00  0.00     0.010 A 
ATOM     33  C   UNL A   1      39.435  30.435  32.291  1.00  0.00     0.010 A 
ATOM     34  C   UNL A   1      39.372  30.468  30.892  1.00  0.00    -0.014 A 
BRANCH  34  35
ATOM     35  C   UNL A   1      40.540  30.030  30.084  1.00  0.00     0.031 A 
ATOM     36  C   UNL A   1      41.671  30.964  29.763  1.00  0.00     0.074 A 
ATOM     37  C   UNL A   1      40.555  28.769  29.608  1.00  0.00     0.049 A 
ATOM     38  N   UNL A   1      42.788  30.716  29.127  1.00  0.00    -0.248 NA
ATOM     39  C   UNL A   1      41.528  32.358  30.207  1.00  0.00     0.031 C 
ATOM     40  C   UNL A   1      39.494  27.780  29.807  1.00  0.00     0.029 A 
ATOM     41  N   UNL A   1      41.495  28.101  28.863  1.00  0.00    -0.354 N 
ATOM     42  C   UNL A   1      43.489  31.914  29.101  1.00  0.00     0.074 A 
ATOM     43  C   UNL A   1      42.651  32.901  29.751  1.00  0.00     0.031 C 
ATOM     44  C   UNL A   1      39.858  26.623  29.233  1.00  0.00     0.029 A 
ATOM     45  C   UNL A   1      41.158  26.797  28.594  1.00  0.00     0.049 A 
ATOM     46  H   UNL A   1      42.331  28.517  28.552  1.00  0.00     0.167 HD
ATOM     47  C   UNL A   1      44.722  32.163  28.595  1.00  0.00     0.037 A 
ATOM     48  C   UNL A   1      41.824  25.848  27.910  1.00  0.00     0.037 A 
ATOM     49  C   UNL A   1      45.547  31.181  27.937  1.00  0.00     0.049 A 
ATOM     50  C   UNL A   1      43.165  26.177  27.312  1.00  0.00     0.074 A 
ATOM     51  C   UNL A   1      46.836  31.325  27.449  1.00  0.00     0.029 A 
ATOM     52  N   UNL A   1      45.160  29.880  27.650  1.00  0.00    -0.354 N 
ATOM     53  N   UNL A   1      43.865  27.282  27.398  1.00  0.00    -0.248 NA
ATOM     54  C   UNL A   1      43.811  25.118  26.523  1.00  0.00     0.031 C 
ATOM     55  C   UNL A   1      47.201  30.137  26.809  1.00  0.00     0.029 A 
ATOM     56  C   UNL A   1      46.167  29.228  26.955  1.00  0.00     0.049 A 
ATOM     57  H   UNL A   1      44.297  29.480  27.901  1.00  0.00     0.167 HD
ATOM     58  C   UNL A   1      45.047  27.035  26.709  1.00  0.00     0.074 A 
ATOM     59  C   UNL A   1      44.978  25.671  26.232  1.00  0.00     0.031 C 
ATOM     60  C   UNL A   1      46.095  27.866  26.489  1.00  0.00     0.037 A 
BRANCH  47  61
ATOM     61  C   UNL A   1      45.263  33.558  28.723  1.00  0.00     0.057 A 
ATOM     62  C   UNL A   1      45.940  33.960  29.883  1.00  0.00     0.134 A 
ATOM     63  C   UNL A   1      45.050  34.527  27.734  1.00  0.00     0.134 A 
ATOM     64  F   UNL A   1      46.167  33.086  30.876  1.00  0.00    -0.206 F 
ATOM     65  C   UNL A   1      46.377  35.274  30.056  1.00  0.00     0.040 A 
ATOM     66  C   UNL A   1      45.506  35.839  27.884  1.00  0.00     0.040 A 
ATOM     67  F   UNL A   1      44.414  34.209  26.596  1.00  0.00    -0.206 F 
ATOM     68  C   UNL A   1      46.165  36.216  29.053  1.00  0.00     0.006 A 
ENDBRANCH  47  61
BRANCH  48  69
ATOM     69  C   UNL A   1      41.253  24.486  27.744  1.00  0.00     0.057 A 
ATOM     70  C   UNL A   1      40.236  24.225  26.819  1.00  0.00     0.134 A 
ATOM     71  C   UNL A   1      41.777  23.394  28.448  1.00  0.00     0.134 A 
ATOM     72  F   UNL A   1      39.685  25.226  26.117  1.00  0.00    -0.206 F 
ATOM     73  C   UNL A   1      39.770  22.930  26.591  1.00  0.00     0.040 A 
ATOM     74  C   UNL A   1      41.346  22.089  28.205  1.00  0.00     0.040 A 
ATOM     75  F   UNL A   1      42.768  23.576  29.335  1.00  0.00    -0.206 F 
ATOM     76  C   UNL A   1      40.338  21.855  27.272  1.00  0.00     0.006 A 
ENDBRANCH  48  69
BRANCH  60  77
ATOM     77  C   UNL A   1      47.270  27.303  25.739  1.00  0.00     0.057 A 
ATOM     78  C   UNL A   1      47.375  27.467  24.352  1.00  0.00     0.134 A 
ATOM     79  C   UNL A   1      48.298  26.600  26.383  1.00  0.00     0.134 A 
ATOM     80  F   UNL A   1      46.424  28.122  23.669  1.00  0.00    -0.206 F 
ATOM     81  C   UNL A   1      48.458  26.958  23.634  1.00  0.00     0.040 A 
ATOM     82  C   UNL A   1      49.403  26.117  25.681  1.00  0.00     0.040 A 
ATOM     83  F   UNL A   1      48.270  26.420  27.712  1.00  0.00    -0.206 F 
ATOM     84  C   UNL A   1      49.482  26.290  24.301  1.00  0.00     0.006 A 
ENDBRANCH  60  77
ENDBRANCH  34  35
ENDBRANCH  27  29
ENDBRANCH  26  27
ENDBRANCH  25  26
ENDBRANCH  24  25
ENDBRANCH  23  24
ENDBRANCH   1  23
TORSDOF 18
ENDMDL
MODEL 2
REMARK VINA RESULT:     -10.3      1.399      2.388
REMARK SMILES CC[C@H](CNC(=O)[C@H]1CSc2ccccc21)C(=O)OCCOCCOC(=O)c1ccc(-c2c3nc(c(-c4c(F)cccc4F)c4ccc([nH]4)c(-c4c(F)cccc4F)c4nc(c(-c5c(F)cccc5F)c5ccc2[nH]5)C=C4)C=C3)cc1
REMARK SMILES IDX 21 1 20 2 19 3 17 4 18 5 3 6 2 7 1 8 4 9 5 10 6 11 7 13 8 14
REMARK SMILES IDX 9 15 16 16 10 17 11 18 15 19 12 20 14 21 13 22 22 23 23 24
REMARK SMILES IDX 24 25 25 26 26 27 27 28 28 29 29 30 81 31 30 32 80 33 31 34
REMARK SMILES IDX 32 35 33 36 74 37 34 38 79 39 73 40 75 41 35 42 78 43 72 44
REMARK SMILES IDX 71 45 36 47 62 48 45 49 61 50 46 51 49 52 60 53 76 54 47 55
REMARK SMILES IDX 48 56 59 58 77 59 50 60 37 61 38 62 43 63 39 64 40 65 42 66
REMARK SMILES IDX 44 67 41 68 63 69 64 70 69 71 65 72 66 73 68 74 70 75 67 76
REMARK SMILES IDX 51 77 52 78 57 79 53 80 54 81 56 82 58 83 55 84
REMARK H PARENT 5 12 75 46 49 57
REMARK Flexibility Score: inf
ROOT
ATOM      1  C   UNL A   1      33.948  34.651  29.214  1.00  0.00     0.202 C 
ENDROOT
BRANCH   1   2
ATOM      2  C   UNL A   1      33.787  33.703  28.024  1.00  0.00     0.261 C 
BRANCH   2   3
ATOM      3  O   UNL A   1      33.917  32.327  28.419  1.00  0.00    -0.463 OA
BRANCH   3   4
ATOM      4  C   UNL A   1      35.127  31.765  28.171  1.00  0.00     0.310 C 
ATOM      5  O   UNL A   1      36.136  32.387  27.854  1.00  0.00    -0.252 OA
BRANCH   4   6
ATOM      6  C   UNL A   1      35.142  30.259  28.372  1.00  0.00     0.118 C 
BRANCH   6   7
ATOM      7  C   UNL A   1      36.601  29.793  28.505  1.00  0.00     0.014 C 
ATOM      8  C   UNL A   1      37.257  29.614  27.140  1.00  0.00     0.005 C 
ENDBRANCH   6   7
BRANCH   6   9
ATOM      9  C   UNL A   1      34.328  29.473  27.328  1.00  0.00     0.131 C 
BRANCH   9  10
ATOM     10  N   UNL A   1      33.007  29.045  27.797  1.00  0.00    -0.355 N 
ATOM     11  C   UNL A   1      32.152  28.082  27.326  1.00  0.00     0.228 C 
ATOM     12  H   UNL A   1      32.677  29.533  28.586  1.00  0.00     0.163 HD
ATOM     13  O   UNL A   1      31.145  27.834  27.991  1.00  0.00    -0.274 OA
BRANCH  11  14
ATOM     14  C   UNL A   1      32.461  27.367  26.022  1.00  0.00     0.120 C 
ATOM     15  C   UNL A   1      32.254  25.846  26.115  1.00  0.00     0.093 C 
ATOM     16  C   UNL A   1      31.619  27.795  24.837  1.00  0.00    -0.021 A 
ATOM     17  S   UNL A   1      32.205  25.270  24.381  1.00  0.00    -0.125 SA
ATOM     18  C   UNL A   1      31.539  26.818  23.839  1.00  0.00     0.011 A 
ATOM     19  C   UNL A   1      31.025  29.034  24.629  1.00  0.00     0.006 A 
ATOM     20  C   UNL A   1      30.967  27.091  22.605  1.00  0.00     0.015 A 
ATOM     21  C   UNL A   1      30.459  29.328  23.388  1.00  0.00     0.000 A 
ATOM     22  C   UNL A   1      30.448  28.367  22.373  1.00  0.00     0.001 A 
ENDBRANCH  11  14
ENDBRANCH   9  10
ENDBRANCH   6   9
ENDBRANCH   4   6
ENDBRANCH   3   4
ENDBRANCH   2   3
ENDBRANCH   1   2
BRANCH   1  23
ATOM     23  O   UNL A   1      33.659  34.126  30.506  1.00  0.00    -0.374 OA
BRANCH  23  24
ATOM     24  C   UNL A   1      34.637  34.260  31.536  1.00  0.00     0.202 C 
BRANCH  24  25
ATOM     25  C   UNL A   1      34.406  33.480  32.838  1.00  0.00     0.261 C 
BRANCH  25  26
ATOM     26  O   UNL A   1      35.148  32.245  32.875  1.00  0.00    -0.460 OA
BRANCH  26  27
ATOM     27  C   UNL A   1      36.385  32.335  33.424  1.00  0.00     0.338 C 
ATOM     28  O   UNL A   1      36.669  32.698  34.556  1.00  0.00    -0.246 OA
BRANCH  27  29
ATOM     29  C   UNL A   1      37.372  31.713  32.521  1.00  0.00     0.060 A 
ATOM     30  C   UNL A   1      37.409  32.013  31.160  1.00  0.00     0.016 A 
ATOM     31  C   UNL A   1      38.319  30.843  33.083  1.00  0.00     0.016 A 
ATOM     32  C   UNL A   1      38.417  31.457  30.364  1.00  0.00     0.010 A 
ATOM     33  C   UNL A   1      39.322  30.290  32.287  1.00  0.00     0.010 A 
ATOM     34  C   UNL A   1      39.392  30.608  30.924  1.00  0.00    -0.014 A 
BRANCH  34  35
ATOM     35  C   UNL A   1      40.553  30.160  30.113  1.00  0.00     0.031 A 
ATOM     36  C   UNL A   1      41.697  31.080  29.799  1.00  0.00     0.074 A 
ATOM     37  C   UNL A   1      40.551  28.902  29.628  1.00  0.00     0.049 A 
ATOM     38  N   UNL A   1      42.811  30.820  29.161  1.00  0.00    -0.248 NA
ATOM     39  C   UNL A   1      41.574  32.473  30.252  1.00  0.00     0.031 C 
ATOM     40  C   UNL A   1      39.476  27.927  29.821  1.00  0.00     0.029 A 
ATOM     41  N   UNL A   1      41.481  28.226  28.879  1.00  0.00    -0.354 N 
ATOM     42  C   UNL A   1      43.528  32.009  29.143  1.00  0.00     0.074 A 
ATOM     43  C   UNL A   1      42.704  33.003  29.800  1.00  0.00     0.031 C 
ATOM     44  C   UNL A   1      39.823  26.769  29.238  1.00  0.00     0.029 A 
ATOM     45  C   UNL A   1      41.126  26.928  28.601  1.00  0.00     0.049 A 
ATOM     46  H   UNL A   1      42.323  28.633  28.570  1.00  0.00     0.167 HD
ATOM     47  C   UNL A   1      44.764  32.244  28.639  1.00  0.00     0.037 A 
ATOM     48  C   UNL A   1      41.779  25.975  27.910  1.00  0.00     0.037 A 
ATOM     49  C   UNL A   1      45.576  31.255  27.974  1.00  0.00     0.049 A 
ATOM     50  C   UNL A   1      43.125  26.290  27.314  1.00  0.00     0.074 A 
ATOM     51  C   UNL A   1      46.867  31.385  27.487  1.00  0.00     0.029 A 
ATOM     52  N   UNL A   1      45.171  29.963  27.678  1.00  0.00    -0.354 N 
ATOM     53  N   UNL A   1      43.840  27.384  27.408  1.00  0.00    -0.248 NA
ATOM     54  C   UNL A   1      43.755  25.227  26.517  1.00  0.00     0.031 C 
ATOM     55  C   UNL A   1      47.216  30.196  26.839  1.00  0.00     0.029 A 
ATOM     56  C   UNL A   1      46.169  29.301  26.979  1.00  0.00     0.049 A 
ATOM     57  H   UNL A   1      44.302  29.573  27.926  1.00  0.00     0.167 HD
ATOM     58  C   UNL A   1      45.018  27.126  26.718  1.00  0.00     0.074 A 
ATOM     59  C   UNL A   1      44.930  25.766  26.230  1.00  0.00     0.031 C 
ATOM     60  C   UNL A   1      46.078  27.943  26.503  1.00  0.00     0.037 A 
BRANCH  47  61
ATOM     61  C   UNL A   1      45.325  33.630  28.776  1.00  0.00     0.057 A 
ATOM     62  C   UNL A   1      46.040  34.003  29.924  1.00  0.00     0.134 A 
ATOM     63  C   UNL A   1      45.094  34.621  27.812  1.00  0.00     0.134 A 
ATOM     64  F   UNL A   1      46.287  33.109  30.892  1.00  0.00    -0.206 F 
ATOM     65  C   UNL A   1      46.497  35.309  30.108  1.00  0.00     0.040 A 
ATOM     66  C   UNL A   1      45.570  35.924  27.974  1.00  0.00     0.040 A 
ATOM     67  F   UNL A   1      44.421  34.332  26.688  1.00  0.00    -0.206 F 
ATOM     68  C   UNL A   1      46.267  36.272  29.129  1.00  0.00     0.006 A 
ENDBRANCH  47  61
BRANCH  48  69
ATOM     69  C   UNL A   1      41.189  24.622  27.734  1.00  0.00     0.057 A 
ATOM     70  C   UNL A   1      40.162  24.385  26.814  1.00  0.00     0.134 A 
ATOM     71  C   UNL A   1      41.704  23.517  28.424  1.00  0.00     0.134 A 
ATOM     72  F   UNL A   1      39.619  25.399  26.126  1.00  0.00    -0.206 F 
ATOM     73  C   UNL A   1      39.678  23.098  26.577  1.00  0.00     0.040 A 
ATOM     74  C   UNL A   1      41.253  22.221  28.171  1.00  0.00     0.040 A 
ATOM     75  F   UNL A   1      42.703  23.677  29.305  1.00  0.00    -0.206 F 
ATOM     76  C   UNL A   1      40.236  22.009  27.242  1.00  0.00     0.006 A 
ENDBRANCH  48  69
BRANCH  60  77
ATOM     77  C   UNL A   1      47.245  27.370  25.749  1.00  0.00     0.057 A 
ATOM     78  C   UNL A   1      47.348  27.535  24.362  1.00  0.00     0.134 A 
ATOM     79  C   UNL A   1      48.266  26.654  26.389  1.00  0.00     0.134 A 
ATOM     80  F   UNL A   1      46.402  28.201  23.683  1.00  0.00    -0.206 F 
ATOM     81  C   UNL A   1      48.423  27.016  23.641  1.00  0.00     0.040 A 
ATOM     82  C   UNL A   1      49.365  26.160  25.683  1.00  0.00     0.040 A 
ATOM     83  F   UNL A   1      48.239  26.472  27.718  1.00  0.00    -0.206 F 
ATOM     84  C   UNL A   1      49.442  26.336  24.303  1.00  0.00     0.006 A 
ENDBRANCH  60  77
ENDBRANCH  34  35
ENDBRANCH  27  29
ENDBRANCH  26  27
ENDBRANCH  25  26
ENDBRANCH  24  25
ENDBRANCH  23  24
ENDBRANCH   1  23
TORSDOF 18
ENDMDL
MODEL 3
REMARK VINA RESULT:     -10.3      4.737     10.081
REMARK SMILES CC[C@H](CNC(=O)[C@H]1CSc2ccccc21)C(=O)OCCOCCOC(=O)c1ccc(-c2c3nc(c(-c4c(F)cccc4F)c4ccc([nH]4)c(-c4c(F)cccc4F)c4nc(c(-c5c(F)cccc5F)c5ccc2[nH]5)C=C4)C=C3)cc1
REMARK SMILES IDX 21 1 20 2 19 3 17 4 18 5 3 6 2 7 1 8 4 9 5 10 6 11 7 13 8 14
REMARK SMILES IDX 9 15 16 16 10 17 11 18 15 19 12 20 14 21 13 22 22 23 23 24
REMARK SMILES IDX 24 25 25 26 26 27 27 28 28 29 29 30 81 31 30 32 80 33 31 34
REMARK SMILES IDX 32 35 33 36 74 37 34 38 79 39 73 40 75 41 35 42 78 43 72 44
REMARK SMILES IDX 71 45 36 47 62 48 45 49 61 50 46 51 49 52 60 53 76 54 47 55
REMARK SMILES IDX 48 56 59 58 77 59 50 60 37 61 38 62 43 63 39 64 40 65 42 66
REMARK SMILES IDX 44 67 41 68 63 69 64 70 69 71 65 72 66 73 68 74 70 75 67 76
REMARK SMILES IDX 51 77 52 78 57 79 53 80 54 81 56 82 58 83 55 84
REMARK H PARENT 5 12 75 46 49 57
REMARK Flexibility Score: inf
ROOT
ATOM      1  C   UNL A   1      40.689  20.781  26.297  1.00  0.00     0.202 C 
ENDROOT
BRANCH   1   2
ATOM      2  C   UNL A   1      39.812  21.974  26.684  1.00  0.00     0.261 C 
BRANCH   2   3
ATOM      3  O   UNL A   1      38.501  21.882  26.102  1.00  0.00    -0.463 OA
BRANCH   3   4
ATOM      4  C   UNL A   1      37.825  23.056  26.012  1.00  0.00     0.310 C 
ATOM      5  O   UNL A   1      38.316  24.163  26.204  1.00  0.00    -0.252 OA
BRANCH   4   6
ATOM      6  C   UNL A   1      36.375  22.881  25.594  1.00  0.00     0.118 C 
BRANCH   6   7
ATOM      7  C   UNL A   1      36.332  22.088  24.278  1.00  0.00     0.014 C 
ATOM      8  C   UNL A   1      36.673  22.971  23.082  1.00  0.00     0.005 C 
ENDBRANCH   6   7
BRANCH   6   9
ATOM      9  C   UNL A   1      35.564  24.190  25.560  1.00  0.00     0.131 C 
BRANCH   9  10
ATOM     10  N   UNL A   1      34.140  24.004  25.266  1.00  0.00    -0.355 N 
ATOM     11  C   UNL A   1      33.215  24.857  24.719  1.00  0.00     0.228 C 
ATOM     12  H   UNL A   1      33.788  23.116  25.503  1.00  0.00     0.163 HD
ATOM     13  O   UNL A   1      32.100  24.401  24.459  1.00  0.00    -0.274 OA
BRANCH  11  14
ATOM     14  C   UNL A   1      33.581  26.307  24.460  1.00  0.00     0.120 C 
ATOM     15  C   UNL A   1      33.302  26.740  23.011  1.00  0.00     0.093 C 
ATOM     16  C   UNL A   1      32.842  27.320  25.311  1.00  0.00    -0.021 A 
ATOM     17  S   UNL A   1      33.346  28.568  23.049  1.00  0.00    -0.125 SA
ATOM     18  C   UNL A   1      32.787  28.591  24.729  1.00  0.00     0.011 A 
ATOM     19  C   UNL A   1      32.319  27.131  26.584  1.00  0.00     0.006 A 
ATOM     20  C   UNL A   1      32.314  29.688  25.432  1.00  0.00     0.015 A 
ATOM     21  C   UNL A   1      31.853  28.227  27.309  1.00  0.00     0.000 A 
ATOM     22  C   UNL A   1      31.869  29.505  26.743  1.00  0.00     0.001 A 
ENDBRANCH  11  14
ENDBRANCH   9  10
ENDBRANCH   6   9
ENDBRANCH   4   6
ENDBRANCH   3   4
ENDBRANCH   2   3
ENDBRANCH   1   2
BRANCH   1  23
ATOM     23  O   UNL A   1      42.048  20.810  26.722  1.00  0.00    -0.374 OA
BRANCH  23  24
ATOM     24  C   UNL A   1      43.075  20.606  25.753  1.00  0.00     0.202 C 
BRANCH  24  25
ATOM     25  C   UNL A   1      43.771  21.852  25.187  1.00  0.00     0.261 C 
BRANCH  25  26
ATOM     26  O   UNL A   1      42.970  23.042  25.336  1.00  0.00    -0.460 OA
BRANCH  26  27
ATOM     27  C   UNL A   1      43.670  24.203  25.384  1.00  0.00     0.338 C 
ATOM     28  O   UNL A   1      44.566  24.559  24.634  1.00  0.00    -0.246 OA
BRANCH  27  29
ATOM     29  C   UNL A   1      43.047  25.114  26.364  1.00  0.00     0.060 A 
ATOM     30  C   UNL A   1      41.960  24.719  27.142  1.00  0.00     0.016 A 
ATOM     31  C   UNL A   1      43.617  26.385  26.532  1.00  0.00     0.016 A 
ATOM     32  C   UNL A   1      41.460  25.593  28.112  1.00  0.00     0.010 A 
ATOM     33  C   UNL A   1      43.116  27.255  27.501  1.00  0.00     0.010 A 
ATOM     34  C   UNL A   1      42.045  26.859  28.313  1.00  0.00    -0.014 A 
BRANCH  34  35
ATOM     35  C   UNL A   1      41.621  27.710  29.454  1.00  0.00     0.031 A 
ATOM     36  C   UNL A   1      40.440  28.631  29.354  1.00  0.00     0.074 A 
ATOM     37  C   UNL A   1      42.343  27.666  30.592  1.00  0.00     0.049 A 
ATOM     38  N   UNL A   1      39.905  29.389  30.280  1.00  0.00    -0.248 NA
ATOM     39  C   UNL A   1      39.777  28.723  28.045  1.00  0.00     0.031 C 
ATOM     40  C   UNL A   1      43.541  26.850  30.799  1.00  0.00     0.029 A 
ATOM     41  N   UNL A   1      42.175  28.317  31.788  1.00  0.00    -0.354 N 
ATOM     42  C   UNL A   1      38.837  30.038  29.674  1.00  0.00     0.074 A 
ATOM     43  C   UNL A   1      38.826  29.616  28.288  1.00  0.00     0.031 C 
ATOM     44  C   UNL A   1      43.977  27.020  32.056  1.00  0.00     0.029 A 
ATOM     45  C   UNL A   1      43.116  27.983  32.733  1.00  0.00     0.049 A 
ATOM     46  H   UNL A   1      41.450  28.962  31.954  1.00  0.00     0.167 HD
ATOM     47  C   UNL A   1      37.943  30.893  30.227  1.00  0.00     0.037 A 
ATOM     48  C   UNL A   1      43.264  28.406  34.002  1.00  0.00     0.037 A 
ATOM     49  C   UNL A   1      37.967  31.321  31.604  1.00  0.00     0.049 A 
ATOM     50  C   UNL A   1      42.286  29.401  34.566  1.00  0.00     0.074 A 
ATOM     51  C   UNL A   1      37.065  32.136  32.270  1.00  0.00     0.029 A 
ATOM     52  N   UNL A   1      38.953  30.992  32.522  1.00  0.00    -0.354 N 
ATOM     53  N   UNL A   1      41.213  29.915  34.015  1.00  0.00    -0.248 NA
ATOM     54  C   UNL A   1      42.541  29.872  35.935  1.00  0.00     0.031 C 
ATOM     55  C   UNL A   1      37.541  32.353  33.566  1.00  0.00     0.029 A 
ATOM     56  C   UNL A   1      38.704  31.621  33.732  1.00  0.00     0.049 A 
ATOM     57  H   UNL A   1      39.718  30.399  32.340  1.00  0.00     0.167 HD
ATOM     58  C   UNL A   1      40.647  30.735  34.983  1.00  0.00     0.074 A 
ATOM     59  C   UNL A   1      41.481  30.633  36.161  1.00  0.00     0.031 C 
ATOM     60  C   UNL A   1      39.535  31.508  34.904  1.00  0.00     0.037 A 
BRANCH  47  61
ATOM     61  C   UNL A   1      36.858  31.439  29.345  1.00  0.00     0.057 A 
ATOM     62  C   UNL A   1      35.769  30.638  28.972  1.00  0.00     0.134 A 
ATOM     63  C   UNL A   1      36.925  32.728  28.801  1.00  0.00     0.134 A 
ATOM     64  F   UNL A   1      35.648  29.389  29.445  1.00  0.00    -0.206 F 
ATOM     65  C   UNL A   1      34.793  31.098  28.086  1.00  0.00     0.040 A 
ATOM     66  C   UNL A   1      35.940  33.209  27.935  1.00  0.00     0.040 A 
ATOM     67  F   UNL A   1      37.937  33.549  29.120  1.00  0.00    -0.206 F 
ATOM     68  C   UNL A   1      34.874  32.389  27.569  1.00  0.00     0.006 A 
ENDBRANCH  47  61
BRANCH  48  69
ATOM     69  C   UNL A   1      44.375  27.900  34.850  1.00  0.00     0.057 A 
ATOM     70  C   UNL A   1      45.536  28.652  35.061  1.00  0.00     0.134 A 
ATOM     71  C   UNL A   1      44.261  26.685  35.538  1.00  0.00     0.134 A 
ATOM     72  F   UNL A   1      45.713  29.820  34.428  1.00  0.00    -0.206 F 
ATOM     73  C   UNL A   1      46.535  28.222  35.936  1.00  0.00     0.040 A 
ATOM     74  C   UNL A   1      45.236  26.260  36.441  1.00  0.00     0.040 A 
ATOM     75  F   UNL A   1      43.163  25.928  35.391  1.00  0.00    -0.206 F 
ATOM     76  C   UNL A   1      46.378  27.032  36.643  1.00  0.00     0.006 A 
ENDBRANCH  48  69
BRANCH  60  77
ATOM     77  C   UNL A   1      39.136  32.263  36.141  1.00  0.00     0.057 A 
ATOM     78  C   UNL A   1      39.621  33.555  36.375  1.00  0.00     0.134 A 
ATOM     79  C   UNL A   1      38.272  31.716  37.101  1.00  0.00     0.134 A 
ATOM     80  F   UNL A   1      40.458  34.138  35.503  1.00  0.00    -0.206 F 
ATOM     81  C   UNL A   1      39.261  34.278  37.513  1.00  0.00     0.040 A 
ATOM     82  C   UNL A   1      37.877  32.442  38.225  1.00  0.00     0.040 A 
ATOM     83  F   UNL A   1      37.757  30.489  36.932  1.00  0.00    -0.206 F 
ATOM     84  C   UNL A   1      38.377  33.725  38.437  1.00  0.00     0.006 A 
ENDBRANCH  60  77
ENDBRANCH  34  35
ENDBRANCH  27  29
ENDBRANCH  26  27
ENDBRANCH  25  26
ENDBRANCH  24  25
ENDBRANCH  23  24
ENDBRANCH   1  23
TORSDOF 18
ENDMDL
