MODEL 1
REMARK VINA RESULT:     -10.2      0.000      0.000
REMARK SMILES O=C(OCCOCCOC(=O)[C@@H]1C[C@H]1C(=O)N[C@@H]1CONC1=O)c1ccc(-c2c3nc(c(-c4c(F)cccc4F)c4ccc([nH]4)c(-c4c(F)cccc4F)c4nc(c(-c5c(F)cccc5F)c5ccc2[nH]5)C=C4)C=C3)cc1
REMARK SMILES IDX 6 1 5 2 4 3 3 4 2 5 1 6 24 7 25 8 77 9 26 10 76 11 27 12
REMARK SMILES IDX 28 13 29 14 70 15 30 16 75 17 69 18 71 19 31 20 74 21 68 22
REMARK SMILES IDX 67 23 32 25 58 26 41 27 57 28 42 29 45 30 56 31 72 32 43 33
REMARK SMILES IDX 44 34 55 36 73 37 46 38 33 39 34 40 39 41 35 42 36 43 38 44
REMARK SMILES IDX 40 45 37 46 59 47 60 48 65 49 61 50 62 51 64 52 66 53 63 54
REMARK SMILES IDX 47 55 48 56 53 57 49 58 50 59 52 60 54 61 51 62 7 63 8 64
REMARK SMILES IDX 9 65 10 66 11 67 12 68 13 69 14 70 15 71 16 72 17 73 18 75
REMARK SMILES IDX 19 76 22 77 20 78 21 79 23 80
REMARK H PARENT 71 24 45 35 17 74 21 81
REMARK Flexibility Score: inf
ROOT
ATOM      1  O   UNL A   1      32.783  30.519  27.338  1.00  0.00    -0.374 OA
ENDROOT
BRANCH   1   2
ATOM      2  C   UNL A   1      31.822  31.502  26.943  1.00  0.00     0.202 C 
BRANCH   2   3
ATOM      3  C   UNL A   1      32.362  32.905  26.646  1.00  0.00     0.261 C 
BRANCH   3   4
ATOM      4  O   UNL A   1      32.051  33.806  27.721  1.00  0.00    -0.460 OA
BRANCH   4   5
ATOM      5  C   UNL A   1      32.907  34.476  28.523  1.00  0.00     0.338 C 
ATOM      6  O   UNL A   1      32.647  35.638  28.828  1.00  0.00    -0.246 OA
BRANCH   5   7
ATOM      7  C   UNL A   1      34.152  33.871  29.083  1.00  0.00     0.060 A 
ATOM      8  C   UNL A   1      34.196  32.788  29.963  1.00  0.00     0.016 A 
ATOM      9  C   UNL A   1      35.367  34.387  28.608  1.00  0.00     0.016 A 
ATOM     10  C   UNL A   1      35.388  32.239  30.391  1.00  0.00     0.010 A 
ATOM     11  C   UNL A   1      36.580  33.835  29.020  1.00  0.00     0.010 A 
ATOM     12  C   UNL A   1      36.580  32.767  29.922  1.00  0.00    -0.014 A 
BRANCH  12  13
ATOM     13  C   UNL A   1      37.817  32.274  30.526  1.00  0.00     0.031 A 
ATOM     14  C   UNL A   1      38.504  31.139  29.850  1.00  0.00     0.074 A 
ATOM     15  C   UNL A   1      38.334  32.912  31.587  1.00  0.00     0.049 A 
ATOM     16  N   UNL A   1      39.520  30.431  30.249  1.00  0.00    -0.248 NA
ATOM     17  C   UNL A   1      37.968  30.750  28.533  1.00  0.00     0.031 C 
ATOM     18  C   UNL A   1      37.785  34.126  32.193  1.00  0.00     0.029 A 
ATOM     19  N   UNL A   1      39.437  32.625  32.339  1.00  0.00    -0.354 N 
ATOM     20  C   UNL A   1      39.715  29.480  29.259  1.00  0.00     0.074 A 
ATOM     21  C   UNL A   1      38.720  29.704  28.237  1.00  0.00     0.031 C 
ATOM     22  C   UNL A   1      38.544  34.468  33.245  1.00  0.00     0.029 A 
ATOM     23  C   UNL A   1      39.577  33.454  33.423  1.00  0.00     0.049 A 
ATOM     24  H   UNL A   1      40.066  31.899  32.125  1.00  0.00     0.167 HD
ATOM     25  C   UNL A   1      40.639  28.495  29.238  1.00  0.00     0.037 A 
ATOM     26  C   UNL A   1      40.414  33.350  34.470  1.00  0.00     0.037 A 
ATOM     27  C   UNL A   1      41.594  28.313  30.296  1.00  0.00     0.049 A 
ATOM     28  C   UNL A   1      41.369  32.189  34.483  1.00  0.00     0.074 A 
ATOM     29  C   UNL A   1      42.555  27.333  30.441  1.00  0.00     0.029 A 
ATOM     30  N   UNL A   1      41.690  29.145  31.408  1.00  0.00    -0.354 N 
ATOM     31  N   UNL A   1      41.518  31.238  33.589  1.00  0.00    -0.248 NA
ATOM     32  C   UNL A   1      42.259  32.071  35.641  1.00  0.00     0.031 C 
ATOM     33  C   UNL A   1      43.193  27.540  31.670  1.00  0.00     0.029 A 
ATOM     34  C   UNL A   1      42.679  28.689  32.257  1.00  0.00     0.049 A 
ATOM     35  H   UNL A   1      41.135  29.943  31.565  1.00  0.00     0.167 HD
ATOM     36  C   UNL A   1      42.538  30.424  34.057  1.00  0.00     0.074 A 
ATOM     37  C   UNL A   1      42.967  30.995  35.322  1.00  0.00     0.031 C 
ATOM     38  C   UNL A   1      43.077  29.311  33.499  1.00  0.00     0.037 A 
BRANCH  25  39
ATOM     39  C   UNL A   1      40.556  27.516  28.104  1.00  0.00     0.057 A 
ATOM     40  C   UNL A   1      39.842  26.313  28.195  1.00  0.00     0.134 A 
ATOM     41  C   UNL A   1      41.287  27.741  26.930  1.00  0.00     0.134 A 
ATOM     42  F   UNL A   1      39.148  26.015  29.304  1.00  0.00    -0.206 F 
ATOM     43  C   UNL A   1      39.899  25.351  27.183  1.00  0.00     0.040 A 
ATOM     44  C   UNL A   1      41.325  26.803  25.898  1.00  0.00     0.040 A 
ATOM     45  F   UNL A   1      42.001  28.867  26.777  1.00  0.00    -0.206 F 
ATOM     46  C   UNL A   1      40.643  25.596  26.030  1.00  0.00     0.006 A 
ENDBRANCH  25  39
BRANCH  26  47
ATOM     47  C   UNL A   1      40.324  34.326  35.584  1.00  0.00     0.057 A 
ATOM     48  C   UNL A   1      40.988  35.555  35.533  1.00  0.00     0.134 A 
ATOM     49  C   UNL A   1      39.522  34.075  36.707  1.00  0.00     0.134 A 
ATOM     50  F   UNL A   1      41.779  35.852  34.492  1.00  0.00    -0.206 F 
ATOM     51  C   UNL A   1      40.859  36.498  36.557  1.00  0.00     0.040 A 
ATOM     52  C   UNL A   1      39.365  35.017  37.724  1.00  0.00     0.040 A 
ATOM     53  F   UNL A   1      38.850  32.918  36.814  1.00  0.00    -0.206 F 
ATOM     54  C   UNL A   1      40.038  36.234  37.652  1.00  0.00     0.006 A 
ENDBRANCH  26  47
BRANCH  38  55
ATOM     55  C   UNL A   1      44.229  28.677  34.217  1.00  0.00     0.057 A 
ATOM     56  C   UNL A   1      45.549  29.086  34.006  1.00  0.00     0.134 A 
ATOM     57  C   UNL A   1      43.989  27.720  35.210  1.00  0.00     0.134 A 
ATOM     58  F   UNL A   1      45.841  29.991  33.059  1.00  0.00    -0.206 F 
ATOM     59  C   UNL A   1      46.597  28.561  34.764  1.00  0.00     0.040 A 
ATOM     60  C   UNL A   1      45.023  27.210  35.993  1.00  0.00     0.040 A 
ATOM     61  F   UNL A   1      42.740  27.297  35.463  1.00  0.00    -0.206 F 
ATOM     62  C   UNL A   1      46.332  27.632  35.769  1.00  0.00     0.006 A 
ENDBRANCH  38  55
ENDBRANCH  12  13
ENDBRANCH   5   7
ENDBRANCH   4   5
ENDBRANCH   3   4
ENDBRANCH   2   3
ENDBRANCH   1   2
BRANCH   1  63
ATOM     63  C   UNL A   1      32.522  29.182  26.886  1.00  0.00     0.202 C 
BRANCH  63  64
ATOM     64  C   UNL A   1      33.553  28.776  25.832  1.00  0.00     0.261 C 
BRANCH  64  65
ATOM     65  O   UNL A   1      33.137  29.320  24.573  1.00  0.00    -0.463 OA
BRANCH  65  66
ATOM     66  C   UNL A   1      33.517  28.600  23.490  1.00  0.00     0.309 C 
ATOM     67  O   UNL A   1      34.415  28.867  22.701  1.00  0.00    -0.252 OA
BRANCH  66  68
ATOM     68  C   UNL A   1      32.804  27.313  23.479  1.00  0.00     0.112 C 
ATOM     69  C   UNL A   1      32.931  26.306  22.375  1.00  0.00     0.030 C 
ATOM     70  C   UNL A   1      31.647  27.067  22.546  1.00  0.00     0.093 C 
BRANCH  70  71
ATOM     71  C   UNL A   1      30.354  26.711  23.187  1.00  0.00     0.224 C 
ATOM     72  O   UNL A   1      30.250  25.577  23.654  1.00  0.00    -0.275 OA
ATOM     73  N   UNL A   1      29.252  27.515  23.277  1.00  0.00    -0.342 N 
ATOM     74  H   UNL A   1      28.493  27.086  23.736  1.00  0.00     0.164 HD
BRANCH  73  75
ATOM     75  C   UNL A   1      28.966  28.870  22.838  1.00  0.00     0.202 C 
ATOM     76  C   UNL A   1      29.741  29.945  23.589  1.00  0.00     0.228 C 
ATOM     77  C   UNL A   1      27.582  29.400  23.153  1.00  0.00     0.268 C 
ATOM     78  O   UNL A   1      29.036  31.169  23.312  1.00  0.00    -0.271 OA
ATOM     79  N   UNL A   1      27.680  30.770  23.220  1.00  0.00    -0.233 N 
ATOM     80  O   UNL A   1      26.548  28.767  23.276  1.00  0.00    -0.270 OA
ATOM     81  H   UNL A   1      26.914  31.388  23.206  1.00  0.00     0.199 HD
ENDBRANCH  73  75
ENDBRANCH  70  71
ENDBRANCH  66  68
ENDBRANCH  65  66
ENDBRANCH  64  65
ENDBRANCH  63  64
ENDBRANCH   1  63
TORSDOF 16
ENDMDL
MODEL 2
REMARK VINA RESULT:     -10.2      5.971     10.539
REMARK SMILES O=C(OCCOCCOC(=O)[C@@H]1C[C@H]1C(=O)N[C@@H]1CONC1=O)c1ccc(-c2c3nc(c(-c4c(F)cccc4F)c4ccc([nH]4)c(-c4c(F)cccc4F)c4nc(c(-c5c(F)cccc5F)c5ccc2[nH]5)C=C4)C=C3)cc1
REMARK SMILES IDX 6 1 5 2 4 3 3 4 2 5 1 6 24 7 25 8 77 9 26 10 76 11 27 12
REMARK SMILES IDX 28 13 29 14 70 15 30 16 75 17 69 18 71 19 31 20 74 21 68 22
REMARK SMILES IDX 67 23 32 25 58 26 41 27 57 28 42 29 45 30 56 31 72 32 43 33
REMARK SMILES IDX 44 34 55 36 73 37 46 38 33 39 34 40 39 41 35 42 36 43 38 44
REMARK SMILES IDX 40 45 37 46 59 47 60 48 65 49 61 50 62 51 64 52 66 53 63 54
REMARK SMILES IDX 47 55 48 56 53 57 49 58 50 59 52 60 54 61 51 62 7 63 8 64
REMARK SMILES IDX 9 65 10 66 11 67 12 68 13 69 14 70 15 71 16 72 17 73 18 75
REMARK SMILES IDX 19 76 22 77 20 78 21 79 23 80
REMARK H PARENT 71 24 45 35 17 74 21 81
REMARK Flexibility Score: inf
ROOT
ATOM      1  O   UNL A   1      36.543  20.608  25.070  1.00  0.00    -0.374 OA
ENDROOT
BRANCH   1   2
ATOM      2  C   UNL A   1      37.741  19.832  24.980  1.00  0.00     0.202 C 
BRANCH   2   3
ATOM      3  C   UNL A   1      38.962  20.367  25.735  1.00  0.00     0.261 C 
BRANCH   3   4
ATOM      4  O   UNL A   1      40.006  19.382  25.773  1.00  0.00    -0.460 OA
BRANCH   4   5
ATOM      5  C   UNL A   1      41.328  19.573  25.981  1.00  0.00     0.338 C 
ATOM      6  O   UNL A   1      42.104  18.650  25.743  1.00  0.00    -0.246 OA
BRANCH   5   7
ATOM      7  C   UNL A   1      41.905  20.862  26.465  1.00  0.00     0.060 A 
ATOM      8  C   UNL A   1      42.125  21.194  27.804  1.00  0.00     0.016 A 
ATOM      9  C   UNL A   1      42.336  21.764  25.481  1.00  0.00     0.016 A 
ATOM     10  C   UNL A   1      42.724  22.381  28.175  1.00  0.00     0.010 A 
ATOM     11  C   UNL A   1      42.955  22.961  25.839  1.00  0.00     0.010 A 
ATOM     12  C   UNL A   1      43.134  23.266  27.192  1.00  0.00    -0.014 A 
BRANCH  12  13
ATOM     13  C   UNL A   1      43.605  24.581  27.626  1.00  0.00     0.031 A 
ATOM     14  C   UNL A   1      42.580  25.553  28.097  1.00  0.00     0.074 A 
ATOM     15  C   UNL A   1      44.923  24.827  27.679  1.00  0.00     0.049 A 
ATOM     16  N   UNL A   1      42.711  26.813  28.394  1.00  0.00    -0.248 NA
ATOM     17  C   UNL A   1      41.213  25.025  28.258  1.00  0.00     0.031 C 
ATOM     18  C   UNL A   1      45.976  23.856  27.380  1.00  0.00     0.029 A 
ATOM     19  N   UNL A   1      45.596  25.969  28.006  1.00  0.00    -0.354 N 
ATOM     20  C   UNL A   1      41.435  27.244  28.728  1.00  0.00     0.074 A 
ATOM     21  C   UNL A   1      40.547  26.113  28.605  1.00  0.00     0.031 C 
ATOM     22  C   UNL A   1      47.170  24.454  27.513  1.00  0.00     0.029 A 
ATOM     23  C   UNL A   1      46.952  25.861  27.831  1.00  0.00     0.049 A 
ATOM     24  H   UNL A   1      45.154  26.785  28.333  1.00  0.00     0.167 HD
ATOM     25  C   UNL A   1      41.057  28.492  29.082  1.00  0.00     0.037 A 
ATOM     26  C   UNL A   1      47.892  26.821  27.863  1.00  0.00     0.037 A 
ATOM     27  C   UNL A   1      41.988  29.582  29.170  1.00  0.00     0.049 A 
ATOM     28  C   UNL A   1      47.441  28.225  28.157  1.00  0.00     0.074 A 
ATOM     29  C   UNL A   1      41.749  30.909  29.463  1.00  0.00     0.029 A 
ATOM     30  N   UNL A   1      43.357  29.456  28.947  1.00  0.00    -0.354 N 
ATOM     31  N   UNL A   1      46.228  28.663  28.405  1.00  0.00    -0.248 NA
ATOM     32  C   UNL A   1      48.471  29.267  28.165  1.00  0.00     0.031 C 
ATOM     33  C   UNL A   1      42.964  31.595  29.360  1.00  0.00     0.029 A 
ATOM     34  C   UNL A   1      43.973  30.685  29.073  1.00  0.00     0.049 A 
ATOM     35  H   UNL A   1      43.818  28.612  28.732  1.00  0.00     0.167 HD
ATOM     36  C   UNL A   1      46.348  30.026  28.629  1.00  0.00     0.074 A 
ATOM     37  C   UNL A   1      47.758  30.341  28.483  1.00  0.00     0.031 C 
ATOM     38  C   UNL A   1      45.389  30.937  28.933  1.00  0.00     0.037 A 
BRANCH  25  39
ATOM     39  C   UNL A   1      39.587  28.723  29.272  1.00  0.00     0.057 A 
ATOM     40  C   UNL A   1      38.754  29.180  28.242  1.00  0.00     0.134 A 
ATOM     41  C   UNL A   1      39.014  28.573  30.542  1.00  0.00     0.134 A 
ATOM     42  F   UNL A   1      39.243  29.380  27.008  1.00  0.00    -0.206 F 
ATOM     43  C   UNL A   1      37.421  29.528  28.479  1.00  0.00     0.040 A 
ATOM     44  C   UNL A   1      37.676  28.885  30.784  1.00  0.00     0.040 A 
ATOM     45  F   UNL A   1      39.753  28.147  31.578  1.00  0.00    -0.206 F 
ATOM     46  C   UNL A   1      36.879  29.380  29.754  1.00  0.00     0.006 A 
ENDBRANCH  25  39
BRANCH  26  47
ATOM     47  C   UNL A   1      49.302  26.481  27.552  1.00  0.00     0.057 A 
ATOM     48  C   UNL A   1      49.773  26.446  26.236  1.00  0.00     0.134 A 
ATOM     49  C   UNL A   1      50.233  26.235  28.573  1.00  0.00     0.134 A 
ATOM     50  F   UNL A   1      48.932  26.660  25.214  1.00  0.00    -0.206 F 
ATOM     51  C   UNL A   1      51.113  26.180  25.945  1.00  0.00     0.040 A 
ATOM     52  C   UNL A   1      51.579  25.993  28.298  1.00  0.00     0.040 A 
ATOM     53  F   UNL A   1      49.849  26.262  29.859  1.00  0.00    -0.206 F 
ATOM     54  C   UNL A   1      52.023  25.961  26.979  1.00  0.00     0.006 A 
ENDBRANCH  26  47
BRANCH  38  55
ATOM     55  C   UNL A   1      45.839  32.342  29.189  1.00  0.00     0.057 A 
ATOM     56  C   UNL A   1      46.272  32.764  30.450  1.00  0.00     0.134 A 
ATOM     57  C   UNL A   1      45.939  33.246  28.124  1.00  0.00     0.134 A 
ATOM     58  F   UNL A   1      46.189  31.945  31.509  1.00  0.00    -0.206 F 
ATOM     59  C   UNL A   1      46.792  34.045  30.643  1.00  0.00     0.040 A 
ATOM     60  C   UNL A   1      46.483  34.517  28.299  1.00  0.00     0.040 A 
ATOM     61  F   UNL A   1      45.548  32.892  26.890  1.00  0.00    -0.206 F 
ATOM     62  C   UNL A   1      46.911  34.919  29.563  1.00  0.00     0.006 A 
ENDBRANCH  38  55
ENDBRANCH  12  13
ENDBRANCH   5   7
ENDBRANCH   4   5
ENDBRANCH   3   4
ENDBRANCH   2   3
ENDBRANCH   1   2
BRANCH   1  63
ATOM     63  C   UNL A   1      36.691  21.906  25.663  1.00  0.00     0.202 C 
BRANCH  63  64
ATOM     64  C   UNL A   1      35.316  22.533  25.900  1.00  0.00     0.261 C 
BRANCH  64  65
ATOM     65  O   UNL A   1      34.680  21.815  26.965  1.00  0.00    -0.463 OA
BRANCH  65  66
ATOM     66  C   UNL A   1      33.415  22.211  27.240  1.00  0.00     0.309 C 
ATOM     67  O   UNL A   1      32.888  22.295  28.343  1.00  0.00    -0.252 OA
BRANCH  66  68
ATOM     68  C   UNL A   1      32.779  22.718  26.014  1.00  0.00     0.112 C 
ATOM     69  C   UNL A   1      31.342  23.141  25.940  1.00  0.00     0.030 C 
ATOM     70  C   UNL A   1      31.787  21.885  25.244  1.00  0.00     0.093 C 
BRANCH  70  71
ATOM     71  C   UNL A   1      32.132  21.598  23.827  1.00  0.00     0.224 C 
ATOM     72  O   UNL A   1      32.142  22.549  23.047  1.00  0.00    -0.275 OA
ATOM     73  N   UNL A   1      32.407  20.368  23.300  1.00  0.00    -0.342 N 
ATOM     74  H   UNL A   1      32.606  20.393  22.335  1.00  0.00     0.164 HD
BRANCH  73  75
ATOM     75  C   UNL A   1      32.468  19.030  23.863  1.00  0.00     0.202 C 
ATOM     76  C   UNL A   1      33.768  18.719  24.593  1.00  0.00     0.228 C 
ATOM     77  C   UNL A   1      32.546  17.887  22.872  1.00  0.00     0.268 C 
ATOM     78  O   UNL A   1      33.798  17.285  24.700  1.00  0.00    -0.271 OA
ATOM     79  N   UNL A   1      33.167  16.840  23.513  1.00  0.00    -0.233 N 
ATOM     80  O   UNL A   1      32.107  17.848  21.737  1.00  0.00    -0.270 OA
ATOM     81  H   UNL A   1      33.172  15.909  23.191  1.00  0.00     0.199 HD
ENDBRANCH  73  75
ENDBRANCH  70  71
ENDBRANCH  66  68
ENDBRANCH  65  66
ENDBRANCH  64  65
ENDBRANCH  63  64
ENDBRANCH   1  63
TORSDOF 16
ENDMDL
MODEL 3
REMARK VINA RESULT:     -10.1      5.564     10.636
REMARK SMILES O=C(OCCOCCOC(=O)[C@@H]1C[C@H]1C(=O)N[C@@H]1CONC1=O)c1ccc(-c2c3nc(c(-c4c(F)cccc4F)c4ccc([nH]4)c(-c4c(F)cccc4F)c4nc(c(-c5c(F)cccc5F)c5ccc2[nH]5)C=C4)C=C3)cc1
REMARK SMILES IDX 6 1 5 2 4 3 3 4 2 5 1 6 24 7 25 8 77 9 26 10 76 11 27 12
REMARK SMILES IDX 28 13 29 14 70 15 30 16 75 17 69 18 71 19 31 20 74 21 68 22
REMARK SMILES IDX 67 23 32 25 58 26 41 27 57 28 42 29 45 30 56 31 72 32 43 33
REMARK SMILES IDX 44 34 55 36 73 37 46 38 33 39 34 40 39 41 35 42 36 43 38 44
REMARK SMILES IDX 40 45 37 46 59 47 60 48 65 49 61 50 62 51 64 52 66 53 63 54
REMARK SMILES IDX 47 55 48 56 53 57 49 58 50 59 52 60 54 61 51 62 7 63 8 64
REMARK SMILES IDX 9 65 10 66 11 67 12 68 13 69 14 70 15 71 16 72 17 73 18 75
REMARK SMILES IDX 19 76 22 77 20 78 21 79 23 80
REMARK H PARENT 71 24 45 35 17 74 21 81
REMARK Flexibility Score: inf
ROOT
ATOM      1  O   UNL A   1      42.648  22.515  28.218  1.00  0.00    -0.374 OA
ENDROOT
BRANCH   1   2
ATOM      2  C   UNL A   1      41.296  22.643  27.770  1.00  0.00     0.202 C 
BRANCH   2   3
ATOM      3  C   UNL A   1      41.094  22.984  26.290  1.00  0.00     0.261 C 
BRANCH   3   4
ATOM      4  O   UNL A   1      40.301  24.173  26.148  1.00  0.00    -0.460 OA
BRANCH   4   5
ATOM      5  C   UNL A   1      40.703  25.460  26.228  1.00  0.00     0.338 C 
ATOM      6  O   UNL A   1      41.207  25.986  25.238  1.00  0.00    -0.246 OA
BRANCH   5   7
ATOM      7  C   UNL A   1      40.547  26.294  27.457  1.00  0.00     0.060 A 
ATOM      8  C   UNL A   1      39.655  26.032  28.500  1.00  0.00     0.016 A 
ATOM      9  C   UNL A   1      41.434  27.371  27.599  1.00  0.00     0.016 A 
ATOM     10  C   UNL A   1      39.610  26.813  29.638  1.00  0.00     0.010 A 
ATOM     11  C   UNL A   1      41.411  28.160  28.748  1.00  0.00     0.010 A 
ATOM     12  C   UNL A   1      40.486  27.879  29.759  1.00  0.00    -0.014 A 
BRANCH  12  13
ATOM     13  C   UNL A   1      40.293  28.781  30.894  1.00  0.00     0.031 A 
ATOM     14  C   UNL A   1      39.231  29.817  30.772  1.00  0.00     0.074 A 
ATOM     15  C   UNL A   1      40.994  28.585  32.021  1.00  0.00     0.049 A 
ATOM     16  N   UNL A   1      38.955  30.816  31.559  1.00  0.00    -0.248 NA
ATOM     17  C   UNL A   1      38.352  29.708  29.593  1.00  0.00     0.031 C 
ATOM     18  C   UNL A   1      41.934  27.486  32.250  1.00  0.00     0.029 A 
ATOM     19  N   UNL A   1      41.021  29.303  33.181  1.00  0.00    -0.354 N 
ATOM     20  C   UNL A   1      37.906  31.485  30.947  1.00  0.00     0.074 A 
ATOM     21  C   UNL A   1      37.588  30.778  29.730  1.00  0.00     0.031 C 
ATOM     22  C   UNL A   1      42.467  27.619  33.474  1.00  0.00     0.029 A 
ATOM     23  C   UNL A   1      41.960  28.849  34.072  1.00  0.00     0.049 A 
ATOM     24  H   UNL A   1      40.427  30.067  33.361  1.00  0.00     0.167 HD
ATOM     25  C   UNL A   1      37.291  32.610  31.373  1.00  0.00     0.037 A 
ATOM     26  C   UNL A   1      42.397  29.416  35.210  1.00  0.00     0.037 A 
ATOM     27  C   UNL A   1      37.665  33.279  32.588  1.00  0.00     0.049 A 
ATOM     28  C   UNL A   1      41.773  30.722  35.619  1.00  0.00     0.074 A 
ATOM     29  C   UNL A   1      37.172  34.452  33.123  1.00  0.00     0.029 A 
ATOM     30  N   UNL A   1      38.652  32.820  33.456  1.00  0.00    -0.354 N 
ATOM     31  N   UNL A   1      40.829  31.406  35.014  1.00  0.00    -0.248 NA
ATOM     32  C   UNL A   1      42.274  31.343  36.848  1.00  0.00     0.031 C 
ATOM     33  C   UNL A   1      37.901  34.731  34.284  1.00  0.00     0.029 A 
ATOM     34  C   UNL A   1      38.800  33.697  34.512  1.00  0.00     0.049 A 
ATOM     35  H   UNL A   1      39.168  31.989  33.335  1.00  0.00     0.167 HD
ATOM     36  C   UNL A   1      40.598  32.523  35.801  1.00  0.00     0.074 A 
ATOM     37  C   UNL A   1      41.509  32.424  36.928  1.00  0.00     0.031 C 
ATOM     38  C   UNL A   1      39.714  33.537  35.620  1.00  0.00     0.037 A 
BRANCH  25  39
ATOM     39  C   UNL A   1      36.261  33.204  30.457  1.00  0.00     0.057 A 
ATOM     40  C   UNL A   1      34.884  33.031  30.654  1.00  0.00     0.134 A 
ATOM     41  C   UNL A   1      36.664  33.887  29.302  1.00  0.00     0.134 A 
ATOM     42  F   UNL A   1      34.428  32.357  31.720  1.00  0.00    -0.206 F 
ATOM     43  C   UNL A   1      33.951  33.468  29.710  1.00  0.00     0.040 A 
ATOM     44  C   UNL A   1      35.739  34.357  28.369  1.00  0.00     0.040 A 
ATOM     45  F   UNL A   1      37.966  34.083  29.044  1.00  0.00    -0.206 F 
ATOM     46  C   UNL A   1      34.379  34.133  28.564  1.00  0.00     0.006 A 
ENDBRANCH  25  39
BRANCH  26  47
ATOM     47  C   UNL A   1      43.498  28.780  35.974  1.00  0.00     0.057 A 
ATOM     48  C   UNL A   1      43.267  27.697  36.826  1.00  0.00     0.134 A 
ATOM     49  C   UNL A   1      44.827  29.207  35.824  1.00  0.00     0.134 A 
ATOM     50  F   UNL A   1      42.019  27.247  37.021  1.00  0.00    -0.206 F 
ATOM     51  C   UNL A   1      44.312  27.062  37.503  1.00  0.00     0.040 A 
ATOM     52  C   UNL A   1      45.882  28.567  36.475  1.00  0.00     0.040 A 
ATOM     53  F   UNL A   1      45.119  30.236  35.015  1.00  0.00    -0.206 F 
ATOM     54  C   UNL A   1      45.625  27.492  37.321  1.00  0.00     0.006 A 
ENDBRANCH  26  47
BRANCH  38  55
ATOM     55  C   UNL A   1      39.646  34.583  36.690  1.00  0.00     0.057 A 
ATOM     56  C   UNL A   1      38.916  34.391  37.867  1.00  0.00     0.134 A 
ATOM     57  C   UNL A   1      40.415  35.748  36.576  1.00  0.00     0.134 A 
ATOM     58  F   UNL A   1      38.151  33.301  38.027  1.00  0.00    -0.206 F 
ATOM     59  C   UNL A   1      38.953  35.329  38.900  1.00  0.00     0.040 A 
ATOM     60  C   UNL A   1      40.483  36.677  37.612  1.00  0.00     0.040 A 
ATOM     61  F   UNL A   1      41.144  35.979  35.473  1.00  0.00    -0.206 F 
ATOM     62  C   UNL A   1      39.750  36.468  38.779  1.00  0.00     0.006 A 
ENDBRANCH  38  55
ENDBRANCH  12  13
ENDBRANCH   5   7
ENDBRANCH   4   5
ENDBRANCH   3   4
ENDBRANCH   2   3
ENDBRANCH   1   2
BRANCH   1  63
ATOM     63  C   UNL A   1      43.260  23.725  28.689  1.00  0.00     0.202 C 
BRANCH  63  64
ATOM     64  C   UNL A   1      44.782  23.568  28.709  1.00  0.00     0.261 C 
BRANCH  64  65
ATOM     65  O   UNL A   1      45.179  22.948  27.480  1.00  0.00    -0.463 OA
BRANCH  65  66
ATOM     66  C   UNL A   1      46.075  23.655  26.751  1.00  0.00     0.309 C 
ATOM     67  O   UNL A   1      47.184  24.036  27.106  1.00  0.00    -0.252 OA
BRANCH  66  68
ATOM     68  C   UNL A   1      45.604  23.763  25.361  1.00  0.00     0.112 C 
ATOM     69  C   UNL A   1      44.420  24.586  24.950  1.00  0.00     0.030 C 
ATOM     70  C   UNL A   1      44.337  23.086  24.908  1.00  0.00     0.093 C 
BRANCH  70  71
ATOM     71  C   UNL A   1      44.478  22.110  23.796  1.00  0.00     0.224 C 
ATOM     72  O   UNL A   1      44.100  22.468  22.681  1.00  0.00    -0.275 OA
ATOM     73  N   UNL A   1      44.958  20.835  23.902  1.00  0.00    -0.342 N 
ATOM     74  H   UNL A   1      44.963  20.348  23.045  1.00  0.00     0.164 HD
BRANCH  73  75
ATOM     75  C   UNL A   1      45.462  20.046  25.012  1.00  0.00     0.202 C 
ATOM     76  C   UNL A   1      46.859  19.480  24.792  1.00  0.00     0.228 C 
ATOM     77  C   UNL A   1      44.774  18.719  25.261  1.00  0.00     0.268 C 
ATOM     78  O   UNL A   1      46.994  18.436  25.773  1.00  0.00    -0.271 OA
ATOM     79  N   UNL A   1      45.687  17.902  25.886  1.00  0.00    -0.233 N 
ATOM     80  O   UNL A   1      43.619  18.417  25.017  1.00  0.00    -0.270 OA
ATOM     81  H   UNL A   1      45.463  17.062  26.348  1.00  0.00     0.199 HD
ENDBRANCH  73  75
ENDBRANCH  70  71
ENDBRANCH  66  68
ENDBRANCH  65  66
ENDBRANCH  64  65
ENDBRANCH  63  64
ENDBRANCH   1  63
TORSDOF 16
ENDMDL
