MODEL 1
REMARK VINA RESULT:     -11.4      0.000      0.000
REMARK SMILES O=C(OCCOCCOC(=O)[C@H](c1ccc(O)cc1)[NH+]1CC[NH+](Cc2cccc(Cl)c2)CC1)c1ccc(-c2c3nc(c(-c4c(F)cccc4F)c4ccc([nH]4)c(-c4c(F)cccc4F)c4nc(c(-c5c(F)cccc5F)c5ccc2[nH]5)C=C4)C=C3)cc1
REMARK SMILES IDX 7 1 6 2 5 3 4 4 3 5 2 6 1 7 34 8 35 9 87 10 36 11 86 12
REMARK SMILES IDX 37 13 38 14 39 15 80 16 40 17 85 18 79 19 81 20 41 21 84 22
REMARK SMILES IDX 78 23 77 24 42 26 68 27 51 28 67 29 52 30 55 31 66 32 82 33
REMARK SMILES IDX 53 34 54 35 65 37 83 38 56 39 43 40 44 41 49 42 45 43 46 44
REMARK SMILES IDX 48 45 50 46 47 47 69 48 70 49 75 50 71 51 72 52 74 53 76 54
REMARK SMILES IDX 73 55 57 56 58 57 63 58 59 59 60 60 62 61 64 62 61 63 8 64
REMARK SMILES IDX 9 65 10 66 11 67 12 68 20 69 21 70 33 71 22 73 32 74 23 75
REMARK SMILES IDX 24 77 25 78 26 79 31 80 27 81 29 82 28 83 30 84 13 85 14 86
REMARK SMILES IDX 19 87 15 88 18 89 16 90 17 91
REMARK H PARENT 81 25 55 36 20 72 23 76 17 92
REMARK Flexibility Score: inf
ROOT
ATOM      1  C   UNL A   1      34.001  29.266  26.850  1.00  0.00     0.202 C 
ENDROOT
BRANCH   1   2
ATOM      2  O   UNL A   1      33.167  30.294  27.389  1.00  0.00    -0.374 OA
BRANCH   2   3
ATOM      3  C   UNL A   1      32.467  31.145  26.493  1.00  0.00     0.202 C 
BRANCH   3   4
ATOM      4  C   UNL A   1      31.566  32.170  27.176  1.00  0.00     0.261 C 
BRANCH   4   5
ATOM      5  O   UNL A   1      32.204  33.457  27.165  1.00  0.00    -0.460 OA
BRANCH   5   6
ATOM      6  C   UNL A   1      32.961  34.031  28.124  1.00  0.00     0.338 C 
ATOM      7  O   UNL A   1      32.592  35.103  28.601  1.00  0.00    -0.246 OA
BRANCH   6   8
ATOM      8  C   UNL A   1      34.240  33.453  28.634  1.00  0.00     0.060 A 
ATOM      9  C   UNL A   1      35.505  33.728  28.111  1.00  0.00     0.016 A 
ATOM     10  C   UNL A   1      34.165  32.680  29.803  1.00  0.00     0.016 A 
ATOM     11  C   UNL A   1      36.659  33.279  28.715  1.00  0.00     0.010 A 
ATOM     12  C   UNL A   1      35.324  32.201  30.416  1.00  0.00     0.010 A 
ATOM     13  C   UNL A   1      36.570  32.508  29.863  1.00  0.00    -0.014 A 
BRANCH  13  14
ATOM     14  C   UNL A   1      37.818  31.893  30.316  1.00  0.00     0.031 A 
ATOM     15  C   UNL A   1      38.443  32.455  31.550  1.00  0.00     0.074 A 
ATOM     16  C   UNL A   1      38.223  30.740  29.757  1.00  0.00     0.049 A 
ATOM     17  N   UNL A   1      39.556  32.126  32.137  1.00  0.00    -0.248 NA
ATOM     18  C   UNL A   1      37.690  33.525  32.231  1.00  0.00     0.031 C 
ATOM     19  C   UNL A   1      37.520  30.032  28.683  1.00  0.00     0.029 A 
ATOM     20  N   UNL A   1      39.292  29.942  30.041  1.00  0.00    -0.354 N 
ATOM     21  C   UNL A   1      39.658  32.972  33.232  1.00  0.00     0.074 A 
ATOM     22  C   UNL A   1      38.490  33.821  33.241  1.00  0.00     0.031 C 
ATOM     23  C   UNL A   1      38.177  28.893  28.408  1.00  0.00     0.029 A 
ATOM     24  C   UNL A   1      39.382  28.841  29.226  1.00  0.00     0.049 A 
ATOM     25  H   UNL A   1      39.935  30.135  30.762  1.00  0.00     0.167 HD
ATOM     26  C   UNL A   1      40.663  33.034  34.133  1.00  0.00     0.037 A 
ATOM     27  C   UNL A   1      40.368  27.933  29.133  1.00  0.00     0.037 A 
ATOM     28  C   UNL A   1      41.806  32.167  34.067  1.00  0.00     0.049 A 
ATOM     29  C   UNL A   1      41.545  28.109  30.054  1.00  0.00     0.074 A 
ATOM     30  C   UNL A   1      42.952  32.176  34.835  1.00  0.00     0.029 A 
ATOM     31  N   UNL A   1      41.934  31.123  33.156  1.00  0.00    -0.354 N 
ATOM     32  N   UNL A   1      41.716  28.986  31.017  1.00  0.00    -0.248 NA
ATOM     33  C   UNL A   1      42.678  27.198  29.863  1.00  0.00     0.031 C 
ATOM     34  C   UNL A   1      43.796  31.169  34.352  1.00  0.00     0.029 A 
ATOM     35  C   UNL A   1      43.150  30.493  33.324  1.00  0.00     0.049 A 
ATOM     36  H   UNL A   1      41.255  30.871  32.488  1.00  0.00     0.167 HD
ATOM     37  C   UNL A   1      42.965  28.725  31.559  1.00  0.00     0.074 A 
ATOM     38  C   UNL A   1      43.499  27.591  30.827  1.00  0.00     0.031 C 
ATOM     39  C   UNL A   1      43.621  29.359  32.564  1.00  0.00     0.037 A 
BRANCH  26  40
ATOM     40  C   UNL A   1      40.593  34.137  35.144  1.00  0.00     0.057 A 
ATOM     41  C   UNL A   1      39.987  33.976  36.398  1.00  0.00     0.134 A 
ATOM     42  C   UNL A   1      41.061  35.416  34.816  1.00  0.00     0.134 A 
ATOM     43  F   UNL A   1      39.479  32.788  36.760  1.00  0.00    -0.206 F 
ATOM     44  C   UNL A   1      39.818  35.053  37.271  1.00  0.00     0.040 A 
ATOM     45  C   UNL A   1      40.921  36.495  35.691  1.00  0.00     0.040 A 
ATOM     46  F   UNL A   1      41.635  35.647  33.625  1.00  0.00    -0.206 F 
ATOM     47  C   UNL A   1      40.286  36.318  36.918  1.00  0.00     0.006 A 
ENDBRANCH  26  40
BRANCH  27  48
ATOM     48  C   UNL A   1      40.325  26.864  28.102  1.00  0.00     0.057 A 
ATOM     49  C   UNL A   1      40.990  26.996  26.878  1.00  0.00     0.134 A 
ATOM     50  C   UNL A   1      39.594  25.684  28.305  1.00  0.00     0.134 A 
ATOM     51  F   UNL A   1      41.692  28.106  26.608  1.00  0.00    -0.206 F 
ATOM     52  C   UNL A   1      40.918  26.008  25.892  1.00  0.00     0.040 A 
ATOM     53  C   UNL A   1      39.538  24.674  27.342  1.00  0.00     0.040 A 
ATOM     54  F   UNL A   1      38.929  25.487  29.453  1.00  0.00    -0.206 F 
ATOM     55  C   UNL A   1      40.194  24.840  26.125  1.00  0.00     0.006 A 
ENDBRANCH  27  48
BRANCH  39  56
ATOM     56  C   UNL A   1      44.962  28.809  32.937  1.00  0.00     0.057 A 
ATOM     57  C   UNL A   1      46.145  29.300  32.373  1.00  0.00     0.134 A 
ATOM     58  C   UNL A   1      45.067  27.817  33.919  1.00  0.00     0.134 A 
ATOM     59  F   UNL A   1      46.104  30.241  31.417  1.00  0.00    -0.206 F 
ATOM     60  C   UNL A   1      47.389  28.807  32.760  1.00  0.00     0.040 A 
ATOM     61  C   UNL A   1      46.306  27.339  34.337  1.00  0.00     0.040 A 
ATOM     62  F   UNL A   1      43.967  27.316  34.503  1.00  0.00    -0.206 F 
ATOM     63  C   UNL A   1      47.472  27.831  33.753  1.00  0.00     0.006 A 
ENDBRANCH  39  56
ENDBRANCH  13  14
ENDBRANCH   6   8
ENDBRANCH   5   6
ENDBRANCH   4   5
ENDBRANCH   3   4
ENDBRANCH   2   3
ENDBRANCH   1   2
BRANCH   1  64
ATOM     64  C   UNL A   1      33.580  29.081  25.391  1.00  0.00     0.261 C 
BRANCH  64  65
ATOM     65  O   UNL A   1      32.970  27.790  25.304  1.00  0.00    -0.459 OA
BRANCH  65  66
ATOM     66  C   UNL A   1      31.618  27.737  25.204  1.00  0.00     0.369 C 
ATOM     67  O   UNL A   1      30.870  27.756  26.179  1.00  0.00    -0.245 OA
BRANCH  66  68
ATOM     68  C   UNL A   1      31.169  27.833  23.725  1.00  0.00     0.326 C 
BRANCH  68  69
ATOM     69  N   UNL A   1      30.739  26.566  23.074  1.00  0.00    -0.310 N 
ATOM     70  C   UNL A   1      31.566  26.014  22.001  1.00  0.00     0.325 C 
ATOM     71  C   UNL A   1      30.235  25.514  23.948  1.00  0.00     0.325 C 
ATOM     72  H   UNL A   1      29.931  26.959  22.590  1.00  0.00     0.349 HD
ATOM     73  C   UNL A   1      32.493  24.801  22.325  1.00  0.00     0.324 C 
ATOM     74  C   UNL A   1      31.296  24.528  24.471  1.00  0.00     0.324 C 
ATOM     75  N   UNL A   1      32.159  23.914  23.452  1.00  0.00    -0.322 N 
ATOM     76  H   UNL A   1      33.052  23.780  23.925  1.00  0.00     0.348 HD
BRANCH  75  77
ATOM     77  C   UNL A   1      31.757  22.557  23.065  1.00  0.00     0.299 C 
BRANCH  77  78
ATOM     78  C   UNL A   1      32.733  21.491  23.502  1.00  0.00     0.008 A 
ATOM     79  C   UNL A   1      32.367  20.139  23.456  1.00  0.00     0.009 A 
ATOM     80  C   UNL A   1      33.932  21.854  24.136  1.00  0.00     0.030 A 
ATOM     81  C   UNL A   1      33.109  19.185  24.147  1.00  0.00     0.002 A 
ATOM     82  C   UNL A   1      34.663  20.897  24.834  1.00  0.00     0.041 A 
ATOM     83  C   UNL A   1      34.242  19.570  24.862  1.00  0.00     0.020 A 
ATOM     84  Cl  UNL A   1      36.031  21.385  25.754  1.00  0.00    -0.084 Cl
ENDBRANCH  77  78
ENDBRANCH  75  77
ENDBRANCH  68  69
BRANCH  68  85
ATOM     85  C   UNL A   1      30.122  28.919  23.454  1.00  0.00     0.021 A 
ATOM     86  C   UNL A   1      30.311  30.242  23.886  1.00  0.00     0.014 A 
ATOM     87  C   UNL A   1      28.866  28.551  22.935  1.00  0.00     0.014 A 
ATOM     88  C   UNL A   1      29.248  31.142  23.904  1.00  0.00     0.046 A 
ATOM     89  C   UNL A   1      27.809  29.460  22.931  1.00  0.00     0.046 A 
ATOM     90  C   UNL A   1      27.998  30.730  23.459  1.00  0.00     0.115 A 
BRANCH  90  91
ATOM     91  O   UNL A   1      26.912  31.546  23.568  1.00  0.00    -0.508 OA
ATOM     92  H   UNL A   1      26.077  31.259  23.256  1.00  0.00     0.293 HD
ENDBRANCH  90  91
ENDBRANCH  68  85
ENDBRANCH  66  68
ENDBRANCH  65  66
ENDBRANCH  64  65
ENDBRANCH   1  64
TORSDOF 19
ENDMDL
MODEL 2
REMARK VINA RESULT:     -11.4      1.018      6.223
REMARK SMILES O=C(OCCOCCOC(=O)[C@H](c1ccc(O)cc1)[NH+]1CC[NH+](Cc2cccc(Cl)c2)CC1)c1ccc(-c2c3nc(c(-c4c(F)cccc4F)c4ccc([nH]4)c(-c4c(F)cccc4F)c4nc(c(-c5c(F)cccc5F)c5ccc2[nH]5)C=C4)C=C3)cc1
REMARK SMILES IDX 7 1 6 2 5 3 4 4 3 5 2 6 1 7 34 8 35 9 87 10 36 11 86 12
REMARK SMILES IDX 37 13 38 14 39 15 80 16 40 17 85 18 79 19 81 20 41 21 84 22
REMARK SMILES IDX 78 23 77 24 42 26 68 27 51 28 67 29 52 30 55 31 66 32 82 33
REMARK SMILES IDX 53 34 54 35 65 37 83 38 56 39 43 40 44 41 49 42 45 43 46 44
REMARK SMILES IDX 48 45 50 46 47 47 69 48 70 49 75 50 71 51 72 52 74 53 76 54
REMARK SMILES IDX 73 55 57 56 58 57 63 58 59 59 60 60 62 61 64 62 61 63 8 64
REMARK SMILES IDX 9 65 10 66 11 67 12 68 20 69 21 70 33 71 22 73 32 74 23 75
REMARK SMILES IDX 24 77 25 78 26 79 31 80 27 81 29 82 28 83 30 84 13 85 14 86
REMARK SMILES IDX 19 87 15 88 18 89 16 90 17 91
REMARK H PARENT 81 25 55 36 20 72 23 76 17 92
REMARK Flexibility Score: inf
ROOT
ATOM      1  C   UNL A   1      34.034  29.305  27.068  1.00  0.00     0.202 C 
ENDROOT
BRANCH   1   2
ATOM      2  O   UNL A   1      33.075  30.250  27.546  1.00  0.00    -0.374 OA
BRANCH   2   3
ATOM      3  C   UNL A   1      32.370  31.045  26.603  1.00  0.00     0.202 C 
BRANCH   3   4
ATOM      4  C   UNL A   1      31.527  32.155  27.224  1.00  0.00     0.261 C 
BRANCH   4   5
ATOM      5  O   UNL A   1      32.241  33.399  27.152  1.00  0.00    -0.460 OA
BRANCH   5   6
ATOM      6  C   UNL A   1      32.942  34.027  28.121  1.00  0.00     0.338 C 
ATOM      7  O   UNL A   1      32.552  35.125  28.512  1.00  0.00    -0.246 OA
BRANCH   6   8
ATOM      8  C   UNL A   1      34.184  33.475  28.740  1.00  0.00     0.060 A 
ATOM      9  C   UNL A   1      34.213  32.543  29.779  1.00  0.00     0.016 A 
ATOM     10  C   UNL A   1      35.402  33.829  28.140  1.00  0.00     0.016 A 
ATOM     11  C   UNL A   1      35.386  31.963  30.210  1.00  0.00     0.010 A 
ATOM     12  C   UNL A   1      36.603  33.265  28.577  1.00  0.00     0.010 A 
ATOM     13  C   UNL A   1      36.583  32.329  29.614  1.00  0.00    -0.014 A 
BRANCH  13  14
ATOM     14  C   UNL A   1      37.796  31.837  30.268  1.00  0.00     0.031 A 
ATOM     15  C   UNL A   1      38.514  30.709  29.604  1.00  0.00     0.074 A 
ATOM     16  C   UNL A   1      38.326  32.539  31.283  1.00  0.00     0.049 A 
ATOM     17  N   UNL A   1      39.579  30.066  29.987  1.00  0.00    -0.248 NA
ATOM     18  C   UNL A   1      37.967  30.262  28.309  1.00  0.00     0.031 C 
ATOM     19  C   UNL A   1      37.770  33.781  31.831  1.00  0.00     0.029 A 
ATOM     20  N   UNL A   1      39.468  32.338  32.003  1.00  0.00    -0.354 N 
ATOM     21  C   UNL A   1      39.806  29.113  29.005  1.00  0.00     0.074 A 
ATOM     22  C   UNL A   1      38.782  29.268  27.999  1.00  0.00     0.031 C 
ATOM     23  C   UNL A   1      38.585  34.235  32.797  1.00  0.00     0.029 A 
ATOM     24  C   UNL A   1      39.664  33.275  32.986  1.00  0.00     0.049 A 
ATOM     25  H   UNL A   1      40.091  31.594  31.832  1.00  0.00     0.167 HD
ATOM     26  C   UNL A   1      40.783  28.181  28.974  1.00  0.00     0.037 A 
ATOM     27  C   UNL A   1      40.594  33.303  33.957  1.00  0.00     0.037 A 
ATOM     28  C   UNL A   1      41.771  28.071  30.011  1.00  0.00     0.049 A 
ATOM     29  C   UNL A   1      41.585  32.171  33.984  1.00  0.00     0.074 A 
ATOM     30  C   UNL A   1      42.754  27.119  30.179  1.00  0.00     0.029 A 
ATOM     31  N   UNL A   1      41.885  28.967  31.069  1.00  0.00    -0.354 N 
ATOM     32  N   UNL A   1      41.737  31.186  33.128  1.00  0.00    -0.248 NA
ATOM     33  C   UNL A   1      42.515  32.133  35.117  1.00  0.00     0.031 C 
ATOM     34  C   UNL A   1      43.431  27.411  31.370  1.00  0.00     0.029 A 
ATOM     35  C   UNL A   1      42.908  28.579  31.910  1.00  0.00     0.049 A 
ATOM     36  H   UNL A   1      41.318  29.762  31.199  1.00  0.00     0.167 HD
ATOM     37  C   UNL A   1      42.786  30.418  33.608  1.00  0.00     0.074 A 
ATOM     38  C   UNL A   1      43.247  31.068  34.822  1.00  0.00     0.031 C 
ATOM     39  C   UNL A   1      43.324  29.278  33.104  1.00  0.00     0.037 A 
BRANCH  26  40
ATOM     40  C   UNL A   1      40.721  27.178  27.862  1.00  0.00     0.057 A 
ATOM     41  C   UNL A   1      40.004  25.979  27.966  1.00  0.00     0.134 A 
ATOM     42  C   UNL A   1      41.474  27.378  26.698  1.00  0.00     0.134 A 
ATOM     43  F   UNL A   1      39.295  25.703  29.072  1.00  0.00    -0.206 F 
ATOM     44  C   UNL A   1      40.067  25.001  26.970  1.00  0.00     0.040 A 
ATOM     45  C   UNL A   1      41.525  26.420  25.684  1.00  0.00     0.040 A 
ATOM     46  F   UNL A   1      42.200  28.496  26.540  1.00  0.00    -0.206 F 
ATOM     47  C   UNL A   1      40.829  25.221  25.825  1.00  0.00     0.006 A 
ENDBRANCH  26  40
BRANCH  27  48
ATOM     48  C   UNL A   1      40.572  34.360  35.002  1.00  0.00     0.057 A 
ATOM     49  C   UNL A   1      39.849  34.206  36.190  1.00  0.00     0.134 A 
ATOM     50  C   UNL A   1      41.261  35.570  34.828  1.00  0.00     0.134 A 
ATOM     51  F   UNL A   1      39.152  33.082  36.413  1.00  0.00    -0.206 F 
ATOM     52  C   UNL A   1      39.798  35.215  37.155  1.00  0.00     0.040 A 
ATOM     53  C   UNL A   1      41.243  36.575  35.797  1.00  0.00     0.040 A 
ATOM     54  F   UNL A   1      41.975  35.791  33.714  1.00  0.00    -0.206 F 
ATOM     55  C   UNL A   1      40.501  36.403  36.962  1.00  0.00     0.006 A 
ENDBRANCH  27  48
BRANCH  39  56
ATOM     56  C   UNL A   1      44.483  28.699  33.852  1.00  0.00     0.057 A 
ATOM     57  C   UNL A   1      44.313  27.714  34.832  1.00  0.00     0.134 A 
ATOM     58  C   UNL A   1      45.790  29.095  33.541  1.00  0.00     0.134 A 
ATOM     59  F   UNL A   1      43.083  27.306  35.181  1.00  0.00    -0.206 F 
ATOM     60  C   UNL A   1      45.406  27.154  35.491  1.00  0.00     0.040 A 
ATOM     61  C   UNL A   1      46.891  28.520  34.171  1.00  0.00     0.040 A 
ATOM     62  F   UNL A   1      46.014  30.028  32.603  1.00  0.00    -0.206 F 
ATOM     63  C   UNL A   1      46.700  27.549  35.153  1.00  0.00     0.006 A 
ENDBRANCH  39  56
ENDBRANCH  13  14
ENDBRANCH   6   8
ENDBRANCH   5   6
ENDBRANCH   4   5
ENDBRANCH   3   4
ENDBRANCH   2   3
ENDBRANCH   1   2
BRANCH   1  64
ATOM     64  C   UNL A   1      33.499  28.776  25.735  1.00  0.00     0.261 C 
BRANCH  64  65
ATOM     65  O   UNL A   1      33.062  27.436  25.976  1.00  0.00    -0.459 OA
BRANCH  65  66
ATOM     66  C   UNL A   1      31.726  27.199  25.974  1.00  0.00     0.369 C 
ATOM     67  O   UNL A   1      30.996  27.454  26.930  1.00  0.00    -0.245 OA
BRANCH  66  68
ATOM     68  C   UNL A   1      31.246  26.749  24.573  1.00  0.00     0.326 C 
BRANCH  68  69
ATOM     69  N   UNL A   1      30.684  25.375  24.468  1.00  0.00    -0.310 N 
ATOM     70  C   UNL A   1      31.045  24.558  23.310  1.00  0.00     0.325 C 
ATOM     71  C   UNL A   1      30.657  24.579  25.689  1.00  0.00     0.325 C 
ATOM     72  H   UNL A   1      29.723  25.662  24.282  1.00  0.00     0.349 HD
ATOM     73  C   UNL A   1      32.110  23.433  23.495  1.00  0.00     0.324 C 
ATOM     74  C   UNL A   1      31.909  23.719  25.942  1.00  0.00     0.324 C 
ATOM     75  N   UNL A   1      32.328  22.853  24.831  1.00  0.00    -0.322 N 
ATOM     76  H   UNL A   1      33.344  22.812  24.913  1.00  0.00     0.348 HD
BRANCH  75  77
ATOM     77  C   UNL A   1      31.906  21.455  24.969  1.00  0.00     0.299 C 
BRANCH  77  78
ATOM     78  C   UNL A   1      33.057  20.481  25.042  1.00  0.00     0.008 A 
ATOM     79  C   UNL A   1      34.364  20.947  25.239  1.00  0.00     0.009 A 
ATOM     80  C   UNL A   1      32.854  19.129  24.721  1.00  0.00     0.030 A 
ATOM     81  C   UNL A   1      35.453  20.117  24.984  1.00  0.00     0.002 A 
ATOM     82  C   UNL A   1      33.946  18.308  24.457  1.00  0.00     0.041 A 
ATOM     83  C   UNL A   1      35.243  18.805  24.564  1.00  0.00     0.020 A 
ATOM     84  Cl  UNL A   1      33.683  16.705  23.892  1.00  0.00    -0.084 Cl
ENDBRANCH  77  78
ENDBRANCH  75  77
ENDBRANCH  68  69
BRANCH  68  85
ATOM     85  C   UNL A   1      30.295  27.735  23.886  1.00  0.00     0.021 A 
ATOM     86  C   UNL A   1      30.613  29.098  23.770  1.00  0.00     0.014 A 
ATOM     87  C   UNL A   1      28.999  27.312  23.535  1.00  0.00     0.014 A 
ATOM     88  C   UNL A   1      29.636  30.028  23.422  1.00  0.00     0.046 A 
ATOM     89  C   UNL A   1      28.028  28.241  23.163  1.00  0.00     0.046 A 
ATOM     90  C   UNL A   1      28.344  29.593  23.156  1.00  0.00     0.115 A 
BRANCH  90  91
ATOM     91  O   UNL A   1      27.338  30.484  22.925  1.00  0.00    -0.508 OA
ATOM     92  H   UNL A   1      26.492  30.178  22.664  1.00  0.00     0.293 HD
ENDBRANCH  90  91
ENDBRANCH  68  85
ENDBRANCH  66  68
ENDBRANCH  65  66
ENDBRANCH  64  65
ENDBRANCH   1  64
TORSDOF 19
ENDMDL
MODEL 3
REMARK VINA RESULT:     -11.4      4.755      9.826
REMARK SMILES O=C(OCCOCCOC(=O)[C@H](c1ccc(O)cc1)[NH+]1CC[NH+](Cc2cccc(Cl)c2)CC1)c1ccc(-c2c3nc(c(-c4c(F)cccc4F)c4ccc([nH]4)c(-c4c(F)cccc4F)c4nc(c(-c5c(F)cccc5F)c5ccc2[nH]5)C=C4)C=C3)cc1
REMARK SMILES IDX 7 1 6 2 5 3 4 4 3 5 2 6 1 7 34 8 35 9 87 10 36 11 86 12
REMARK SMILES IDX 37 13 38 14 39 15 80 16 40 17 85 18 79 19 81 20 41 21 84 22
REMARK SMILES IDX 78 23 77 24 42 26 68 27 51 28 67 29 52 30 55 31 66 32 82 33
REMARK SMILES IDX 53 34 54 35 65 37 83 38 56 39 43 40 44 41 49 42 45 43 46 44
REMARK SMILES IDX 48 45 50 46 47 47 69 48 70 49 75 50 71 51 72 52 74 53 76 54
REMARK SMILES IDX 73 55 57 56 58 57 63 58 59 59 60 60 62 61 64 62 61 63 8 64
REMARK SMILES IDX 9 65 10 66 11 67 12 68 20 69 21 70 33 71 22 73 32 74 23 75
REMARK SMILES IDX 24 77 25 78 26 79 31 80 27 81 29 82 28 83 30 84 13 85 14 86
REMARK SMILES IDX 19 87 15 88 18 89 16 90 17 91
REMARK H PARENT 81 25 55 36 20 72 23 76 17 92
REMARK Flexibility Score: inf
ROOT
ATOM      1  C   UNL A   1      37.739  22.691  25.293  1.00  0.00     0.202 C 
ENDROOT
BRANCH   1   2
ATOM      2  O   UNL A   1      37.866  21.380  25.848  1.00  0.00    -0.374 OA
BRANCH   2   3
ATOM      3  C   UNL A   1      38.299  20.321  25.008  1.00  0.00     0.202 C 
BRANCH   3   4
ATOM      4  C   UNL A   1      39.018  19.191  25.741  1.00  0.00     0.261 C 
BRANCH   4   5
ATOM      5  O   UNL A   1      40.433  19.295  25.516  1.00  0.00    -0.460 OA
BRANCH   5   6
ATOM      6  C   UNL A   1      41.394  19.711  26.369  1.00  0.00     0.338 C 
ATOM      7  O   UNL A   1      42.055  18.865  26.968  1.00  0.00    -0.246 OA
BRANCH   6   8
ATOM      8  C   UNL A   1      41.694  21.147  26.649  1.00  0.00     0.060 A 
ATOM      9  C   UNL A   1      41.419  22.205  25.780  1.00  0.00     0.016 A 
ATOM     10  C   UNL A   1      42.170  21.457  27.932  1.00  0.00     0.016 A 
ATOM     11  C   UNL A   1      41.586  23.520  26.153  1.00  0.00     0.010 A 
ATOM     12  C   UNL A   1      42.362  22.784  28.320  1.00  0.00     0.010 A 
ATOM     13  C   UNL A   1      42.065  23.811  27.421  1.00  0.00    -0.014 A 
BRANCH  13  14
ATOM     14  C   UNL A   1      42.418  25.211  27.662  1.00  0.00     0.031 A 
ATOM     15  C   UNL A   1      43.691  25.702  27.058  1.00  0.00     0.074 A 
ATOM     16  C   UNL A   1      41.507  26.034  28.207  1.00  0.00     0.049 A 
ATOM     17  N   UNL A   1      44.253  26.873  27.148  1.00  0.00    -0.248 NA
ATOM     18  C   UNL A   1      44.422  24.742  26.209  1.00  0.00     0.031 C 
ATOM     19  C   UNL A   1      40.156  25.641  28.620  1.00  0.00     0.029 A 
ATOM     20  N   UNL A   1      41.561  27.372  28.467  1.00  0.00    -0.354 N 
ATOM     21  C   UNL A   1      45.420  26.780  26.404  1.00  0.00     0.074 A 
ATOM     22  C   UNL A   1      45.484  25.446  25.854  1.00  0.00     0.031 C 
ATOM     23  C   UNL A   1      39.505  26.726  29.072  1.00  0.00     0.029 A 
ATOM     24  C   UNL A   1      40.421  27.859  29.056  1.00  0.00     0.049 A 
ATOM     25  H   UNL A   1      42.341  27.934  28.251  1.00  0.00     0.167 HD
ATOM     26  C   UNL A   1      46.358  27.734  26.223  1.00  0.00     0.037 A 
ATOM     27  C   UNL A   1      40.185  29.080  29.568  1.00  0.00     0.037 A 
ATOM     28  C   UNL A   1      46.243  29.042  26.804  1.00  0.00     0.049 A 
ATOM     29  C   UNL A   1      41.304  30.082  29.480  1.00  0.00     0.074 A 
ATOM     30  C   UNL A   1      47.153  30.079  26.804  1.00  0.00     0.029 A 
ATOM     31  N   UNL A   1      45.122  29.483  27.500  1.00  0.00    -0.354 N 
ATOM     32  N   UNL A   1      42.470  29.968  28.885  1.00  0.00    -0.248 NA
ATOM     33  C   UNL A   1      41.095  31.368  30.153  1.00  0.00     0.031 C 
ATOM     34  C   UNL A   1      46.602  31.130  27.547  1.00  0.00     0.029 A 
ATOM     35  C   UNL A   1      45.324  30.770  27.957  1.00  0.00     0.049 A 
ATOM     36  H   UNL A   1      44.304  28.955  27.646  1.00  0.00     0.167 HD
ATOM     37  C   UNL A   1      43.129  31.169  29.097  1.00  0.00     0.074 A 
ATOM     38  C   UNL A   1      42.219  32.006  29.859  1.00  0.00     0.031 C 
ATOM     39  C   UNL A   1      44.371  31.554  28.707  1.00  0.00     0.037 A 
BRANCH  26  40
ATOM     40  C   UNL A   1      47.597  27.328  25.484  1.00  0.00     0.057 A 
ATOM     41  C   UNL A   1      48.731  26.821  26.132  1.00  0.00     0.134 A 
ATOM     42  C   UNL A   1      47.687  27.539  24.102  1.00  0.00     0.134 A 
ATOM     43  F   UNL A   1      48.729  26.634  27.461  1.00  0.00    -0.206 F 
ATOM     44  C   UNL A   1      49.919  26.573  25.439  1.00  0.00     0.040 A 
ATOM     45  C   UNL A   1      48.859  27.271  23.394  1.00  0.00     0.040 A 
ATOM     46  F   UNL A   1      46.645  28.040  23.420  1.00  0.00    -0.206 F 
ATOM     47  C   UNL A   1      49.984  26.798  24.065  1.00  0.00     0.006 A 
ENDBRANCH  26  40
BRANCH  27  48
ATOM     48  C   UNL A   1      38.908  29.379  30.266  1.00  0.00     0.057 A 
ATOM     49  C   UNL A   1      38.726  29.090  31.622  1.00  0.00     0.134 A 
ATOM     50  C   UNL A   1      37.822  29.948  29.584  1.00  0.00     0.134 A 
ATOM     51  F   UNL A   1      39.716  28.528  32.331  1.00  0.00    -0.206 F 
ATOM     52  C   UNL A   1      37.512  29.336  32.270  1.00  0.00     0.040 A 
ATOM     53  C   UNL A   1      36.612  30.228  30.225  1.00  0.00     0.040 A 
ATOM     54  F   UNL A   1      37.921  30.252  28.282  1.00  0.00    -0.206 F 
ATOM     55  C   UNL A   1      36.452  29.912  31.571  1.00  0.00     0.006 A 
ENDBRANCH  27  48
BRANCH  39  56
ATOM     56  C   UNL A   1      44.784  32.945  29.073  1.00  0.00     0.057 A 
ATOM     57  C   UNL A   1      44.474  34.045  28.265  1.00  0.00     0.134 A 
ATOM     58  C   UNL A   1      45.450  33.187  30.281  1.00  0.00     0.134 A 
ATOM     59  F   UNL A   1      43.851  33.872  27.089  1.00  0.00    -0.206 F 
ATOM     60  C   UNL A   1      44.829  35.340  28.639  1.00  0.00     0.040 A 
ATOM     61  C   UNL A   1      45.781  34.479  30.680  1.00  0.00     0.040 A 
ATOM     62  F   UNL A   1      45.764  32.172  31.102  1.00  0.00    -0.206 F 
ATOM     63  C   UNL A   1      45.475  35.560  29.855  1.00  0.00     0.006 A 
ENDBRANCH  39  56
ENDBRANCH  13  14
ENDBRANCH   6   8
ENDBRANCH   5   6
ENDBRANCH   4   5
ENDBRANCH   3   4
ENDBRANCH   2   3
ENDBRANCH   1   2
BRANCH   1  64
ATOM     64  C   UNL A   1      36.244  22.928  25.070  1.00  0.00     0.261 C 
BRANCH  64  65
ATOM     65  O   UNL A   1      36.002  22.719  23.676  1.00  0.00    -0.459 OA
BRANCH  65  66
ATOM     66  C   UNL A   1      34.742  22.926  23.217  1.00  0.00     0.369 C 
ATOM     67  O   UNL A   1      34.496  23.294  22.069  1.00  0.00    -0.245 OA
BRANCH  66  68
ATOM     68  C   UNL A   1      33.692  22.471  24.258  1.00  0.00     0.326 C 
BRANCH  68  69
ATOM     69  N   UNL A   1      32.548  23.391  24.501  1.00  0.00    -0.310 N 
ATOM     70  C   UNL A   1      31.978  23.459  25.847  1.00  0.00     0.325 C 
ATOM     71  C   UNL A   1      32.625  24.713  23.892  1.00  0.00     0.325 C 
ATOM     72  H   UNL A   1      31.862  22.859  23.966  1.00  0.00     0.349 HD
ATOM     73  C   UNL A   1      32.342  24.680  26.748  1.00  0.00     0.324 C 
ATOM     74  C   UNL A   1      33.289  25.800  24.758  1.00  0.00     0.324 C 
ATOM     75  N   UNL A   1      32.761  25.945  26.122  1.00  0.00    -0.322 N 
ATOM     76  H   UNL A   1      33.567  26.233  26.675  1.00  0.00     0.348 HD
BRANCH  75  77
ATOM     77  C   UNL A   1      31.810  27.052  26.280  1.00  0.00     0.299 C 
BRANCH  77  78
ATOM     78  C   UNL A   1      32.473  28.396  26.459  1.00  0.00     0.008 A 
ATOM     79  C   UNL A   1      33.751  28.483  27.028  1.00  0.00     0.009 A 
ATOM     80  C   UNL A   1      31.740  29.574  26.240  1.00  0.00     0.030 A 
ATOM     81  C   UNL A   1      34.232  29.703  27.496  1.00  0.00     0.002 A 
ATOM     82  C   UNL A   1      32.222  30.789  26.720  1.00  0.00     0.041 A 
ATOM     83  C   UNL A   1      33.453  30.852  27.368  1.00  0.00     0.020 A 
ATOM     84  Cl  UNL A   1      31.238  32.194  26.605  1.00  0.00    -0.084 Cl
ENDBRANCH  77  78
ENDBRANCH  75  77
ENDBRANCH  68  69
BRANCH  68  85
ATOM     85  C   UNL A   1      33.157  21.052  24.034  1.00  0.00     0.021 A 
ATOM     86  C   UNL A   1      33.642  19.962  24.776  1.00  0.00     0.014 A 
ATOM     87  C   UNL A   1      32.307  20.801  22.940  1.00  0.00     0.014 A 
ATOM     88  C   UNL A   1      33.378  18.655  24.371  1.00  0.00     0.046 A 
ATOM     89  C   UNL A   1      32.024  19.492  22.551  1.00  0.00     0.046 A 
ATOM     90  C   UNL A   1      32.600  18.434  23.241  1.00  0.00     0.115 A 
BRANCH  90  91
ATOM     91  O   UNL A   1      32.417  17.175  22.752  1.00  0.00    -0.508 OA
ATOM     92  H   UNL A   1      33.134  16.716  22.360  1.00  0.00     0.293 HD
ENDBRANCH  90  91
ENDBRANCH  68  85
ENDBRANCH  66  68
ENDBRANCH  65  66
ENDBRANCH  64  65
ENDBRANCH   1  64
TORSDOF 19
ENDMDL
