MODEL 1
REMARK VINA RESULT:     -12.4      0.000      0.000
REMARK SMILES COc1ccc(-c2c(C(=O)OCCOCCOC(=O)c3ccc(-c4c5nc(c(-c6c(F)cccc6F)c6ccc([nH]6)c(-c6c(F)cccc6F)c6nc(c(-c7c(F)cccc7F)c7ccc4[nH]7)C=C6)C=C5)cc3)sc3c2N=C(O)C[C@H]3c2ccc(OC)c(OC)c2)cc1
REMARK SMILES IDX 14 1 13 2 12 3 11 4 9 5 10 6 8 7 7 8 76 9 74 10 75 11 77 12
REMARK SMILES IDX 81 13 78 14 80 15 6 16 3 17 4 18 93 19 5 20 92 21 2 22 1 23
REMARK SMILES IDX 82 24 83 25 91 26 84 27 88 28 85 29 89 30 90 31 86 32 87 33
REMARK SMILES IDX 79 34 15 36 16 37 17 38 18 39 19 40 20 41 21 42 73 43 22 44
REMARK SMILES IDX 72 45 23 46 24 47 25 48 66 49 26 50 71 51 65 52 67 53 27 54
REMARK SMILES IDX 70 55 64 56 63 57 28 59 54 60 37 61 53 62 38 63 41 64 52 65
REMARK SMILES IDX 68 66 39 67 40 68 51 70 69 71 42 72 29 73 30 74 35 75 31 76
REMARK SMILES IDX 32 77 34 78 36 79 33 80 55 81 56 82 61 83 57 84 58 85 60 86
REMARK SMILES IDX 62 87 59 88 43 89 44 90 49 91 45 92 46 93 48 94 50 95 47 96
REMARK H PARENT 79 35 67 58 41 69
REMARK Flexibility Score: inf
ROOT
ATOM      1  O   UNL A   1      32.201  29.151  27.403  1.00  0.00    -0.374 OA
ENDROOT
BRANCH   1   2
ATOM      2  C   UNL A   1      32.936  28.013  26.949  1.00  0.00     0.202 C 
BRANCH   2   3
ATOM      3  C   UNL A   1      32.189  26.695  26.764  1.00  0.00     0.261 C 
BRANCH   3   4
ATOM      4  O   UNL A   1      30.767  26.863  26.841  1.00  0.00    -0.459 OA
BRANCH   4   5
ATOM      5  C   UNL A   1      30.030  25.881  26.244  1.00  0.00     0.349 C 
ATOM      6  O   UNL A   1      29.002  25.413  26.710  1.00  0.00    -0.245 OA
BRANCH   5   7
ATOM      7  C   UNL A   1      30.585  25.542  24.946  1.00  0.00     0.123 A 
ATOM      8  C   UNL A   1      30.685  26.252  23.753  1.00  0.00     0.033 A 
ATOM      9  C   UNL A   1      31.456  25.508  22.799  1.00  0.00     0.090 A 
ATOM     10  S   UNL A   1      31.257  23.962  24.808  1.00  0.00    -0.130 S 
ATOM     11  C   UNL A   1      31.844  24.275  23.246  1.00  0.00     0.040 A 
ATOM     12  N   UNL A   1      31.842  26.031  21.561  1.00  0.00    -0.216 NA
ATOM     13  C   UNL A   1      32.694  23.305  22.496  1.00  0.00     0.071 C 
ATOM     14  C   UNL A   1      32.620  25.279  20.857  1.00  0.00     0.186 C 
ATOM     15  C   UNL A   1      33.104  23.877  21.132  1.00  0.00     0.111 C 
BRANCH   8  16
ATOM     16  C   UNL A   1      30.141  27.599  23.580  1.00  0.00    -0.014 A 
ATOM     17  C   UNL A   1      29.019  30.174  23.365  1.00  0.00     0.118 A 
ATOM     18  C   UNL A   1      30.333  30.007  23.806  1.00  0.00     0.047 A 
ATOM     19  C   UNL A   1      28.278  29.054  22.991  1.00  0.00     0.047 A 
ATOM     20  C   UNL A   1      30.896  28.732  23.904  1.00  0.00     0.012 A 
ATOM     21  C   UNL A   1      28.838  27.773  23.098  1.00  0.00     0.012 A 
BRANCH  17  22
ATOM     22  O   UNL A   1      28.595  31.472  23.309  1.00  0.00    -0.497 OA
ATOM     23  C   UNL A   1      28.679  32.112  22.042  1.00  0.00     0.278 C 
ENDBRANCH  17  22
ENDBRANCH   8  16
BRANCH  13  24
ATOM     24  C   UNL A   1      33.922  22.856  23.281  1.00  0.00    -0.035 A 
ATOM     25  C   UNL A   1      35.062  23.662  23.365  1.00  0.00     0.008 A 
ATOM     26  C   UNL A   1      33.923  21.613  23.939  1.00  0.00     0.054 A 
ATOM     27  C   UNL A   1      36.171  23.227  24.085  1.00  0.00     0.051 A 
ATOM     28  C   UNL A   1      35.040  21.161  24.663  1.00  0.00     0.161 A 
ATOM     29  C   UNL A   1      36.177  21.986  24.737  1.00  0.00     0.160 A 
BRANCH  28  30
ATOM     30  O   UNL A   1      35.079  19.942  25.286  1.00  0.00    -0.493 OA
ATOM     31  C   UNL A   1      34.584  18.807  24.588  1.00  0.00     0.278 C 
ENDBRANCH  28  30
BRANCH  29  32
ATOM     32  O   UNL A   1      37.369  21.746  25.370  1.00  0.00    -0.493 OA
ATOM     33  C   UNL A   1      38.117  22.849  25.858  1.00  0.00     0.278 C 
ENDBRANCH  29  32
ENDBRANCH  13  24
BRANCH  14  34
ATOM     34  O   UNL A   1      33.074  25.772  19.683  1.00  0.00    -0.496 OA
ATOM     35  H   UNL A   1      33.589  25.232  19.117  1.00  0.00     0.294 HD
ENDBRANCH  14  34
ENDBRANCH   5   7
ENDBRANCH   4   5
ENDBRANCH   3   4
ENDBRANCH   2   3
ENDBRANCH   1   2
BRANCH   1  36
ATOM     36  C   UNL A   1      32.439  30.434  26.836  1.00  0.00     0.202 C 
BRANCH  36  37
ATOM     37  C   UNL A   1      33.379  31.385  27.564  1.00  0.00     0.261 C 
BRANCH  37  38
ATOM     38  O   UNL A   1      34.719  30.925  27.553  1.00  0.00    -0.460 OA
BRANCH  38  39
ATOM     39  C   UNL A   1      35.614  31.842  27.985  1.00  0.00     0.338 C 
ATOM     40  O   UNL A   1      35.779  32.974  27.567  1.00  0.00    -0.246 OA
BRANCH  39  41
ATOM     41  C   UNL A   1      36.488  31.208  28.977  1.00  0.00     0.060 A 
ATOM     42  C   UNL A   1      37.593  31.961  29.382  1.00  0.00     0.016 A 
ATOM     43  C   UNL A   1      36.413  29.822  29.166  1.00  0.00     0.016 A 
ATOM     44  C   UNL A   1      38.747  31.286  29.692  1.00  0.00     0.010 A 
ATOM     45  C   UNL A   1      37.565  29.149  29.472  1.00  0.00     0.010 A 
ATOM     46  C   UNL A   1      38.734  29.890  29.603  1.00  0.00    -0.014 A 
BRANCH  46  47
ATOM     47  C   UNL A   1      39.996  29.194  29.655  1.00  0.00     0.031 A 
ATOM     48  C   UNL A   1      40.512  29.067  31.032  1.00  0.00     0.074 A 
ATOM     49  C   UNL A   1      40.536  28.643  28.552  1.00  0.00     0.049 A 
ATOM     50  N   UNL A   1      41.543  29.647  31.545  1.00  0.00    -0.248 NA
ATOM     51  C   UNL A   1      39.655  28.375  32.011  1.00  0.00     0.031 C 
ATOM     52  C   UNL A   1      39.953  28.505  27.213  1.00  0.00     0.029 A 
ATOM     53  N   UNL A   1      41.717  27.983  28.437  1.00  0.00    -0.354 N 
ATOM     54  C   UNL A   1      41.587  29.210  32.863  1.00  0.00     0.074 A 
ATOM     55  C   UNL A   1      40.304  28.625  33.146  1.00  0.00     0.031 C 
ATOM     56  C   UNL A   1      40.670  27.605  26.502  1.00  0.00     0.029 A 
ATOM     57  C   UNL A   1      41.830  27.214  27.282  1.00  0.00     0.049 A 
ATOM     58  H   UNL A   1      42.432  28.042  29.112  1.00  0.00     0.167 HD
ATOM     59  C   UNL A   1      42.767  29.103  33.528  1.00  0.00     0.037 A 
ATOM     60  C   UNL A   1      42.772  26.258  27.079  1.00  0.00     0.037 A 
ATOM     61  C   UNL A   1      43.806  29.858  32.879  1.00  0.00     0.049 A 
ATOM     62  C   UNL A   1      43.878  26.526  28.040  1.00  0.00     0.074 A 
ATOM     63  C   UNL A   1      43.995  31.196  32.595  1.00  0.00     0.029 A 
ATOM     64  N   UNL A   1      44.673  29.174  32.061  1.00  0.00    -0.354 N 
ATOM     65  N   UNL A   1      44.643  27.583  27.976  1.00  0.00    -0.248 NA
ATOM     66  C   UNL A   1      43.789  25.899  29.353  1.00  0.00     0.031 C 
ATOM     67  C   UNL A   1      44.597  31.218  31.303  1.00  0.00     0.029 A 
ATOM     68  C   UNL A   1      44.806  29.897  30.904  1.00  0.00     0.049 A 
ATOM     69  H   UNL A   1      45.117  28.319  32.269  1.00  0.00     0.167 HD
ATOM     70  C   UNL A   1      44.794  27.996  29.295  1.00  0.00     0.074 A 
ATOM     71  C   UNL A   1      44.284  26.889  30.103  1.00  0.00     0.031 C 
ATOM     72  C   UNL A   1      45.034  29.303  29.607  1.00  0.00     0.037 A 
BRANCH  59  73
ATOM     73  C   UNL A   1      43.062  28.006  34.513  1.00  0.00     0.057 A 
ATOM     74  C   UNL A   1      43.167  26.685  34.050  1.00  0.00     0.134 A 
ATOM     75  C   UNL A   1      42.957  28.150  35.912  1.00  0.00     0.134 A 
ATOM     76  F   UNL A   1      43.254  26.421  32.738  1.00  0.00    -0.206 F 
ATOM     77  C   UNL A   1      43.104  25.587  34.914  1.00  0.00     0.040 A 
ATOM     78  C   UNL A   1      42.949  27.063  36.787  1.00  0.00     0.040 A 
ATOM     79  F   UNL A   1      42.752  29.332  36.504  1.00  0.00    -0.206 F 
ATOM     80  C   UNL A   1      42.987  25.774  36.286  1.00  0.00     0.006 A 
ENDBRANCH  59  73
BRANCH  60  81
ATOM     81  C   UNL A   1      42.582  24.938  26.431  1.00  0.00     0.057 A 
ATOM     82  C   UNL A   1      43.365  24.534  25.342  1.00  0.00     0.134 A 
ATOM     83  C   UNL A   1      41.805  23.932  27.038  1.00  0.00     0.134 A 
ATOM     84  F   UNL A   1      44.179  25.406  24.731  1.00  0.00    -0.206 F 
ATOM     85  C   UNL A   1      43.379  23.207  24.885  1.00  0.00     0.040 A 
ATOM     86  C   UNL A   1      41.808  22.607  26.592  1.00  0.00     0.040 A 
ATOM     87  F   UNL A   1      41.086  24.184  28.142  1.00  0.00    -0.206 F 
ATOM     88  C   UNL A   1      42.605  22.237  25.516  1.00  0.00     0.006 A 
ENDBRANCH  60  81
BRANCH  72  89
ATOM     89  C   UNL A   1      45.332  30.257  28.484  1.00  0.00     0.057 A 
ATOM     90  C   UNL A   1      44.349  30.985  27.793  1.00  0.00     0.134 A 
ATOM     91  C   UNL A   1      46.664  30.598  28.231  1.00  0.00     0.134 A 
ATOM     92  F   UNL A   1      43.047  30.794  28.040  1.00  0.00    -0.206 F 
ATOM     93  C   UNL A   1      44.680  31.986  26.875  1.00  0.00     0.040 A 
ATOM     94  C   UNL A   1      47.009  31.617  27.340  1.00  0.00     0.040 A 
ATOM     95  F   UNL A   1      47.655  29.984  28.898  1.00  0.00    -0.206 F 
ATOM     96  C   UNL A   1      46.016  32.312  26.655  1.00  0.00     0.006 A 
ENDBRANCH  72  89
ENDBRANCH  46  47
ENDBRANCH  39  41
ENDBRANCH  38  39
ENDBRANCH  37  38
ENDBRANCH  36  37
ENDBRANCH   1  36
TORSDOF 20
ENDMDL
MODEL 2
REMARK VINA RESULT:     -11.7      1.815      5.767
REMARK SMILES COc1ccc(-c2c(C(=O)OCCOCCOC(=O)c3ccc(-c4c5nc(c(-c6c(F)cccc6F)c6ccc([nH]6)c(-c6c(F)cccc6F)c6nc(c(-c7c(F)cccc7F)c7ccc4[nH]7)C=C6)C=C5)cc3)sc3c2N=C(O)C[C@H]3c2ccc(OC)c(OC)c2)cc1
REMARK SMILES IDX 14 1 13 2 12 3 11 4 9 5 10 6 8 7 7 8 76 9 74 10 75 11 77 12
REMARK SMILES IDX 81 13 78 14 80 15 6 16 3 17 4 18 93 19 5 20 92 21 2 22 1 23
REMARK SMILES IDX 82 24 83 25 91 26 84 27 88 28 85 29 89 30 90 31 86 32 87 33
REMARK SMILES IDX 79 34 15 36 16 37 17 38 18 39 19 40 20 41 21 42 73 43 22 44
REMARK SMILES IDX 72 45 23 46 24 47 25 48 66 49 26 50 71 51 65 52 67 53 27 54
REMARK SMILES IDX 70 55 64 56 63 57 28 59 54 60 37 61 53 62 38 63 41 64 52 65
REMARK SMILES IDX 68 66 39 67 40 68 51 70 69 71 42 72 29 73 30 74 35 75 31 76
REMARK SMILES IDX 32 77 34 78 36 79 33 80 55 81 56 82 61 83 57 84 58 85 60 86
REMARK SMILES IDX 62 87 59 88 43 89 44 90 49 91 45 92 46 93 48 94 50 95 47 96
REMARK H PARENT 79 35 67 58 41 69
REMARK Flexibility Score: inf
ROOT
ATOM      1  O   UNL A   1      33.453  28.842  27.578  1.00  0.00    -0.374 OA
ENDROOT
BRANCH   1   2
ATOM      2  C   UNL A   1      32.815  27.908  26.706  1.00  0.00     0.202 C 
BRANCH   2   3
ATOM      3  C   UNL A   1      31.332  27.614  26.919  1.00  0.00     0.261 C 
BRANCH   3   4
ATOM      4  O   UNL A   1      31.087  26.224  27.175  1.00  0.00    -0.459 OA
BRANCH   4   5
ATOM      5  C   UNL A   1      30.149  25.640  26.372  1.00  0.00     0.349 C 
ATOM      6  O   UNL A   1      28.970  25.522  26.666  1.00  0.00    -0.245 OA
BRANCH   5   7
ATOM      7  C   UNL A   1      30.729  25.270  25.093  1.00  0.00     0.123 A 
ATOM      8  C   UNL A   1      30.705  25.876  23.841  1.00  0.00     0.033 A 
ATOM      9  C   UNL A   1      31.563  25.170  22.934  1.00  0.00     0.090 A 
ATOM     10  S   UNL A   1      31.626  23.801  25.075  1.00  0.00    -0.130 S 
ATOM     11  C   UNL A   1      32.137  24.053  23.476  1.00  0.00     0.040 A 
ATOM     12  N   UNL A   1      31.850  25.630  21.645  1.00  0.00    -0.216 NA
ATOM     13  C   UNL A   1      33.110  23.154  22.790  1.00  0.00     0.071 C 
ATOM     14  C   UNL A   1      32.720  24.940  20.987  1.00  0.00     0.186 C 
ATOM     15  C   UNL A   1      33.411  23.654  21.370  1.00  0.00     0.111 C 
BRANCH   8  16
ATOM     16  C   UNL A   1      29.965  27.108  23.566  1.00  0.00    -0.014 A 
ATOM     17  C   UNL A   1      28.576  29.467  22.901  1.00  0.00     0.118 A 
ATOM     18  C   UNL A   1      27.883  28.280  23.146  1.00  0.00     0.047 A 
ATOM     19  C   UNL A   1      29.964  29.485  23.030  1.00  0.00     0.047 A 
ATOM     20  C   UNL A   1      28.568  27.112  23.486  1.00  0.00     0.012 A 
ATOM     21  C   UNL A   1      30.654  28.310  23.361  1.00  0.00     0.012 A 
BRANCH  17  22
ATOM     22  O   UNL A   1      27.786  30.537  22.586  1.00  0.00    -0.497 OA
ATOM     23  C   UNL A   1      27.861  31.659  23.456  1.00  0.00     0.278 C 
ENDBRANCH  17  22
ENDBRANCH   8  16
BRANCH  13  24
ATOM     24  C   UNL A   1      34.403  22.963  23.576  1.00  0.00    -0.035 A 
ATOM     25  C   UNL A   1      35.339  23.996  23.693  1.00  0.00     0.008 A 
ATOM     26  C   UNL A   1      34.672  21.733  24.203  1.00  0.00     0.054 A 
ATOM     27  C   UNL A   1      36.513  23.794  24.413  1.00  0.00     0.051 A 
ATOM     28  C   UNL A   1      35.857  21.516  24.927  1.00  0.00     0.161 A 
ATOM     29  C   UNL A   1      36.786  22.567  25.034  1.00  0.00     0.160 A 
BRANCH  28  30
ATOM     30  O   UNL A   1      36.158  20.318  25.519  1.00  0.00    -0.493 OA
ATOM     31  C   UNL A   1      36.599  19.246  24.696  1.00  0.00     0.278 C 
ENDBRANCH  28  30
BRANCH  29  32
ATOM     32  O   UNL A   1      37.999  22.576  25.673  1.00  0.00    -0.493 OA
ATOM     33  C   UNL A   1      38.456  23.788  26.252  1.00  0.00     0.278 C 
ENDBRANCH  29  32
ENDBRANCH  13  24
BRANCH  14  34
ATOM     34  O   UNL A   1      33.079  25.386  19.763  1.00  0.00    -0.496 OA
ATOM     35  H   UNL A   1      33.579  26.173  19.680  1.00  0.00     0.294 HD
ENDBRANCH  14  34
ENDBRANCH   5   7
ENDBRANCH   4   5
ENDBRANCH   3   4
ENDBRANCH   2   3
ENDBRANCH   1   2
BRANCH   1  36
ATOM     36  C   UNL A   1      34.095  29.997  27.050  1.00  0.00     0.202 C 
BRANCH  36  37
ATOM     37  C   UNL A   1      34.881  30.887  28.002  1.00  0.00     0.261 C 
BRANCH  37  38
ATOM     38  O   UNL A   1      36.281  30.764  27.816  1.00  0.00    -0.460 OA
BRANCH  38  39
ATOM     39  C   UNL A   1      36.927  30.233  28.879  1.00  0.00     0.338 C 
ATOM     40  O   UNL A   1      36.861  30.587  30.042  1.00  0.00    -0.246 OA
BRANCH  39  41
ATOM     41  C   UNL A   1      37.864  29.216  28.392  1.00  0.00     0.060 A 
ATOM     42  C   UNL A   1      38.247  28.248  29.324  1.00  0.00     0.016 A 
ATOM     43  C   UNL A   1      38.596  29.465  27.223  1.00  0.00     0.016 A 
ATOM     44  C   UNL A   1      39.524  27.750  29.239  1.00  0.00     0.010 A 
ATOM     45  C   UNL A   1      39.869  28.971  27.141  1.00  0.00     0.010 A 
ATOM     46  C   UNL A   1      40.347  28.227  28.215  1.00  0.00    -0.014 A 
BRANCH  46  47
ATOM     47  C   UNL A   1      41.756  27.926  28.279  1.00  0.00     0.031 A 
ATOM     48  C   UNL A   1      42.090  26.653  27.613  1.00  0.00     0.074 A 
ATOM     49  C   UNL A   1      42.635  28.803  28.800  1.00  0.00     0.049 A 
ATOM     50  N   UNL A   1      42.487  25.555  28.162  1.00  0.00    -0.248 NA
ATOM     51  C   UNL A   1      41.738  26.526  26.188  1.00  0.00     0.031 C 
ATOM     52  C   UNL A   1      42.407  30.185  29.235  1.00  0.00     0.029 A 
ATOM     53  N   UNL A   1      43.977  28.657  28.950  1.00  0.00    -0.354 N 
ATOM     54  C   UNL A   1      42.647  24.661  27.111  1.00  0.00     0.074 A 
ATOM     55  C   UNL A   1      41.971  25.232  25.977  1.00  0.00     0.031 C 
ATOM     56  C   UNL A   1      43.597  30.816  29.368  1.00  0.00     0.029 A 
ATOM     57  C   UNL A   1      44.660  29.850  29.164  1.00  0.00     0.049 A 
ATOM     58  H   UNL A   1      44.427  27.782  28.912  1.00  0.00     0.167 HD
ATOM     59  C   UNL A   1      43.565  23.661  27.174  1.00  0.00     0.037 A 
ATOM     60  C   UNL A   1      46.006  29.999  29.061  1.00  0.00     0.037 A 
ATOM     61  C   UNL A   1      43.985  23.419  28.530  1.00  0.00     0.049 A 
ATOM     62  C   UNL A   1      46.603  28.639  29.169  1.00  0.00     0.074 A 
ATOM     63  C   UNL A   1      43.342  23.011  29.682  1.00  0.00     0.029 A 
ATOM     64  N   UNL A   1      45.170  23.980  28.938  1.00  0.00    -0.354 N 
ATOM     65  N   UNL A   1      46.561  27.922  30.260  1.00  0.00    -0.248 NA
ATOM     66  C   UNL A   1      46.777  27.885  27.934  1.00  0.00     0.031 C 
ATOM     67  C   UNL A   1      43.939  23.776  30.726  1.00  0.00     0.029 A 
ATOM     68  C   UNL A   1      44.955  24.550  30.166  1.00  0.00     0.049 A 
ATOM     69  H   UNL A   1      46.020  23.974  28.439  1.00  0.00     0.167 HD
ATOM     70  C   UNL A   1      46.284  26.630  29.828  1.00  0.00     0.074 A 
ATOM     71  C   UNL A   1      46.478  26.661  28.380  1.00  0.00     0.031 C 
ATOM     72  C   UNL A   1      45.637  25.736  30.632  1.00  0.00     0.037 A 
BRANCH  59  73
ATOM     73  C   UNL A   1      44.363  23.198  25.987  1.00  0.00     0.057 A 
ATOM     74  C   UNL A   1      44.369  21.833  25.663  1.00  0.00     0.134 A 
ATOM     75  C   UNL A   1      45.342  23.979  25.338  1.00  0.00     0.134 A 
ATOM     76  F   UNL A   1      43.497  20.987  26.231  1.00  0.00    -0.206 F 
ATOM     77  C   UNL A   1      45.325  21.276  24.807  1.00  0.00     0.040 A 
ATOM     78  C   UNL A   1      46.264  23.443  24.440  1.00  0.00     0.040 A 
ATOM     79  F   UNL A   1      45.531  25.275  25.611  1.00  0.00    -0.206 F 
ATOM     80  C   UNL A   1      46.281  22.080  24.197  1.00  0.00     0.006 A 
ENDBRANCH  59  73
BRANCH  60  81
ATOM     81  C   UNL A   1      46.735  31.146  28.469  1.00  0.00     0.057 A 
ATOM     82  C   UNL A   1      46.583  31.498  27.122  1.00  0.00     0.134 A 
ATOM     83  C   UNL A   1      47.395  32.089  29.280  1.00  0.00     0.134 A 
ATOM     84  F   UNL A   1      45.921  30.691  26.280  1.00  0.00    -0.206 F 
ATOM     85  C   UNL A   1      47.054  32.718  26.611  1.00  0.00     0.040 A 
ATOM     86  C   UNL A   1      47.872  33.307  28.785  1.00  0.00     0.040 A 
ATOM     87  F   UNL A   1      47.519  31.898  30.602  1.00  0.00    -0.206 F 
ATOM     88  C   UNL A   1      47.693  33.630  27.446  1.00  0.00     0.006 A 
ENDBRANCH  60  81
BRANCH  72  89
ATOM     89  C   UNL A   1      45.405  26.112  32.069  1.00  0.00     0.057 A 
ATOM     90  C   UNL A   1      44.234  26.728  32.538  1.00  0.00     0.134 A 
ATOM     91  C   UNL A   1      46.310  25.658  33.034  1.00  0.00     0.134 A 
ATOM     92  F   UNL A   1      43.268  27.109  31.693  1.00  0.00    -0.206 F 
ATOM     93  C   UNL A   1      43.988  26.903  33.904  1.00  0.00     0.040 A 
ATOM     94  C   UNL A   1      46.063  25.798  34.401  1.00  0.00     0.040 A 
ATOM     95  F   UNL A   1      47.424  25.008  32.660  1.00  0.00    -0.206 F 
ATOM     96  C   UNL A   1      44.901  26.428  34.841  1.00  0.00     0.006 A 
ENDBRANCH  72  89
ENDBRANCH  46  47
ENDBRANCH  39  41
ENDBRANCH  38  39
ENDBRANCH  37  38
ENDBRANCH  36  37
ENDBRANCH   1  36
TORSDOF 20
ENDMDL
MODEL 3
REMARK VINA RESULT:     -11.1      2.284      5.906
REMARK SMILES COc1ccc(-c2c(C(=O)OCCOCCOC(=O)c3ccc(-c4c5nc(c(-c6c(F)cccc6F)c6ccc([nH]6)c(-c6c(F)cccc6F)c6nc(c(-c7c(F)cccc7F)c7ccc4[nH]7)C=C6)C=C5)cc3)sc3c2N=C(O)C[C@H]3c2ccc(OC)c(OC)c2)cc1
REMARK SMILES IDX 14 1 13 2 12 3 11 4 9 5 10 6 8 7 7 8 76 9 74 10 75 11 77 12
REMARK SMILES IDX 81 13 78 14 80 15 6 16 3 17 4 18 93 19 5 20 92 21 2 22 1 23
REMARK SMILES IDX 82 24 83 25 91 26 84 27 88 28 85 29 89 30 90 31 86 32 87 33
REMARK SMILES IDX 79 34 15 36 16 37 17 38 18 39 19 40 20 41 21 42 73 43 22 44
REMARK SMILES IDX 72 45 23 46 24 47 25 48 66 49 26 50 71 51 65 52 67 53 27 54
REMARK SMILES IDX 70 55 64 56 63 57 28 59 54 60 37 61 53 62 38 63 41 64 52 65
REMARK SMILES IDX 68 66 39 67 40 68 51 70 69 71 42 72 29 73 30 74 35 75 31 76
REMARK SMILES IDX 32 77 34 78 36 79 33 80 55 81 56 82 61 83 57 84 58 85 60 86
REMARK SMILES IDX 62 87 59 88 43 89 44 90 49 91 45 92 46 93 48 94 50 95 47 96
REMARK H PARENT 79 35 67 58 41 69
REMARK Flexibility Score: inf
ROOT
ATOM      1  O   UNL A   1      32.425  28.923  25.872  1.00  0.00    -0.374 OA
ENDROOT
BRANCH   1   2
ATOM      2  C   UNL A   1      32.842  27.569  26.052  1.00  0.00     0.202 C 
BRANCH   2   3
ATOM      3  C   UNL A   1      31.954  26.642  26.880  1.00  0.00     0.261 C 
BRANCH   3   4
ATOM      4  O   UNL A   1      30.561  26.836  26.600  1.00  0.00    -0.459 OA
BRANCH   4   5
ATOM      5  C   UNL A   1      29.921  25.760  26.054  1.00  0.00     0.349 C 
ATOM      6  O   UNL A   1      28.946  25.216  26.548  1.00  0.00    -0.245 OA
BRANCH   5   7
ATOM      7  C   UNL A   1      30.502  25.418  24.767  1.00  0.00     0.123 A 
ATOM      8  C   UNL A   1      30.568  26.100  23.556  1.00  0.00     0.033 A 
ATOM      9  C   UNL A   1      31.385  25.376  22.626  1.00  0.00     0.090 A 
ATOM     10  S   UNL A   1      31.265  23.877  24.676  1.00  0.00    -0.130 S 
ATOM     11  C   UNL A   1      31.842  24.180  23.109  1.00  0.00     0.040 A 
ATOM     12  N   UNL A   1      31.748  25.886  21.376  1.00  0.00    -0.216 NA
ATOM     13  C   UNL A   1      32.749  23.240  22.388  1.00  0.00     0.071 C 
ATOM     14  C   UNL A   1      32.572  25.162  20.696  1.00  0.00     0.186 C 
ATOM     15  C   UNL A   1      33.134  23.797  21.011  1.00  0.00     0.111 C 
BRANCH   8  16
ATOM     16  C   UNL A   1      29.949  27.409  23.344  1.00  0.00    -0.014 A 
ATOM     17  C   UNL A   1      28.784  29.914  22.797  1.00  0.00     0.118 A 
ATOM     18  C   UNL A   1      27.983  28.802  23.061  1.00  0.00     0.047 A 
ATOM     19  C   UNL A   1      30.171  29.783  22.849  1.00  0.00     0.047 A 
ATOM     20  C   UNL A   1      28.558  27.560  23.342  1.00  0.00     0.012 A 
ATOM     21  C   UNL A   1      30.749  28.536  23.121  1.00  0.00     0.012 A 
BRANCH  17  22
ATOM     22  O   UNL A   1      28.097  31.068  22.545  1.00  0.00    -0.497 OA
ATOM     23  C   UNL A   1      28.555  32.238  23.209  1.00  0.00     0.278 C 
ENDBRANCH  17  22
ENDBRANCH   8  16
BRANCH  13  24
ATOM     24  C   UNL A   1      33.997  22.884  23.190  1.00  0.00    -0.035 A 
ATOM     25  C   UNL A   1      35.061  23.784  23.312  1.00  0.00     0.008 A 
ATOM     26  C   UNL A   1      34.093  21.634  23.827  1.00  0.00     0.054 A 
ATOM     27  C   UNL A   1      36.190  23.432  24.046  1.00  0.00     0.051 A 
ATOM     28  C   UNL A   1      35.231  21.266  24.565  1.00  0.00     0.161 A 
ATOM     29  C   UNL A   1      36.291  22.184  24.677  1.00  0.00     0.160 A 
BRANCH  28  30
ATOM     30  O   UNL A   1      35.364  20.043  25.167  1.00  0.00    -0.493 OA
ATOM     31  C   UNL A   1      34.614  18.949  24.656  1.00  0.00     0.278 C 
ENDBRANCH  28  30
BRANCH  29  32
ATOM     32  O   UNL A   1      37.488  22.037  25.330  1.00  0.00    -0.493 OA
ATOM     33  C   UNL A   1      38.031  23.151  26.019  1.00  0.00     0.278 C 
ENDBRANCH  29  32
ENDBRANCH  13  24
BRANCH  14  34
ATOM     34  O   UNL A   1      33.004  25.648  19.510  1.00  0.00    -0.496 OA
ATOM     35  H   UNL A   1      32.878  25.150  18.727  1.00  0.00     0.294 HD
ENDBRANCH  14  34
ENDBRANCH   5   7
ENDBRANCH   4   5
ENDBRANCH   3   4
ENDBRANCH   2   3
ENDBRANCH   1   2
BRANCH   1  36
ATOM     36  C   UNL A   1      32.215  29.768  26.998  1.00  0.00     0.202 C 
BRANCH  36  37
ATOM     37  C   UNL A   1      32.597  31.236  26.883  1.00  0.00     0.261 C 
BRANCH  37  38
ATOM     38  O   UNL A   1      32.885  31.814  28.145  1.00  0.00    -0.460 OA
BRANCH  38  39
ATOM     39  C   UNL A   1      33.013  33.160  28.112  1.00  0.00     0.338 C 
ATOM     40  O   UNL A   1      32.295  33.961  27.542  1.00  0.00    -0.246 OA
BRANCH  39  41
ATOM     41  C   UNL A   1      34.271  33.525  28.772  1.00  0.00     0.060 A 
ATOM     42  C   UNL A   1      35.277  34.012  27.936  1.00  0.00     0.016 A 
ATOM     43  C   UNL A   1      34.534  33.031  30.057  1.00  0.00     0.016 A 
ATOM     44  C   UNL A   1      36.578  33.718  28.263  1.00  0.00     0.010 A 
ATOM     45  C   UNL A   1      35.830  32.736  30.382  1.00  0.00     0.010 A 
ATOM     46  C   UNL A   1      36.809  32.971  29.422  1.00  0.00    -0.014 A 
BRANCH  46  47
ATOM     47  C   UNL A   1      38.128  32.426  29.628  1.00  0.00     0.031 A 
ATOM     48  C   UNL A   1      38.226  31.015  29.209  1.00  0.00     0.074 A 
ATOM     49  C   UNL A   1      39.146  33.200  30.051  1.00  0.00     0.049 A 
ATOM     50  N   UNL A   1      38.381  29.977  29.959  1.00  0.00    -0.248 NA
ATOM     51  C   UNL A   1      37.902  30.706  27.805  1.00  0.00     0.031 C 
ATOM     52  C   UNL A   1      39.180  34.655  30.233  1.00  0.00     0.029 A 
ATOM     53  N   UNL A   1      40.427  32.832  30.313  1.00  0.00    -0.354 N 
ATOM     54  C   UNL A   1      38.396  28.897  29.085  1.00  0.00     0.074 A 
ATOM     55  C   UNL A   1      37.882  29.375  27.830  1.00  0.00     0.031 C 
ATOM     56  C   UNL A   1      40.466  35.063  30.336  1.00  0.00     0.029 A 
ATOM     57  C   UNL A   1      41.325  33.894  30.367  1.00  0.00     0.049 A 
ATOM     58  H   UNL A   1      40.697  31.895  30.451  1.00  0.00     0.167 HD
ATOM     59  C   UNL A   1      39.096  27.770  29.376  1.00  0.00     0.037 A 
ATOM     60  C   UNL A   1      42.676  33.766  30.329  1.00  0.00     0.037 A 
ATOM     61  C   UNL A   1      39.416  27.696  30.777  1.00  0.00     0.049 A 
ATOM     62  C   UNL A   1      42.990  32.359  30.704  1.00  0.00     0.074 A 
ATOM     63  C   UNL A   1      38.669  27.628  31.937  1.00  0.00     0.029 A 
ATOM     64  N   UNL A   1      40.676  28.088  31.163  1.00  0.00    -0.354 N 
ATOM     65  N   UNL A   1      42.772  31.868  31.894  1.00  0.00    -0.248 NA
ATOM     66  C   UNL A   1      43.051  31.379  29.626  1.00  0.00     0.031 C 
ATOM     67  C   UNL A   1      39.371  28.439  32.875  1.00  0.00     0.029 A 
ATOM     68  C   UNL A   1      40.537  28.897  32.261  1.00  0.00     0.049 A 
ATOM     69  H   UNL A   1      41.523  27.834  30.729  1.00  0.00     0.167 HD
ATOM     70  C   UNL A   1      42.261  30.596  31.668  1.00  0.00     0.074 A 
ATOM     71  C   UNL A   1      42.503  30.332  30.250  1.00  0.00     0.031 C 
ATOM     72  C   UNL A   1      41.425  29.996  32.566  1.00  0.00     0.037 A 
BRANCH  59  73
ATOM     73  C   UNL A   1      39.825  26.961  28.339  1.00  0.00     0.057 A 
ATOM     74  C   UNL A   1      39.724  25.562  28.372  1.00  0.00     0.134 A 
ATOM     75  C   UNL A   1      40.838  27.475  27.502  1.00  0.00     0.134 A 
ATOM     76  F   UNL A   1      38.810  24.956  29.145  1.00  0.00    -0.206 F 
ATOM     77  C   UNL A   1      40.613  24.735  27.677  1.00  0.00     0.040 A 
ATOM     78  C   UNL A   1      41.694  26.660  26.762  1.00  0.00     0.040 A 
ATOM     79  F   UNL A   1      41.128  28.780  27.435  1.00  0.00    -0.206 F 
ATOM     80  C   UNL A   1      41.606  25.284  26.874  1.00  0.00     0.006 A 
ENDBRANCH  59  73
BRANCH  60  81
ATOM     81  C   UNL A   1      43.636  34.632  29.603  1.00  0.00     0.057 A 
ATOM     82  C   UNL A   1      44.809  35.098  30.209  1.00  0.00     0.134 A 
ATOM     83  C   UNL A   1      43.555  34.800  28.207  1.00  0.00     0.134 A 
ATOM     84  F   UNL A   1      45.005  34.935  31.525  1.00  0.00    -0.206 F 
ATOM     85  C   UNL A   1      45.844  35.693  29.471  1.00  0.00     0.040 A 
ATOM     86  C   UNL A   1      44.577  35.394  27.460  1.00  0.00     0.040 A 
ATOM     87  F   UNL A   1      42.518  34.312  27.510  1.00  0.00    -0.206 F 
ATOM     88  C   UNL A   1      45.733  35.835  28.091  1.00  0.00     0.006 A 
ENDBRANCH  60  81
BRANCH  72  89
ATOM     89  C   UNL A   1      41.226  30.658  33.901  1.00  0.00     0.057 A 
ATOM     90  C   UNL A   1      42.109  30.519  34.984  1.00  0.00     0.134 A 
ATOM     91  C   UNL A   1      40.219  31.620  34.026  1.00  0.00     0.134 A 
ATOM     92  F   UNL A   1      43.158  29.691  34.917  1.00  0.00    -0.206 F 
ATOM     93  C   UNL A   1      41.978  31.286  36.146  1.00  0.00     0.040 A 
ATOM     94  C   UNL A   1      40.095  32.415  35.168  1.00  0.00     0.040 A 
ATOM     95  F   UNL A   1      39.374  31.848  33.008  1.00  0.00    -0.206 F 
ATOM     96  C   UNL A   1      40.974  32.246  36.235  1.00  0.00     0.006 A 
ENDBRANCH  72  89
ENDBRANCH  46  47
ENDBRANCH  39  41
ENDBRANCH  38  39
ENDBRANCH  37  38
ENDBRANCH  36  37
ENDBRANCH   1  36
TORSDOF 20
ENDMDL
