MODEL 1
REMARK VINA RESULT:     -10.9      0.000      0.000
REMARK SMILES COc1cc(N[C@H]2C=C[C@@H](C(=O)OCCOCCOC(=O)c3ccc(-c4c5nc(c(-c6c(F)cccc6F)c6ccc([nH]6)c(-c6c(F)cccc6F)c6nc(c(-c7c(F)cccc7F)c7ccc4[nH]7)C=C6)C=C5)cc3)C2)c([N+](=O)[O-])cc1F
REMARK SMILES IDX 15 1 14 2 13 3 11 4 12 5 10 6 7 7 8 8 76 9 9 10 6 11 5 13
REMARK SMILES IDX 3 14 4 15 82 16 81 17 83 18 77 19 2 20 1 21 78 22 79 23
REMARK SMILES IDX 80 24 16 25 17 26 18 27 19 28 20 29 21 30 22 31 23 32 75 33
REMARK SMILES IDX 24 34 74 35 25 36 26 37 27 38 68 39 28 40 73 41 67 42 69 43
REMARK SMILES IDX 29 44 72 45 66 46 65 47 30 49 56 50 39 51 55 52 40 53 43 54
REMARK SMILES IDX 54 55 70 56 41 57 42 58 53 60 71 61 44 62 31 63 32 64 37 65
REMARK SMILES IDX 33 66 34 67 36 68 38 69 35 70 57 71 58 72 63 73 59 74 60 75
REMARK SMILES IDX 62 76 64 77 61 78 45 79 46 80 51 81 47 82 48 83 50 84 52 85
REMARK SMILES IDX 49 86
REMARK H PARENT 6 12 69 48 43 59
REMARK Flexibility Score: inf
ROOT
ATOM      1  C   UNL A   1      40.783  21.326  27.339  1.00  0.00     0.202 C 
ENDROOT
BRANCH   1   2
ATOM      2  C   UNL A   1      40.075  21.533  25.997  1.00  0.00     0.261 C 
BRANCH   2   3
ATOM      3  O   UNL A   1      38.652  21.457  26.190  1.00  0.00    -0.463 OA
BRANCH   3   4
ATOM      4  C   UNL A   1      37.947  22.574  25.881  1.00  0.00     0.312 C 
ATOM      5  O   UNL A   1      38.344  23.718  26.074  1.00  0.00    -0.252 OA
BRANCH   4   6
ATOM      6  C   UNL A   1      36.602  22.268  25.221  1.00  0.00     0.124 C 
ATOM      7  C   UNL A   1      34.388  23.326  25.033  1.00  0.00     0.103 C 
ATOM      8  C   UNL A   1      35.259  23.661  23.872  1.00  0.00    -0.006 C 
ATOM      9  C   UNL A   1      35.311  22.581  26.007  1.00  0.00     0.048 C 
ATOM     10  C   UNL A   1      36.457  23.074  23.961  1.00  0.00    -0.014 C 
BRANCH   7  11
ATOM     11  N   UNL A   1      33.746  24.502  25.592  1.00  0.00    -0.373 N 
ATOM     12  H   UNL A   1      34.142  24.827  26.432  1.00  0.00     0.161 HD
BRANCH  11  13
ATOM     13  C   UNL A   1      32.670  25.244  25.139  1.00  0.00     0.117 A 
ATOM     14  C   UNL A   1      31.834  27.275  24.021  1.00  0.00     0.157 A 
ATOM     15  C   UNL A   1      32.870  26.435  24.424  1.00  0.00     0.082 A 
ATOM     16  C   UNL A   1      30.526  26.900  24.287  1.00  0.00     0.172 A 
ATOM     17  C   UNL A   1      30.256  25.717  24.962  1.00  0.00     0.131 A 
ATOM     18  F   UNL A   1      29.496  27.646  23.873  1.00  0.00    -0.203 F 
ATOM     19  C   UNL A   1      31.319  24.893  25.388  1.00  0.00     0.295 A 
BRANCH  14  20
ATOM     20  O   UNL A   1      32.250  28.389  23.347  1.00  0.00    -0.494 OA
ATOM     21  C   UNL A   1      33.656  28.575  23.309  1.00  0.00     0.278 C 
ENDBRANCH  14  20
BRANCH  19  22
ATOM     22  N   UNL A   1      30.959  23.648  26.096  1.00  0.00     0.065 N 
ATOM     23  O   UNL A   1      31.114  22.565  25.512  1.00  0.00    -0.258 OA
ATOM     24  O   UNL A   1      30.519  23.751  27.250  1.00  0.00    -0.258 OA
ENDBRANCH  19  22
ENDBRANCH  11  13
ENDBRANCH   7  11
ENDBRANCH   4   6
ENDBRANCH   3   4
ENDBRANCH   2   3
ENDBRANCH   1   2
BRANCH   1  25
ATOM     25  O   UNL A   1      42.167  20.984  27.249  1.00  0.00    -0.374 OA
BRANCH  25  26
ATOM     26  C   UNL A   1      42.712  20.792  25.944  1.00  0.00     0.202 C 
BRANCH  26  27
ATOM     27  C   UNL A   1      43.708  21.853  25.459  1.00  0.00     0.261 C 
BRANCH  27  28
ATOM     28  O   UNL A   1      43.076  23.008  24.879  1.00  0.00    -0.460 OA
BRANCH  28  29
ATOM     29  C   UNL A   1      43.771  24.159  25.032  1.00  0.00     0.338 C 
ATOM     30  O   UNL A   1      44.800  24.483  24.449  1.00  0.00    -0.246 OA
BRANCH  29  31
ATOM     31  C   UNL A   1      43.064  25.092  25.930  1.00  0.00     0.060 A 
ATOM     32  C   UNL A   1      43.652  26.344  26.154  1.00  0.00     0.016 A 
ATOM     33  C   UNL A   1      41.910  24.722  26.625  1.00  0.00     0.016 A 
ATOM     34  C   UNL A   1      43.122  27.207  27.113  1.00  0.00     0.010 A 
ATOM     35  C   UNL A   1      41.382  25.589  27.591  1.00  0.00     0.010 A 
ATOM     36  C   UNL A   1      42.006  26.821  27.864  1.00  0.00    -0.014 A 
BRANCH  36  37
ATOM     37  C   UNL A   1      41.561  27.652  29.013  1.00  0.00     0.031 A 
ATOM     38  C   UNL A   1      42.258  27.520  30.335  1.00  0.00     0.074 A 
ATOM     39  C   UNL A   1      40.560  28.540  28.883  1.00  0.00     0.049 A 
ATOM     40  N   UNL A   1      42.008  28.135  31.461  1.00  0.00    -0.248 NA
ATOM     41  C   UNL A   1      43.396  26.590  30.390  1.00  0.00     0.031 C 
ATOM     42  C   UNL A   1      39.860  28.817  27.640  1.00  0.00     0.029 A 
ATOM     43  N   UNL A   1      39.941  29.353  29.799  1.00  0.00    -0.354 N 
ATOM     44  C   UNL A   1      42.969  27.687  32.354  1.00  0.00     0.074 A 
ATOM     45  C   UNL A   1      43.777  26.710  31.654  1.00  0.00     0.031 C 
ATOM     46  C   UNL A   1      38.863  29.684  27.868  1.00  0.00     0.029 A 
ATOM     47  C   UNL A   1      38.863  30.033  29.285  1.00  0.00     0.049 A 
ATOM     48  H   UNL A   1      40.241  29.441  30.732  1.00  0.00     0.167 HD
ATOM     49  C   UNL A   1      43.174  28.077  33.633  1.00  0.00     0.037 A 
ATOM     50  C   UNL A   1      37.965  30.836  29.885  1.00  0.00     0.037 A 
ATOM     51  C   UNL A   1      42.363  29.041  34.328  1.00  0.00     0.049 A 
ATOM     52  C   UNL A   1      38.134  31.159  31.341  1.00  0.00     0.074 A 
ATOM     53  C   UNL A   1      42.509  29.515  35.620  1.00  0.00     0.029 A 
ATOM     54  N   UNL A   1      41.246  29.667  33.796  1.00  0.00    -0.354 N 
ATOM     55  N   UNL A   1      39.067  30.755  32.167  1.00  0.00    -0.248 NA
ATOM     56  C   UNL A   1      37.144  32.062  31.944  1.00  0.00     0.031 C 
ATOM     57  C   UNL A   1      41.451  30.389  35.887  1.00  0.00     0.029 A 
ATOM     58  C   UNL A   1      40.673  30.500  34.745  1.00  0.00     0.049 A 
ATOM     59  H   UNL A   1      40.909  29.541  32.880  1.00  0.00     0.167 HD
ATOM     60  C   UNL A   1      38.802  31.381  33.376  1.00  0.00     0.074 A 
ATOM     61  C   UNL A   1      37.617  32.190  33.177  1.00  0.00     0.031 C 
ATOM     62  C   UNL A   1      39.491  31.299  34.540  1.00  0.00     0.037 A 
BRANCH  49  63
ATOM     63  C   UNL A   1      44.322  27.454  34.366  1.00  0.00     0.057 A 
ATOM     64  C   UNL A   1      44.150  26.270  35.091  1.00  0.00     0.134 A 
ATOM     65  C   UNL A   1      45.590  28.051  34.391  1.00  0.00     0.134 A 
ATOM     66  F   UNL A   1      42.960  25.649  35.111  1.00  0.00    -0.206 F 
ATOM     67  C   UNL A   1      45.195  25.703  35.822  1.00  0.00     0.040 A 
ATOM     68  C   UNL A   1      46.650  27.482  35.099  1.00  0.00     0.040 A 
ATOM     69  F   UNL A   1      45.823  29.179  33.705  1.00  0.00    -0.206 F 
ATOM     70  C   UNL A   1      46.451  26.309  35.824  1.00  0.00     0.006 A 
ENDBRANCH  49  63
BRANCH  50  71
ATOM     71  C   UNL A   1      36.845  31.402  29.094  1.00  0.00     0.057 A 
ATOM     72  C   UNL A   1      36.843  32.745  28.698  1.00  0.00     0.134 A 
ATOM     73  C   UNL A   1      35.737  30.624  28.748  1.00  0.00     0.134 A 
ATOM     74  F   UNL A   1      37.877  33.543  29.003  1.00  0.00    -0.206 F 
ATOM     75  C   UNL A   1      35.769  33.299  27.999  1.00  0.00     0.040 A 
ATOM     76  C   UNL A   1      34.664  31.160  28.033  1.00  0.00     0.040 A 
ATOM     77  F   UNL A   1      35.689  29.328  29.087  1.00  0.00    -0.206 F 
ATOM     78  C   UNL A   1      34.676  32.504  27.663  1.00  0.00     0.006 A 
ENDBRANCH  50  71
BRANCH  62  79
ATOM     79  C   UNL A   1      39.002  32.122  35.694  1.00  0.00     0.057 A 
ATOM     80  C   UNL A   1      39.398  33.459  35.834  1.00  0.00     0.134 A 
ATOM     81  C   UNL A   1      38.204  31.574  36.704  1.00  0.00     0.134 A 
ATOM     82  F   UNL A   1      40.169  34.042  34.904  1.00  0.00    -0.206 F 
ATOM     83  C   UNL A   1      39.033  34.215  36.948  1.00  0.00     0.040 A 
ATOM     84  C   UNL A   1      37.812  32.327  37.811  1.00  0.00     0.040 A 
ATOM     85  F   UNL A   1      37.780  30.303  36.621  1.00  0.00    -0.206 F 
ATOM     86  C   UNL A   1      38.236  33.648  37.941  1.00  0.00     0.006 A 
ENDBRANCH  62  79
ENDBRANCH  36  37
ENDBRANCH  29  31
ENDBRANCH  28  29
ENDBRANCH  27  28
ENDBRANCH  26  27
ENDBRANCH  25  26
ENDBRANCH   1  25
TORSDOF 18
ENDMDL
MODEL 2
REMARK VINA RESULT:     -10.8      4.570      9.978
REMARK SMILES COc1cc(N[C@H]2C=C[C@@H](C(=O)OCCOCCOC(=O)c3ccc(-c4c5nc(c(-c6c(F)cccc6F)c6ccc([nH]6)c(-c6c(F)cccc6F)c6nc(c(-c7c(F)cccc7F)c7ccc4[nH]7)C=C6)C=C5)cc3)C2)c([N+](=O)[O-])cc1F
REMARK SMILES IDX 15 1 14 2 13 3 11 4 12 5 10 6 7 7 8 8 76 9 9 10 6 11 5 13
REMARK SMILES IDX 3 14 4 15 82 16 81 17 83 18 77 19 2 20 1 21 78 22 79 23
REMARK SMILES IDX 80 24 16 25 17 26 18 27 19 28 20 29 21 30 22 31 23 32 75 33
REMARK SMILES IDX 24 34 74 35 25 36 26 37 27 38 68 39 28 40 73 41 67 42 69 43
REMARK SMILES IDX 29 44 72 45 66 46 65 47 30 49 56 50 39 51 55 52 40 53 43 54
REMARK SMILES IDX 54 55 70 56 41 57 42 58 53 60 71 61 44 62 31 63 32 64 37 65
REMARK SMILES IDX 33 66 34 67 36 68 38 69 35 70 57 71 58 72 63 73 59 74 60 75
REMARK SMILES IDX 62 76 64 77 61 78 45 79 46 80 51 81 47 82 48 83 50 84 52 85
REMARK SMILES IDX 49 86
REMARK H PARENT 6 12 69 48 43 59
REMARK Flexibility Score: inf
ROOT
ATOM      1  C   UNL A   1      33.688  35.600  29.532  1.00  0.00     0.202 C 
ENDROOT
BRANCH   1   2
ATOM      2  C   UNL A   1      33.845  34.866  28.198  1.00  0.00     0.261 C 
BRANCH   2   3
ATOM      3  O   UNL A   1      33.590  33.464  28.391  1.00  0.00    -0.463 OA
BRANCH   3   4
ATOM      4  C   UNL A   1      34.577  32.618  28.004  1.00  0.00     0.312 C 
ATOM      5  O   UNL A   1      35.673  32.979  27.590  1.00  0.00    -0.252 OA
BRANCH   4   6
ATOM      6  C   UNL A   1      34.202  31.145  28.170  1.00  0.00     0.124 C 
ATOM      7  C   UNL A   1      33.712  29.220  26.718  1.00  0.00     0.103 C 
ATOM      8  C   UNL A   1      35.142  29.248  27.131  1.00  0.00    -0.006 C 
ATOM      9  C   UNL A   1      33.136  30.548  27.228  1.00  0.00     0.048 C 
ATOM     10  C   UNL A   1      35.410  30.283  27.934  1.00  0.00    -0.014 C 
BRANCH   7  11
ATOM     11  N   UNL A   1      33.559  29.005  25.290  1.00  0.00    -0.373 N 
ATOM     12  H   UNL A   1      33.861  29.754  24.727  1.00  0.00     0.161 HD
BRANCH  11  13
ATOM     13  C   UNL A   1      33.060  27.923  24.588  1.00  0.00     0.117 A 
ATOM     14  C   UNL A   1      33.321  25.580  23.866  1.00  0.00     0.157 A 
ATOM     15  C   UNL A   1      33.717  26.683  24.622  1.00  0.00     0.082 A 
ATOM     16  C   UNL A   1      32.187  25.684  23.076  1.00  0.00     0.172 A 
ATOM     17  C   UNL A   1      31.471  26.873  23.021  1.00  0.00     0.131 A 
ATOM     18  F   UNL A   1      31.736  24.638  22.374  1.00  0.00    -0.203 F 
ATOM     19  C   UNL A   1      31.903  27.987  23.771  1.00  0.00     0.295 A 
BRANCH  14  20
ATOM     20  O   UNL A   1      34.106  24.476  24.040  1.00  0.00    -0.494 OA
ATOM     21  C   UNL A   1      35.135  24.618  25.005  1.00  0.00     0.278 C 
ENDBRANCH  14  20
BRANCH  19  22
ATOM     22  N   UNL A   1      31.092  29.217  23.670  1.00  0.00     0.065 N 
ATOM     23  O   UNL A   1      30.654  29.552  22.559  1.00  0.00    -0.258 OA
ATOM     24  O   UNL A   1      30.887  29.856  24.712  1.00  0.00    -0.258 OA
ENDBRANCH  19  22
ENDBRANCH  11  13
ENDBRANCH   7  11
ENDBRANCH   4   6
ENDBRANCH   3   4
ENDBRANCH   2   3
ENDBRANCH   1   2
BRANCH   1  25
ATOM     25  O   UNL A   1      33.384  34.766  30.652  1.00  0.00    -0.374 OA
BRANCH  25  26
ATOM     26  C   UNL A   1      34.425  34.532  31.599  1.00  0.00     0.202 C 
BRANCH  26  27
ATOM     27  C   UNL A   1      34.173  33.426  32.631  1.00  0.00     0.261 C 
BRANCH  27  28
ATOM     28  O   UNL A   1      34.944  32.235  32.394  1.00  0.00    -0.460 OA
BRANCH  28  29
ATOM     29  C   UNL A   1      36.173  32.245  32.962  1.00  0.00     0.338 C 
ATOM     30  O   UNL A   1      36.479  32.715  34.052  1.00  0.00    -0.246 OA
BRANCH  29  31
ATOM     31  C   UNL A   1      37.141  31.483  32.148  1.00  0.00     0.060 A 
ATOM     32  C   UNL A   1      38.125  30.754  32.828  1.00  0.00     0.016 A 
ATOM     33  C   UNL A   1      37.161  31.561  30.753  1.00  0.00     0.016 A 
ATOM     34  C   UNL A   1      39.163  30.146  32.123  1.00  0.00     0.010 A 
ATOM     35  C   UNL A   1      38.207  30.953  30.046  1.00  0.00     0.010 A 
ATOM     36  C   UNL A   1      39.232  30.272  30.730  1.00  0.00    -0.014 A 
BRANCH  36  37
ATOM     37  C   UNL A   1      40.435  29.793  30.002  1.00  0.00     0.031 A 
ATOM     38  C   UNL A   1      41.562  30.744  29.729  1.00  0.00     0.074 A 
ATOM     39  C   UNL A   1      40.542  28.513  29.602  1.00  0.00     0.049 A 
ATOM     40  N   UNL A   1      42.683  30.529  29.091  1.00  0.00    -0.248 NA
ATOM     41  C   UNL A   1      41.417  32.107  30.261  1.00  0.00     0.031 C 
ATOM     42  C   UNL A   1      39.557  27.479  29.873  1.00  0.00     0.029 A 
ATOM     43  N   UNL A   1      41.506  27.868  28.869  1.00  0.00    -0.354 N 
ATOM     44  C   UNL A   1      43.389  31.720  29.163  1.00  0.00     0.074 A 
ATOM     45  C   UNL A   1      42.550  32.670  29.863  1.00  0.00     0.031 C 
ATOM     46  C   UNL A   1      39.921  26.341  29.265  1.00  0.00     0.029 A 
ATOM     47  C   UNL A   1      41.181  26.567  28.565  1.00  0.00     0.049 A 
ATOM     48  H   UNL A   1      42.347  28.294  28.590  1.00  0.00     0.167 HD
ATOM     49  C   UNL A   1      44.636  31.986  28.710  1.00  0.00     0.037 A 
ATOM     50  C   UNL A   1      41.815  25.661  27.798  1.00  0.00     0.037 A 
ATOM     51  C   UNL A   1      45.463  31.042  28.006  1.00  0.00     0.049 A 
ATOM     52  C   UNL A   1      43.142  26.016  27.195  1.00  0.00     0.074 A 
ATOM     53  C   UNL A   1      46.749  31.215  27.528  1.00  0.00     0.029 A 
ATOM     54  N   UNL A   1      45.080  29.753  27.667  1.00  0.00    -0.354 N 
ATOM     55  N   UNL A   1      43.816  27.136  27.299  1.00  0.00    -0.248 NA
ATOM     56  C   UNL A   1      43.808  24.983  26.390  1.00  0.00     0.031 C 
ATOM     57  C   UNL A   1      47.126  30.050  26.854  1.00  0.00     0.029 A 
ATOM     58  C   UNL A   1      46.095  29.130  26.955  1.00  0.00     0.049 A 
ATOM     59  H   UNL A   1      44.217  29.340  27.897  1.00  0.00     0.167 HD
ATOM     60  C   UNL A   1      45.001  26.933  26.606  1.00  0.00     0.074 A 
ATOM     61  C   UNL A   1      44.952  25.583  26.082  1.00  0.00     0.031 C 
ATOM     62  C   UNL A   1      46.037  27.788  26.434  1.00  0.00     0.037 A 
BRANCH  49  63
ATOM     63  C   UNL A   1      45.179  33.359  28.960  1.00  0.00     0.057 A 
ATOM     64  C   UNL A   1      45.924  33.636  30.112  1.00  0.00     0.134 A 
ATOM     65  C   UNL A   1      44.928  34.420  28.079  1.00  0.00     0.134 A 
ATOM     66  F   UNL A   1      46.197  32.665  30.997  1.00  0.00    -0.206 F 
ATOM     67  C   UNL A   1      46.392  34.922  30.386  1.00  0.00     0.040 A 
ATOM     68  C   UNL A   1      45.411  35.705  28.330  1.00  0.00     0.040 A 
ATOM     69  F   UNL A   1      44.233  34.216  26.950  1.00  0.00    -0.206 F 
ATOM     70  C   UNL A   1      46.139  35.960  29.490  1.00  0.00     0.006 A 
ENDBRANCH  49  63
BRANCH  50  71
ATOM     71  C   UNL A   1      41.204  24.326  27.586  1.00  0.00     0.057 A 
ATOM     72  C   UNL A   1      41.705  23.188  28.228  1.00  0.00     0.134 A 
ATOM     73  C   UNL A   1      40.130  24.153  26.708  1.00  0.00     0.134 A 
ATOM     74  F   UNL A   1      42.737  23.289  29.079  1.00  0.00    -0.206 F 
ATOM     75  C   UNL A   1      41.169  21.920  27.993  1.00  0.00     0.040 A 
ATOM     76  C   UNL A   1      39.572  22.894  26.478  1.00  0.00     0.040 A 
ATOM     77  F   UNL A   1      39.598  25.209  26.076  1.00  0.00    -0.206 F 
ATOM     78  C   UNL A   1      40.097  21.772  27.116  1.00  0.00     0.006 A 
ENDBRANCH  50  71
BRANCH  62  79
ATOM     79  C   UNL A   1      47.225  27.291  25.666  1.00  0.00     0.057 A 
ATOM     80  C   UNL A   1      48.261  26.610  26.319  1.00  0.00     0.134 A 
ATOM     81  C   UNL A   1      47.381  27.551  24.300  1.00  0.00     0.134 A 
ATOM     82  F   UNL A   1      48.177  26.335  27.629  1.00  0.00    -0.206 F 
ATOM     83  C   UNL A   1      49.418  26.222  25.643  1.00  0.00     0.040 A 
ATOM     84  C   UNL A   1      48.522  27.147  23.607  1.00  0.00     0.040 A 
ATOM     85  F   UNL A   1      46.417  28.187  23.615  1.00  0.00    -0.206 F 
ATOM     86  C   UNL A   1      49.550  26.491  24.281  1.00  0.00     0.006 A 
ENDBRANCH  62  79
ENDBRANCH  36  37
ENDBRANCH  29  31
ENDBRANCH  28  29
ENDBRANCH  27  28
ENDBRANCH  26  27
ENDBRANCH  25  26
ENDBRANCH   1  25
TORSDOF 18
ENDMDL
MODEL 3
REMARK VINA RESULT:     -10.7      1.312      2.027
REMARK SMILES COc1cc(N[C@H]2C=C[C@@H](C(=O)OCCOCCOC(=O)c3ccc(-c4c5nc(c(-c6c(F)cccc6F)c6ccc([nH]6)c(-c6c(F)cccc6F)c6nc(c(-c7c(F)cccc7F)c7ccc4[nH]7)C=C6)C=C5)cc3)C2)c([N+](=O)[O-])cc1F
REMARK SMILES IDX 15 1 14 2 13 3 11 4 12 5 10 6 7 7 8 8 76 9 9 10 6 11 5 13
REMARK SMILES IDX 3 14 4 15 82 16 81 17 83 18 77 19 2 20 1 21 78 22 79 23
REMARK SMILES IDX 80 24 16 25 17 26 18 27 19 28 20 29 21 30 22 31 23 32 75 33
REMARK SMILES IDX 24 34 74 35 25 36 26 37 27 38 68 39 28 40 73 41 67 42 69 43
REMARK SMILES IDX 29 44 72 45 66 46 65 47 30 49 56 50 39 51 55 52 40 53 43 54
REMARK SMILES IDX 54 55 70 56 41 57 42 58 53 60 71 61 44 62 31 63 32 64 37 65
REMARK SMILES IDX 33 66 34 67 36 68 38 69 35 70 57 71 58 72 63 73 59 74 60 75
REMARK SMILES IDX 62 76 64 77 61 78 45 79 46 80 51 81 47 82 48 83 50 84 52 85
REMARK SMILES IDX 49 86
REMARK H PARENT 6 12 69 48 43 59
REMARK Flexibility Score: inf
ROOT
ATOM      1  C   UNL A   1      41.060  20.983  26.709  1.00  0.00     0.202 C 
ENDROOT
BRANCH   1   2
ATOM      2  C   UNL A   1      40.017  22.056  27.031  1.00  0.00     0.261 C 
BRANCH   2   3
ATOM      3  O   UNL A   1      38.981  22.030  26.034  1.00  0.00    -0.463 OA
BRANCH   3   4
ATOM      4  C   UNL A   1      38.155  23.105  26.002  1.00  0.00     0.312 C 
ATOM      5  O   UNL A   1      38.518  24.261  26.192  1.00  0.00    -0.252 OA
BRANCH   4   6
ATOM      6  C   UNL A   1      36.709  22.740  25.663  1.00  0.00     0.124 C 
ATOM      7  C   UNL A   1      34.893  23.625  24.258  1.00  0.00     0.103 C 
ATOM      8  C   UNL A   1      35.676  22.574  23.550  1.00  0.00    -0.006 C 
ATOM      9  C   UNL A   1      35.672  23.878  25.557  1.00  0.00     0.048 C 
ATOM     10  C   UNL A   1      36.653  22.078  24.316  1.00  0.00    -0.014 C 
BRANCH   7  11
ATOM     11  N   UNL A   1      34.695  24.805  23.436  1.00  0.00    -0.373 N 
ATOM     12  H   UNL A   1      35.426  24.996  22.805  1.00  0.00     0.161 HD
BRANCH  11  13
ATOM     13  C   UNL A   1      33.647  25.708  23.391  1.00  0.00     0.117 A 
ATOM     14  C   UNL A   1      32.267  27.392  24.545  1.00  0.00     0.157 A 
ATOM     15  C   UNL A   1      33.361  26.530  24.491  1.00  0.00     0.082 A 
ATOM     16  C   UNL A   1      31.438  27.491  23.438  1.00  0.00     0.172 A 
ATOM     17  C   UNL A   1      31.683  26.729  22.304  1.00  0.00     0.131 A 
ATOM     18  F   UNL A   1      30.407  28.343  23.422  1.00  0.00    -0.203 F 
ATOM     19  C   UNL A   1      32.778  25.841  22.277  1.00  0.00     0.295 A 
BRANCH  14  20
ATOM     20  O   UNL A   1      32.168  28.093  25.714  1.00  0.00    -0.494 OA
ATOM     21  C   UNL A   1      32.244  29.503  25.575  1.00  0.00     0.278 C 
ENDBRANCH  14  20
BRANCH  19  22
ATOM     22  N   UNL A   1      32.982  25.066  21.038  1.00  0.00     0.065 N 
ATOM     23  O   UNL A   1      33.261  23.860  21.128  1.00  0.00    -0.258 OA
ATOM     24  O   UNL A   1      32.860  25.664  19.959  1.00  0.00    -0.258 OA
ENDBRANCH  19  22
ENDBRANCH  11  13
ENDBRANCH   7  11
ENDBRANCH   4   6
ENDBRANCH   3   4
ENDBRANCH   2   3
ENDBRANCH   1   2
BRANCH   1  25
ATOM     25  O   UNL A   1      41.940  21.296  25.627  1.00  0.00    -0.374 OA
BRANCH  25  26
ATOM     26  C   UNL A   1      43.239  20.708  25.646  1.00  0.00     0.202 C 
BRANCH  26  27
ATOM     27  C   UNL A   1      44.415  21.643  25.337  1.00  0.00     0.261 C 
BRANCH  27  28
ATOM     28  O   UNL A   1      44.518  22.753  26.247  1.00  0.00    -0.460 OA
BRANCH  28  29
ATOM     29  C   UNL A   1      44.402  23.967  25.659  1.00  0.00     0.338 C 
ATOM     30  O   UNL A   1      44.762  24.277  24.530  1.00  0.00    -0.246 OA
BRANCH  29  31
ATOM     31  C   UNL A   1      43.648  24.902  26.516  1.00  0.00     0.060 A 
ATOM     32  C   UNL A   1      44.160  26.198  26.666  1.00  0.00     0.016 A 
ATOM     33  C   UNL A   1      42.526  24.501  27.246  1.00  0.00     0.016 A 
ATOM     34  C   UNL A   1      43.589  27.078  27.584  1.00  0.00     0.010 A 
ATOM     35  C   UNL A   1      41.956  25.385  28.171  1.00  0.00     0.010 A 
ATOM     36  C   UNL A   1      42.506  26.665  28.370  1.00  0.00    -0.014 A 
BRANCH  36  37
ATOM     37  C   UNL A   1      42.023  27.529  29.479  1.00  0.00     0.031 A 
ATOM     38  C   UNL A   1      42.683  27.444  30.823  1.00  0.00     0.074 A 
ATOM     39  C   UNL A   1      41.019  28.404  29.292  1.00  0.00     0.049 A 
ATOM     40  N   UNL A   1      42.396  28.092  31.921  1.00  0.00    -0.248 NA
ATOM     41  C   UNL A   1      43.824  26.525  30.940  1.00  0.00     0.031 C 
ATOM     42  C   UNL A   1      40.354  28.637  28.021  1.00  0.00     0.029 A 
ATOM     43  N   UNL A   1      40.370  29.241  30.164  1.00  0.00    -0.354 N 
ATOM     44  C   UNL A   1      43.334  27.679  32.856  1.00  0.00     0.074 A 
ATOM     45  C   UNL A   1      44.169  26.687  32.210  1.00  0.00     0.031 C 
ATOM     46  C   UNL A   1      39.345  29.503  28.194  1.00  0.00     0.029 A 
ATOM     47  C   UNL A   1      39.301  29.896  29.598  1.00  0.00     0.049 A 
ATOM     48  H   UNL A   1      40.642  29.361  31.102  1.00  0.00     0.167 HD
ATOM     49  C   UNL A   1      43.500  28.112  34.127  1.00  0.00     0.037 A 
ATOM     50  C   UNL A   1      38.382  30.710  30.147  1.00  0.00     0.037 A 
ATOM     51  C   UNL A   1      42.662  29.090  34.768  1.00  0.00     0.049 A 
ATOM     52  C   UNL A   1      38.506  31.081  31.596  1.00  0.00     0.074 A 
ATOM     53  C   UNL A   1      42.768  29.606  36.047  1.00  0.00     0.029 A 
ATOM     54  N   UNL A   1      41.557  29.691  34.184  1.00  0.00    -0.354 N 
ATOM     55  N   UNL A   1      39.418  30.710  32.461  1.00  0.00    -0.248 NA
ATOM     56  C   UNL A   1      37.494  31.995  32.142  1.00  0.00     0.031 C 
ATOM     57  C   UNL A   1      41.697  30.480  36.256  1.00  0.00     0.029 A 
ATOM     58  C   UNL A   1      40.952  30.548  35.090  1.00  0.00     0.049 A 
ATOM     59  H   UNL A   1      41.248  29.533  33.263  1.00  0.00     0.167 HD
ATOM     60  C   UNL A   1      39.115  31.372  33.642  1.00  0.00     0.074 A 
ATOM     61  C   UNL A   1      37.930  32.165  33.384  1.00  0.00     0.031 C 
ATOM     62  C   UNL A   1      39.771  31.332  34.827  1.00  0.00     0.037 A 
BRANCH  49  63
ATOM     63  C   UNL A   1      44.631  27.520  34.912  1.00  0.00     0.057 A 
ATOM     64  C   UNL A   1      45.898  28.114  34.899  1.00  0.00     0.134 A 
ATOM     65  C   UNL A   1      44.476  26.336  35.646  1.00  0.00     0.134 A 
ATOM     66  F   UNL A   1      46.113  29.247  34.214  1.00  0.00    -0.206 F 
ATOM     67  C   UNL A   1      46.975  27.548  35.582  1.00  0.00     0.040 A 
ATOM     68  C   UNL A   1      45.540  25.772  36.352  1.00  0.00     0.040 A 
ATOM     69  F   UNL A   1      43.283  25.727  35.709  1.00  0.00    -0.206 F 
ATOM     70  C   UNL A   1      46.796  26.374  36.314  1.00  0.00     0.006 A 
ENDBRANCH  49  63
BRANCH  50  71
ATOM     71  C   UNL A   1      37.281  31.244  29.307  1.00  0.00     0.057 A 
ATOM     72  C   UNL A   1      37.310  32.556  28.820  1.00  0.00     0.134 A 
ATOM     73  C   UNL A   1      36.161  30.465  29.003  1.00  0.00     0.134 A 
ATOM     74  F   UNL A   1      38.356  33.353  29.082  1.00  0.00    -0.206 F 
ATOM     75  C   UNL A   1      36.254  33.081  28.073  1.00  0.00     0.040 A 
ATOM     76  C   UNL A   1      35.106  30.972  28.241  1.00  0.00     0.040 A 
ATOM     77  F   UNL A   1      36.084  29.196  29.429  1.00  0.00    -0.206 F 
ATOM     78  C   UNL A   1      35.148  32.286  27.780  1.00  0.00     0.006 A 
ENDBRANCH  50  71
BRANCH  62  79
ATOM     79  C   UNL A   1      39.243  32.187  35.940  1.00  0.00     0.057 A 
ATOM     80  C   UNL A   1      38.240  31.706  36.792  1.00  0.00     0.134 A 
ATOM     81  C   UNL A   1      39.670  33.507  36.121  1.00  0.00     0.134 A 
ATOM     82  F   UNL A   1      37.781  30.452  36.666  1.00  0.00    -0.206 F 
ATOM     83  C   UNL A   1      37.668  32.516  37.773  1.00  0.00     0.040 A 
ATOM     84  C   UNL A   1      39.122  34.319  37.114  1.00  0.00     0.040 A 
ATOM     85  F   UNL A   1      40.638  34.021  35.345  1.00  0.00    -0.206 F 
ATOM     86  C   UNL A   1      38.110  33.828  37.937  1.00  0.00     0.006 A 
ENDBRANCH  62  79
ENDBRANCH  36  37
ENDBRANCH  29  31
ENDBRANCH  28  29
ENDBRANCH  27  28
ENDBRANCH  26  27
ENDBRANCH  25  26
ENDBRANCH   1  25
TORSDOF 18
ENDMDL
