MODEL 1
REMARK VINA RESULT:     -11.4      0.000      0.000
REMARK SMILES CN1C(=O)CC[C@H]([NH2+]Cc2ccc(C(=O)OCCOCCOC(=O)c3ccc(-c4c5nc(c(-c6c(F)cccc6F)c6ccc([nH]6)c(-c6c(F)cccc6F)c6nc(c(-c7c(F)cccc7F)c7ccc4[nH]7)C=C6)C=C5)cc3)cn2)C1=O
REMARK SMILES IDX 18 1 17 2 16 3 14 4 15 5 13 6 10 7 11 8 80 9 12 10 79 11
REMARK SMILES IDX 9 12 8 13 7 16 1 17 2 18 3 19 81 20 4 21 5 22 82 23 6 24
REMARK SMILES IDX 19 25 20 26 21 27 22 28 23 29 24 30 25 31 26 32 78 33 27 34
REMARK SMILES IDX 77 35 28 36 29 37 30 38 71 39 31 40 76 41 70 42 72 43 32 44
REMARK SMILES IDX 75 45 69 46 68 47 33 49 59 50 42 51 58 52 43 53 46 54 57 55
REMARK SMILES IDX 73 56 44 57 45 58 56 60 74 61 47 62 34 63 35 64 40 65 36 66
REMARK SMILES IDX 37 67 39 68 41 69 38 70 60 71 61 72 66 73 62 74 63 75 65 76
REMARK SMILES IDX 67 77 64 78 48 79 49 80 54 81 50 82 51 83 53 84 55 85 52 86
REMARK H PARENT 8 14 8 15 72 48 46 59
REMARK Flexibility Score: inf
ROOT
ATOM      1  C   UNL A   1      33.407  35.532  30.220  1.00  0.00     0.202 C 
ENDROOT
BRANCH   1   2
ATOM      2  C   UNL A   1      33.330  34.693  28.941  1.00  0.00     0.261 C 
BRANCH   2   3
ATOM      3  O   UNL A   1      33.927  33.400  29.126  1.00  0.00    -0.460 OA
BRANCH   3   4
ATOM      4  C   UNL A   1      34.725  32.985  28.115  1.00  0.00     0.339 C 
ATOM      5  O   UNL A   1      35.664  33.596  27.622  1.00  0.00    -0.246 OA
BRANCH   4   6
ATOM      6  C   UNL A   1      34.404  31.593  27.755  1.00  0.00     0.078 A 
ATOM      7  C   UNL A   1      33.593  29.062  27.053  1.00  0.00     0.094 A 
ATOM      8  C   UNL A   1      34.929  29.281  27.404  1.00  0.00     0.031 A 
ATOM      9  N   UNL A   1      32.669  30.058  27.029  1.00  0.00    -0.254 NA
ATOM     10  C   UNL A   1      35.342  30.564  27.751  1.00  0.00     0.019 A 
ATOM     11  C   UNL A   1      33.098  31.298  27.377  1.00  0.00     0.127 A 
BRANCH   7  12
ATOM     12  C   UNL A   1      33.114  27.634  26.857  1.00  0.00     0.318 C 
BRANCH  12  13
ATOM     13  N   UNL A   1      33.917  26.844  25.911  1.00  0.00    -0.331 N 
ATOM     14  H   UNL A   1      34.758  27.372  25.680  1.00  0.00     0.347 HD
ATOM     15  H   UNL A   1      34.134  25.956  26.363  1.00  0.00     0.347 HD
BRANCH  13  16
ATOM     16  C   UNL A   1      33.195  26.531  24.650  1.00  0.00     0.274 C 
ATOM     17  C   UNL A   1      33.157  23.523  22.269  1.00  0.00     0.156 C 
ATOM     18  N   UNL A   1      33.227  24.895  22.748  1.00  0.00    -0.281 N 
ATOM     19  C   UNL A   1      33.156  25.893  21.785  1.00  0.00     0.229 C 
ATOM     20  C   UNL A   1      33.413  25.090  24.117  1.00  0.00     0.287 C 
ATOM     21  O   UNL A   1      33.168  25.663  20.576  1.00  0.00    -0.274 OA
ATOM     22  C   UNL A   1      32.968  27.304  22.282  1.00  0.00     0.107 C 
ATOM     23  O   UNL A   1      33.636  24.134  24.864  1.00  0.00    -0.267 OA
ATOM     24  C   UNL A   1      33.642  27.555  23.613  1.00  0.00     0.085 C 
ENDBRANCH  13  16
ENDBRANCH  12  13
ENDBRANCH   7  12
ENDBRANCH   4   6
ENDBRANCH   3   4
ENDBRANCH   2   3
ENDBRANCH   1   2
BRANCH   1  25
ATOM     25  O   UNL A   1      32.918  34.924  31.413  1.00  0.00    -0.374 OA
BRANCH  25  26
ATOM     26  C   UNL A   1      33.825  34.795  32.509  1.00  0.00     0.202 C 
BRANCH  26  27
ATOM     27  C   UNL A   1      34.026  33.387  33.082  1.00  0.00     0.261 C 
BRANCH  27  28
ATOM     28  O   UNL A   1      35.015  32.640  32.350  1.00  0.00    -0.460 OA
BRANCH  28  29
ATOM     29  C   UNL A   1      36.120  32.316  33.061  1.00  0.00     0.338 C 
ATOM     30  O   UNL A   1      36.312  32.490  34.255  1.00  0.00    -0.246 OA
BRANCH  29  31
ATOM     31  C   UNL A   1      37.043  31.532  32.223  1.00  0.00     0.060 A 
ATOM     32  C   UNL A   1      37.985  30.728  32.879  1.00  0.00     0.016 A 
ATOM     33  C   UNL A   1      37.048  31.641  30.832  1.00  0.00     0.016 A 
ATOM     34  C   UNL A   1      38.976  30.077  32.148  1.00  0.00     0.010 A 
ATOM     35  C   UNL A   1      38.047  30.993  30.100  1.00  0.00     0.010 A 
ATOM     36  C   UNL A   1      39.039  30.243  30.758  1.00  0.00    -0.014 A 
BRANCH  36  37
ATOM     37  C   UNL A   1      40.237  29.774  30.021  1.00  0.00     0.031 A 
ATOM     38  C   UNL A   1      41.373  30.733  29.793  1.00  0.00     0.074 A 
ATOM     39  C   UNL A   1      40.328  28.503  29.589  1.00  0.00     0.049 A 
ATOM     40  N   UNL A   1      42.495  30.555  29.146  1.00  0.00    -0.248 NA
ATOM     41  C   UNL A   1      41.218  32.078  30.371  1.00  0.00     0.031 C 
ATOM     42  C   UNL A   1      39.315  27.469  29.785  1.00  0.00     0.029 A 
ATOM     43  N   UNL A   1      41.325  27.873  28.888  1.00  0.00    -0.354 N 
ATOM     44  C   UNL A   1      43.175  31.765  29.229  1.00  0.00     0.074 A 
ATOM     45  C   UNL A   1      42.325  32.678  29.962  1.00  0.00     0.031 C 
ATOM     46  C   UNL A   1      39.739  26.332  29.207  1.00  0.00     0.029 A 
ATOM     47  C   UNL A   1      41.034  26.568  28.575  1.00  0.00     0.049 A 
ATOM     48  H   UNL A   1      42.168  28.315  28.633  1.00  0.00     0.167 HD
ATOM     49  C   UNL A   1      44.401  32.081  28.748  1.00  0.00     0.037 A 
ATOM     50  C   UNL A   1      41.729  25.675  27.845  1.00  0.00     0.037 A 
ATOM     51  C   UNL A   1      45.245  31.169  28.023  1.00  0.00     0.049 A 
ATOM     52  C   UNL A   1      43.061  26.071  27.264  1.00  0.00     0.074 A 
ATOM     53  C   UNL A   1      46.511  31.390  27.508  1.00  0.00     0.029 A 
ATOM     54  N   UNL A   1      44.906  29.863  27.705  1.00  0.00    -0.354 N 
ATOM     55  N   UNL A   1      43.704  27.209  27.365  1.00  0.00    -0.248 NA
ATOM     56  C   UNL A   1      43.767  25.054  26.470  1.00  0.00     0.031 C 
ATOM     57  C   UNL A   1      46.915  30.232  26.834  1.00  0.00     0.029 A 
ATOM     58  C   UNL A   1      45.927  29.272  26.981  1.00  0.00     0.049 A 
ATOM     59  H   UNL A   1      44.063  29.420  27.958  1.00  0.00     0.167 HD
ATOM     60  C   UNL A   1      44.902  27.034  26.682  1.00  0.00     0.074 A 
ATOM     61  C   UNL A   1      44.899  25.677  26.176  1.00  0.00     0.031 C 
ATOM     62  C   UNL A   1      45.916  27.916  26.494  1.00  0.00     0.037 A 
BRANCH  49  63
ATOM     63  C   UNL A   1      44.887  33.484  28.970  1.00  0.00     0.057 A 
ATOM     64  C   UNL A   1      44.604  34.521  28.071  1.00  0.00     0.134 A 
ATOM     65  C   UNL A   1      45.630  33.808  30.112  1.00  0.00     0.134 A 
ATOM     66  F   UNL A   1      43.909  34.276  26.948  1.00  0.00    -0.206 F 
ATOM     67  C   UNL A   1      45.064  35.822  28.286  1.00  0.00     0.040 A 
ATOM     68  C   UNL A   1      46.072  35.110  30.353  1.00  0.00     0.040 A 
ATOM     69  F   UNL A   1      45.933  32.865  31.017  1.00  0.00    -0.206 F 
ATOM     70  C   UNL A   1      45.795  36.120  29.435  1.00  0.00     0.006 A 
ENDBRANCH  49  63
BRANCH  50  71
ATOM     71  C   UNL A   1      41.178  24.315  27.613  1.00  0.00     0.057 A 
ATOM     72  C   UNL A   1      41.675  23.203  28.301  1.00  0.00     0.134 A 
ATOM     73  C   UNL A   1      40.156  24.094  26.682  1.00  0.00     0.134 A 
ATOM     74  F   UNL A   1      42.669  23.348  29.190  1.00  0.00    -0.206 F 
ATOM     75  C   UNL A   1      41.188  21.918  28.061  1.00  0.00     0.040 A 
ATOM     76  C   UNL A   1      39.642  22.818  26.449  1.00  0.00     0.040 A 
ATOM     77  F   UNL A   1      39.635  25.120  25.990  1.00  0.00    -0.206 F 
ATOM     78  C   UNL A   1      40.163  21.723  27.135  1.00  0.00     0.006 A 
ENDBRANCH  50  71
BRANCH  62  79
ATOM     79  C   UNL A   1      47.129  27.426  25.755  1.00  0.00     0.057 A 
ATOM     80  C   UNL A   1      48.184  26.776  26.405  1.00  0.00     0.134 A 
ATOM     81  C   UNL A   1      47.219  27.575  24.364  1.00  0.00     0.134 A 
ATOM     82  F   UNL A   1      48.166  26.611  27.736  1.00  0.00    -0.206 F 
ATOM     83  C   UNL A   1      49.300  26.314  25.703  1.00  0.00     0.040 A 
ATOM     84  C   UNL A   1      48.315  27.092  23.648  1.00  0.00     0.040 A 
ATOM     85  F   UNL A   1      46.238  28.180  23.678  1.00  0.00    -0.206 F 
ATOM     86  C   UNL A   1      49.363  26.465  24.318  1.00  0.00     0.006 A 
ENDBRANCH  62  79
ENDBRANCH  36  37
ENDBRANCH  29  31
ENDBRANCH  28  29
ENDBRANCH  27  28
ENDBRANCH  26  27
ENDBRANCH  25  26
ENDBRANCH   1  25
TORSDOF 17
ENDMDL
MODEL 2
REMARK VINA RESULT:     -10.7      1.100      2.084
REMARK SMILES CN1C(=O)CC[C@H]([NH2+]Cc2ccc(C(=O)OCCOCCOC(=O)c3ccc(-c4c5nc(c(-c6c(F)cccc6F)c6ccc([nH]6)c(-c6c(F)cccc6F)c6nc(c(-c7c(F)cccc7F)c7ccc4[nH]7)C=C6)C=C5)cc3)cn2)C1=O
REMARK SMILES IDX 18 1 17 2 16 3 14 4 15 5 13 6 10 7 11 8 80 9 12 10 79 11
REMARK SMILES IDX 9 12 8 13 7 16 1 17 2 18 3 19 81 20 4 21 5 22 82 23 6 24
REMARK SMILES IDX 19 25 20 26 21 27 22 28 23 29 24 30 25 31 26 32 78 33 27 34
REMARK SMILES IDX 77 35 28 36 29 37 30 38 71 39 31 40 76 41 70 42 72 43 32 44
REMARK SMILES IDX 75 45 69 46 68 47 33 49 59 50 42 51 58 52 43 53 46 54 57 55
REMARK SMILES IDX 73 56 44 57 45 58 56 60 74 61 47 62 34 63 35 64 40 65 36 66
REMARK SMILES IDX 37 67 39 68 41 69 38 70 60 71 61 72 66 73 62 74 63 75 65 76
REMARK SMILES IDX 67 77 64 78 48 79 49 80 54 81 50 82 51 83 53 84 55 85 52 86
REMARK H PARENT 8 14 8 15 72 48 46 59
REMARK Flexibility Score: inf
ROOT
ATOM      1  C   UNL A   1      33.180  35.851  30.144  1.00  0.00     0.202 C 
ENDROOT
BRANCH   1   2
ATOM      2  C   UNL A   1      33.715  35.193  28.868  1.00  0.00     0.261 C 
BRANCH   2   3
ATOM      3  O   UNL A   1      33.563  33.766  28.910  1.00  0.00    -0.460 OA
BRANCH   3   4
ATOM      4  C   UNL A   1      34.495  33.067  28.220  1.00  0.00     0.339 C 
ATOM      5  O   UNL A   1      35.684  33.335  28.114  1.00  0.00    -0.246 OA
BRANCH   4   6
ATOM      6  C   UNL A   1      33.910  31.818  27.704  1.00  0.00     0.078 A 
ATOM      7  C   UNL A   1      33.018  29.387  26.779  1.00  0.00     0.094 A 
ATOM      8  C   UNL A   1      32.151  30.485  26.770  1.00  0.00     0.031 A 
ATOM      9  N   UNL A   1      34.293  29.465  27.243  1.00  0.00    -0.254 NA
ATOM     10  C   UNL A   1      32.599  31.713  27.247  1.00  0.00     0.019 A 
ATOM     11  C   UNL A   1      34.705  30.676  27.696  1.00  0.00     0.127 A 
BRANCH   7  12
ATOM     12  C   UNL A   1      32.582  28.106  26.090  1.00  0.00     0.318 C 
BRANCH  12  13
ATOM     13  N   UNL A   1      33.414  26.932  26.397  1.00  0.00    -0.331 N 
ATOM     14  H   UNL A   1      34.394  27.196  26.299  1.00  0.00     0.347 HD
ATOM     15  H   UNL A   1      33.188  26.640  27.347  1.00  0.00     0.347 HD
BRANCH  13  16
ATOM     16  C   UNL A   1      33.144  25.775  25.504  1.00  0.00     0.274 C 
ATOM     17  C   UNL A   1      31.274  22.452  25.928  1.00  0.00     0.156 C 
ATOM     18  N   UNL A   1      32.317  23.408  25.589  1.00  0.00    -0.281 N 
ATOM     19  C   UNL A   1      33.373  22.929  24.823  1.00  0.00     0.229 C 
ATOM     20  C   UNL A   1      32.199  24.700  26.102  1.00  0.00     0.287 C 
ATOM     21  O   UNL A   1      33.516  21.739  24.544  1.00  0.00    -0.274 OA
ATOM     22  C   UNL A   1      34.318  23.955  24.252  1.00  0.00     0.107 C 
ATOM     23  O   UNL A   1      31.311  24.975  26.913  1.00  0.00    -0.267 OA
ATOM     24  C   UNL A   1      34.494  25.160  25.151  1.00  0.00     0.085 C 
ENDBRANCH  13  16
ENDBRANCH  12  13
ENDBRANCH   7  12
ENDBRANCH   4   6
ENDBRANCH   3   4
ENDBRANCH   2   3
ENDBRANCH   1   2
BRANCH   1  25
ATOM     25  O   UNL A   1      32.879  34.980  31.233  1.00  0.00    -0.374 OA
BRANCH  25  26
ATOM     26  C   UNL A   1      33.796  34.952  32.328  1.00  0.00     0.202 C 
BRANCH  26  27
ATOM     27  C   UNL A   1      34.213  33.571  32.848  1.00  0.00     0.261 C 
BRANCH  27  28
ATOM     28  O   UNL A   1      35.393  33.076  32.189  1.00  0.00    -0.460 OA
BRANCH  28  29
ATOM     29  C   UNL A   1      36.238  32.384  32.987  1.00  0.00     0.338 C 
ATOM     30  O   UNL A   1      36.197  32.285  34.204  1.00  0.00    -0.246 OA
BRANCH  29  31
ATOM     31  C   UNL A   1      37.160  31.581  32.165  1.00  0.00     0.060 A 
ATOM     32  C   UNL A   1      38.137  30.832  32.835  1.00  0.00     0.016 A 
ATOM     33  C   UNL A   1      37.128  31.623  30.770  1.00  0.00     0.016 A 
ATOM     34  C   UNL A   1      39.125  30.169  32.111  1.00  0.00     0.010 A 
ATOM     35  C   UNL A   1      38.125  30.963  30.046  1.00  0.00     0.010 A 
ATOM     36  C   UNL A   1      39.151  30.269  30.714  1.00  0.00    -0.014 A 
BRANCH  36  37
ATOM     37  C   UNL A   1      40.341  29.791  29.971  1.00  0.00     0.031 A 
ATOM     38  C   UNL A   1      41.480  30.745  29.731  1.00  0.00     0.074 A 
ATOM     39  C   UNL A   1      40.423  28.519  29.542  1.00  0.00     0.049 A 
ATOM     40  N   UNL A   1      42.597  30.559  29.077  1.00  0.00    -0.248 NA
ATOM     41  C   UNL A   1      41.335  32.092  30.306  1.00  0.00     0.031 C 
ATOM     42  C   UNL A   1      39.406  27.491  29.749  1.00  0.00     0.029 A 
ATOM     43  N   UNL A   1      41.412  27.881  28.836  1.00  0.00    -0.354 N 
ATOM     44  C   UNL A   1      43.282  31.766  29.152  1.00  0.00     0.074 A 
ATOM     45  C   UNL A   1      42.442  32.685  29.887  1.00  0.00     0.031 C 
ATOM     46  C   UNL A   1      39.821  26.349  29.171  1.00  0.00     0.029 A 
ATOM     47  C   UNL A   1      41.114  26.577  28.530  1.00  0.00     0.049 A 
ATOM     48  H   UNL A   1      42.256  28.318  28.575  1.00  0.00     0.167 HD
ATOM     49  C   UNL A   1      44.507  32.075  28.662  1.00  0.00     0.037 A 
ATOM     50  C   UNL A   1      41.800  25.679  27.798  1.00  0.00     0.037 A 
ATOM     51  C   UNL A   1      45.342  31.156  27.934  1.00  0.00     0.049 A 
ATOM     52  C   UNL A   1      43.129  26.066  27.207  1.00  0.00     0.074 A 
ATOM     53  C   UNL A   1      46.605  31.369  27.409  1.00  0.00     0.029 A 
ATOM     54  N   UNL A   1      44.994  29.851  27.623  1.00  0.00    -0.354 N 
ATOM     55  N   UNL A   1      43.779  27.201  27.300  1.00  0.00    -0.248 NA
ATOM     56  C   UNL A   1      43.825  25.043  26.412  1.00  0.00     0.031 C 
ATOM     57  C   UNL A   1      46.999  30.208  26.737  1.00  0.00     0.029 A 
ATOM     58  C   UNL A   1      46.008  29.253  26.894  1.00  0.00     0.049 A 
ATOM     59  H   UNL A   1      44.151  29.413  27.883  1.00  0.00     0.167 HD
ATOM     60  C   UNL A   1      44.971  27.019  26.610  1.00  0.00     0.074 A 
ATOM     61  C   UNL A   1      44.958  25.660  26.108  1.00  0.00     0.031 C 
ATOM     62  C   UNL A   1      45.987  27.895  26.412  1.00  0.00     0.037 A 
BRANCH  49  63
ATOM     63  C   UNL A   1      45.001  33.477  28.875  1.00  0.00     0.057 A 
ATOM     64  C   UNL A   1      45.785  33.829  29.981  1.00  0.00     0.134 A 
ATOM     65  C   UNL A   1      44.706  34.484  27.947  1.00  0.00     0.134 A 
ATOM     66  F   UNL A   1      46.091  32.916  30.916  1.00  0.00    -0.206 F 
ATOM     67  C   UNL A   1      46.236  35.137  30.171  1.00  0.00     0.040 A 
ATOM     68  C   UNL A   1      45.175  35.788  28.111  1.00  0.00     0.040 A 
ATOM     69  F   UNL A   1      43.964  34.215  26.862  1.00  0.00    -0.206 F 
ATOM     70  C   UNL A   1      45.936  36.119  29.229  1.00  0.00     0.006 A 
ENDBRANCH  49  63
BRANCH  50  71
ATOM     71  C   UNL A   1      41.241  24.321  27.575  1.00  0.00     0.057 A 
ATOM     72  C   UNL A   1      40.206  24.103  26.659  1.00  0.00     0.134 A 
ATOM     73  C   UNL A   1      41.715  23.213  28.288  1.00  0.00     0.134 A 
ATOM     74  F   UNL A   1      39.694  25.128  25.962  1.00  0.00    -0.206 F 
ATOM     75  C   UNL A   1      39.650  22.836  26.472  1.00  0.00     0.040 A 
ATOM     76  C   UNL A   1      41.186  21.936  28.093  1.00  0.00     0.040 A 
ATOM     77  F   UNL A   1      42.708  23.355  29.179  1.00  0.00    -0.206 F 
ATOM     78  C   UNL A   1      40.145  21.747  27.187  1.00  0.00     0.006 A 
ENDBRANCH  50  71
BRANCH  62  79
ATOM     79  C   UNL A   1      47.193  27.397  25.666  1.00  0.00     0.057 A 
ATOM     80  C   UNL A   1      47.343  27.580  24.286  1.00  0.00     0.134 A 
ATOM     81  C   UNL A   1      48.236  26.761  26.352  1.00  0.00     0.134 A 
ATOM     82  F   UNL A   1      46.376  28.171  23.569  1.00  0.00    -0.206 F 
ATOM     83  C   UNL A   1      48.476  27.125  23.609  1.00  0.00     0.040 A 
ATOM     84  C   UNL A   1      49.386  26.327  25.691  1.00  0.00     0.040 A 
ATOM     85  F   UNL A   1      48.162  26.563  27.676  1.00  0.00    -0.206 F 
ATOM     86  C   UNL A   1      49.506  26.503  24.314  1.00  0.00     0.006 A 
ENDBRANCH  62  79
ENDBRANCH  36  37
ENDBRANCH  29  31
ENDBRANCH  28  29
ENDBRANCH  27  28
ENDBRANCH  26  27
ENDBRANCH  25  26
ENDBRANCH   1  25
TORSDOF 17
ENDMDL
MODEL 3
REMARK VINA RESULT:     -10.4      4.734      7.326
REMARK SMILES CN1C(=O)CC[C@H]([NH2+]Cc2ccc(C(=O)OCCOCCOC(=O)c3ccc(-c4c5nc(c(-c6c(F)cccc6F)c6ccc([nH]6)c(-c6c(F)cccc6F)c6nc(c(-c7c(F)cccc7F)c7ccc4[nH]7)C=C6)C=C5)cc3)cn2)C1=O
REMARK SMILES IDX 18 1 17 2 16 3 14 4 15 5 13 6 10 7 11 8 80 9 12 10 79 11
REMARK SMILES IDX 9 12 8 13 7 16 1 17 2 18 3 19 81 20 4 21 5 22 82 23 6 24
REMARK SMILES IDX 19 25 20 26 21 27 22 28 23 29 24 30 25 31 26 32 78 33 27 34
REMARK SMILES IDX 77 35 28 36 29 37 30 38 71 39 31 40 76 41 70 42 72 43 32 44
REMARK SMILES IDX 75 45 69 46 68 47 33 49 59 50 42 51 58 52 43 53 46 54 57 55
REMARK SMILES IDX 73 56 44 57 45 58 56 60 74 61 47 62 34 63 35 64 40 65 36 66
REMARK SMILES IDX 37 67 39 68 41 69 38 70 60 71 61 72 66 73 62 74 63 75 65 76
REMARK SMILES IDX 67 77 64 78 48 79 49 80 54 81 50 82 51 83 53 84 55 85 52 86
REMARK H PARENT 8 14 8 15 72 48 46 59
REMARK Flexibility Score: inf
ROOT
ATOM      1  C   UNL A   1      34.370  32.700  29.173  1.00  0.00     0.202 C 
ENDROOT
BRANCH   1   2
ATOM      2  C   UNL A   1      34.287  32.114  27.761  1.00  0.00     0.261 C 
BRANCH   2   3
ATOM      3  O   UNL A   1      33.490  30.920  27.734  1.00  0.00    -0.460 OA
BRANCH   3   4
ATOM      4  C   UNL A   1      32.318  31.023  27.065  1.00  0.00     0.339 C 
ATOM      5  O   UNL A   1      31.692  32.050  26.836  1.00  0.00    -0.246 OA
BRANCH   4   6
ATOM      6  C   UNL A   1      31.939  29.716  26.502  1.00  0.00     0.078 A 
ATOM      7  C   UNL A   1      31.222  27.376  25.249  1.00  0.00     0.094 A 
ATOM      8  C   UNL A   1      31.424  27.379  26.634  1.00  0.00     0.031 A 
ATOM      9  N   UNL A   1      31.381  28.488  24.484  1.00  0.00    -0.254 NA
ATOM     10  C   UNL A   1      31.796  28.562  27.267  1.00  0.00     0.019 A 
ATOM     11  C   UNL A   1      31.738  29.628  25.129  1.00  0.00     0.127 A 
BRANCH   7  12
ATOM     12  C   UNL A   1      30.641  26.133  24.599  1.00  0.00     0.318 C 
BRANCH  12  13
ATOM     13  N   UNL A   1      30.058  25.165  25.541  1.00  0.00    -0.331 N 
ATOM     14  H   UNL A   1      30.211  25.505  26.491  1.00  0.00     0.347 HD
ATOM     15  H   UNL A   1      29.066  25.084  25.319  1.00  0.00     0.347 HD
BRANCH  13  16
ATOM     16  C   UNL A   1      30.649  23.807  25.425  1.00  0.00     0.274 C 
ATOM     17  C   UNL A   1      33.522  21.982  27.197  1.00  0.00     0.156 C 
ATOM     18  N   UNL A   1      32.669  22.501  26.138  1.00  0.00    -0.281 N 
ATOM     19  C   UNL A   1      32.899  22.008  24.859  1.00  0.00     0.229 C 
ATOM     20  C   UNL A   1      31.735  23.479  26.483  1.00  0.00     0.287 C 
ATOM     21  O   UNL A   1      33.849  21.277  24.581  1.00  0.00    -0.274 OA
ATOM     22  C   UNL A   1      31.868  22.335  23.810  1.00  0.00     0.107 C 
ATOM     23  O   UNL A   1      31.729  23.971  27.614  1.00  0.00    -0.267 OA
ATOM     24  C   UNL A   1      31.224  23.689  24.017  1.00  0.00     0.085 C 
ENDBRANCH  13  16
ENDBRANCH  12  13
ENDBRANCH   7  12
ENDBRANCH   4   6
ENDBRANCH   3   4
ENDBRANCH   2   3
ENDBRANCH   1   2
BRANCH   1  25
ATOM     25  O   UNL A   1      34.937  34.002  29.292  1.00  0.00    -0.374 OA
BRANCH  25  26
ATOM     26  C   UNL A   1      34.202  35.096  28.740  1.00  0.00     0.202 C 
BRANCH  26  27
ATOM     27  C   UNL A   1      32.916  35.506  29.470  1.00  0.00     0.261 C 
BRANCH  27  28
ATOM     28  O   UNL A   1      33.189  36.243  30.675  1.00  0.00    -0.460 OA
BRANCH  28  29
ATOM     29  C   UNL A   1      32.769  35.643  31.813  1.00  0.00     0.338 C 
ATOM     30  O   UNL A   1      31.618  35.514  32.203  1.00  0.00    -0.246 OA
BRANCH  29  31
ATOM     31  C   UNL A   1      33.902  34.976  32.477  1.00  0.00     0.060 A 
ATOM     32  C   UNL A   1      35.158  35.591  32.384  1.00  0.00     0.016 A 
ATOM     33  C   UNL A   1      33.761  33.738  33.105  1.00  0.00     0.016 A 
ATOM     34  C   UNL A   1      36.290  34.940  32.865  1.00  0.00     0.010 A 
ATOM     35  C   UNL A   1      34.900  33.082  33.582  1.00  0.00     0.010 A 
ATOM     36  C   UNL A   1      36.173  33.661  33.426  1.00  0.00    -0.014 A 
BRANCH  36  37
ATOM     37  C   UNL A   1      37.396  32.866  33.691  1.00  0.00     0.031 A 
ATOM     38  C   UNL A   1      38.167  33.117  34.958  1.00  0.00     0.074 A 
ATOM     39  C   UNL A   1      37.798  31.911  32.833  1.00  0.00     0.049 A 
ATOM     40  N   UNL A   1      39.279  32.572  35.378  1.00  0.00    -0.248 NA
ATOM     41  C   UNL A   1      37.607  34.124  35.874  1.00  0.00     0.031 C 
ATOM     42  C   UNL A   1      37.115  31.546  31.595  1.00  0.00     0.029 A 
ATOM     43  N   UNL A   1      38.889  31.080  32.877  1.00  0.00    -0.354 N 
ATOM     44  C   UNL A   1      39.557  33.175  36.599  1.00  0.00     0.074 A 
ATOM     45  C   UNL A   1      38.516  34.150  36.837  1.00  0.00     0.031 C 
ATOM     46  C   UNL A   1      37.810  30.566  30.989  1.00  0.00     0.029 A 
ATOM     47  C   UNL A   1      39.000  30.262  31.780  1.00  0.00     0.049 A 
ATOM     48  H   UNL A   1      39.531  31.072  33.624  1.00  0.00     0.167 HD
ATOM     49  C   UNL A   1      40.583  32.930  37.449  1.00  0.00     0.037 A 
ATOM     50  C   UNL A   1      39.964  29.383  31.447  1.00  0.00     0.037 A 
ATOM     51  C   UNL A   1      41.615  31.956  37.211  1.00  0.00     0.049 A 
ATOM     52  C   UNL A   1      41.130  29.175  32.377  1.00  0.00     0.074 A 
ATOM     53  C   UNL A   1      42.689  31.622  38.019  1.00  0.00     0.029 A 
ATOM     54  N   UNL A   1      41.706  31.164  36.077  1.00  0.00    -0.354 N 
ATOM     55  N   UNL A   1      41.374  29.734  33.538  1.00  0.00    -0.248 NA
ATOM     56  C   UNL A   1      42.153  28.207  31.952  1.00  0.00     0.031 C 
ATOM     57  C   UNL A   1      43.457  30.664  37.349  1.00  0.00     0.029 A 
ATOM     58  C   UNL A   1      42.830  30.358  36.152  1.00  0.00     0.049 A 
ATOM     59  H   UNL A   1      41.066  31.172  35.329  1.00  0.00     0.167 HD
ATOM     60  C   UNL A   1      42.554  29.162  33.998  1.00  0.00     0.074 A 
ATOM     61  C   UNL A   1      42.974  28.206  32.993  1.00  0.00     0.031 C 
ATOM     62  C   UNL A   1      43.228  29.402  35.150  1.00  0.00     0.037 A 
BRANCH  49  63
ATOM     63  C   UNL A   1      40.649  33.751  38.704  1.00  0.00     0.057 A 
ATOM     64  C   UNL A   1      39.943  33.400  39.862  1.00  0.00     0.134 A 
ATOM     65  C   UNL A   1      41.450  34.900  38.762  1.00  0.00     0.134 A 
ATOM     66  F   UNL A   1      39.146  32.320  39.870  1.00  0.00    -0.206 F 
ATOM     67  C   UNL A   1      40.010  34.174  41.022  1.00  0.00     0.040 A 
ATOM     68  C   UNL A   1      41.547  35.665  39.924  1.00  0.00     0.040 A 
ATOM     69  F   UNL A   1      42.157  35.291  37.691  1.00  0.00    -0.206 F 
ATOM     70  C   UNL A   1      40.821  35.307  41.057  1.00  0.00     0.006 A 
ENDBRANCH  49  63
BRANCH  50  71
ATOM     71  C   UNL A   1      39.876  28.633  30.168  1.00  0.00     0.057 A 
ATOM     72  C   UNL A   1      40.493  29.105  29.004  1.00  0.00     0.134 A 
ATOM     73  C   UNL A   1      39.154  27.437  30.075  1.00  0.00     0.134 A 
ATOM     74  F   UNL A   1      41.180  30.257  29.024  1.00  0.00    -0.206 F 
ATOM     75  C   UNL A   1      40.381  28.426  27.790  1.00  0.00     0.040 A 
ATOM     76  C   UNL A   1      39.055  26.734  28.874  1.00  0.00     0.040 A 
ATOM     77  F   UNL A   1      38.540  26.930  31.155  1.00  0.00    -0.206 F 
ATOM     78  C   UNL A   1      39.665  27.232  27.724  1.00  0.00     0.006 A 
ENDBRANCH  50  71
BRANCH  62  79
ATOM     79  C   UNL A   1      44.460  28.584  35.413  1.00  0.00     0.057 A 
ATOM     80  C   UNL A   1      45.735  29.010  35.023  1.00  0.00     0.134 A 
ATOM     81  C   UNL A   1      44.369  27.368  36.105  1.00  0.00     0.134 A 
ATOM     82  F   UNL A   1      45.892  30.158  34.346  1.00  0.00    -0.206 F 
ATOM     83  C   UNL A   1      46.873  28.244  35.286  1.00  0.00     0.040 A 
ATOM     84  C   UNL A   1      45.502  26.609  36.400  1.00  0.00     0.040 A 
ATOM     85  F   UNL A   1      43.179  26.906  36.518  1.00  0.00    -0.206 F 
ATOM     86  C   UNL A   1      46.758  27.043  35.984  1.00  0.00     0.006 A 
ENDBRANCH  62  79
ENDBRANCH  36  37
ENDBRANCH  29  31
ENDBRANCH  28  29
ENDBRANCH  27  28
ENDBRANCH  26  27
ENDBRANCH  25  26
ENDBRANCH   1  25
TORSDOF 17
ENDMDL
