MODEL 1
REMARK VINA RESULT:     -10.3      0.000      0.000
REMARK SMILES CC[C@@H](C)[C@@H](NC(N)=O)C(=O)N1CCC[C@H](C(=O)OCCOCCOC(=O)c2ccc(-c3c4nc(c(-c5c(F)cccc5F)c5ccc([nH]5)c(-c5c(F)cccc5F)c5nc(c(-c6c(F)cccc6F)c6ccc3[nH]6)C=C5)C=C4)cc2)C1
REMARK SMILES IDX 21 1 20 2 19 3 17 4 18 5 16 6 12 7 13 8 82 9 14 10 15 11
REMARK SMILES IDX 10 12 11 13 5 14 3 15 4 16 2 17 1 18 6 19 7 20 8 22 9 23
REMARK SMILES IDX 22 26 23 27 24 28 25 29 26 30 27 31 28 32 29 33 81 34 30 35
REMARK SMILES IDX 80 36 31 37 32 38 33 39 74 40 34 41 79 42 73 43 75 44 35 45
REMARK SMILES IDX 78 46 72 47 71 48 36 50 62 51 45 52 61 53 46 54 49 55 60 56
REMARK SMILES IDX 76 57 47 58 48 59 59 61 77 62 50 63 37 64 38 65 43 66 39 67
REMARK SMILES IDX 40 68 42 69 44 70 41 71 63 72 64 73 69 74 65 75 66 76 68 77
REMARK SMILES IDX 70 78 67 79 51 80 52 81 57 82 53 83 54 84 56 85 58 86 55 87
REMARK H PARENT 6 21 8 24 8 25 75 49 49 60
REMARK Flexibility Score: inf
ROOT
ATOM      1  C   UNL A   1      35.241  21.517  25.985  1.00  0.00     0.202 C 
ENDROOT
BRANCH   1   2
ATOM      2  C   UNL A   1      35.392  23.006  25.679  1.00  0.00     0.261 C 
BRANCH   2   3
ATOM      3  O   UNL A   1      34.326  23.479  24.838  1.00  0.00    -0.463 OA
BRANCH   3   4
ATOM      4  C   UNL A   1      34.470  23.340  23.497  1.00  0.00     0.310 C 
ATOM      5  O   UNL A   1      35.481  23.626  22.865  1.00  0.00    -0.252 OA
BRANCH   4   6
ATOM      6  C   UNL A   1      33.213  22.818  22.818  1.00  0.00     0.119 C 
ATOM      7  N   UNL A   1      32.288  25.003  22.298  1.00  0.00    -0.340 N 
ATOM      8  C   UNL A   1      31.088  24.828  23.103  1.00  0.00     0.119 C 
ATOM      9  C   UNL A   1      32.807  23.781  21.704  1.00  0.00     0.134 C 
ATOM     10  C   UNL A   1      31.279  23.798  24.213  1.00  0.00     0.022 C 
ATOM     11  C   UNL A   1      32.008  22.537  23.733  1.00  0.00     0.019 C 
BRANCH   7  12
ATOM     12  C   UNL A   1      32.995  26.201  22.385  1.00  0.00     0.245 C 
ATOM     13  O   UNL A   1      33.966  26.414  21.652  1.00  0.00    -0.272 OA
BRANCH  12  14
ATOM     14  C   UNL A   1      32.503  27.304  23.387  1.00  0.00     0.176 C 
BRANCH  14  15
ATOM     15  C   UNL A   1      33.477  27.572  24.575  1.00  0.00     0.018 C 
ATOM     16  C   UNL A   1      33.361  26.501  25.667  1.00  0.00     0.010 C 
BRANCH  15  17
ATOM     17  C   UNL A   1      33.287  28.970  25.213  1.00  0.00     0.002 C 
ATOM     18  C   UNL A   1      33.254  28.908  26.740  1.00  0.00     0.004 C 
ENDBRANCH  15  17
ENDBRANCH  14  15
BRANCH  14  19
ATOM     19  N   UNL A   1      32.208  28.525  22.618  1.00  0.00    -0.326 N 
ATOM     20  C   UNL A   1      30.936  28.805  22.210  1.00  0.00     0.312 C 
ATOM     21  H   UNL A   1      32.937  29.148  22.396  1.00  0.00     0.166 HD
ATOM     22  N   UNL A   1      30.833  29.987  21.562  1.00  0.00    -0.352 N 
ATOM     23  O   UNL A   1      29.964  28.077  22.343  1.00  0.00    -0.249 OA
ATOM     24  H   UNL A   1      31.624  30.564  21.462  1.00  0.00     0.161 HD
ATOM     25  H   UNL A   1      29.967  30.271  21.191  1.00  0.00     0.161 HD
ENDBRANCH  14  19
ENDBRANCH  12  14
ENDBRANCH   7  12
ENDBRANCH   4   6
ENDBRANCH   3   4
ENDBRANCH   2   3
ENDBRANCH   1   2
BRANCH   1  26
ATOM     26  O   UNL A   1      35.864  20.611  25.076  1.00  0.00    -0.374 OA
BRANCH  26  27
ATOM     27  C   UNL A   1      37.177  20.925  24.618  1.00  0.00     0.202 C 
BRANCH  27  28
ATOM     28  C   UNL A   1      38.321  20.015  25.087  1.00  0.00     0.261 C 
BRANCH  28  29
ATOM     29  O   UNL A   1      39.131  20.596  26.125  1.00  0.00    -0.460 OA
BRANCH  29  30
ATOM     30  C   UNL A   1      40.418  20.168  26.127  1.00  0.00     0.338 C 
ATOM     31  O   UNL A   1      40.843  19.109  25.693  1.00  0.00    -0.246 OA
BRANCH  30  32
ATOM     32  C   UNL A   1      41.331  21.221  26.607  1.00  0.00     0.060 A 
ATOM     33  C   UNL A   1      41.337  21.482  27.983  1.00  0.00     0.016 A 
ATOM     34  C   UNL A   1      42.041  22.039  25.726  1.00  0.00     0.016 A 
ATOM     35  C   UNL A   1      41.984  22.611  28.477  1.00  0.00     0.010 A 
ATOM     36  C   UNL A   1      42.688  23.176  26.224  1.00  0.00     0.010 A 
ATOM     37  C   UNL A   1      42.613  23.497  27.593  1.00  0.00    -0.014 A 
BRANCH  37  38
ATOM     38  C   UNL A   1      43.013  24.840  28.085  1.00  0.00     0.031 A 
ATOM     39  C   UNL A   1      41.945  25.874  28.327  1.00  0.00     0.074 A 
ATOM     40  C   UNL A   1      44.295  25.119  28.379  1.00  0.00     0.049 A 
ATOM     41  N   UNL A   1      42.058  27.107  28.752  1.00  0.00    -0.248 NA
ATOM     42  C   UNL A   1      40.559  25.460  28.053  1.00  0.00     0.031 C 
ATOM     43  C   UNL A   1      45.415  24.192  28.234  1.00  0.00     0.029 A 
ATOM     44  N   UNL A   1      44.866  26.269  28.862  1.00  0.00    -0.354 N 
ATOM     45  C   UNL A   1      40.766  27.618  28.782  1.00  0.00     0.074 A 
ATOM     46  C   UNL A   1      39.888  26.574  28.302  1.00  0.00     0.031 C 
ATOM     47  C   UNL A   1      46.544  24.812  28.618  1.00  0.00     0.029 A 
ATOM     48  C   UNL A   1      46.229  26.187  29.004  1.00  0.00     0.049 A 
ATOM     49  H   UNL A   1      44.348  27.076  29.086  1.00  0.00     0.167 HD
ATOM     50  C   UNL A   1      40.347  28.842  29.185  1.00  0.00     0.037 A 
ATOM     51  C   UNL A   1      47.122  27.121  29.384  1.00  0.00     0.037 A 
ATOM     52  C   UNL A   1      41.220  29.878  29.670  1.00  0.00     0.049 A 
ATOM     53  C   UNL A   1      46.639  28.495  29.767  1.00  0.00     0.074 A 
ATOM     54  C   UNL A   1      40.890  31.147  30.115  1.00  0.00     0.029 A 
ATOM     55  N   UNL A   1      42.599  29.766  29.769  1.00  0.00    -0.354 N 
ATOM     56  N   UNL A   1      45.415  28.963  29.809  1.00  0.00    -0.248 NA
ATOM     57  C   UNL A   1      47.665  29.470  30.164  1.00  0.00     0.031 C 
ATOM     58  C   UNL A   1      42.074  31.820  30.433  1.00  0.00     0.029 A 
ATOM     59  C   UNL A   1      43.136  30.950  30.247  1.00  0.00     0.049 A 
ATOM     60  H   UNL A   1      43.119  28.963  29.536  1.00  0.00     0.167 HD
ATOM     61  C   UNL A   1      45.520  30.270  30.270  1.00  0.00     0.074 A 
ATOM     62  C   UNL A   1      46.927  30.517  30.503  1.00  0.00     0.031 C 
ATOM     63  C   UNL A   1      44.539  31.181  30.486  1.00  0.00     0.037 A 
BRANCH  50  64
ATOM     64  C   UNL A   1      38.876  29.135  29.087  1.00  0.00     0.057 A 
ATOM     65  C   UNL A   1      38.020  29.035  30.192  1.00  0.00     0.134 A 
ATOM     66  C   UNL A   1      38.312  29.544  27.871  1.00  0.00     0.134 A 
ATOM     67  F   UNL A   1      38.491  28.635  31.382  1.00  0.00    -0.206 F 
ATOM     68  C   UNL A   1      36.654  29.301  30.084  1.00  0.00     0.040 A 
ATOM     69  C   UNL A   1      36.954  29.842  27.758  1.00  0.00     0.040 A 
ATOM     70  F   UNL A   1      39.075  29.668  26.773  1.00  0.00    -0.206 F 
ATOM     71  C   UNL A   1      36.118  29.714  28.865  1.00  0.00     0.006 A 
ENDBRANCH  50  64
BRANCH  51  72
ATOM     72  C   UNL A   1      48.569  26.793  29.417  1.00  0.00     0.057 A 
ATOM     73  C   UNL A   1      49.403  27.065  28.326  1.00  0.00     0.134 A 
ATOM     74  C   UNL A   1      49.150  26.182  30.535  1.00  0.00     0.134 A 
ATOM     75  F   UNL A   1      48.900  27.626  27.215  1.00  0.00    -0.206 F 
ATOM     76  C   UNL A   1      50.758  26.727  28.338  1.00  0.00     0.040 A 
ATOM     77  C   UNL A   1      50.509  25.864  30.572  1.00  0.00     0.040 A 
ATOM     78  F   UNL A   1      48.405  25.891  31.611  1.00  0.00    -0.206 F 
ATOM     79  C   UNL A   1      51.316  26.130  29.467  1.00  0.00     0.006 A 
ENDBRANCH  51  72
BRANCH  63  80
ATOM     80  C   UNL A   1      44.944  32.512  31.056  1.00  0.00     0.057 A 
ATOM     81  C   UNL A   1      45.250  33.609  30.242  1.00  0.00     0.134 A 
ATOM     82  C   UNL A   1      44.996  32.703  32.443  1.00  0.00     0.134 A 
ATOM     83  F   UNL A   1      45.231  33.493  28.905  1.00  0.00    -0.206 F 
ATOM     84  C   UNL A   1      45.622  34.841  30.787  1.00  0.00     0.040 A 
ATOM     85  C   UNL A   1      45.335  33.937  32.999  1.00  0.00     0.040 A 
ATOM     86  F   UNL A   1      44.702  31.697  33.282  1.00  0.00    -0.206 F 
ATOM     87  C   UNL A   1      45.659  35.008  32.170  1.00  0.00     0.006 A 
ENDBRANCH  63  80
ENDBRANCH  37  38
ENDBRANCH  30  32
ENDBRANCH  29  30
ENDBRANCH  28  29
ENDBRANCH  27  28
ENDBRANCH  26  27
ENDBRANCH   1  26
TORSDOF 19
ENDMDL
MODEL 2
REMARK VINA RESULT:     -10.0      4.162      8.177
REMARK SMILES CC[C@@H](C)[C@@H](NC(N)=O)C(=O)N1CCC[C@H](C(=O)OCCOCCOC(=O)c2ccc(-c3c4nc(c(-c5c(F)cccc5F)c5ccc([nH]5)c(-c5c(F)cccc5F)c5nc(c(-c6c(F)cccc6F)c6ccc3[nH]6)C=C5)C=C4)cc2)C1
REMARK SMILES IDX 21 1 20 2 19 3 17 4 18 5 16 6 12 7 13 8 82 9 14 10 15 11
REMARK SMILES IDX 10 12 11 13 5 14 3 15 4 16 2 17 1 18 6 19 7 20 8 22 9 23
REMARK SMILES IDX 22 26 23 27 24 28 25 29 26 30 27 31 28 32 29 33 81 34 30 35
REMARK SMILES IDX 80 36 31 37 32 38 33 39 74 40 34 41 79 42 73 43 75 44 35 45
REMARK SMILES IDX 78 46 72 47 71 48 36 50 62 51 45 52 61 53 46 54 49 55 60 56
REMARK SMILES IDX 76 57 47 58 48 59 59 61 77 62 50 63 37 64 38 65 43 66 39 67
REMARK SMILES IDX 40 68 42 69 44 70 41 71 63 72 64 73 69 74 65 75 66 76 68 77
REMARK SMILES IDX 70 78 67 79 51 80 52 81 57 82 53 83 54 84 56 85 58 86 55 87
REMARK H PARENT 6 21 8 24 8 25 75 49 49 60
REMARK Flexibility Score: inf
ROOT
ATOM      1  C   UNL A   1      32.643  29.581  27.036  1.00  0.00     0.202 C 
ENDROOT
BRANCH   1   2
ATOM      2  C   UNL A   1      33.177  29.412  25.614  1.00  0.00     0.261 C 
BRANCH   2   3
ATOM      3  O   UNL A   1      33.358  28.024  25.284  1.00  0.00    -0.463 OA
BRANCH   3   4
ATOM      4  C   UNL A   1      32.492  27.466  24.403  1.00  0.00     0.310 C 
ATOM      5  O   UNL A   1      32.734  27.247  23.222  1.00  0.00    -0.252 OA
BRANCH   4   6
ATOM      6  C   UNL A   1      31.134  27.164  25.019  1.00  0.00     0.119 C 
ATOM      7  N   UNL A   1      31.631  24.856  25.591  1.00  0.00    -0.340 N 
ATOM      8  C   UNL A   1      30.596  24.288  24.741  1.00  0.00     0.119 C 
ATOM      9  C   UNL A   1      31.311  26.158  26.156  1.00  0.00     0.134 C 
ATOM     10  C   UNL A   1      30.206  25.223  23.600  1.00  0.00     0.022 C 
ATOM     11  C   UNL A   1      30.038  26.678  24.055  1.00  0.00     0.019 C 
BRANCH   7  12
ATOM     12  C   UNL A   1      32.907  24.296  25.574  1.00  0.00     0.245 C 
ATOM     13  O   UNL A   1      33.792  24.720  26.324  1.00  0.00    -0.272 OA
BRANCH  12  14
ATOM     14  C   UNL A   1      33.190  23.074  24.630  1.00  0.00     0.176 C 
BRANCH  14  15
ATOM     15  C   UNL A   1      34.226  23.362  23.502  1.00  0.00     0.018 C 
ATOM     16  C   UNL A   1      33.602  23.251  22.104  1.00  0.00     0.010 C 
BRANCH  15  17
ATOM     17  C   UNL A   1      35.474  22.446  23.574  1.00  0.00     0.002 C 
ATOM     18  C   UNL A   1      36.752  23.180  23.170  1.00  0.00     0.004 C 
ENDBRANCH  15  17
ENDBRANCH  14  15
BRANCH  14  19
ATOM     19  N   UNL A   1      33.577  21.925  25.466  1.00  0.00    -0.326 N 
ATOM     20  C   UNL A   1      32.696  20.915  25.719  1.00  0.00     0.312 C 
ATOM     21  H   UNL A   1      34.483  21.886  25.849  1.00  0.00     0.166 HD
ATOM     22  N   UNL A   1      33.228  19.917  26.460  1.00  0.00    -0.352 N 
ATOM     23  O   UNL A   1      31.522  20.886  25.380  1.00  0.00    -0.249 OA
ATOM     24  H   UNL A   1      34.175  19.953  26.726  1.00  0.00     0.161 HD
ATOM     25  H   UNL A   1      32.669  19.154  26.733  1.00  0.00     0.161 HD
ENDBRANCH  14  19
ENDBRANCH  12  14
ENDBRANCH   7  12
ENDBRANCH   4   6
ENDBRANCH   3   4
ENDBRANCH   2   3
ENDBRANCH   1   2
BRANCH   1  26
ATOM     26  O   UNL A   1      31.647  30.583  27.230  1.00  0.00    -0.374 OA
BRANCH  26  27
ATOM     27  C   UNL A   1      31.514  31.593  26.232  1.00  0.00     0.202 C 
BRANCH  27  28
ATOM     28  C   UNL A   1      31.852  33.033  26.641  1.00  0.00     0.261 C 
BRANCH  28  29
ATOM     29  O   UNL A   1      32.296  33.156  28.005  1.00  0.00    -0.460 OA
BRANCH  29  30
ATOM     30  C   UNL A   1      33.368  33.970  28.166  1.00  0.00     0.338 C 
ATOM     31  O   UNL A   1      33.359  35.182  28.311  1.00  0.00    -0.246 OA
BRANCH  30  32
ATOM     32  C   UNL A   1      34.615  33.193  28.296  1.00  0.00     0.060 A 
ATOM     33  C   UNL A   1      34.492  31.850  28.675  1.00  0.00     0.016 A 
ATOM     34  C   UNL A   1      35.872  33.794  28.208  1.00  0.00     0.016 A 
ATOM     35  C   UNL A   1      35.619  31.125  29.051  1.00  0.00     0.010 A 
ATOM     36  C   UNL A   1      37.004  33.063  28.590  1.00  0.00     0.010 A 
ATOM     37  C   UNL A   1      36.875  31.745  29.067  1.00  0.00    -0.014 A 
BRANCH  37  38
ATOM     38  C   UNL A   1      37.999  31.072  29.765  1.00  0.00     0.031 A 
ATOM     39  C   UNL A   1      38.231  31.367  31.224  1.00  0.00     0.074 A 
ATOM     40  C   UNL A   1      38.763  30.163  29.134  1.00  0.00     0.049 A 
ATOM     41  N   UNL A   1      39.147  30.900  32.034  1.00  0.00    -0.248 NA
ATOM     42  C   UNL A   1      37.301  32.316  31.856  1.00  0.00     0.031 C 
ATOM     43  C   UNL A   1      38.613  29.756  27.740  1.00  0.00     0.029 A 
ATOM     44  N   UNL A   1      39.820  29.418  29.594  1.00  0.00    -0.354 N 
ATOM     45  C   UNL A   1      38.913  31.507  33.262  1.00  0.00     0.074 A 
ATOM     46  C   UNL A   1      37.789  32.401  33.083  1.00  0.00     0.031 C 
ATOM     47  C   UNL A   1      39.549  28.834  27.454  1.00  0.00     0.029 A 
ATOM     48  C   UNL A   1      40.381  28.612  28.635  1.00  0.00     0.049 A 
ATOM     49  H   UNL A   1      40.145  29.458  30.523  1.00  0.00     0.167 HD
ATOM     50  C   UNL A   1      39.567  31.329  34.435  1.00  0.00     0.037 A 
ATOM     51  C   UNL A   1      41.455  27.801  28.700  1.00  0.00     0.037 A 
ATOM     52  C   UNL A   1      40.679  30.434  34.614  1.00  0.00     0.049 A 
ATOM     53  C   UNL A   1      42.205  27.667  29.999  1.00  0.00     0.074 A 
ATOM     54  C   UNL A   1      41.399  30.172  35.767  1.00  0.00     0.029 A 
ATOM     55  N   UNL A   1      41.238  29.657  33.610  1.00  0.00    -0.354 N 
ATOM     56  N   UNL A   1      41.966  28.231  31.158  1.00  0.00    -0.248 NA
ATOM     57  C   UNL A   1      43.372  26.773  29.999  1.00  0.00     0.031 C 
ATOM     58  C   UNL A   1      42.426  29.278  35.448  1.00  0.00     0.029 A 
ATOM     59  C   UNL A   1      42.307  28.933  34.111  1.00  0.00     0.049 A 
ATOM     60  H   UNL A   1      40.920  29.625  32.678  1.00  0.00     0.167 HD
ATOM     61  C   UNL A   1      42.926  27.735  32.032  1.00  0.00     0.074 A 
ATOM     62  C   UNL A   1      43.746  26.816  31.270  1.00  0.00     0.031 C 
ATOM     63  C   UNL A   1      43.109  28.011  33.346  1.00  0.00     0.037 A 
BRANCH  50  64
ATOM     64  C   UNL A   1      39.109  32.145  35.611  1.00  0.00     0.057 A 
ATOM     65  C   UNL A   1      38.260  31.622  36.596  1.00  0.00     0.134 A 
ATOM     66  C   UNL A   1      39.542  33.468  35.771  1.00  0.00     0.134 A 
ATOM     67  F   UNL A   1      37.796  30.368  36.498  1.00  0.00    -0.206 F 
ATOM     68  C   UNL A   1      37.836  32.395  37.679  1.00  0.00     0.040 A 
ATOM     69  C   UNL A   1      39.149  34.240  36.864  1.00  0.00     0.040 A 
ATOM     70  F   UNL A   1      40.362  34.030  34.868  1.00  0.00    -0.206 F 
ATOM     71  C   UNL A   1      38.287  33.706  37.820  1.00  0.00     0.006 A 
ENDBRANCH  50  64
BRANCH  51  72
ATOM     72  C   UNL A   1      41.893  27.055  27.494  1.00  0.00     0.057 A 
ATOM     73  C   UNL A   1      41.507  25.727  27.278  1.00  0.00     0.134 A 
ATOM     74  C   UNL A   1      42.725  27.648  26.535  1.00  0.00     0.134 A 
ATOM     75  F   UNL A   1      40.732  25.095  28.173  1.00  0.00    -0.206 F 
ATOM     76  C   UNL A   1      41.946  25.009  26.163  1.00  0.00     0.040 A 
ATOM     77  C   UNL A   1      43.148  26.952  25.402  1.00  0.00     0.040 A 
ATOM     78  F   UNL A   1      43.134  28.916  26.685  1.00  0.00    -0.206 F 
ATOM     79  C   UNL A   1      42.764  25.625  25.218  1.00  0.00     0.006 A 
ENDBRANCH  51  72
BRANCH  63  80
ATOM     80  C   UNL A   1      44.202  27.270  34.063  1.00  0.00     0.057 A 
ATOM     81  C   UNL A   1      45.501  27.781  34.176  1.00  0.00     0.134 A 
ATOM     82  C   UNL A   1      43.938  26.039  34.678  1.00  0.00     0.134 A 
ATOM     83  F   UNL A   1      45.825  28.949  33.602  1.00  0.00    -0.206 F 
ATOM     84  C   UNL A   1      46.505  27.081  34.849  1.00  0.00     0.040 A 
ATOM     85  C   UNL A   1      44.924  25.344  35.380  1.00  0.00     0.040 A 
ATOM     86  F   UNL A   1      42.712  25.496  34.620  1.00  0.00    -0.206 F 
ATOM     87  C   UNL A   1      46.215  25.861  35.459  1.00  0.00     0.006 A 
ENDBRANCH  63  80
ENDBRANCH  37  38
ENDBRANCH  30  32
ENDBRANCH  29  30
ENDBRANCH  28  29
ENDBRANCH  27  28
ENDBRANCH  26  27
ENDBRANCH   1  26
TORSDOF 19
ENDMDL
MODEL 3
REMARK VINA RESULT:      -9.9      2.071      6.237
REMARK SMILES CC[C@@H](C)[C@@H](NC(N)=O)C(=O)N1CCC[C@H](C(=O)OCCOCCOC(=O)c2ccc(-c3c4nc(c(-c5c(F)cccc5F)c5ccc([nH]5)c(-c5c(F)cccc5F)c5nc(c(-c6c(F)cccc6F)c6ccc3[nH]6)C=C5)C=C4)cc2)C1
REMARK SMILES IDX 21 1 20 2 19 3 17 4 18 5 16 6 12 7 13 8 82 9 14 10 15 11
REMARK SMILES IDX 10 12 11 13 5 14 3 15 4 16 2 17 1 18 6 19 7 20 8 22 9 23
REMARK SMILES IDX 22 26 23 27 24 28 25 29 26 30 27 31 28 32 29 33 81 34 30 35
REMARK SMILES IDX 80 36 31 37 32 38 33 39 74 40 34 41 79 42 73 43 75 44 35 45
REMARK SMILES IDX 78 46 72 47 71 48 36 50 62 51 45 52 61 53 46 54 49 55 60 56
REMARK SMILES IDX 76 57 47 58 48 59 59 61 77 62 50 63 37 64 38 65 43 66 39 67
REMARK SMILES IDX 40 68 42 69 44 70 41 71 63 72 64 73 69 74 65 75 66 76 68 77
REMARK SMILES IDX 70 78 67 79 51 80 52 81 57 82 53 83 54 84 56 85 58 86 55 87
REMARK H PARENT 6 21 8 24 8 25 75 49 49 60
REMARK Flexibility Score: inf
ROOT
ATOM      1  C   UNL A   1      35.852  22.952  24.491  1.00  0.00     0.202 C 
ENDROOT
BRANCH   1   2
ATOM      2  C   UNL A   1      35.172  24.257  24.900  1.00  0.00     0.261 C 
BRANCH   2   3
ATOM      3  O   UNL A   1      33.849  24.355  24.345  1.00  0.00    -0.463 OA
BRANCH   3   4
ATOM      4  C   UNL A   1      33.729  24.805  23.072  1.00  0.00     0.310 C 
ATOM      5  O   UNL A   1      34.511  25.573  22.522  1.00  0.00    -0.252 OA
BRANCH   4   6
ATOM      6  C   UNL A   1      32.477  24.290  22.377  1.00  0.00     0.119 C 
ATOM      7  N   UNL A   1      31.176  26.319  22.678  1.00  0.00    -0.340 N 
ATOM      8  C   UNL A   1      30.143  25.689  23.488  1.00  0.00     0.119 C 
ATOM      9  C   UNL A   1      31.778  25.454  21.676  1.00  0.00     0.134 C 
ATOM     10  C   UNL A   1      30.642  24.426  24.182  1.00  0.00     0.022 C 
ATOM     11  C   UNL A   1      31.472  23.527  23.256  1.00  0.00     0.019 C 
BRANCH   7  12
ATOM     12  C   UNL A   1      31.704  27.543  23.084  1.00  0.00     0.245 C 
ATOM     13  O   UNL A   1      32.779  27.948  22.628  1.00  0.00    -0.272 OA
BRANCH  12  14
ATOM     14  C   UNL A   1      30.885  28.433  24.084  1.00  0.00     0.176 C 
BRANCH  14  15
ATOM     15  C   UNL A   1      31.529  28.568  25.497  1.00  0.00     0.018 C 
ATOM     16  C   UNL A   1      32.492  29.760  25.580  1.00  0.00     0.010 C 
BRANCH  15  17
ATOM     17  C   UNL A   1      32.269  27.287  25.954  1.00  0.00     0.002 C 
ATOM     18  C   UNL A   1      33.773  27.511  26.106  1.00  0.00     0.004 C 
ENDBRANCH  15  17
ENDBRANCH  14  15
BRANCH  14  19
ATOM     19  N   UNL A   1      30.646  29.740  23.449  1.00  0.00    -0.326 N 
ATOM     20  C   UNL A   1      29.692  29.887  22.485  1.00  0.00     0.312 C 
ATOM     21  H   UNL A   1      31.182  30.519  23.724  1.00  0.00     0.166 HD
ATOM     22  N   UNL A   1      29.569  31.159  22.047  1.00  0.00    -0.352 N 
ATOM     23  O   UNL A   1      29.024  28.988  21.995  1.00  0.00    -0.249 OA
ATOM     24  H   UNL A   1      30.114  31.873  22.451  1.00  0.00     0.161 HD
ATOM     25  H   UNL A   1      28.936  31.373  21.324  1.00  0.00     0.161 HD
ENDBRANCH  14  19
ENDBRANCH  12  14
ENDBRANCH   7  12
ENDBRANCH   4   6
ENDBRANCH   3   4
ENDBRANCH   2   3
ENDBRANCH   1   2
BRANCH   1  26
ATOM     26  O   UNL A   1      35.918  21.927  25.480  1.00  0.00    -0.374 OA
BRANCH  26  27
ATOM     27  C   UNL A   1      36.103  20.584  25.038  1.00  0.00     0.202 C 
BRANCH  27  28
ATOM     28  C   UNL A   1      37.541  20.047  25.005  1.00  0.00     0.261 C 
BRANCH  28  29
ATOM     29  O   UNL A   1      38.543  21.075  25.096  1.00  0.00    -0.460 OA
BRANCH  29  30
ATOM     30  C   UNL A   1      39.498  20.836  26.028  1.00  0.00     0.338 C 
ATOM     31  O   UNL A   1      40.125  19.802  26.192  1.00  0.00    -0.246 OA
BRANCH  30  32
ATOM     32  C   UNL A   1      39.828  22.059  26.783  1.00  0.00     0.060 A 
ATOM     33  C   UNL A   1      39.097  23.214  26.476  1.00  0.00     0.016 A 
ATOM     34  C   UNL A   1      40.922  22.120  27.648  1.00  0.00     0.016 A 
ATOM     35  C   UNL A   1      39.507  24.451  26.966  1.00  0.00     0.010 A 
ATOM     36  C   UNL A   1      41.335  23.365  28.137  1.00  0.00     0.010 A 
ATOM     37  C   UNL A   1      40.663  24.541  27.751  1.00  0.00    -0.014 A 
BRANCH  37  38
ATOM     38  C   UNL A   1      41.263  25.878  27.994  1.00  0.00     0.031 A 
ATOM     39  C   UNL A   1      42.639  26.167  27.453  1.00  0.00     0.074 A 
ATOM     40  C   UNL A   1      40.574  26.843  28.627  1.00  0.00     0.049 A 
ATOM     41  N   UNL A   1      43.358  27.257  27.543  1.00  0.00    -0.248 NA
ATOM     42  C   UNL A   1      43.291  25.079  26.707  1.00  0.00     0.031 C 
ATOM     43  C   UNL A   1      39.220  26.705  29.156  1.00  0.00     0.029 A 
ATOM     44  N   UNL A   1      40.927  28.135  28.927  1.00  0.00    -0.354 N 
ATOM     45  C   UNL A   1      44.549  26.982  26.880  1.00  0.00     0.074 A 
ATOM     46  C   UNL A   1      44.469  25.612  26.421  1.00  0.00     0.031 C 
ATOM     47  C   UNL A   1      38.855  27.869  29.723  1.00  0.00     0.029 A 
ATOM     48  C   UNL A   1      39.960  28.820  29.623  1.00  0.00     0.049 A 
ATOM     49  H   UNL A   1      41.789  28.533  28.669  1.00  0.00     0.167 HD
ATOM     50  C   UNL A   1      45.607  27.798  26.663  1.00  0.00     0.037 A 
ATOM     51  C   UNL A   1      39.976  30.065  30.135  1.00  0.00     0.037 A 
ATOM     52  C   UNL A   1      45.683  29.163  27.113  1.00  0.00     0.049 A 
ATOM     53  C   UNL A   1      41.190  30.934  29.935  1.00  0.00     0.074 A 
ATOM     54  C   UNL A   1      46.707  30.076  26.930  1.00  0.00     0.029 A 
ATOM     55  N   UNL A   1      44.696  29.810  27.842  1.00  0.00    -0.354 N 
ATOM     56  N   UNL A   1      42.303  30.671  29.292  1.00  0.00    -0.248 NA
ATOM     57  C   UNL A   1      41.146  32.279  30.526  1.00  0.00     0.031 C 
ATOM     58  C   UNL A   1      46.362  31.259  27.593  1.00  0.00     0.029 A 
ATOM     59  C   UNL A   1      45.096  31.104  28.135  1.00  0.00     0.049 A 
ATOM     60  H   UNL A   1      43.837  29.409  28.109  1.00  0.00     0.167 HD
ATOM     61  C   UNL A   1      43.073  31.826  29.371  1.00  0.00     0.074 A 
ATOM     62  C   UNL A   1      42.295  32.794  30.115  1.00  0.00     0.031 C 
ATOM     63  C   UNL A   1      44.309  32.064  28.868  1.00  0.00     0.037 A 
BRANCH  50  64
ATOM     64  C   UNL A   1      46.785  27.222  25.928  1.00  0.00     0.057 A 
ATOM     65  C   UNL A   1      46.957  27.390  24.548  1.00  0.00     0.134 A 
ATOM     66  C   UNL A   1      47.771  26.504  26.618  1.00  0.00     0.134 A 
ATOM     67  F   UNL A   1      46.044  28.053  23.824  1.00  0.00    -0.206 F 
ATOM     68  C   UNL A   1      48.052  26.841  23.876  1.00  0.00     0.040 A 
ATOM     69  C   UNL A   1      48.885  25.977  25.963  1.00  0.00     0.040 A 
ATOM     70  F   UNL A   1      47.673  26.311  27.942  1.00  0.00    -0.206 F 
ATOM     71  C   UNL A   1      49.024  26.138  24.586  1.00  0.00     0.006 A 
ENDBRANCH  50  64
BRANCH  51  72
ATOM     72  C   UNL A   1      38.804  30.568  30.895  1.00  0.00     0.057 A 
ATOM     73  C   UNL A   1      37.797  31.315  30.271  1.00  0.00     0.134 A 
ATOM     74  C   UNL A   1      38.673  30.329  32.268  1.00  0.00     0.134 A 
ATOM     75  F   UNL A   1      37.879  31.599  28.963  1.00  0.00    -0.206 F 
ATOM     76  C   UNL A   1      36.711  31.820  30.989  1.00  0.00     0.040 A 
ATOM     77  C   UNL A   1      37.577  30.803  32.992  1.00  0.00     0.040 A 
ATOM     78  F   UNL A   1      39.605  29.624  32.925  1.00  0.00    -0.206 F 
ATOM     79  C   UNL A   1      36.596  31.559  32.353  1.00  0.00     0.006 A 
ENDBRANCH  51  72
BRANCH  63  80
ATOM     80  C   UNL A   1      44.877  33.442  29.052  1.00  0.00     0.057 A 
ATOM     81  C   UNL A   1      45.697  33.772  30.140  1.00  0.00     0.134 A 
ATOM     82  C   UNL A   1      44.625  34.446  28.108  1.00  0.00     0.134 A 
ATOM     83  F   UNL A   1      45.970  32.862  31.087  1.00  0.00    -0.206 F 
ATOM     84  C   UNL A   1      46.220  35.058  30.296  1.00  0.00     0.040 A 
ATOM     85  C   UNL A   1      45.168  35.725  28.236  1.00  0.00     0.040 A 
ATOM     86  F   UNL A   1      43.858  34.196  27.035  1.00  0.00    -0.206 F 
ATOM     87  C   UNL A   1      45.961  36.037  29.338  1.00  0.00     0.006 A 
ENDBRANCH  63  80
ENDBRANCH  37  38
ENDBRANCH  30  32
ENDBRANCH  29  30
ENDBRANCH  28  29
ENDBRANCH  27  28
ENDBRANCH  26  27
ENDBRANCH   1  26
TORSDOF 19
ENDMDL
