MODEL 1
REMARK VINA RESULT:     -11.9      0.000      0.000
REMARK SMILES CN1C(=O)/C(=N\Nc2cccc(C(=O)OCCOCCOC(=O)c3ccc(-c4c5nc(c(-c6c(F)cccc6F)c6ccc([nH]6)c(-c6c(F)cccc6F)c6nc(c(-c7c(F)cccc7F)c7ccc4[nH]7)C=C6)C=C5)cc3)c2)c2ccccc21
REMARK SMILES IDX 18 1 17 2 16 3 15 4 13 5 14 6 12 7 8 8 9 9 78 10 10 11 11 12
REMARK SMILES IDX 7 13 6 15 1 16 2 17 3 18 84 19 4 20 5 21 79 22 83 23 80 24
REMARK SMILES IDX 82 25 81 26 19 27 20 28 21 29 22 30 23 31 24 32 25 33 77 34
REMARK SMILES IDX 26 35 76 36 27 37 28 38 29 39 70 40 30 41 75 42 69 43 71 44
REMARK SMILES IDX 31 45 74 46 68 47 67 48 32 50 58 51 41 52 57 53 42 54 45 55
REMARK SMILES IDX 56 56 72 57 43 58 44 59 55 61 73 62 46 63 33 64 34 65 39 66
REMARK SMILES IDX 35 67 36 68 38 69 40 70 37 71 59 72 60 73 65 74 61 75 62 76
REMARK SMILES IDX 64 77 66 78 63 79 47 80 48 81 53 82 49 83 50 84 52 85 54 86
REMARK SMILES IDX 51 87
REMARK H PARENT 7 14 71 49 45 60
REMARK Flexibility Score: inf
ROOT
ATOM      1  O   UNL A   1      44.477  20.522  24.281  1.00  0.00    -0.374 OA
ENDROOT
BRANCH   1   2
ATOM      2  C   UNL A   1      43.678  19.827  25.242  1.00  0.00     0.202 C 
BRANCH   2   3
ATOM      3  C   UNL A   1      42.982  20.779  26.216  1.00  0.00     0.261 C 
BRANCH   3   4
ATOM      4  O   UNL A   1      41.643  21.043  25.760  1.00  0.00    -0.460 OA
BRANCH   4   5
ATOM      5  C   UNL A   1      40.675  21.008  26.708  1.00  0.00     0.338 C 
ATOM      6  O   UNL A   1      40.715  20.392  27.761  1.00  0.00    -0.246 OA
BRANCH   5   7
ATOM      7  C   UNL A   1      39.563  21.925  26.345  1.00  0.00     0.062 A 
ATOM      8  C   UNL A   1      37.373  22.363  25.370  1.00  0.00     0.057 A 
ATOM      9  C   UNL A   1      37.464  23.681  25.848  1.00  0.00     0.028 A 
ATOM     10  C   UNL A   1      38.461  21.506  25.583  1.00  0.00     0.043 A 
ATOM     11  C   UNL A   1      38.586  24.124  26.551  1.00  0.00     0.003 A 
ATOM     12  C   UNL A   1      39.625  23.239  26.818  1.00  0.00     0.016 A 
BRANCH   8  13
ATOM     13  N   UNL A   1      36.129  21.936  24.852  1.00  0.00    -0.278 N 
ATOM     14  H   UNL A   1      36.146  21.399  24.028  1.00  0.00     0.190 HD
BRANCH  13  15
ATOM     15  N   UNL A   1      34.918  22.204  25.391  1.00  0.00    -0.169 NA
ATOM     16  C   UNL A   1      33.081  25.822  22.594  1.00  0.00     0.153 C 
ATOM     17  N   UNL A   1      33.221  24.730  23.518  1.00  0.00    -0.309 N 
ATOM     18  C   UNL A   1      34.218  23.768  23.450  1.00  0.00     0.279 C 
ATOM     19  C   UNL A   1      32.350  24.468  24.582  1.00  0.00     0.053 A 
ATOM     20  O   UNL A   1      35.010  23.573  22.552  1.00  0.00    -0.267 OA
ATOM     21  C   UNL A   1      34.084  22.977  24.766  1.00  0.00     0.158 C 
ATOM     22  C   UNL A   1      32.796  23.378  25.329  1.00  0.00     0.031 A 
ATOM     23  C   UNL A   1      31.173  25.111  24.914  1.00  0.00     0.027 A 
ATOM     24  C   UNL A   1      32.095  22.871  26.406  1.00  0.00     0.013 A 
ATOM     25  C   UNL A   1      30.438  24.610  25.997  1.00  0.00     0.002 A 
ATOM     26  C   UNL A   1      30.890  23.496  26.731  1.00  0.00     0.001 A 
ENDBRANCH  13  15
ENDBRANCH   8  13
ENDBRANCH   5   7
ENDBRANCH   4   5
ENDBRANCH   3   4
ENDBRANCH   2   3
ENDBRANCH   1   2
BRANCH   1  27
ATOM     27  C   UNL A   1      45.199  21.646  24.790  1.00  0.00     0.202 C 
BRANCH  27  28
ATOM     28  C   UNL A   1      44.971  22.901  23.947  1.00  0.00     0.261 C 
BRANCH  28  29
ATOM     29  O   UNL A   1      44.140  23.817  24.681  1.00  0.00    -0.460 OA
BRANCH  29  30
ATOM     30  C   UNL A   1      44.765  24.924  25.145  1.00  0.00     0.338 C 
ATOM     31  O   UNL A   1      45.832  25.378  24.767  1.00  0.00    -0.246 OA
BRANCH  30  32
ATOM     32  C   UNL A   1      43.905  25.608  26.144  1.00  0.00     0.060 A 
ATOM     33  C   UNL A   1      44.191  26.950  26.422  1.00  0.00     0.016 A 
ATOM     34  C   UNL A   1      42.848  24.966  26.803  1.00  0.00     0.016 A 
ATOM     35  C   UNL A   1      43.456  27.635  27.387  1.00  0.00     0.010 A 
ATOM     36  C   UNL A   1      42.112  25.653  27.774  1.00  0.00     0.010 A 
ATOM     37  C   UNL A   1      42.434  26.982  28.089  1.00  0.00    -0.014 A 
BRANCH  37  38
ATOM     38  C   UNL A   1      41.821  27.667  29.248  1.00  0.00     0.031 A 
ATOM     39  C   UNL A   1      42.502  27.573  30.583  1.00  0.00     0.074 A 
ATOM     40  C   UNL A   1      40.717  28.419  29.104  1.00  0.00     0.049 A 
ATOM     41  N   UNL A   1      42.259  28.238  31.683  1.00  0.00    -0.248 NA
ATOM     42  C   UNL A   1      43.610  26.610  30.687  1.00  0.00     0.031 C 
ATOM     43  C   UNL A   1      39.964  28.594  27.864  1.00  0.00     0.029 A 
ATOM     44  N   UNL A   1      40.052  29.194  30.018  1.00  0.00    -0.354 N 
ATOM     45  C   UNL A   1      43.210  27.804  32.596  1.00  0.00     0.074 A 
ATOM     46  C   UNL A   1      44.004  26.789  31.940  1.00  0.00     0.031 C 
ATOM     47  C   UNL A   1      38.942  29.438  28.094  1.00  0.00     0.029 A 
ATOM     48  C   UNL A   1      38.978  29.865  29.491  1.00  0.00     0.049 A 
ATOM     49  H   UNL A   1      40.320  29.263  30.964  1.00  0.00     0.167 HD
ATOM     50  C   UNL A   1      43.418  28.232  33.863  1.00  0.00     0.037 A 
ATOM     51  C   UNL A   1      38.136  30.740  30.071  1.00  0.00     0.037 A 
ATOM     52  C   UNL A   1      42.627  29.228  34.529  1.00  0.00     0.049 A 
ATOM     53  C   UNL A   1      38.332  31.130  31.508  1.00  0.00     0.074 A 
ATOM     54  C   UNL A   1      42.799  29.771  35.789  1.00  0.00     0.029 A 
ATOM     55  N   UNL A   1      41.494  29.813  33.989  1.00  0.00    -0.354 N 
ATOM     56  N   UNL A   1      39.289  30.784  32.334  1.00  0.00    -0.248 NA
ATOM     57  C   UNL A   1      37.333  32.038  32.090  1.00  0.00     0.031 C 
ATOM     58  C   UNL A   1      41.747  30.666  36.025  1.00  0.00     0.029 A 
ATOM     59  C   UNL A   1      40.932  30.685  34.904  1.00  0.00     0.049 A 
ATOM     60  H   UNL A   1      41.141  29.635  33.088  1.00  0.00     0.167 HD
ATOM     61  C   UNL A   1      39.020  31.445  33.525  1.00  0.00     0.074 A 
ATOM     62  C   UNL A   1      37.806  32.210  33.317  1.00  0.00     0.031 C 
ATOM     63  C   UNL A   1      39.721  31.428  34.683  1.00  0.00     0.037 A 
BRANCH  50  64
ATOM     64  C   UNL A   1      44.567  27.621  34.598  1.00  0.00     0.057 A 
ATOM     65  C   UNL A   1      45.867  28.118  34.447  1.00  0.00     0.134 A 
ATOM     66  C   UNL A   1      44.375  26.533  35.454  1.00  0.00     0.134 A 
ATOM     67  F   UNL A   1      46.109  29.149  33.624  1.00  0.00    -0.206 F 
ATOM     68  C   UNL A   1      46.945  27.543  35.120  1.00  0.00     0.040 A 
ATOM     69  C   UNL A   1      45.445  25.953  36.138  1.00  0.00     0.040 A 
ATOM     70  F   UNL A   1      43.153  26.009  35.627  1.00  0.00    -0.206 F 
ATOM     71  C   UNL A   1      46.734  26.459  35.970  1.00  0.00     0.006 A 
ENDBRANCH  50  64
BRANCH  51  72
ATOM     72  C   UNL A   1      37.033  31.332  29.282  1.00  0.00     0.057 A 
ATOM     73  C   UNL A   1      35.891  30.589  28.972  1.00  0.00     0.134 A 
ATOM     74  C   UNL A   1      37.108  32.645  28.806  1.00  0.00     0.134 A 
ATOM     75  F   UNL A   1      35.777  29.320  29.389  1.00  0.00    -0.206 F 
ATOM     76  C   UNL A   1      34.857  31.131  28.207  1.00  0.00     0.040 A 
ATOM     77  C   UNL A   1      36.080  33.202  28.045  1.00  0.00     0.040 A 
ATOM     78  F   UNL A   1      38.184  33.401  29.069  1.00  0.00    -0.206 F 
ATOM     79  C   UNL A   1      34.951  32.442  27.742  1.00  0.00     0.006 A 
ENDBRANCH  51  72
BRANCH  63  80
ATOM     80  C   UNL A   1      39.195  32.258  35.810  1.00  0.00     0.057 A 
ATOM     81  C   UNL A   1      38.317  31.720  36.758  1.00  0.00     0.134 A 
ATOM     82  C   UNL A   1      39.597  33.588  35.970  1.00  0.00     0.134 A 
ATOM     83  F   UNL A   1      37.889  30.453  36.648  1.00  0.00    -0.206 F 
ATOM     84  C   UNL A   1      37.850  32.483  37.829  1.00  0.00     0.040 A 
ATOM     85  C   UNL A   1      39.144  34.359  37.041  1.00  0.00     0.040 A 
ATOM     86  F   UNL A   1      40.436  34.157  35.092  1.00  0.00    -0.206 F 
ATOM     87  C   UNL A   1      38.268  33.806  37.974  1.00  0.00     0.006 A 
ENDBRANCH  63  80
ENDBRANCH  37  38
ENDBRANCH  30  32
ENDBRANCH  29  30
ENDBRANCH  28  29
ENDBRANCH  27  28
ENDBRANCH   1  27
TORSDOF 16
ENDMDL
MODEL 2
REMARK VINA RESULT:     -11.6      1.422      2.264
REMARK SMILES CN1C(=O)/C(=N\Nc2cccc(C(=O)OCCOCCOC(=O)c3ccc(-c4c5nc(c(-c6c(F)cccc6F)c6ccc([nH]6)c(-c6c(F)cccc6F)c6nc(c(-c7c(F)cccc7F)c7ccc4[nH]7)C=C6)C=C5)cc3)c2)c2ccccc21
REMARK SMILES IDX 18 1 17 2 16 3 15 4 13 5 14 6 12 7 8 8 9 9 78 10 10 11 11 12
REMARK SMILES IDX 7 13 6 15 1 16 2 17 3 18 84 19 4 20 5 21 79 22 83 23 80 24
REMARK SMILES IDX 82 25 81 26 19 27 20 28 21 29 22 30 23 31 24 32 25 33 77 34
REMARK SMILES IDX 26 35 76 36 27 37 28 38 29 39 70 40 30 41 75 42 69 43 71 44
REMARK SMILES IDX 31 45 74 46 68 47 67 48 32 50 58 51 41 52 57 53 42 54 45 55
REMARK SMILES IDX 56 56 72 57 43 58 44 59 55 61 73 62 46 63 33 64 34 65 39 66
REMARK SMILES IDX 35 67 36 68 38 69 40 70 37 71 59 72 60 73 65 74 61 75 62 76
REMARK SMILES IDX 64 77 66 78 63 79 47 80 48 81 53 82 49 83 50 84 52 85 54 86
REMARK SMILES IDX 51 87
REMARK H PARENT 7 14 71 49 45 60
REMARK Flexibility Score: inf
ROOT
ATOM      1  O   UNL A   1      41.950  21.680  25.581  1.00  0.00    -0.374 OA
ENDROOT
BRANCH   1   2
ATOM      2  C   UNL A   1      41.163  21.392  26.740  1.00  0.00     0.202 C 
BRANCH   2   3
ATOM      3  C   UNL A   1      39.663  21.525  26.473  1.00  0.00     0.261 C 
BRANCH   3   4
ATOM      4  O   UNL A   1      39.406  22.746  25.756  1.00  0.00    -0.460 OA
BRANCH   4   5
ATOM      5  C   UNL A   1      38.413  23.526  26.249  1.00  0.00     0.338 C 
ATOM      6  O   UNL A   1      38.528  24.389  27.105  1.00  0.00    -0.246 OA
BRANCH   5   7
ATOM      7  C   UNL A   1      37.142  23.264  25.525  1.00  0.00     0.062 A 
ATOM      8  C   UNL A   1      34.714  23.354  25.348  1.00  0.00     0.057 A 
ATOM      9  C   UNL A   1      34.829  22.883  24.029  1.00  0.00     0.028 A 
ATOM     10  C   UNL A   1      35.885  23.491  26.105  1.00  0.00     0.043 A 
ATOM     11  C   UNL A   1      36.073  22.592  23.466  1.00  0.00     0.003 A 
ATOM     12  C   UNL A   1      37.230  22.805  24.207  1.00  0.00     0.016 A 
BRANCH   8  13
ATOM     13  N   UNL A   1      33.448  23.817  25.772  1.00  0.00    -0.278 N 
ATOM     14  H   UNL A   1      32.699  23.180  25.727  1.00  0.00     0.190 HD
BRANCH  13  15
ATOM     15  N   UNL A   1      33.177  25.059  26.233  1.00  0.00    -0.169 NA
ATOM     16  C   UNL A   1      31.209  27.416  22.378  1.00  0.00     0.153 C 
ATOM     17  N   UNL A   1      31.605  27.038  23.706  1.00  0.00    -0.309 N 
ATOM     18  C   UNL A   1      31.858  25.736  24.110  1.00  0.00     0.279 C 
ATOM     19  C   UNL A   1      31.749  27.927  24.779  1.00  0.00     0.053 A 
ATOM     20  O   UNL A   1      31.636  24.708  23.504  1.00  0.00    -0.267 OA
ATOM     21  C   UNL A   1      32.465  25.877  25.519  1.00  0.00     0.158 C 
ATOM     22  C   UNL A   1      32.206  27.260  25.915  1.00  0.00     0.031 A 
ATOM     23  C   UNL A   1      31.472  29.280  24.824  1.00  0.00     0.027 A 
ATOM     24  C   UNL A   1      32.385  27.889  27.132  1.00  0.00     0.013 A 
ATOM     25  C   UNL A   1      31.635  29.940  26.049  1.00  0.00     0.002 A 
ATOM     26  C   UNL A   1      32.080  29.250  27.194  1.00  0.00     0.001 A 
ENDBRANCH  13  15
ENDBRANCH   8  13
ENDBRANCH   5   7
ENDBRANCH   4   5
ENDBRANCH   3   4
ENDBRANCH   2   3
ENDBRANCH   1   2
BRANCH   1  27
ATOM     27  C   UNL A   1      43.362  21.545  25.756  1.00  0.00     0.202 C 
BRANCH  27  28
ATOM     28  C   UNL A   1      44.146  22.333  24.707  1.00  0.00     0.261 C 
BRANCH  28  29
ATOM     29  O   UNL A   1      43.541  23.628  24.542  1.00  0.00    -0.460 OA
BRANCH  29  30
ATOM     30  C   UNL A   1      44.267  24.672  25.003  1.00  0.00     0.338 C 
ATOM     31  O   UNL A   1      45.375  25.018  24.628  1.00  0.00    -0.246 OA
BRANCH  30  32
ATOM     32  C   UNL A   1      43.473  25.443  25.992  1.00  0.00     0.060 A 
ATOM     33  C   UNL A   1      44.030  26.635  26.472  1.00  0.00     0.016 A 
ATOM     34  C   UNL A   1      42.218  25.022  26.452  1.00  0.00     0.016 A 
ATOM     35  C   UNL A   1      43.359  27.379  27.439  1.00  0.00     0.010 A 
ATOM     36  C   UNL A   1      41.546  25.768  27.427  1.00  0.00     0.010 A 
ATOM     37  C   UNL A   1      42.130  26.934  27.944  1.00  0.00    -0.014 A 
BRANCH  37  38
ATOM     38  C   UNL A   1      41.553  27.627  29.116  1.00  0.00     0.031 A 
ATOM     39  C   UNL A   1      42.240  27.492  30.444  1.00  0.00     0.074 A 
ATOM     40  C   UNL A   1      40.477  28.422  28.990  1.00  0.00     0.049 A 
ATOM     41  N   UNL A   1      42.031  28.152  31.554  1.00  0.00    -0.248 NA
ATOM     42  C   UNL A   1      43.312  26.487  30.527  1.00  0.00     0.031 C 
ATOM     43  C   UNL A   1      39.720  28.640  27.759  1.00  0.00     0.029 A 
ATOM     44  N   UNL A   1      39.848  29.211  29.919  1.00  0.00    -0.354 N 
ATOM     45  C   UNL A   1      42.972  27.672  32.454  1.00  0.00     0.074 A 
ATOM     46  C   UNL A   1      43.722  26.636  31.779  1.00  0.00     0.031 C 
ATOM     47  C   UNL A   1      38.733  29.519  28.007  1.00  0.00     0.029 A 
ATOM     48  C   UNL A   1      38.796  29.928  29.409  1.00  0.00     0.049 A 
ATOM     49  H   UNL A   1      40.126  29.258  30.863  1.00  0.00     0.167 HD
ATOM     50  C   UNL A   1      43.206  28.077  33.724  1.00  0.00     0.037 A 
ATOM     51  C   UNL A   1      37.992  30.826  30.006  1.00  0.00     0.037 A 
ATOM     52  C   UNL A   1      42.458  29.093  34.408  1.00  0.00     0.049 A 
ATOM     53  C   UNL A   1      38.214  31.191  31.446  1.00  0.00     0.074 A 
ATOM     54  C   UNL A   1      42.660  29.615  35.673  1.00  0.00     0.029 A 
ATOM     55  N   UNL A   1      41.344  29.727  33.885  1.00  0.00    -0.354 N 
ATOM     56  N   UNL A   1      39.164  30.799  32.260  1.00  0.00    -0.248 NA
ATOM     57  C   UNL A   1      37.254  32.129  32.047  1.00  0.00     0.031 C 
ATOM     58  C   UNL A   1      41.644  30.545  35.928  1.00  0.00     0.029 A 
ATOM     59  C   UNL A   1      40.822  30.608  34.815  1.00  0.00     0.049 A 
ATOM     60  H   UNL A   1      40.977  29.573  32.984  1.00  0.00     0.167 HD
ATOM     61  C   UNL A   1      38.929  31.456  33.460  1.00  0.00     0.074 A 
ATOM     62  C   UNL A   1      37.743  32.268  33.272  1.00  0.00     0.031 C 
ATOM     63  C   UNL A   1      39.638  31.399  34.613  1.00  0.00     0.037 A 
BRANCH  50  64
ATOM     64  C   UNL A   1      44.337  27.414  34.442  1.00  0.00     0.057 A 
ATOM     65  C   UNL A   1      45.637  27.929  34.372  1.00  0.00     0.134 A 
ATOM     66  C   UNL A   1      44.128  26.259  35.201  1.00  0.00     0.134 A 
ATOM     67  F   UNL A   1      45.896  29.024  33.642  1.00  0.00    -0.206 F 
ATOM     68  C   UNL A   1      46.699  27.307  35.029  1.00  0.00     0.040 A 
ATOM     69  C   UNL A   1      45.181  25.632  35.869  1.00  0.00     0.040 A 
ATOM     70  F   UNL A   1      42.905  25.717  35.293  1.00  0.00    -0.206 F 
ATOM     71  C   UNL A   1      46.471  26.156  35.782  1.00  0.00     0.006 A 
ENDBRANCH  50  64
BRANCH  51  72
ATOM     72  C   UNL A   1      36.906  31.469  29.233  1.00  0.00     0.057 A 
ATOM     73  C   UNL A   1      35.724  30.781  28.946  1.00  0.00     0.134 A 
ATOM     74  C   UNL A   1      37.037  32.775  28.750  1.00  0.00     0.134 A 
ATOM     75  F   UNL A   1      35.556  29.521  29.370  1.00  0.00    -0.206 F 
ATOM     76  C   UNL A   1      34.705  31.370  28.196  1.00  0.00     0.040 A 
ATOM     77  C   UNL A   1      36.024  33.378  28.004  1.00  0.00     0.040 A 
ATOM     78  F   UNL A   1      38.153  33.478  28.992  1.00  0.00    -0.206 F 
ATOM     79  C   UNL A   1      34.854  32.674  27.724  1.00  0.00     0.006 A 
ENDBRANCH  51  72
BRANCH  63  80
ATOM     80  C   UNL A   1      39.152  32.234  35.753  1.00  0.00     0.057 A 
ATOM     81  C   UNL A   1      39.571  33.560  35.911  1.00  0.00     0.134 A 
ATOM     82  C   UNL A   1      38.233  31.724  36.676  1.00  0.00     0.134 A 
ATOM     83  F   UNL A   1      40.461  34.098  35.062  1.00  0.00    -0.206 F 
ATOM     84  C   UNL A   1      39.094  34.352  36.956  1.00  0.00     0.040 A 
ATOM     85  C   UNL A   1      37.741  32.508  37.720  1.00  0.00     0.040 A 
ATOM     86  F   UNL A   1      37.797  30.460  36.575  1.00  0.00    -0.206 F 
ATOM     87  C   UNL A   1      38.172  33.827  37.862  1.00  0.00     0.006 A 
ENDBRANCH  63  80
ENDBRANCH  37  38
ENDBRANCH  30  32
ENDBRANCH  29  30
ENDBRANCH  28  29
ENDBRANCH  27  28
ENDBRANCH   1  27
TORSDOF 16
ENDMDL
MODEL 3
REMARK VINA RESULT:     -11.4      3.909      5.894
REMARK SMILES CN1C(=O)/C(=N\Nc2cccc(C(=O)OCCOCCOC(=O)c3ccc(-c4c5nc(c(-c6c(F)cccc6F)c6ccc([nH]6)c(-c6c(F)cccc6F)c6nc(c(-c7c(F)cccc7F)c7ccc4[nH]7)C=C6)C=C5)cc3)c2)c2ccccc21
REMARK SMILES IDX 18 1 17 2 16 3 15 4 13 5 14 6 12 7 8 8 9 9 78 10 10 11 11 12
REMARK SMILES IDX 7 13 6 15 1 16 2 17 3 18 84 19 4 20 5 21 79 22 83 23 80 24
REMARK SMILES IDX 82 25 81 26 19 27 20 28 21 29 22 30 23 31 24 32 25 33 77 34
REMARK SMILES IDX 26 35 76 36 27 37 28 38 29 39 70 40 30 41 75 42 69 43 71 44
REMARK SMILES IDX 31 45 74 46 68 47 67 48 32 50 58 51 41 52 57 53 42 54 45 55
REMARK SMILES IDX 56 56 72 57 43 58 44 59 55 61 73 62 46 63 33 64 34 65 39 66
REMARK SMILES IDX 35 67 36 68 38 69 40 70 37 71 59 72 60 73 65 74 61 75 62 76
REMARK SMILES IDX 64 77 66 78 63 79 47 80 48 81 53 82 49 83 50 84 52 85 54 86
REMARK SMILES IDX 51 87
REMARK H PARENT 7 14 71 49 45 60
REMARK Flexibility Score: inf
ROOT
ATOM      1  O   UNL A   1      38.610  21.549  25.902  1.00  0.00    -0.374 OA
ENDROOT
BRANCH   1   2
ATOM      2  C   UNL A   1      37.719  22.650  25.703  1.00  0.00     0.202 C 
BRANCH   2   3
ATOM      3  C   UNL A   1      36.992  22.573  24.360  1.00  0.00     0.261 C 
BRANCH   3   4
ATOM      4  O   UNL A   1      35.948  23.563  24.317  1.00  0.00    -0.460 OA
BRANCH   4   5
ATOM      5  C   UNL A   1      34.890  23.277  23.520  1.00  0.00     0.338 C 
ATOM      6  O   UNL A   1      34.882  23.279  22.300  1.00  0.00    -0.246 OA
BRANCH   5   7
ATOM      7  C   UNL A   1      33.727  22.848  24.340  1.00  0.00     0.062 A 
ATOM      8  C   UNL A   1      31.906  23.312  25.892  1.00  0.00     0.057 A 
ATOM      9  C   UNL A   1      31.467  21.989  25.714  1.00  0.00     0.028 A 
ATOM     10  C   UNL A   1      33.076  23.713  25.233  1.00  0.00     0.043 A 
ATOM     11  C   UNL A   1      32.148  21.102  24.879  1.00  0.00     0.003 A 
ATOM     12  C   UNL A   1      33.264  21.539  24.174  1.00  0.00     0.016 A 
BRANCH   8  13
ATOM     13  N   UNL A   1      31.054  24.199  26.587  1.00  0.00    -0.278 N 
ATOM     14  H   UNL A   1      30.182  23.849  26.878  1.00  0.00     0.190 HD
BRANCH  13  15
ATOM     15  N   UNL A   1      31.333  25.489  26.885  1.00  0.00    -0.169 NA
ATOM     16  C   UNL A   1      30.528  27.940  22.686  1.00  0.00     0.153 C 
ATOM     17  N   UNL A   1      30.733  27.604  24.068  1.00  0.00    -0.309 N 
ATOM     18  C   UNL A   1      30.415  26.378  24.633  1.00  0.00     0.279 C 
ATOM     19  C   UNL A   1      31.241  28.480  25.035  1.00  0.00     0.053 A 
ATOM     20  O   UNL A   1      29.780  25.470  24.141  1.00  0.00    -0.267 OA
ATOM     21  C   UNL A   1      31.029  26.431  26.045  1.00  0.00     0.158 C 
ATOM     22  C   UNL A   1      31.379  27.834  26.262  1.00  0.00     0.031 A 
ATOM     23  C   UNL A   1      31.560  29.818  24.907  1.00  0.00     0.027 A 
ATOM     24  C   UNL A   1      31.810  28.480  27.405  1.00  0.00     0.013 A 
ATOM     25  C   UNL A   1      31.990  30.500  26.054  1.00  0.00     0.002 A 
ATOM     26  C   UNL A   1      32.106  29.839  27.292  1.00  0.00     0.001 A 
ENDBRANCH  13  15
ENDBRANCH   8  13
ENDBRANCH   5   7
ENDBRANCH   4   5
ENDBRANCH   3   4
ENDBRANCH   2   3
ENDBRANCH   1   2
BRANCH   1  27
ATOM     27  C   UNL A   1      38.205  20.321  25.291  1.00  0.00     0.202 C 
BRANCH  27  28
ATOM     28  C   UNL A   1      39.325  19.282  25.301  1.00  0.00     0.261 C 
BRANCH  28  29
ATOM     29  O   UNL A   1      40.238  19.583  26.371  1.00  0.00    -0.460 OA
BRANCH  29  30
ATOM     30  C   UNL A   1      41.522  19.789  26.000  1.00  0.00     0.338 C 
ATOM     31  O   UNL A   1      42.202  19.075  25.282  1.00  0.00    -0.246 OA
BRANCH  30  32
ATOM     32  C   UNL A   1      41.991  21.102  26.508  1.00  0.00     0.060 A 
ATOM     33  C   UNL A   1      42.011  21.282  27.897  1.00  0.00     0.016 A 
ATOM     34  C   UNL A   1      42.398  22.143  25.662  1.00  0.00     0.016 A 
ATOM     35  C   UNL A   1      42.391  22.508  28.437  1.00  0.00     0.010 A 
ATOM     36  C   UNL A   1      42.776  23.375  26.205  1.00  0.00     0.010 A 
ATOM     37  C   UNL A   1      42.745  23.570  27.594  1.00  0.00    -0.014 A 
BRANCH  37  38
ATOM     38  C   UNL A   1      42.933  24.912  28.187  1.00  0.00     0.031 A 
ATOM     39  C   UNL A   1      44.327  25.373  28.501  1.00  0.00     0.074 A 
ATOM     40  C   UNL A   1      41.889  25.737  28.377  1.00  0.00     0.049 A 
ATOM     41  N   UNL A   1      44.747  26.564  28.839  1.00  0.00    -0.248 NA
ATOM     42  C   UNL A   1      45.389  24.358  28.408  1.00  0.00     0.031 C 
ATOM     43  C   UNL A   1      40.489  25.412  28.112  1.00  0.00     0.029 A 
ATOM     44  N   UNL A   1      41.859  27.032  28.824  1.00  0.00    -0.354 N 
ATOM     45  C   UNL A   1      46.124  26.453  28.960  1.00  0.00     0.074 A 
ATOM     46  C   UNL A   1      46.467  25.071  28.703  1.00  0.00     0.031 C 
ATOM     47  C   UNL A   1      39.734  26.489  28.391  1.00  0.00     0.029 A 
ATOM     48  C   UNL A   1      40.600  27.576  28.845  1.00  0.00     0.049 A 
ATOM     49  H   UNL A   1      42.664  27.525  29.105  1.00  0.00     0.167 HD
ATOM     50  C   UNL A   1      47.027  27.422  29.236  1.00  0.00     0.037 A 
ATOM     51  C   UNL A   1      40.200  28.818  29.174  1.00  0.00     0.037 A 
ATOM     52  C   UNL A   1      46.697  28.792  29.508  1.00  0.00     0.049 A 
ATOM     53  C   UNL A   1      41.215  29.853  29.568  1.00  0.00     0.074 A 
ATOM     54  C   UNL A   1      47.547  29.859  29.737  1.00  0.00     0.029 A 
ATOM     55  N   UNL A   1      45.404  29.278  29.609  1.00  0.00    -0.354 N 
ATOM     56  N   UNL A   1      42.522  29.761  29.589  1.00  0.00    -0.248 NA
ATOM     57  C   UNL A   1      40.696  31.166  29.978  1.00  0.00     0.031 C 
ATOM     58  C   UNL A   1      46.764  30.989  30.010  1.00  0.00     0.029 A 
ATOM     59  C   UNL A   1      45.430  30.622  29.935  1.00  0.00     0.049 A 
ATOM     60  H   UNL A   1      44.588  28.745  29.469  1.00  0.00     0.167 HD
ATOM     61  C   UNL A   1      42.983  31.007  29.994  1.00  0.00     0.074 A 
ATOM     62  C   UNL A   1      41.816  31.837  30.214  1.00  0.00     0.031 C 
ATOM     63  C   UNL A   1      44.260  31.427  30.159  1.00  0.00     0.037 A 
BRANCH  50  64
ATOM     64  C   UNL A   1      48.466  27.017  29.242  1.00  0.00     0.057 A 
ATOM     65  C   UNL A   1      49.263  27.170  28.101  1.00  0.00     0.134 A 
ATOM     66  C   UNL A   1      49.055  26.471  30.386  1.00  0.00     0.134 A 
ATOM     67  F   UNL A   1      48.743  27.672  26.971  1.00  0.00    -0.206 F 
ATOM     68  C   UNL A   1      50.603  26.782  28.096  1.00  0.00     0.040 A 
ATOM     69  C   UNL A   1      50.396  26.085  30.395  1.00  0.00     0.040 A 
ATOM     70  F   UNL A   1      48.335  26.291  31.503  1.00  0.00    -0.206 F 
ATOM     71  C   UNL A   1      51.173  26.240  29.247  1.00  0.00     0.006 A 
ENDBRANCH  50  64
BRANCH  51  72
ATOM     72  C   UNL A   1      38.763  29.165  29.122  1.00  0.00     0.057 A 
ATOM     73  C   UNL A   1      38.168  29.588  27.930  1.00  0.00     0.134 A 
ATOM     74  C   UNL A   1      37.961  29.101  30.266  1.00  0.00     0.134 A 
ATOM     75  F   UNL A   1      38.896  29.684  26.809  1.00  0.00    -0.206 F 
ATOM     76  C   UNL A   1      36.819  29.942  27.877  1.00  0.00     0.040 A 
ATOM     77  C   UNL A   1      36.609  29.446  30.227  1.00  0.00     0.040 A 
ATOM     78  F   UNL A   1      38.482  28.707  31.438  1.00  0.00    -0.206 F 
ATOM     79  C   UNL A   1      36.036  29.870  29.030  1.00  0.00     0.006 A 
ENDBRANCH  51  72
BRANCH  63  80
ATOM     80  C   UNL A   1      44.459  32.843  30.596  1.00  0.00     0.057 A 
ATOM     81  C   UNL A   1      44.519  33.888  29.667  1.00  0.00     0.134 A 
ATOM     82  C   UNL A   1      44.553  33.168  31.953  1.00  0.00     0.134 A 
ATOM     83  F   UNL A   1      44.445  33.633  28.351  1.00  0.00    -0.206 F 
ATOM     84  C   UNL A   1      44.672  35.214  30.075  1.00  0.00     0.040 A 
ATOM     85  C   UNL A   1      44.698  34.490  32.374  1.00  0.00     0.040 A 
ATOM     86  F   UNL A   1      44.503  32.209  32.889  1.00  0.00    -0.206 F 
ATOM     87  C   UNL A   1      44.758  35.517  31.433  1.00  0.00     0.006 A 
ENDBRANCH  63  80
ENDBRANCH  37  38
ENDBRANCH  30  32
ENDBRANCH  29  30
ENDBRANCH  28  29
ENDBRANCH  27  28
ENDBRANCH   1  27
TORSDOF 16
ENDMDL
