MODEL 1
REMARK VINA RESULT:     -10.5      0.000      0.000
REMARK SMILES CCS(=O)(=O)/N=c1/[nH]c(C)c(C(=O)OCCOCCOC(=O)c2ccc(-c3c4nc(c(-c5c(F)cccc5F)c5ccc([nH]5)c(-c5c(F)cccc5F)c5nc(c(-c6c(F)cccc6F)c6ccc3[nH]6)C=C5)C=C4)cc2)s1
REMARK SMILES IDX 17 1 16 2 15 3 14 4 12 5 13 6 11 7 6 8 7 9 8 10 77 11 9 12
REMARK SMILES IDX 10 14 3 15 4 16 5 17 2 18 1 19 18 20 19 21 20 22 21 23 22 24
REMARK SMILES IDX 23 25 24 26 76 27 25 28 75 29 26 30 27 31 28 32 69 33 29 34
REMARK SMILES IDX 74 35 68 36 70 37 30 38 73 39 67 40 66 41 31 43 57 44 40 45
REMARK SMILES IDX 56 46 41 47 44 48 55 49 71 50 42 51 43 52 54 54 72 55 45 56
REMARK SMILES IDX 32 57 33 58 38 59 34 60 35 61 37 62 39 63 36 64 58 65 59 66
REMARK SMILES IDX 64 67 60 68 61 69 63 70 65 71 62 72 46 73 47 74 52 75 48 76
REMARK SMILES IDX 49 77 51 78 53 79 50 80
REMARK H PARENT 8 13 70 42 44 53
REMARK Flexibility Score: inf
ROOT
ATOM      1  O   UNL A   1      32.506  30.430  26.485  1.00  0.00    -0.374 OA
ENDROOT
BRANCH   1   2
ATOM      2  C   UNL A   1      32.397  29.347  27.407  1.00  0.00     0.202 C 
BRANCH   2   3
ATOM      3  C   UNL A   1      31.706  28.083  26.892  1.00  0.00     0.261 C 
BRANCH   3   4
ATOM      4  O   UNL A   1      32.502  27.450  25.877  1.00  0.00    -0.459 OA
BRANCH   4   5
ATOM      5  C   UNL A   1      31.798  26.941  24.835  1.00  0.00     0.350 C 
ATOM      6  O   UNL A   1      31.290  25.830  24.796  1.00  0.00    -0.245 OA
BRANCH   5   7
ATOM      7  C   UNL A   1      31.614  27.960  23.778  1.00  0.00     0.135 A 
ATOM      8  N   UNL A   1      29.732  30.276  21.399  1.00  0.00    -0.135 NA
ATOM      9  C   UNL A   1      30.468  29.558  22.175  1.00  0.00     0.199 A 
ATOM     10  N   UNL A   1      31.823  29.378  22.011  1.00  0.00    -0.333 N 
ATOM     11  S   UNL A   1      29.994  28.617  23.598  1.00  0.00    -0.089 S 
ATOM     12  C   UNL A   1      32.464  28.510  22.888  1.00  0.00     0.039 A 
ATOM     13  H   UNL A   1      32.318  29.844  21.299  1.00  0.00     0.169 HD
ATOM     14  C   UNL A   1      33.934  28.284  22.737  1.00  0.00     0.066 C 
BRANCH   8  15
ATOM     15  S   UNL A   1      28.165  30.552  21.693  1.00  0.00     0.255 S 
ATOM     16  O   UNL A   1      27.558  29.324  22.155  1.00  0.00    -0.205 OA
ATOM     17  O   UNL A   1      27.550  31.328  20.629  1.00  0.00    -0.205 OA
BRANCH  15  18
ATOM     18  C   UNL A   1      28.252  31.672  23.071  1.00  0.00     0.159 C 
ATOM     19  C   UNL A   1      28.757  33.052  22.720  1.00  0.00     0.023 C 
ENDBRANCH  15  18
ENDBRANCH   8  15
ENDBRANCH   5   7
ENDBRANCH   4   5
ENDBRANCH   3   4
ENDBRANCH   2   3
ENDBRANCH   1   2
BRANCH   1  20
ATOM     20  C   UNL A   1      31.470  31.412  26.487  1.00  0.00     0.202 C 
BRANCH  20  21
ATOM     21  C   UNL A   1      31.907  32.878  26.618  1.00  0.00     0.261 C 
BRANCH  21  22
ATOM     22  O   UNL A   1      32.303  33.217  27.960  1.00  0.00    -0.460 OA
BRANCH  22  23
ATOM     23  C   UNL A   1      33.382  34.032  28.041  1.00  0.00     0.338 C 
ATOM     24  O   UNL A   1      33.397  35.252  27.992  1.00  0.00    -0.246 OA
BRANCH  23  25
ATOM     25  C   UNL A   1      34.580  33.247  28.388  1.00  0.00     0.060 A 
ATOM     26  C   UNL A   1      34.386  31.961  28.908  1.00  0.00     0.016 A 
ATOM     27  C   UNL A   1      35.865  33.783  28.283  1.00  0.00     0.016 A 
ATOM     28  C   UNL A   1      35.473  31.221  29.367  1.00  0.00     0.010 A 
ATOM     29  C   UNL A   1      36.955  33.043  28.752  1.00  0.00     0.010 A 
ATOM     30  C   UNL A   1      36.760  31.773  29.326  1.00  0.00    -0.014 A 
BRANCH  30  31
ATOM     31  C   UNL A   1      37.879  31.078  30.008  1.00  0.00     0.031 A 
ATOM     32  C   UNL A   1      38.153  31.375  31.456  1.00  0.00     0.074 A 
ATOM     33  C   UNL A   1      38.629  30.175  29.351  1.00  0.00     0.049 A 
ATOM     34  N   UNL A   1      39.104  30.920  32.232  1.00  0.00    -0.248 NA
ATOM     35  C   UNL A   1      37.234  32.315  32.117  1.00  0.00     0.031 C 
ATOM     36  C   UNL A   1      38.438  29.771  27.959  1.00  0.00     0.029 A 
ATOM     37  N   UNL A   1      39.709  29.440  29.771  1.00  0.00    -0.354 N 
ATOM     38  C   UNL A   1      38.902  31.523  33.468  1.00  0.00     0.074 A 
ATOM     39  C   UNL A   1      37.759  32.399  33.331  1.00  0.00     0.031 C 
ATOM     40  C   UNL A   1      39.379  28.866  27.636  1.00  0.00     0.029 A 
ATOM     41  C   UNL A   1      40.255  28.655  28.786  1.00  0.00     0.049 A 
ATOM     42  H   UNL A   1      40.059  29.473  30.691  1.00  0.00     0.167 HD
ATOM     43  C   UNL A   1      39.600  31.351  34.616  1.00  0.00     0.037 A 
ATOM     44  C   UNL A   1      41.350  27.871  28.806  1.00  0.00     0.037 A 
ATOM     45  C   UNL A   1      40.735  30.475  34.752  1.00  0.00     0.049 A 
ATOM     46  C   UNL A   1      42.153  27.753  30.074  1.00  0.00     0.074 A 
ATOM     47  C   UNL A   1      41.496  30.219  35.880  1.00  0.00     0.029 A 
ATOM     48  N   UNL A   1      41.276  29.719  33.724  1.00  0.00    -0.354 N 
ATOM     49  N   UNL A   1      41.941  28.308  31.244  1.00  0.00    -0.248 NA
ATOM     50  C   UNL A   1      43.347  26.896  30.027  1.00  0.00     0.031 C 
ATOM     51  C   UNL A   1      42.529  29.347  35.521  1.00  0.00     0.029 A 
ATOM     52  C   UNL A   1      42.378  29.016  34.184  1.00  0.00     0.049 A 
ATOM     53  H   UNL A   1      40.928  29.686  32.804  1.00  0.00     0.167 HD
ATOM     54  C   UNL A   1      42.952  27.844  32.077  1.00  0.00     0.074 A 
ATOM     55  C   UNL A   1      43.772  26.955  31.281  1.00  0.00     0.031 C 
ATOM     56  C   UNL A   1      43.181  28.129  33.382  1.00  0.00     0.037 A 
BRANCH  43  57
ATOM     57  C   UNL A   1      39.169  32.148  35.813  1.00  0.00     0.057 A 
ATOM     58  C   UNL A   1      38.293  31.629  36.776  1.00  0.00     0.134 A 
ATOM     59  C   UNL A   1      39.664  33.442  36.022  1.00  0.00     0.134 A 
ATOM     60  F   UNL A   1      37.772  30.401  36.628  1.00  0.00    -0.206 F 
ATOM     61  C   UNL A   1      37.907  32.375  37.891  1.00  0.00     0.040 A 
ATOM     62  C   UNL A   1      39.306  34.188  37.147  1.00  0.00     0.040 A 
ATOM     63  F   UNL A   1      40.510  33.999  35.143  1.00  0.00    -0.206 F 
ATOM     64  C   UNL A   1      38.421  33.657  38.082  1.00  0.00     0.006 A 
ENDBRANCH  43  57
BRANCH  44  65
ATOM     65  C   UNL A   1      41.767  27.144  27.581  1.00  0.00     0.057 A 
ATOM     66  C   UNL A   1      42.554  27.761  26.601  1.00  0.00     0.134 A 
ATOM     67  C   UNL A   1      41.370  25.820  27.350  1.00  0.00     0.134 A 
ATOM     68  F   UNL A   1      42.946  29.034  26.755  1.00  0.00    -0.206 F 
ATOM     69  C   UNL A   1      42.915  27.096  25.429  1.00  0.00     0.040 A 
ATOM     70  C   UNL A   1      41.746  25.135  26.194  1.00  0.00     0.040 A 
ATOM     71  F   UNL A   1      40.617  25.171  28.249  1.00  0.00    -0.206 F 
ATOM     72  C   UNL A   1      42.515  25.777  25.224  1.00  0.00     0.006 A 
ENDBRANCH  44  65
BRANCH  56  73
ATOM     73  C   UNL A   1      44.341  27.441  34.046  1.00  0.00     0.057 A 
ATOM     74  C   UNL A   1      45.607  28.032  34.127  1.00  0.00     0.134 A 
ATOM     75  C   UNL A   1      44.174  26.187  34.649  1.00  0.00     0.134 A 
ATOM     76  F   UNL A   1      45.838  29.227  33.560  1.00  0.00    -0.206 F 
ATOM     77  C   UNL A   1      46.673  27.391  34.761  1.00  0.00     0.040 A 
ATOM     78  C   UNL A   1      45.224  25.548  35.310  1.00  0.00     0.040 A 
ATOM     79  F   UNL A   1      42.983  25.568  34.617  1.00  0.00    -0.206 F 
ATOM     80  C   UNL A   1      46.480  26.148  35.362  1.00  0.00     0.006 A 
ENDBRANCH  56  73
ENDBRANCH  30  31
ENDBRANCH  23  25
ENDBRANCH  22  23
ENDBRANCH  21  22
ENDBRANCH  20  21
ENDBRANCH   1  20
TORSDOF 16
ENDMDL
MODEL 2
REMARK VINA RESULT:     -10.3      4.656      9.353
REMARK SMILES CCS(=O)(=O)/N=c1/[nH]c(C)c(C(=O)OCCOCCOC(=O)c2ccc(-c3c4nc(c(-c5c(F)cccc5F)c5ccc([nH]5)c(-c5c(F)cccc5F)c5nc(c(-c6c(F)cccc6F)c6ccc3[nH]6)C=C5)C=C4)cc2)s1
REMARK SMILES IDX 17 1 16 2 15 3 14 4 12 5 13 6 11 7 6 8 7 9 8 10 77 11 9 12
REMARK SMILES IDX 10 14 3 15 4 16 5 17 2 18 1 19 18 20 19 21 20 22 21 23 22 24
REMARK SMILES IDX 23 25 24 26 76 27 25 28 75 29 26 30 27 31 28 32 69 33 29 34
REMARK SMILES IDX 74 35 68 36 70 37 30 38 73 39 67 40 66 41 31 43 57 44 40 45
REMARK SMILES IDX 56 46 41 47 44 48 55 49 71 50 42 51 43 52 54 54 72 55 45 56
REMARK SMILES IDX 32 57 33 58 38 59 34 60 35 61 37 62 39 63 36 64 58 65 59 66
REMARK SMILES IDX 64 67 60 68 61 69 63 70 65 71 62 72 46 73 47 74 52 75 48 76
REMARK SMILES IDX 49 77 51 78 53 79 50 80
REMARK H PARENT 8 13 70 42 44 53
REMARK Flexibility Score: inf
ROOT
ATOM      1  O   UNL A   1      41.645  20.645  26.756  1.00  0.00    -0.374 OA
ENDROOT
BRANCH   1   2
ATOM      2  C   UNL A   1      40.332  20.486  26.221  1.00  0.00     0.202 C 
BRANCH   2   3
ATOM      3  C   UNL A   1      39.480  21.753  26.122  1.00  0.00     0.261 C 
BRANCH   3   4
ATOM      4  O   UNL A   1      38.182  21.448  25.586  1.00  0.00    -0.459 OA
BRANCH   4   5
ATOM      5  C   UNL A   1      37.287  22.466  25.645  1.00  0.00     0.350 C 
ATOM      6  O   UNL A   1      37.565  23.649  25.783  1.00  0.00    -0.245 OA
BRANCH   5   7
ATOM      7  C   UNL A   1      35.913  21.974  25.397  1.00  0.00     0.135 A 
ATOM      8  N   UNL A   1      33.180  19.562  24.271  1.00  0.00    -0.135 NA
ATOM      9  C   UNL A   1      34.015  20.439  24.708  1.00  0.00     0.199 A 
ATOM     10  N   UNL A   1      33.682  21.737  25.022  1.00  0.00    -0.333 N 
ATOM     11  S   UNL A   1      35.752  20.268  25.004  1.00  0.00    -0.089 S 
ATOM     12  C   UNL A   1      34.713  22.587  25.408  1.00  0.00     0.039 A 
ATOM     13  H   UNL A   1      32.750  22.053  24.973  1.00  0.00     0.169 HD
ATOM     14  C   UNL A   1      34.391  24.006  25.751  1.00  0.00     0.066 C 
BRANCH   8  15
ATOM     15  S   UNL A   1      33.589  18.016  24.022  1.00  0.00     0.255 S 
ATOM     16  O   UNL A   1      34.996  17.857  24.317  1.00  0.00    -0.205 OA
ATOM     17  O   UNL A   1      33.032  17.508  22.779  1.00  0.00    -0.205 OA
BRANCH  15  18
ATOM     18  C   UNL A   1      32.666  17.191  25.298  1.00  0.00     0.159 C 
ATOM     19  C   UNL A   1      32.938  15.709  25.403  1.00  0.00     0.023 C 
ENDBRANCH  15  18
ENDBRANCH   8  15
ENDBRANCH   5   7
ENDBRANCH   4   5
ENDBRANCH   3   4
ENDBRANCH   2   3
ENDBRANCH   1   2
BRANCH   1  20
ATOM     20  C   UNL A   1      42.751  20.374  25.895  1.00  0.00     0.202 C 
BRANCH  20  21
ATOM     21  C   UNL A   1      43.676  21.554  25.566  1.00  0.00     0.261 C 
BRANCH  21  22
ATOM     22  O   UNL A   1      42.960  22.683  25.033  1.00  0.00    -0.460 OA
BRANCH  22  23
ATOM     23  C   UNL A   1      43.646  23.851  25.060  1.00  0.00     0.338 C 
ATOM     24  O   UNL A   1      44.588  24.175  24.355  1.00  0.00    -0.246 OA
BRANCH  23  25
ATOM     25  C   UNL A   1      42.980  24.804  25.966  1.00  0.00     0.060 A 
ATOM     26  C   UNL A   1      43.535  26.085  26.084  1.00  0.00     0.016 A 
ATOM     27  C   UNL A   1      41.884  24.430  26.746  1.00  0.00     0.016 A 
ATOM     28  C   UNL A   1      43.023  26.985  27.016  1.00  0.00     0.010 A 
ATOM     29  C   UNL A   1      41.377  25.332  27.688  1.00  0.00     0.010 A 
ATOM     30  C   UNL A   1      41.965  26.600  27.850  1.00  0.00    -0.014 A 
BRANCH  30  31
ATOM     31  C   UNL A   1      41.565  27.474  28.980  1.00  0.00     0.031 A 
ATOM     32  C   UNL A   1      42.332  27.399  30.271  1.00  0.00     0.074 A 
ATOM     33  C   UNL A   1      40.545  28.340  28.850  1.00  0.00     0.049 A 
ATOM     34  N   UNL A   1      42.127  28.034  31.397  1.00  0.00    -0.248 NA
ATOM     35  C   UNL A   1      43.482  26.481  30.297  1.00  0.00     0.031 C 
ATOM     36  C   UNL A   1      39.751  28.535  27.639  1.00  0.00     0.029 A 
ATOM     37  N   UNL A   1      40.000  29.215  29.757  1.00  0.00    -0.354 N 
ATOM     38  C   UNL A   1      43.116  27.588  32.266  1.00  0.00     0.074 A 
ATOM     39  C   UNL A   1      43.900  26.607  31.548  1.00  0.00     0.031 C 
ATOM     40  C   UNL A   1      38.810  29.465  27.880  1.00  0.00     0.029 A 
ATOM     41  C   UNL A   1      38.916  29.904  29.271  1.00  0.00     0.049 A 
ATOM     42  H   UNL A   1      40.351  29.336  30.668  1.00  0.00     0.167 HD
ATOM     43  C   UNL A   1      43.355  27.972  33.543  1.00  0.00     0.037 A 
ATOM     44  C   UNL A   1      38.092  30.774  29.885  1.00  0.00     0.037 A 
ATOM     45  C   UNL A   1      42.575  28.952  34.254  1.00  0.00     0.049 A 
ATOM     46  C   UNL A   1      38.334  31.130  31.328  1.00  0.00     0.074 A 
ATOM     47  C   UNL A   1      42.752  29.422  35.544  1.00  0.00     0.029 A 
ATOM     48  N   UNL A   1      41.468  29.606  33.738  1.00  0.00    -0.354 N 
ATOM     49  N   UNL A   1      39.285  30.722  32.134  1.00  0.00    -0.248 NA
ATOM     50  C   UNL A   1      37.389  32.072  31.947  1.00  0.00     0.031 C 
ATOM     51  C   UNL A   1      41.719  30.323  35.826  1.00  0.00     0.029 A 
ATOM     52  C   UNL A   1      40.933  30.457  34.692  1.00  0.00     0.049 A 
ATOM     53  H   UNL A   1      41.114  29.485  32.827  1.00  0.00     0.167 HD
ATOM     54  C   UNL A   1      39.072  31.379  33.340  1.00  0.00     0.074 A 
ATOM     55  C   UNL A   1      37.907  32.219  33.157  1.00  0.00     0.031 C 
ATOM     56  C   UNL A   1      39.777  31.293  34.495  1.00  0.00     0.037 A 
BRANCH  43  57
ATOM     57  C   UNL A   1      44.493  27.310  34.262  1.00  0.00     0.057 A 
ATOM     58  C   UNL A   1      45.793  27.833  34.238  1.00  0.00     0.134 A 
ATOM     59  C   UNL A   1      44.280  26.150  35.019  1.00  0.00     0.134 A 
ATOM     60  F   UNL A   1      46.069  28.934  33.522  1.00  0.00    -0.206 F 
ATOM     61  C   UNL A   1      46.843  27.214  34.920  1.00  0.00     0.040 A 
ATOM     62  C   UNL A   1      45.315  25.537  35.726  1.00  0.00     0.040 A 
ATOM     63  F   UNL A   1      43.059  25.598  35.090  1.00  0.00    -0.206 F 
ATOM     64  C   UNL A   1      46.603  26.067  35.673  1.00  0.00     0.006 A 
ENDBRANCH  43  57
BRANCH  44  65
ATOM     65  C   UNL A   1      36.946  31.362  29.145  1.00  0.00     0.057 A 
ATOM     66  C   UNL A   1      35.802  30.609  28.859  1.00  0.00     0.134 A 
ATOM     67  C   UNL A   1      36.978  32.686  28.689  1.00  0.00     0.134 A 
ATOM     68  F   UNL A   1      35.722  29.328  29.250  1.00  0.00    -0.206 F 
ATOM     69  C   UNL A   1      34.739  31.143  28.130  1.00  0.00     0.040 A 
ATOM     70  C   UNL A   1      35.911  33.241  27.982  1.00  0.00     0.040 A 
ATOM     71  F   UNL A   1      38.044  33.462  28.932  1.00  0.00    -0.206 F 
ATOM     72  C   UNL A   1      34.790  32.465  27.693  1.00  0.00     0.006 A 
ENDBRANCH  44  65
BRANCH  56  73
ATOM     73  C   UNL A   1      39.336  32.161  35.639  1.00  0.00     0.057 A 
ATOM     74  C   UNL A   1      38.461  31.695  36.629  1.00  0.00     0.134 A 
ATOM     75  C   UNL A   1      39.827  33.466  35.774  1.00  0.00     0.134 A 
ATOM     76  F   UNL A   1      37.944  30.459  36.553  1.00  0.00    -0.206 F 
ATOM     77  C   UNL A   1      38.071  32.505  37.698  1.00  0.00     0.040 A 
ATOM     78  C   UNL A   1      39.467  34.275  36.852  1.00  0.00     0.040 A 
ATOM     79  F   UNL A   1      40.677  33.971  34.866  1.00  0.00    -0.206 F 
ATOM     80  C   UNL A   1      38.581  33.797  37.815  1.00  0.00     0.006 A 
ENDBRANCH  56  73
ENDBRANCH  30  31
ENDBRANCH  23  25
ENDBRANCH  22  23
ENDBRANCH  21  22
ENDBRANCH  20  21
ENDBRANCH   1  20
TORSDOF 16
ENDMDL
MODEL 3
REMARK VINA RESULT:     -10.3      3.865      8.691
REMARK SMILES CCS(=O)(=O)/N=c1/[nH]c(C)c(C(=O)OCCOCCOC(=O)c2ccc(-c3c4nc(c(-c5c(F)cccc5F)c5ccc([nH]5)c(-c5c(F)cccc5F)c5nc(c(-c6c(F)cccc6F)c6ccc3[nH]6)C=C5)C=C4)cc2)s1
REMARK SMILES IDX 17 1 16 2 15 3 14 4 12 5 13 6 11 7 6 8 7 9 8 10 77 11 9 12
REMARK SMILES IDX 10 14 3 15 4 16 5 17 2 18 1 19 18 20 19 21 20 22 21 23 22 24
REMARK SMILES IDX 23 25 24 26 76 27 25 28 75 29 26 30 27 31 28 32 69 33 29 34
REMARK SMILES IDX 74 35 68 36 70 37 30 38 73 39 67 40 66 41 31 43 57 44 40 45
REMARK SMILES IDX 56 46 41 47 44 48 55 49 71 50 42 51 43 52 54 54 72 55 45 56
REMARK SMILES IDX 32 57 33 58 38 59 34 60 35 61 37 62 39 63 36 64 58 65 59 66
REMARK SMILES IDX 64 67 60 68 61 69 63 70 65 71 62 72 46 73 47 74 52 75 48 76
REMARK SMILES IDX 49 77 51 78 53 79 50 80
REMARK H PARENT 8 13 70 42 44 53
REMARK Flexibility Score: inf
ROOT
ATOM      1  O   UNL A   1      41.597  20.497  26.800  1.00  0.00    -0.374 OA
ENDROOT
BRANCH   1   2
ATOM      2  C   UNL A   1      40.289  20.695  26.266  1.00  0.00     0.202 C 
BRANCH   2   3
ATOM      3  C   UNL A   1      39.644  22.057  26.534  1.00  0.00     0.261 C 
BRANCH   3   4
ATOM      4  O   UNL A   1      38.393  22.169  25.836  1.00  0.00    -0.459 OA
BRANCH   4   5
ATOM      5  C   UNL A   1      37.729  23.336  26.038  1.00  0.00     0.350 C 
ATOM      6  O   UNL A   1      38.208  24.349  26.526  1.00  0.00    -0.245 OA
BRANCH   5   7
ATOM      7  C   UNL A   1      36.364  23.269  25.471  1.00  0.00     0.135 A 
ATOM      8  N   UNL A   1      32.559  22.978  25.460  1.00  0.00    -0.135 NA
ATOM      9  C   UNL A   1      33.835  23.112  25.347  1.00  0.00     0.199 A 
ATOM     10  N   UNL A   1      34.523  23.013  24.159  1.00  0.00    -0.333 N 
ATOM     11  S   UNL A   1      35.035  23.424  26.611  1.00  0.00    -0.089 S 
ATOM     12  C   UNL A   1      35.910  23.105  24.213  1.00  0.00     0.039 A 
ATOM     13  H   UNL A   1      34.052  22.880  23.304  1.00  0.00     0.169 HD
ATOM     14  C   UNL A   1      36.692  22.996  22.944  1.00  0.00     0.066 C 
BRANCH   8  15
ATOM     15  S   UNL A   1      31.777  23.214  26.857  1.00  0.00     0.255 S 
ATOM     16  O   UNL A   1      31.491  24.624  26.993  1.00  0.00    -0.205 OA
ATOM     17  O   UNL A   1      32.393  22.475  27.947  1.00  0.00    -0.205 OA
BRANCH  15  18
ATOM     18  C   UNL A   1      30.242  22.370  26.554  1.00  0.00     0.159 C 
ATOM     19  C   UNL A   1      29.096  22.835  27.422  1.00  0.00     0.023 C 
ENDBRANCH  15  18
ENDBRANCH   8  15
ENDBRANCH   5   7
ENDBRANCH   4   5
ENDBRANCH   3   4
ENDBRANCH   2   3
ENDBRANCH   1   2
BRANCH   1  20
ATOM     20  C   UNL A   1      42.658  20.239  25.881  1.00  0.00     0.202 C 
BRANCH  20  21
ATOM     21  C   UNL A   1      43.568  21.423  25.525  1.00  0.00     0.261 C 
BRANCH  21  22
ATOM     22  O   UNL A   1      42.826  22.568  25.063  1.00  0.00    -0.460 OA
BRANCH  22  23
ATOM     23  C   UNL A   1      43.523  23.730  25.063  1.00  0.00     0.338 C 
ATOM     24  O   UNL A   1      44.456  24.036  24.340  1.00  0.00    -0.246 OA
BRANCH  23  25
ATOM     25  C   UNL A   1      42.880  24.700  25.968  1.00  0.00     0.060 A 
ATOM     26  C   UNL A   1      43.405  25.998  26.009  1.00  0.00     0.016 A 
ATOM     27  C   UNL A   1      41.837  24.329  26.820  1.00  0.00     0.016 A 
ATOM     28  C   UNL A   1      42.919  26.920  26.933  1.00  0.00     0.010 A 
ATOM     29  C   UNL A   1      41.356  25.253  27.753  1.00  0.00     0.010 A 
ATOM     30  C   UNL A   1      41.917  26.541  27.835  1.00  0.00    -0.014 A 
BRANCH  30  31
ATOM     31  C   UNL A   1      41.553  27.448  28.952  1.00  0.00     0.031 A 
ATOM     32  C   UNL A   1      42.344  27.390  30.230  1.00  0.00     0.074 A 
ATOM     33  C   UNL A   1      40.546  28.329  28.821  1.00  0.00     0.049 A 
ATOM     34  N   UNL A   1      42.171  28.054  31.344  1.00  0.00    -0.248 NA
ATOM     35  C   UNL A   1      43.479  26.454  30.256  1.00  0.00     0.031 C 
ATOM     36  C   UNL A   1      39.732  28.509  27.621  1.00  0.00     0.029 A 
ATOM     37  N   UNL A   1      40.032  29.233  29.717  1.00  0.00    -0.354 N 
ATOM     38  C   UNL A   1      43.169  27.612  32.204  1.00  0.00     0.074 A 
ATOM     39  C   UNL A   1      43.923  26.602  31.496  1.00  0.00     0.031 C 
ATOM     40  C   UNL A   1      38.811  29.460  27.858  1.00  0.00     0.029 A 
ATOM     41  C   UNL A   1      38.951  29.929  29.236  1.00  0.00     0.049 A 
ATOM     42  H   UNL A   1      40.403  29.369  30.618  1.00  0.00     0.167 HD
ATOM     43  C   UNL A   1      43.439  28.022  33.467  1.00  0.00     0.037 A 
ATOM     44  C   UNL A   1      38.153  30.826  29.845  1.00  0.00     0.037 A 
ATOM     45  C   UNL A   1      42.690  29.031  34.170  1.00  0.00     0.049 A 
ATOM     46  C   UNL A   1      38.429  31.212  31.274  1.00  0.00     0.074 A 
ATOM     47  C   UNL A   1      42.898  29.528  35.445  1.00  0.00     0.029 A 
ATOM     48  N   UNL A   1      41.584  29.692  33.659  1.00  0.00    -0.354 N 
ATOM     49  N   UNL A   1      39.389  30.807  32.071  1.00  0.00    -0.248 NA
ATOM     50  C   UNL A   1      37.512  32.184  31.888  1.00  0.00     0.031 C 
ATOM     51  C   UNL A   1      41.887  30.452  35.725  1.00  0.00     0.029 A 
ATOM     52  C   UNL A   1      41.082  30.573  34.603  1.00  0.00     0.049 A 
ATOM     53  H   UNL A   1      41.210  29.555  32.758  1.00  0.00     0.167 HD
ATOM     54  C   UNL A   1      39.210  31.495  33.265  1.00  0.00     0.074 A 
ATOM     55  C   UNL A   1      38.056  32.350  33.085  1.00  0.00     0.031 C 
ATOM     56  C   UNL A   1      39.936  31.424  34.408  1.00  0.00     0.037 A 
BRANCH  43  57
ATOM     57  C   UNL A   1      44.580  27.357  34.181  1.00  0.00     0.057 A 
ATOM     58  C   UNL A   1      44.408  26.182  34.924  1.00  0.00     0.134 A 
ATOM     59  C   UNL A   1      45.877  27.882  34.094  1.00  0.00     0.134 A 
ATOM     60  F   UNL A   1      43.190  25.634  35.058  1.00  0.00    -0.206 F 
ATOM     61  C   UNL A   1      45.479  25.566  35.575  1.00  0.00     0.040 A 
ATOM     62  C   UNL A   1      46.960  27.260  34.718  1.00  0.00     0.040 A 
ATOM     63  F   UNL A   1      46.113  29.002  33.395  1.00  0.00    -0.206 F 
ATOM     64  C   UNL A   1      46.761  26.101  35.466  1.00  0.00     0.006 A 
ENDBRANCH  43  57
BRANCH  44  65
ATOM     65  C   UNL A   1      37.004  31.417  29.113  1.00  0.00     0.057 A 
ATOM     66  C   UNL A   1      37.052  32.726  28.619  1.00  0.00     0.134 A 
ATOM     67  C   UNL A   1      35.822  30.693  28.910  1.00  0.00     0.134 A 
ATOM     68  F   UNL A   1      38.148  33.476  28.804  1.00  0.00    -0.206 F 
ATOM     69  C   UNL A   1      35.961  33.301  27.966  1.00  0.00     0.040 A 
ATOM     70  C   UNL A   1      34.733  31.247  28.235  1.00  0.00     0.040 A 
ATOM     71  F   UNL A   1      35.712  29.434  29.356  1.00  0.00    -0.206 F 
ATOM     72  C   UNL A   1      34.798  32.559  27.768  1.00  0.00     0.006 A 
ENDBRANCH  44  65
BRANCH  56  73
ATOM     73  C   UNL A   1      39.531  32.325  35.540  1.00  0.00     0.057 A 
ATOM     74  C   UNL A   1      38.638  31.911  36.536  1.00  0.00     0.134 A 
ATOM     75  C   UNL A   1      40.076  33.611  35.656  1.00  0.00     0.134 A 
ATOM     76  F   UNL A   1      38.071  30.696  36.478  1.00  0.00    -0.206 F 
ATOM     77  C   UNL A   1      38.283  32.751  37.593  1.00  0.00     0.040 A 
ATOM     78  C   UNL A   1      39.750  34.450  36.723  1.00  0.00     0.040 A 
ATOM     79  F   UNL A   1      40.946  34.067  34.741  1.00  0.00    -0.206 F 
ATOM     80  C   UNL A   1      38.846  34.022  37.692  1.00  0.00     0.006 A 
ENDBRANCH  56  73
ENDBRANCH  30  31
ENDBRANCH  23  25
ENDBRANCH  22  23
ENDBRANCH  21  22
ENDBRANCH  20  21
ENDBRANCH   1  20
TORSDOF 16
ENDMDL
