MODEL 1
REMARK VINA RESULT:     -10.9      0.000      0.000
REMARK SMILES C[C@@H](C(=O)OCCOCCOC(=O)c1ccc(-c2c3nc(c(-c4c(F)cccc4F)c4ccc([nH]4)c(-c4c(F)cccc4F)c4nc(c(-c5c(F)cccc5F)c5ccc2[nH]5)C=C4)C=C3)cc1)c1ccc(C[C@H]2CCCC2=O)cc1
REMARK SMILES IDX 7 1 6 2 5 3 3 4 4 5 2 6 1 7 68 8 69 9 80 10 70 11 79 12
REMARK SMILES IDX 71 13 72 14 73 15 74 16 77 17 75 18 76 19 78 20 8 21 9 22
REMARK SMILES IDX 10 23 11 24 12 25 13 26 14 27 15 28 67 29 16 30 66 31 17 32
REMARK SMILES IDX 18 33 19 34 60 35 20 36 65 37 59 38 61 39 21 40 64 41 58 42
REMARK SMILES IDX 57 43 22 45 48 46 31 47 47 48 32 49 35 50 46 51 62 52 33 53
REMARK SMILES IDX 34 54 45 56 63 57 36 58 23 59 24 60 29 61 25 62 26 63 28 64
REMARK SMILES IDX 30 65 27 66 49 67 50 68 55 69 51 70 52 71 54 72 56 73 53 74
REMARK SMILES IDX 37 75 38 76 43 77 39 78 40 79 42 80 44 81 41 82
REMARK H PARENT 61 44 35 55
REMARK Flexibility Score: inf
ROOT
ATOM      1  C   UNL A   1      39.822  21.035  25.904  1.00  0.00     0.202 C 
ENDROOT
BRANCH   1   2
ATOM      2  C   UNL A   1      38.610  21.965  25.799  1.00  0.00     0.261 C 
BRANCH   2   3
ATOM      3  O   UNL A   1      37.450  21.234  25.374  1.00  0.00    -0.463 OA
BRANCH   3   4
ATOM      4  C   UNL A   1      36.635  21.883  24.498  1.00  0.00     0.313 C 
ATOM      5  O   UNL A   1      36.987  22.250  23.381  1.00  0.00    -0.252 OA
BRANCH   4   6
ATOM      6  C   UNL A   1      35.204  22.046  25.030  1.00  0.00     0.126 C 
ATOM      7  C   UNL A   1      34.260  20.957  24.499  1.00  0.00     0.025 C 
BRANCH   6   8
ATOM      8  C   UNL A   1      34.696  23.484  24.879  1.00  0.00    -0.034 A 
ATOM      9  C   UNL A   1      34.760  24.441  25.902  1.00  0.00     0.005 A 
ATOM     10  C   UNL A   1      34.180  23.901  23.639  1.00  0.00     0.005 A 
ATOM     11  C   UNL A   1      34.314  25.755  25.696  1.00  0.00     0.004 A 
ATOM     12  C   UNL A   1      33.712  25.204  23.440  1.00  0.00     0.004 A 
ATOM     13  C   UNL A   1      33.768  26.147  24.468  1.00  0.00    -0.047 A 
BRANCH  13  14
ATOM     14  C   UNL A   1      33.289  27.561  24.233  1.00  0.00     0.047 C 
BRANCH  14  15
ATOM     15  C   UNL A   1      31.936  27.956  24.836  1.00  0.00     0.060 C 
ATOM     16  C   UNL A   1      31.250  26.914  25.725  1.00  0.00     0.012 C 
ATOM     17  C   UNL A   1      32.035  29.149  25.758  1.00  0.00     0.136 C 
ATOM     18  C   UNL A   1      31.565  27.313  27.163  1.00  0.00     0.009 C 
ATOM     19  C   UNL A   1      31.592  28.834  27.161  1.00  0.00     0.076 C 
ATOM     20  O   UNL A   1      32.411  30.259  25.400  1.00  0.00    -0.299 OA
ENDBRANCH  14  15
ENDBRANCH  13  14
ENDBRANCH   6   8
ENDBRANCH   4   6
ENDBRANCH   3   4
ENDBRANCH   2   3
ENDBRANCH   1   2
BRANCH   1  21
ATOM     21  O   UNL A   1      41.015  21.618  26.430  1.00  0.00    -0.374 OA
BRANCH  21  22
ATOM     22  C   UNL A   1      42.238  20.903  26.244  1.00  0.00     0.202 C 
BRANCH  22  23
ATOM     23  C   UNL A   1      43.349  21.638  25.482  1.00  0.00     0.261 C 
BRANCH  23  24
ATOM     24  O   UNL A   1      42.879  22.844  24.846  1.00  0.00    -0.460 OA
BRANCH  24  25
ATOM     25  C   UNL A   1      43.654  23.934  25.052  1.00  0.00     0.338 C 
ATOM     26  O   UNL A   1      44.726  24.195  24.516  1.00  0.00    -0.246 OA
BRANCH  25  27
ATOM     27  C   UNL A   1      42.960  24.910  25.910  1.00  0.00     0.060 A 
ATOM     28  C   UNL A   1      43.643  26.092  26.228  1.00  0.00     0.016 A 
ATOM     29  C   UNL A   1      41.714  24.637  26.478  1.00  0.00     0.016 A 
ATOM     30  C   UNL A   1      43.103  26.984  27.152  1.00  0.00     0.010 A 
ATOM     31  C   UNL A   1      41.178  25.531  27.415  1.00  0.00     0.010 A 
ATOM     32  C   UNL A   1      41.887  26.690  27.782  1.00  0.00    -0.014 A 
BRANCH  32  33
ATOM     33  C   UNL A   1      41.442  27.521  28.928  1.00  0.00     0.031 A 
ATOM     34  C   UNL A   1      42.194  27.440  30.227  1.00  0.00     0.074 A 
ATOM     35  C   UNL A   1      40.408  28.371  28.803  1.00  0.00     0.049 A 
ATOM     36  N   UNL A   1      41.975  28.067  31.356  1.00  0.00    -0.248 NA
ATOM     37  C   UNL A   1      43.350  26.529  30.260  1.00  0.00     0.031 C 
ATOM     38  C   UNL A   1      39.621  28.573  27.588  1.00  0.00     0.029 A 
ATOM     39  N   UNL A   1      39.841  29.223  29.718  1.00  0.00    -0.354 N 
ATOM     40  C   UNL A   1      42.963  27.630  32.229  1.00  0.00     0.074 A 
ATOM     41  C   UNL A   1      43.764  26.661  31.512  1.00  0.00     0.031 C 
ATOM     42  C   UNL A   1      38.665  29.484  27.835  1.00  0.00     0.029 A 
ATOM     43  C   UNL A   1      38.757  29.910  29.230  1.00  0.00     0.049 A 
ATOM     44  H   UNL A   1      40.181  29.332  30.636  1.00  0.00     0.167 HD
ATOM     45  C   UNL A   1      43.191  28.009  33.509  1.00  0.00     0.037 A 
ATOM     46  C   UNL A   1      37.923  30.770  29.847  1.00  0.00     0.037 A 
ATOM     47  C   UNL A   1      42.396  28.970  34.227  1.00  0.00     0.049 A 
ATOM     48  C   UNL A   1      38.154  31.124  31.292  1.00  0.00     0.074 A 
ATOM     49  C   UNL A   1      42.555  29.425  35.524  1.00  0.00     0.029 A 
ATOM     50  N   UNL A   1      41.285  29.618  33.709  1.00  0.00    -0.354 N 
ATOM     51  N   UNL A   1      39.103  30.720  32.101  1.00  0.00    -0.248 NA
ATOM     52  C   UNL A   1      37.198  32.056  31.908  1.00  0.00     0.031 C 
ATOM     53  C   UNL A   1      41.516  30.320  35.805  1.00  0.00     0.029 A 
ATOM     54  C   UNL A   1      40.736  30.454  34.667  1.00  0.00     0.049 A 
ATOM     55  H   UNL A   1      40.938  29.502  32.794  1.00  0.00     0.167 HD
ATOM     56  C   UNL A   1      38.874  31.366  33.311  1.00  0.00     0.074 A 
ATOM     57  C   UNL A   1      37.703  32.196  33.126  1.00  0.00     0.031 C 
ATOM     58  C   UNL A   1      39.573  31.278  34.469  1.00  0.00     0.037 A 
BRANCH  45  59
ATOM     59  C   UNL A   1      44.340  27.362  34.222  1.00  0.00     0.057 A 
ATOM     60  C   UNL A   1      44.192  26.154  34.916  1.00  0.00     0.134 A 
ATOM     61  C   UNL A   1      45.615  27.940  34.192  1.00  0.00     0.134 A 
ATOM     62  F   UNL A   1      42.994  25.557  34.994  1.00  0.00    -0.206 F 
ATOM     63  C   UNL A   1      45.268  25.555  35.573  1.00  0.00     0.040 A 
ATOM     64  C   UNL A   1      46.704  27.338  34.827  1.00  0.00     0.040 A 
ATOM     65  F   UNL A   1      45.825  29.094  33.542  1.00  0.00    -0.206 F 
ATOM     66  C   UNL A   1      46.531  26.145  35.525  1.00  0.00     0.006 A 
ENDBRANCH  45  59
BRANCH  46  67
ATOM     67  C   UNL A   1      36.776  31.350  29.104  1.00  0.00     0.057 A 
ATOM     68  C   UNL A   1      36.789  32.680  28.670  1.00  0.00     0.134 A 
ATOM     69  C   UNL A   1      35.633  30.590  28.828  1.00  0.00     0.134 A 
ATOM     70  F   UNL A   1      37.846  33.464  28.927  1.00  0.00    -0.206 F 
ATOM     71  C   UNL A   1      35.699  33.239  27.999  1.00  0.00     0.040 A 
ATOM     72  C   UNL A   1      34.546  31.130  28.139  1.00  0.00     0.040 A 
ATOM     73  F   UNL A   1      35.560  29.310  29.220  1.00  0.00    -0.206 F 
ATOM     74  C   UNL A   1      34.576  32.460  27.728  1.00  0.00     0.006 A 
ENDBRANCH  46  67
BRANCH  58  75
ATOM     75  C   UNL A   1      39.108  32.123  35.618  1.00  0.00     0.057 A 
ATOM     76  C   UNL A   1      38.246  31.621  36.602  1.00  0.00     0.134 A 
ATOM     77  C   UNL A   1      39.562  33.440  35.766  1.00  0.00     0.134 A 
ATOM     78  F   UNL A   1      37.766  30.372  36.512  1.00  0.00    -0.206 F 
ATOM     79  C   UNL A   1      37.838  32.407  37.682  1.00  0.00     0.040 A 
ATOM     80  C   UNL A   1      39.178  34.227  36.852  1.00  0.00     0.040 A 
ATOM     81  F   UNL A   1      40.396  33.977  34.862  1.00  0.00    -0.206 F 
ATOM     82  C   UNL A   1      38.309  33.712  37.812  1.00  0.00     0.006 A 
ENDBRANCH  58  75
ENDBRANCH  32  33
ENDBRANCH  25  27
ENDBRANCH  24  25
ENDBRANCH  23  24
ENDBRANCH  22  23
ENDBRANCH  21  22
ENDBRANCH   1  21
TORSDOF 17
ENDMDL
MODEL 2
REMARK VINA RESULT:     -10.8      3.857      7.182
REMARK SMILES C[C@@H](C(=O)OCCOCCOC(=O)c1ccc(-c2c3nc(c(-c4c(F)cccc4F)c4ccc([nH]4)c(-c4c(F)cccc4F)c4nc(c(-c5c(F)cccc5F)c5ccc2[nH]5)C=C4)C=C3)cc1)c1ccc(C[C@H]2CCCC2=O)cc1
REMARK SMILES IDX 7 1 6 2 5 3 3 4 4 5 2 6 1 7 68 8 69 9 80 10 70 11 79 12
REMARK SMILES IDX 71 13 72 14 73 15 74 16 77 17 75 18 76 19 78 20 8 21 9 22
REMARK SMILES IDX 10 23 11 24 12 25 13 26 14 27 15 28 67 29 16 30 66 31 17 32
REMARK SMILES IDX 18 33 19 34 60 35 20 36 65 37 59 38 61 39 21 40 64 41 58 42
REMARK SMILES IDX 57 43 22 45 48 46 31 47 47 48 32 49 35 50 46 51 62 52 33 53
REMARK SMILES IDX 34 54 45 56 63 57 36 58 23 59 24 60 29 61 25 62 26 63 28 64
REMARK SMILES IDX 30 65 27 66 49 67 50 68 55 69 51 70 52 71 54 72 56 73 53 74
REMARK SMILES IDX 37 75 38 76 43 77 39 78 40 79 42 80 44 81 41 82
REMARK H PARENT 61 44 35 55
REMARK Flexibility Score: inf
ROOT
ATOM      1  C   UNL A   1      42.909  18.724  25.788  1.00  0.00     0.202 C 
ENDROOT
BRANCH   1   2
ATOM      2  C   UNL A   1      44.127  19.448  25.211  1.00  0.00     0.261 C 
BRANCH   2   3
ATOM      3  O   UNL A   1      43.825  20.831  24.970  1.00  0.00    -0.463 OA
BRANCH   3   4
ATOM      4  C   UNL A   1      44.715  21.724  25.481  1.00  0.00     0.313 C 
ATOM      5  O   UNL A   1      45.912  21.492  25.622  1.00  0.00    -0.252 OA
BRANCH   4   6
ATOM      6  C   UNL A   1      44.073  23.082  25.800  1.00  0.00     0.126 C 
ATOM      7  C   UNL A   1      44.621  24.205  24.906  1.00  0.00     0.025 C 
BRANCH   6   8
ATOM      8  C   UNL A   1      44.078  23.381  27.303  1.00  0.00    -0.034 A 
ATOM      9  C   UNL A   1      42.995  23.104  28.151  1.00  0.00     0.005 A 
ATOM     10  C   UNL A   1      45.237  23.915  27.892  1.00  0.00     0.005 A 
ATOM     11  C   UNL A   1      43.068  23.363  29.528  1.00  0.00     0.004 A 
ATOM     12  C   UNL A   1      45.301  24.197  29.260  1.00  0.00     0.004 A 
ATOM     13  C   UNL A   1      44.214  23.930  30.096  1.00  0.00    -0.047 A 
BRANCH  13  14
ATOM     14  C   UNL A   1      44.306  24.209  31.578  1.00  0.00     0.047 C 
BRANCH  14  15
ATOM     15  C   UNL A   1      44.820  25.589  32.005  1.00  0.00     0.060 C 
ATOM     16  C   UNL A   1      43.800  26.732  32.006  1.00  0.00     0.012 C 
ATOM     17  C   UNL A   1      45.324  25.609  33.429  1.00  0.00     0.136 C 
ATOM     18  C   UNL A   1      43.343  26.889  33.452  1.00  0.00     0.009 C 
ATOM     19  C   UNL A   1      44.570  26.579  34.297  1.00  0.00     0.076 C 
ATOM     20  O   UNL A   1      46.262  24.928  33.831  1.00  0.00    -0.299 OA
ENDBRANCH  14  15
ENDBRANCH  13  14
ENDBRANCH   6   8
ENDBRANCH   4   6
ENDBRANCH   3   4
ENDBRANCH   2   3
ENDBRANCH   1   2
BRANCH   1  21
ATOM     21  O   UNL A   1      42.639  18.957  27.171  1.00  0.00    -0.374 OA
BRANCH  21  22
ATOM     22  C   UNL A   1      41.549  19.823  27.495  1.00  0.00     0.202 C 
BRANCH  22  23
ATOM     23  C   UNL A   1      40.774  20.416  26.310  1.00  0.00     0.261 C 
BRANCH  23  24
ATOM     24  O   UNL A   1      40.764  21.858  26.322  1.00  0.00    -0.460 OA
BRANCH  24  25
ATOM     25  C   UNL A   1      39.532  22.418  26.306  1.00  0.00     0.338 C 
ATOM     26  O   UNL A   1      38.465  21.858  26.076  1.00  0.00    -0.246 OA
BRANCH  25  27
ATOM     27  C   UNL A   1      39.589  23.811  26.780  1.00  0.00     0.060 A 
ATOM     28  C   UNL A   1      40.203  24.754  25.945  1.00  0.00     0.016 A 
ATOM     29  C   UNL A   1      39.146  24.176  28.053  1.00  0.00     0.016 A 
ATOM     30  C   UNL A   1      40.420  26.054  26.398  1.00  0.00     0.010 A 
ATOM     31  C   UNL A   1      39.375  25.480  28.511  1.00  0.00     0.010 A 
ATOM     32  C   UNL A   1      40.044  26.414  27.698  1.00  0.00    -0.014 A 
BRANCH  32  33
ATOM     33  C   UNL A   1      40.489  27.718  28.249  1.00  0.00     0.031 A 
ATOM     34  C   UNL A   1      41.962  27.982  28.405  1.00  0.00     0.074 A 
ATOM     35  C   UNL A   1      39.599  28.673  28.567  1.00  0.00     0.049 A 
ATOM     36  N   UNL A   1      42.572  29.044  28.870  1.00  0.00    -0.248 NA
ATOM     37  C   UNL A   1      42.870  26.906  27.976  1.00  0.00     0.031 C 
ATOM     38  C   UNL A   1      38.149  28.557  28.427  1.00  0.00     0.029 A 
ATOM     39  N   UNL A   1      39.790  29.933  29.079  1.00  0.00    -0.354 N 
ATOM     40  C   UNL A   1      43.930  28.765  28.791  1.00  0.00     0.074 A 
ATOM     41  C   UNL A   1      44.056  27.423  28.261  1.00  0.00     0.031 C 
ATOM     42  C   UNL A   1      37.578  29.697  28.853  1.00  0.00     0.029 A 
ATOM     43  C   UNL A   1      38.620  30.611  29.318  1.00  0.00     0.049 A 
ATOM     44  H   UNL A   1      40.680  30.314  29.256  1.00  0.00     0.167 HD
ATOM     45  C   UNL A   1      44.978  29.557  29.117  1.00  0.00     0.037 A 
ATOM     46  C   UNL A   1      38.414  31.823  29.868  1.00  0.00     0.037 A 
ATOM     47  C   UNL A   1      44.857  30.890  29.646  1.00  0.00     0.049 A 
ATOM     48  C   UNL A   1      39.594  32.660  30.288  1.00  0.00     0.074 A 
ATOM     49  C   UNL A   1      45.863  31.774  29.998  1.00  0.00     0.029 A 
ATOM     50  N   UNL A   1      43.655  31.528  29.906  1.00  0.00    -0.354 N 
ATOM     51  N   UNL A   1      40.874  32.394  30.188  1.00  0.00    -0.248 NA
ATOM     52  C   UNL A   1      39.299  33.966  30.896  1.00  0.00     0.031 C 
ATOM     53  C   UNL A   1      45.268  32.932  30.509  1.00  0.00     0.029 A 
ATOM     54  C   UNL A   1      43.892  32.786  30.434  1.00  0.00     0.049 A 
ATOM     55  H   UNL A   1      42.763  31.144  29.739  1.00  0.00     0.167 HD
ATOM     56  C   UNL A   1      41.535  33.506  30.696  1.00  0.00     0.074 A 
ATOM     57  C   UNL A   1      40.516  34.454  31.093  1.00  0.00     0.031 C 
ATOM     58  C   UNL A   1      42.868  33.722  30.820  1.00  0.00     0.037 A 
BRANCH  45  59
ATOM     59  C   UNL A   1      46.353  28.989  28.928  1.00  0.00     0.057 A 
ATOM     60  C   UNL A   1      47.020  29.067  27.700  1.00  0.00     0.134 A 
ATOM     61  C   UNL A   1      47.028  28.382  29.995  1.00  0.00     0.134 A 
ATOM     62  F   UNL A   1      46.424  29.623  26.635  1.00  0.00    -0.206 F 
ATOM     63  C   UNL A   1      48.303  28.541  27.532  1.00  0.00     0.040 A 
ATOM     64  C   UNL A   1      48.320  27.873  29.845  1.00  0.00     0.040 A 
ATOM     65  F   UNL A   1      46.446  28.279  31.199  1.00  0.00    -0.206 F 
ATOM     66  C   UNL A   1      48.958  27.947  28.610  1.00  0.00     0.006 A 
ENDBRANCH  45  59
BRANCH  46  67
ATOM     67  C   UNL A   1      37.031  32.320  30.068  1.00  0.00     0.057 A 
ATOM     68  C   UNL A   1      36.378  33.073  29.086  1.00  0.00     0.134 A 
ATOM     69  C   UNL A   1      36.335  32.068  31.257  1.00  0.00     0.134 A 
ATOM     70  F   UNL A   1      37.003  33.369  27.937  1.00  0.00    -0.206 F 
ATOM     71  C   UNL A   1      35.089  33.571  29.283  1.00  0.00     0.040 A 
ATOM     72  C   UNL A   1      35.037  32.539  31.459  1.00  0.00     0.040 A 
ATOM     73  F   UNL A   1      36.907  31.353  32.237  1.00  0.00    -0.206 F 
ATOM     74  C   UNL A   1      34.413  33.298  30.472  1.00  0.00     0.006 A 
ENDBRANCH  46  67
BRANCH  58  75
ATOM     75  C   UNL A   1      43.301  35.043  31.382  1.00  0.00     0.057 A 
ATOM     76  C   UNL A   1      43.391  35.266  32.762  1.00  0.00     0.134 A 
ATOM     77  C   UNL A   1      43.675  36.092  30.531  1.00  0.00     0.134 A 
ATOM     78  F   UNL A   1      43.036  34.307  33.629  1.00  0.00    -0.206 F 
ATOM     79  C   UNL A   1      43.819  36.492  33.275  1.00  0.00     0.040 A 
ATOM     80  C   UNL A   1      44.125  37.314  31.032  1.00  0.00     0.040 A 
ATOM     81  F   UNL A   1      43.620  35.940  29.199  1.00  0.00    -0.206 F 
ATOM     82  C   UNL A   1      44.194  37.518  32.409  1.00  0.00     0.006 A 
ENDBRANCH  58  75
ENDBRANCH  32  33
ENDBRANCH  25  27
ENDBRANCH  24  25
ENDBRANCH  23  24
ENDBRANCH  22  23
ENDBRANCH  21  22
ENDBRANCH   1  21
TORSDOF 17
ENDMDL
MODEL 3
REMARK VINA RESULT:     -10.8      3.015      8.323
REMARK SMILES C[C@@H](C(=O)OCCOCCOC(=O)c1ccc(-c2c3nc(c(-c4c(F)cccc4F)c4ccc([nH]4)c(-c4c(F)cccc4F)c4nc(c(-c5c(F)cccc5F)c5ccc2[nH]5)C=C4)C=C3)cc1)c1ccc(C[C@H]2CCCC2=O)cc1
REMARK SMILES IDX 7 1 6 2 5 3 3 4 4 5 2 6 1 7 68 8 69 9 80 10 70 11 79 12
REMARK SMILES IDX 71 13 72 14 73 15 74 16 77 17 75 18 76 19 78 20 8 21 9 22
REMARK SMILES IDX 10 23 11 24 12 25 13 26 14 27 15 28 67 29 16 30 66 31 17 32
REMARK SMILES IDX 18 33 19 34 60 35 20 36 65 37 59 38 61 39 21 40 64 41 58 42
REMARK SMILES IDX 57 43 22 45 48 46 31 47 47 48 32 49 35 50 46 51 62 52 33 53
REMARK SMILES IDX 34 54 45 56 63 57 36 58 23 59 24 60 29 61 25 62 26 63 28 64
REMARK SMILES IDX 30 65 27 66 49 67 50 68 55 69 51 70 52 71 54 72 56 73 53 74
REMARK SMILES IDX 37 75 38 76 43 77 39 78 40 79 42 80 44 81 41 82
REMARK H PARENT 61 44 35 55
REMARK Flexibility Score: inf
ROOT
ATOM      1  C   UNL A   1      32.399  30.239  27.229  1.00  0.00     0.202 C 
ENDROOT
BRANCH   1   2
ATOM      2  C   UNL A   1      33.283  29.295  26.409  1.00  0.00     0.261 C 
BRANCH   2   3
ATOM      3  O   UNL A   1      32.720  27.974  26.382  1.00  0.00    -0.463 OA
BRANCH   3   4
ATOM      4  C   UNL A   1      32.980  27.248  25.260  1.00  0.00     0.313 C 
ATOM      5  O   UNL A   1      34.092  27.156  24.748  1.00  0.00    -0.252 OA
BRANCH   4   6
ATOM      6  C   UNL A   1      31.744  26.499  24.741  1.00  0.00     0.126 C 
ATOM      7  C   UNL A   1      32.114  25.174  24.058  1.00  0.00     0.025 C 
BRANCH   6   8
ATOM      8  C   UNL A   1      30.815  27.414  23.936  1.00  0.00    -0.034 A 
ATOM      9  C   UNL A   1      31.266  28.509  23.184  1.00  0.00     0.005 A 
ATOM     10  C   UNL A   1      29.440  27.127  23.894  1.00  0.00     0.005 A 
ATOM     11  C   UNL A   1      30.374  29.291  22.434  1.00  0.00     0.004 A 
ATOM     12  C   UNL A   1      28.546  27.920  23.166  1.00  0.00     0.004 A 
ATOM     13  C   UNL A   1      29.002  29.016  22.431  1.00  0.00    -0.047 A 
BRANCH  13  14
ATOM     14  C   UNL A   1      28.033  29.848  21.623  1.00  0.00     0.047 C 
BRANCH  14  15
ATOM     15  C   UNL A   1      27.498  31.132  22.267  1.00  0.00     0.060 C 
ATOM     16  C   UNL A   1      27.739  31.297  23.771  1.00  0.00     0.012 C 
ATOM     17  C   UNL A   1      28.136  32.379  21.702  1.00  0.00     0.136 C 
ATOM     18  C   UNL A   1      28.958  32.204  23.906  1.00  0.00     0.009 C 
ATOM     19  C   UNL A   1      28.859  33.185  22.747  1.00  0.00     0.076 C 
ATOM     20  O   UNL A   1      28.054  32.714  20.525  1.00  0.00    -0.299 OA
ENDBRANCH  14  15
ENDBRANCH  13  14
ENDBRANCH   6   8
ENDBRANCH   4   6
ENDBRANCH   3   4
ENDBRANCH   2   3
ENDBRANCH   1   2
BRANCH   1  21
ATOM     21  O   UNL A   1      31.464  31.023  26.488  1.00  0.00    -0.374 OA
BRANCH  21  22
ATOM     22  C   UNL A   1      31.614  32.444  26.527  1.00  0.00     0.202 C 
BRANCH  22  23
ATOM     23  C   UNL A   1      32.696  32.989  27.471  1.00  0.00     0.261 C 
BRANCH  23  24
ATOM     24  O   UNL A   1      32.455  34.357  27.857  1.00  0.00    -0.460 OA
BRANCH  24  25
ATOM     25  C   UNL A   1      33.191  34.790  28.906  1.00  0.00     0.338 C 
ATOM     26  O   UNL A   1      32.907  35.687  29.693  1.00  0.00    -0.246 OA
BRANCH  25  27
ATOM     27  C   UNL A   1      34.358  33.916  29.117  1.00  0.00     0.060 A 
ATOM     28  C   UNL A   1      34.152  32.720  29.817  1.00  0.00     0.016 A 
ATOM     29  C   UNL A   1      35.645  34.298  28.731  1.00  0.00     0.016 A 
ATOM     30  C   UNL A   1      35.238  31.924  30.177  1.00  0.00     0.010 A 
ATOM     31  C   UNL A   1      36.736  33.502  29.104  1.00  0.00     0.010 A 
ATOM     32  C   UNL A   1      36.540  32.330  29.859  1.00  0.00    -0.014 A 
BRANCH  32  33
ATOM     33  C   UNL A   1      37.693  31.605  30.447  1.00  0.00     0.031 A 
ATOM     34  C   UNL A   1      38.079  31.879  31.875  1.00  0.00     0.074 A 
ATOM     35  C   UNL A   1      38.364  30.682  29.737  1.00  0.00     0.049 A 
ATOM     36  N   UNL A   1      39.052  31.368  32.586  1.00  0.00    -0.248 NA
ATOM     37  C   UNL A   1      37.255  32.860  32.600  1.00  0.00     0.031 C 
ATOM     38  C   UNL A   1      38.066  30.296  28.359  1.00  0.00     0.029 A 
ATOM     39  N   UNL A   1      39.440  29.902  30.081  1.00  0.00    -0.354 N 
ATOM     40  C   UNL A   1      38.958  31.963  33.838  1.00  0.00     0.074 A 
ATOM     41  C   UNL A   1      37.853  32.895  33.782  1.00  0.00     0.031 C 
ATOM     42  C   UNL A   1      38.947  29.358  27.970  1.00  0.00     0.029 A 
ATOM     43  C   UNL A   1      39.883  29.097  29.061  1.00  0.00     0.049 A 
ATOM     44  H   UNL A   1      39.853  29.919  30.975  1.00  0.00     0.167 HD
ATOM     45  C   UNL A   1      39.715  31.745  34.939  1.00  0.00     0.037 A 
ATOM     46  C   UNL A   1      40.937  28.260  29.010  1.00  0.00     0.037 A 
ATOM     47  C   UNL A   1      40.817  30.820  34.999  1.00  0.00     0.049 A 
ATOM     48  C   UNL A   1      41.809  28.084  30.226  1.00  0.00     0.074 A 
ATOM     49  C   UNL A   1      41.638  30.523  36.073  1.00  0.00     0.029 A 
ATOM     50  N   UNL A   1      41.257  30.048  33.935  1.00  0.00    -0.354 N 
ATOM     51  N   UNL A   1      41.697  28.636  31.409  1.00  0.00    -0.248 NA
ATOM     52  C   UNL A   1      42.951  27.167  30.097  1.00  0.00     0.031 C 
ATOM     53  C   UNL A   1      42.600  29.601  35.647  1.00  0.00     0.029 A 
ATOM     54  C   UNL A   1      42.350  29.291  34.320  1.00  0.00     0.049 A 
ATOM     55  H   UNL A   1      40.850  30.039  33.037  1.00  0.00     0.167 HD
ATOM     56  C   UNL A   1      42.736  28.116  32.173  1.00  0.00     0.074 A 
ATOM     57  C   UNL A   1      43.460  27.197  31.321  1.00  0.00     0.031 C 
ATOM     58  C   UNL A   1      43.059  28.376  33.463  1.00  0.00     0.037 A 
BRANCH  45  59
ATOM     59  C   UNL A   1      39.387  32.539  36.167  1.00  0.00     0.057 A 
ATOM     60  C   UNL A   1      39.981  33.781  36.423  1.00  0.00     0.134 A 
ATOM     61  C   UNL A   1      38.445  32.069  37.091  1.00  0.00     0.134 A 
ATOM     62  F   UNL A   1      40.901  34.280  35.584  1.00  0.00    -0.206 F 
ATOM     63  C   UNL A   1      39.667  34.518  37.566  1.00  0.00     0.040 A 
ATOM     64  C   UNL A   1      38.106  32.808  38.227  1.00  0.00     0.040 A 
ATOM     65  F   UNL A   1      37.836  30.889  36.903  1.00  0.00    -0.206 F 
ATOM     66  C   UNL A   1      38.721  34.034  38.469  1.00  0.00     0.006 A 
ENDBRANCH  45  59
BRANCH  46  67
ATOM     67  C   UNL A   1      41.241  27.528  27.755  1.00  0.00     0.057 A 
ATOM     68  C   UNL A   1      42.019  28.105  26.746  1.00  0.00     0.134 A 
ATOM     69  C   UNL A   1      40.742  26.239  27.530  1.00  0.00     0.134 A 
ATOM     70  F   UNL A   1      42.503  29.347  26.893  1.00  0.00    -0.206 F 
ATOM     71  C   UNL A   1      42.279  27.433  25.550  1.00  0.00     0.040 A 
ATOM     72  C   UNL A   1      41.013  25.546  26.349  1.00  0.00     0.040 A 
ATOM     73  F   UNL A   1      39.988  25.633  28.459  1.00  0.00    -0.206 F 
ATOM     74  C   UNL A   1      41.779  26.146  25.353  1.00  0.00     0.006 A 
ENDBRANCH  46  67
BRANCH  58  75
ATOM     75  C   UNL A   1      44.229  27.637  34.042  1.00  0.00     0.057 A 
ATOM     76  C   UNL A   1      45.523  28.174  34.027  1.00  0.00     0.134 A 
ATOM     77  C   UNL A   1      44.052  26.393  34.660  1.00  0.00     0.134 A 
ATOM     78  F   UNL A   1      45.761  29.356  33.440  1.00  0.00    -0.206 F 
ATOM     79  C   UNL A   1      46.601  27.489  34.590  1.00  0.00     0.040 A 
ATOM     80  C   UNL A   1      45.118  25.710  35.246  1.00  0.00     0.040 A 
ATOM     81  F   UNL A   1      42.835  25.828  34.716  1.00  0.00    -0.206 F 
ATOM     82  C   UNL A   1      46.399  26.257  35.208  1.00  0.00     0.006 A 
ENDBRANCH  58  75
ENDBRANCH  32  33
ENDBRANCH  25  27
ENDBRANCH  24  25
ENDBRANCH  23  24
ENDBRANCH  22  23
ENDBRANCH  21  22
ENDBRANCH   1  21
TORSDOF 17
ENDMDL
