MODEL 1
REMARK VINA RESULT:     -12.1      0.000      0.000
REMARK SMILES Cc1ccccc1C(=O)Nc1ccc(OCC(=O)OCCOCCOC(=O)c2ccc(-c3c4nc(c(-c5c(F)cccc5F)c5ccc([nH]5)c(-c5c(F)cccc5F)c5nc(c(-c6c(F)cccc6F)c6ccc3[nH]6)C=C5)C=C4)cc2)c(-c2nc3ccccc3s2)c1
REMARK SMILES IDX 21 1 20 2 19 3 17 4 18 5 16 6 15 7 14 8 11 9 12 10 92 11
REMARK SMILES IDX 13 12 82 13 10 14 8 15 9 16 7 18 1 19 2 20 3 21 4 22 6 23
REMARK SMILES IDX 5 24 83 25 84 26 91 27 85 28 90 29 86 30 89 31 87 32 88 33
REMARK SMILES IDX 22 34 23 35 24 36 25 37 26 38 27 39 28 40 29 41 81 42 30 43
REMARK SMILES IDX 80 44 31 45 32 46 33 47 74 48 34 49 79 50 73 51 75 52 35 53
REMARK SMILES IDX 78 54 72 55 71 56 36 58 62 59 45 60 61 61 46 62 49 63 60 64
REMARK SMILES IDX 76 65 47 66 48 67 59 69 77 70 50 71 37 72 38 73 43 74 39 75
REMARK SMILES IDX 40 76 42 77 44 78 41 79 63 80 64 81 69 82 65 83 66 84 68 85
REMARK SMILES IDX 70 86 67 87 51 88 52 89 57 90 53 91 54 92 56 93 58 94 55 95
REMARK H PARENT 10 17 75 57 49 68
REMARK Flexibility Score: inf
ROOT
ATOM      1  C   UNL A   1      34.193  30.881  27.430  1.00  0.00     0.202 C 
ENDROOT
BRANCH   1   2
ATOM      2  C   UNL A   1      32.703  30.881  27.203  1.00  0.00     0.261 C 
BRANCH   2   3
ATOM      3  O   UNL A   1      32.343  30.393  25.916  1.00  0.00    -0.461 OA
BRANCH   3   4
ATOM      4  C   UNL A   1      32.471  29.029  25.941  1.00  0.00     0.344 C 
ATOM      5  O   UNL A   1      31.979  28.302  26.767  1.00  0.00    -0.248 OA
BRANCH   4   6
ATOM      6  C   UNL A   1      33.361  28.501  24.821  1.00  0.00     0.352 C 
BRANCH   6   7
ATOM      7  O   UNL A   1      33.053  28.332  23.455  1.00  0.00    -0.481 OA
BRANCH   7   8
ATOM      8  C   UNL A   1      32.739  27.111  22.926  1.00  0.00     0.130 A 
ATOM      9  C   UNL A   1      32.018  24.368  22.735  1.00  0.00     0.042 A 
ATOM     10  C   UNL A   1      33.355  24.762  22.880  1.00  0.00     0.030 A 
ATOM     11  C   UNL A   1      31.050  25.365  22.610  1.00  0.00     0.041 A 
ATOM     12  C   UNL A   1      33.722  26.115  22.952  1.00  0.00     0.049 A 
ATOM     13  C   UNL A   1      31.386  26.754  22.715  1.00  0.00     0.055 A 
BRANCH   9  14
ATOM     14  N   UNL A   1      31.740  22.991  22.893  1.00  0.00    -0.322 N 
ATOM     15  C   UNL A   1      32.297  21.961  23.628  1.00  0.00     0.255 C 
ATOM     16  O   UNL A   1      32.160  20.800  23.241  1.00  0.00    -0.269 OA
ATOM     17  H   UNL A   1      30.969  22.697  22.357  1.00  0.00     0.170 HD
BRANCH  15  18
ATOM     18  C   UNL A   1      32.894  22.179  24.968  1.00  0.00     0.043 A 
ATOM     19  C   UNL A   1      30.620  22.561  26.030  1.00  0.00     0.045 C 
ATOM     20  C   UNL A   1      32.131  22.618  26.054  1.00  0.00    -0.038 A 
ATOM     21  C   UNL A   1      32.788  22.931  27.260  1.00  0.00     0.004 A 
ATOM     22  C   UNL A   1      34.131  22.627  27.449  1.00  0.00     0.000 A 
ATOM     23  C   UNL A   1      34.186  21.699  25.224  1.00  0.00     0.014 A 
ATOM     24  C   UNL A   1      34.797  21.910  26.466  1.00  0.00     0.001 A 
ENDBRANCH  15  18
ENDBRANCH   9  14
BRANCH  13  25
ATOM     25  C   UNL A   1      30.279  27.729  22.506  1.00  0.00     0.128 A 
ATOM     26  N   UNL A   1      30.383  28.784  21.718  1.00  0.00    -0.236 NA
ATOM     27  S   UNL A   1      28.851  27.739  23.469  1.00  0.00    -0.114 S 
ATOM     28  C   UNL A   1      29.407  29.722  22.027  1.00  0.00     0.082 A 
ATOM     29  C   UNL A   1      28.510  29.348  23.022  1.00  0.00     0.055 A 
ATOM     30  C   UNL A   1      29.296  31.008  21.469  1.00  0.00     0.030 A 
ATOM     31  C   UNL A   1      27.528  30.222  23.520  1.00  0.00     0.021 A 
ATOM     32  C   UNL A   1      28.331  31.895  21.959  1.00  0.00     0.002 A 
ATOM     33  C   UNL A   1      27.466  31.509  22.980  1.00  0.00     0.002 A 
ENDBRANCH  13  25
ENDBRANCH   7   8
ENDBRANCH   6   7
ENDBRANCH   4   6
ENDBRANCH   3   4
ENDBRANCH   2   3
ENDBRANCH   1   2
BRANCH   1  34
ATOM     34  O   UNL A   1      34.593  32.236  27.462  1.00  0.00    -0.374 OA
BRANCH  34  35
ATOM     35  C   UNL A   1      33.761  33.057  28.229  1.00  0.00     0.202 C 
BRANCH  35  36
ATOM     36  C   UNL A   1      34.421  33.394  29.534  1.00  0.00     0.261 C 
BRANCH  36  37
ATOM     37  O   UNL A   1      34.690  32.365  30.548  1.00  0.00    -0.460 OA
BRANCH  37  38
ATOM     38  C   UNL A   1      35.702  31.668  31.117  1.00  0.00     0.338 C 
ATOM     39  O   UNL A   1      35.924  31.774  32.319  1.00  0.00    -0.246 OA
BRANCH  38  40
ATOM     40  C   UNL A   1      36.603  30.816  30.328  1.00  0.00     0.060 A 
ATOM     41  C   UNL A   1      36.729  29.460  30.659  1.00  0.00     0.016 A 
ATOM     42  C   UNL A   1      37.409  31.364  29.349  1.00  0.00     0.016 A 
ATOM     43  C   UNL A   1      37.878  28.761  30.281  1.00  0.00     0.010 A 
ATOM     44  C   UNL A   1      38.590  30.698  29.045  1.00  0.00     0.010 A 
ATOM     45  C   UNL A   1      38.889  29.443  29.598  1.00  0.00    -0.014 A 
BRANCH  45  46
ATOM     46  C   UNL A   1      40.305  29.024  29.646  1.00  0.00     0.031 A 
ATOM     47  C   UNL A   1      40.790  27.902  28.850  1.00  0.00     0.074 A 
ATOM     48  C   UNL A   1      41.225  29.664  30.405  1.00  0.00     0.049 A 
ATOM     49  N   UNL A   1      41.456  26.925  29.369  1.00  0.00    -0.248 NA
ATOM     50  C   UNL A   1      40.557  27.768  27.419  1.00  0.00     0.031 C 
ATOM     51  C   UNL A   1      42.679  29.621  30.406  1.00  0.00     0.029 A 
ATOM     52  N   UNL A   1      40.945  30.587  31.380  1.00  0.00    -0.354 N 
ATOM     53  C   UNL A   1      42.002  26.252  28.307  1.00  0.00     0.074 A 
ATOM     54  C   UNL A   1      41.240  26.657  27.149  1.00  0.00     0.031 C 
ATOM     55  C   UNL A   1      43.157  30.363  31.430  1.00  0.00     0.029 A 
ATOM     56  C   UNL A   1      42.031  30.911  32.178  1.00  0.00     0.049 A 
ATOM     57  H   UNL A   1      40.052  30.985  31.502  1.00  0.00     0.167 HD
ATOM     58  C   UNL A   1      43.243  25.698  28.389  1.00  0.00     0.037 A 
ATOM     59  C   UNL A   1      41.851  30.963  33.528  1.00  0.00     0.037 A 
ATOM     60  C   UNL A   1      43.946  26.161  29.595  1.00  0.00     0.049 A 
ATOM     61  C   UNL A   1      42.337  29.645  34.059  1.00  0.00     0.074 A 
ATOM     62  C   UNL A   1      44.987  27.063  29.769  1.00  0.00     0.029 A 
ATOM     63  N   UNL A   1      43.392  25.981  30.866  1.00  0.00    -0.354 N 
ATOM     64  N   UNL A   1      42.502  28.622  33.265  1.00  0.00    -0.248 NA
ATOM     65  C   UNL A   1      42.814  29.386  35.413  1.00  0.00     0.031 C 
ATOM     66  C   UNL A   1      45.049  27.425  31.141  1.00  0.00     0.029 A 
ATOM     67  C   UNL A   1      44.045  26.747  31.815  1.00  0.00     0.049 A 
ATOM     68  H   UNL A   1      42.632  25.385  31.060  1.00  0.00     0.167 HD
ATOM     69  C   UNL A   1      43.234  27.678  33.898  1.00  0.00     0.074 A 
ATOM     70  C   UNL A   1      43.337  28.152  35.268  1.00  0.00     0.031 C 
ATOM     71  C   UNL A   1      43.751  26.610  33.236  1.00  0.00     0.037 A 
BRANCH  58  72
ATOM     72  C   UNL A   1      43.901  25.087  27.167  1.00  0.00     0.057 A 
ATOM     73  C   UNL A   1      44.745  25.820  26.318  1.00  0.00     0.134 A 
ATOM     74  C   UNL A   1      43.741  23.734  26.796  1.00  0.00     0.134 A 
ATOM     75  F   UNL A   1      45.109  27.076  26.596  1.00  0.00    -0.206 F 
ATOM     76  C   UNL A   1      45.283  25.288  25.137  1.00  0.00     0.040 A 
ATOM     77  C   UNL A   1      44.219  23.205  25.588  1.00  0.00     0.040 A 
ATOM     78  F   UNL A   1      43.134  22.855  27.607  1.00  0.00    -0.206 F 
ATOM     79  C   UNL A   1      44.991  23.989  24.748  1.00  0.00     0.006 A 
ENDBRANCH  58  72
BRANCH  59  80
ATOM     80  C   UNL A   1      40.658  31.781  33.917  1.00  0.00     0.057 A 
ATOM     81  C   UNL A   1      39.512  31.066  34.329  1.00  0.00     0.134 A 
ATOM     82  C   UNL A   1      40.720  33.119  34.327  1.00  0.00     0.134 A 
ATOM     83  F   UNL A   1      39.381  29.771  34.002  1.00  0.00    -0.206 F 
ATOM     84  C   UNL A   1      38.563  31.596  35.218  1.00  0.00     0.040 A 
ATOM     85  C   UNL A   1      39.766  33.664  35.211  1.00  0.00     0.040 A 
ATOM     86  F   UNL A   1      41.768  33.886  33.998  1.00  0.00    -0.206 F 
ATOM     87  C   UNL A   1      38.711  32.890  35.695  1.00  0.00     0.006 A 
ENDBRANCH  59  80
BRANCH  71  88
ATOM     88  C   UNL A   1      44.099  25.337  33.923  1.00  0.00     0.057 A 
ATOM     89  C   UNL A   1      43.144  24.583  34.615  1.00  0.00     0.134 A 
ATOM     90  C   UNL A   1      45.341  24.717  33.691  1.00  0.00     0.134 A 
ATOM     91  F   UNL A   1      41.896  25.037  34.813  1.00  0.00    -0.206 F 
ATOM     92  C   UNL A   1      43.414  23.296  35.073  1.00  0.00     0.040 A 
ATOM     93  C   UNL A   1      45.599  23.411  34.092  1.00  0.00     0.040 A 
ATOM     94  F   UNL A   1      46.330  25.334  33.027  1.00  0.00    -0.206 F 
ATOM     95  C   UNL A   1      44.638  22.700  34.794  1.00  0.00     0.006 A 
ENDBRANCH  71  88
ENDBRANCH  45  46
ENDBRANCH  38  40
ENDBRANCH  37  38
ENDBRANCH  36  37
ENDBRANCH  35  36
ENDBRANCH  34  35
ENDBRANCH   1  34
TORSDOF 19
ENDMDL
MODEL 2
REMARK VINA RESULT:     -12.1      1.744      2.658
REMARK SMILES Cc1ccccc1C(=O)Nc1ccc(OCC(=O)OCCOCCOC(=O)c2ccc(-c3c4nc(c(-c5c(F)cccc5F)c5ccc([nH]5)c(-c5c(F)cccc5F)c5nc(c(-c6c(F)cccc6F)c6ccc3[nH]6)C=C5)C=C4)cc2)c(-c2nc3ccccc3s2)c1
REMARK SMILES IDX 21 1 20 2 19 3 17 4 18 5 16 6 15 7 14 8 11 9 12 10 92 11
REMARK SMILES IDX 13 12 82 13 10 14 8 15 9 16 7 18 1 19 2 20 3 21 4 22 6 23
REMARK SMILES IDX 5 24 83 25 84 26 91 27 85 28 90 29 86 30 89 31 87 32 88 33
REMARK SMILES IDX 22 34 23 35 24 36 25 37 26 38 27 39 28 40 29 41 81 42 30 43
REMARK SMILES IDX 80 44 31 45 32 46 33 47 74 48 34 49 79 50 73 51 75 52 35 53
REMARK SMILES IDX 78 54 72 55 71 56 36 58 62 59 45 60 61 61 46 62 49 63 60 64
REMARK SMILES IDX 76 65 47 66 48 67 59 69 77 70 50 71 37 72 38 73 43 74 39 75
REMARK SMILES IDX 40 76 42 77 44 78 41 79 63 80 64 81 69 82 65 83 66 84 68 85
REMARK SMILES IDX 70 86 67 87 51 88 52 89 57 90 53 91 54 92 56 93 58 94 55 95
REMARK H PARENT 10 17 75 57 49 68
REMARK Flexibility Score: inf
ROOT
ATOM      1  C   UNL A   1      33.560  30.157  27.285  1.00  0.00     0.202 C 
ENDROOT
BRANCH   1   2
ATOM      2  C   UNL A   1      32.239  30.783  26.917  1.00  0.00     0.261 C 
BRANCH   2   3
ATOM      3  O   UNL A   1      31.775  30.376  25.636  1.00  0.00    -0.461 OA
BRANCH   3   4
ATOM      4  C   UNL A   1      32.008  29.029  25.521  1.00  0.00     0.344 C 
ATOM      5  O   UNL A   1      31.403  28.170  26.111  1.00  0.00    -0.248 OA
BRANCH   4   6
ATOM      6  C   UNL A   1      33.171  28.711  24.589  1.00  0.00     0.352 C 
BRANCH   6   7
ATOM      7  O   UNL A   1      33.149  28.482  23.197  1.00  0.00    -0.481 OA
BRANCH   7   8
ATOM      8  C   UNL A   1      32.807  27.270  22.664  1.00  0.00     0.130 A 
ATOM      9  C   UNL A   1      32.087  24.527  22.466  1.00  0.00     0.042 A 
ATOM     10  C   UNL A   1      33.429  24.926  22.532  1.00  0.00     0.030 A 
ATOM     11  C   UNL A   1      31.108  25.521  22.423  1.00  0.00     0.041 A 
ATOM     12  C   UNL A   1      33.794  26.280  22.608  1.00  0.00     0.049 A 
ATOM     13  C   UNL A   1      31.444  26.910  22.534  1.00  0.00     0.055 A 
BRANCH   9  14
ATOM     14  N   UNL A   1      31.826  23.146  22.614  1.00  0.00    -0.322 N 
ATOM     15  C   UNL A   1      32.308  22.144  23.435  1.00  0.00     0.255 C 
ATOM     16  O   UNL A   1      32.252  20.974  23.057  1.00  0.00    -0.269 OA
ATOM     17  H   UNL A   1      31.139  22.821  21.987  1.00  0.00     0.170 HD
BRANCH  15  18
ATOM     18  C   UNL A   1      32.720  22.400  24.837  1.00  0.00     0.043 A 
ATOM     19  C   UNL A   1      35.185  22.309  24.236  1.00  0.00     0.045 C 
ATOM     20  C   UNL A   1      34.056  22.316  25.242  1.00  0.00    -0.038 A 
ATOM     21  C   UNL A   1      34.355  22.441  26.612  1.00  0.00     0.004 A 
ATOM     22  C   UNL A   1      33.390  22.838  27.528  1.00  0.00     0.000 A 
ATOM     23  C   UNL A   1      31.801  22.984  25.721  1.00  0.00     0.014 A 
ATOM     24  C   UNL A   1      32.140  23.215  27.059  1.00  0.00     0.001 A 
ENDBRANCH  15  18
ENDBRANCH   9  14
BRANCH  13  25
ATOM     25  C   UNL A   1      30.322  27.882  22.416  1.00  0.00     0.128 A 
ATOM     26  N   UNL A   1      30.394  28.985  21.694  1.00  0.00    -0.236 NA
ATOM     27  S   UNL A   1      28.921  27.814  23.416  1.00  0.00    -0.114 S 
ATOM     28  C   UNL A   1      29.417  29.890  22.087  1.00  0.00     0.082 A 
ATOM     29  C   UNL A   1      28.551  29.444  23.080  1.00  0.00     0.055 A 
ATOM     30  C   UNL A   1      29.277  31.207  21.615  1.00  0.00     0.030 A 
ATOM     31  C   UNL A   1      27.574  30.272  23.658  1.00  0.00     0.021 A 
ATOM     32  C   UNL A   1      28.316  32.049  22.186  1.00  0.00     0.002 A 
ATOM     33  C   UNL A   1      27.484  31.590  23.202  1.00  0.00     0.002 A 
ENDBRANCH  13  25
ENDBRANCH   7   8
ENDBRANCH   6   7
ENDBRANCH   4   6
ENDBRANCH   3   4
ENDBRANCH   2   3
ENDBRANCH   1   2
BRANCH   1  34
ATOM     34  O   UNL A   1      34.499  31.211  27.344  1.00  0.00    -0.374 OA
BRANCH  34  35
ATOM     35  C   UNL A   1      34.060  32.326  28.064  1.00  0.00     0.202 C 
BRANCH  35  36
ATOM     36  C   UNL A   1      34.971  32.587  29.227  1.00  0.00     0.261 C 
BRANCH  36  37
ATOM     37  O   UNL A   1      35.113  31.620  30.324  1.00  0.00    -0.460 OA
BRANCH  37  38
ATOM     38  C   UNL A   1      36.045  30.906  31.001  1.00  0.00     0.338 C 
ATOM     39  O   UNL A   1      36.339  31.213  32.152  1.00  0.00    -0.246 OA
BRANCH  38  40
ATOM     40  C   UNL A   1      36.776  29.791  30.383  1.00  0.00     0.060 A 
ATOM     41  C   UNL A   1      37.442  28.871  31.203  1.00  0.00     0.016 A 
ATOM     42  C   UNL A   1      36.909  29.714  29.010  1.00  0.00     0.016 A 
ATOM     43  C   UNL A   1      38.502  28.124  30.682  1.00  0.00     0.010 A 
ATOM     44  C   UNL A   1      38.015  29.039  28.511  1.00  0.00     0.010 A 
ATOM     45  C   UNL A   1      38.888  28.333  29.355  1.00  0.00    -0.014 A 
BRANCH  45  46
ATOM     46  C   UNL A   1      40.259  28.069  28.873  1.00  0.00     0.031 A 
ATOM     47  C   UNL A   1      40.650  26.751  28.387  1.00  0.00     0.074 A 
ATOM     48  C   UNL A   1      41.211  29.031  28.834  1.00  0.00     0.049 A 
ATOM     49  N   UNL A   1      41.693  26.133  28.834  1.00  0.00    -0.248 NA
ATOM     50  C   UNL A   1      39.904  26.008  27.382  1.00  0.00     0.031 C 
ATOM     51  C   UNL A   1      42.502  29.089  28.165  1.00  0.00     0.029 A 
ATOM     52  N   UNL A   1      41.123  30.259  29.437  1.00  0.00    -0.354 N 
ATOM     53  C   UNL A   1      41.916  25.111  27.948  1.00  0.00     0.074 A 
ATOM     54  C   UNL A   1      40.678  24.934  27.227  1.00  0.00     0.031 C 
ATOM     55  C   UNL A   1      43.147  30.225  28.515  1.00  0.00     0.029 A 
ATOM     56  C   UNL A   1      42.317  30.963  29.461  1.00  0.00     0.049 A 
ATOM     57  H   UNL A   1      40.286  30.611  29.819  1.00  0.00     0.167 HD
ATOM     58  C   UNL A   1      43.182  24.727  27.623  1.00  0.00     0.037 A 
ATOM     59  C   UNL A   1      42.688  31.570  30.623  1.00  0.00     0.037 A 
ATOM     60  C   UNL A   1      44.168  25.705  28.110  1.00  0.00     0.049 A 
ATOM     61  C   UNL A   1      43.663  30.638  31.282  1.00  0.00     0.074 A 
ATOM     62  C   UNL A   1      44.925  26.662  27.449  1.00  0.00     0.029 A 
ATOM     63  N   UNL A   1      44.237  26.044  29.465  1.00  0.00    -0.354 N 
ATOM     64  N   UNL A   1      43.749  29.388  30.915  1.00  0.00    -0.248 NA
ATOM     65  C   UNL A   1      44.693  31.009  32.246  1.00  0.00     0.031 C 
ATOM     66  C   UNL A   1      45.439  27.575  28.408  1.00  0.00     0.029 A 
ATOM     67  C   UNL A   1      44.999  27.182  29.662  1.00  0.00     0.049 A 
ATOM     68  H   UNL A   1      43.798  25.537  30.187  1.00  0.00     0.167 HD
ATOM     69  C   UNL A   1      44.887  28.853  31.411  1.00  0.00     0.074 A 
ATOM     70  C   UNL A   1      45.408  29.868  32.311  1.00  0.00     0.031 C 
ATOM     71  C   UNL A   1      45.346  27.641  31.001  1.00  0.00     0.037 A 
BRANCH  58  72
ATOM     72  C   UNL A   1      43.425  23.701  26.533  1.00  0.00     0.057 A 
ATOM     73  C   UNL A   1      43.303  22.321  26.755  1.00  0.00     0.134 A 
ATOM     74  C   UNL A   1      43.766  24.046  25.207  1.00  0.00     0.134 A 
ATOM     75  F   UNL A   1      42.859  21.828  27.916  1.00  0.00    -0.206 F 
ATOM     76  C   UNL A   1      43.615  21.364  25.778  1.00  0.00     0.040 A 
ATOM     77  C   UNL A   1      44.140  23.103  24.239  1.00  0.00     0.040 A 
ATOM     78  F   UNL A   1      43.724  25.319  24.783  1.00  0.00    -0.206 F 
ATOM     79  C   UNL A   1      44.070  21.751  24.527  1.00  0.00     0.006 A 
ENDBRANCH  58  72
BRANCH  59  80
ATOM     80  C   UNL A   1      41.587  32.395  31.217  1.00  0.00     0.057 A 
ATOM     81  C   UNL A   1      41.300  33.618  30.572  1.00  0.00     0.134 A 
ATOM     82  C   UNL A   1      40.567  31.881  32.027  1.00  0.00     0.134 A 
ATOM     83  F   UNL A   1      42.212  34.172  29.757  1.00  0.00    -0.206 F 
ATOM     84  C   UNL A   1      40.031  34.217  30.606  1.00  0.00     0.040 A 
ATOM     85  C   UNL A   1      39.291  32.480  32.076  1.00  0.00     0.040 A 
ATOM     86  F   UNL A   1      40.731  30.722  32.678  1.00  0.00    -0.206 F 
ATOM     87  C   UNL A   1      39.007  33.624  31.330  1.00  0.00     0.006 A 
ENDBRANCH  59  80
BRANCH  71  88
ATOM     88  C   UNL A   1      46.251  26.806  31.835  1.00  0.00     0.057 A 
ATOM     89  C   UNL A   1      47.642  26.835  31.676  1.00  0.00     0.134 A 
ATOM     90  C   UNL A   1      45.764  26.148  32.980  1.00  0.00     0.134 A 
ATOM     91  F   UNL A   1      48.223  27.511  30.673  1.00  0.00    -0.206 F 
ATOM     92  C   UNL A   1      48.499  26.223  32.587  1.00  0.00     0.040 A 
ATOM     93  C   UNL A   1      46.613  25.587  33.926  1.00  0.00     0.040 A 
ATOM     94  F   UNL A   1      44.451  26.067  33.247  1.00  0.00    -0.206 F 
ATOM     95  C   UNL A   1      47.986  25.615  33.727  1.00  0.00     0.006 A 
ENDBRANCH  71  88
ENDBRANCH  45  46
ENDBRANCH  38  40
ENDBRANCH  37  38
ENDBRANCH  36  37
ENDBRANCH  35  36
ENDBRANCH  34  35
ENDBRANCH   1  34
TORSDOF 19
ENDMDL
MODEL 3
REMARK VINA RESULT:     -11.9      2.897      4.439
REMARK SMILES Cc1ccccc1C(=O)Nc1ccc(OCC(=O)OCCOCCOC(=O)c2ccc(-c3c4nc(c(-c5c(F)cccc5F)c5ccc([nH]5)c(-c5c(F)cccc5F)c5nc(c(-c6c(F)cccc6F)c6ccc3[nH]6)C=C5)C=C4)cc2)c(-c2nc3ccccc3s2)c1
REMARK SMILES IDX 21 1 20 2 19 3 17 4 18 5 16 6 15 7 14 8 11 9 12 10 92 11
REMARK SMILES IDX 13 12 82 13 10 14 8 15 9 16 7 18 1 19 2 20 3 21 4 22 6 23
REMARK SMILES IDX 5 24 83 25 84 26 91 27 85 28 90 29 86 30 89 31 87 32 88 33
REMARK SMILES IDX 22 34 23 35 24 36 25 37 26 38 27 39 28 40 29 41 81 42 30 43
REMARK SMILES IDX 80 44 31 45 32 46 33 47 74 48 34 49 79 50 73 51 75 52 35 53
REMARK SMILES IDX 78 54 72 55 71 56 36 58 62 59 45 60 61 61 46 62 49 63 60 64
REMARK SMILES IDX 76 65 47 66 48 67 59 69 77 70 50 71 37 72 38 73 43 74 39 75
REMARK SMILES IDX 40 76 42 77 44 78 41 79 63 80 64 81 69 82 65 83 66 84 68 85
REMARK SMILES IDX 70 86 67 87 51 88 52 89 57 90 53 91 54 92 56 93 58 94 55 95
REMARK H PARENT 10 17 75 57 49 68
REMARK Flexibility Score: inf
ROOT
ATOM      1  C   UNL A   1      35.028  33.517  29.252  1.00  0.00     0.202 C 
ENDROOT
BRANCH   1   2
ATOM      2  C   UNL A   1      34.329  32.212  28.968  1.00  0.00     0.261 C 
BRANCH   2   3
ATOM      3  O   UNL A   1      34.685  31.663  27.705  1.00  0.00    -0.461 OA
BRANCH   3   4
ATOM      4  C   UNL A   1      33.600  30.966  27.238  1.00  0.00     0.344 C 
ATOM      5  O   UNL A   1      32.463  31.365  27.251  1.00  0.00    -0.248 OA
BRANCH   4   6
ATOM      6  C   UNL A   1      33.969  29.577  26.730  1.00  0.00     0.352 C 
BRANCH   6   7
ATOM      7  O   UNL A   1      33.682  28.990  25.479  1.00  0.00    -0.481 OA
BRANCH   7   8
ATOM      8  C   UNL A   1      33.117  27.750  25.369  1.00  0.00     0.130 A 
ATOM      9  C   UNL A   1      31.660  25.393  26.004  1.00  0.00     0.042 A 
ATOM     10  C   UNL A   1      33.008  25.535  26.360  1.00  0.00     0.030 A 
ATOM     11  C   UNL A   1      31.067  26.413  25.259  1.00  0.00     0.041 A 
ATOM     12  C   UNL A   1      33.741  26.687  26.030  1.00  0.00     0.049 A 
ATOM     13  C   UNL A   1      31.776  27.616  24.937  1.00  0.00     0.055 A 
BRANCH   9  14
ATOM     14  N   UNL A   1      30.964  24.301  26.572  1.00  0.00    -0.322 N 
ATOM     15  C   UNL A   1      30.884  22.948  26.301  1.00  0.00     0.255 C 
ATOM     16  O   UNL A   1      29.880  22.322  26.641  1.00  0.00    -0.269 OA
ATOM     17  H   UNL A   1      30.408  24.565  27.339  1.00  0.00     0.170 HD
BRANCH  15  18
ATOM     18  C   UNL A   1      32.040  22.175  25.784  1.00  0.00     0.043 A 
ATOM     19  C   UNL A   1      33.204  22.217  28.040  1.00  0.00     0.045 C 
ATOM     20  C   UNL A   1      33.194  21.974  26.548  1.00  0.00    -0.038 A 
ATOM     21  C   UNL A   1      34.302  21.346  25.946  1.00  0.00     0.004 A 
ATOM     22  C   UNL A   1      34.203  20.755  24.693  1.00  0.00     0.000 A 
ATOM     23  C   UNL A   1      31.886  21.418  24.615  1.00  0.00     0.014 A 
ATOM     24  C   UNL A   1      32.960  20.698  24.079  1.00  0.00     0.001 A 
ENDBRANCH  15  18
ENDBRANCH   9  14
BRANCH  13  25
ATOM     25  C   UNL A   1      31.060  28.609  24.087  1.00  0.00     0.128 A 
ATOM     26  N   UNL A   1      30.724  29.814  24.509  1.00  0.00    -0.236 NA
ATOM     27  S   UNL A   1      30.356  28.200  22.569  1.00  0.00    -0.114 S 
ATOM     28  C   UNL A   1      29.729  30.353  23.706  1.00  0.00     0.082 A 
ATOM     29  C   UNL A   1      29.345  29.571  22.621  1.00  0.00     0.055 A 
ATOM     30  C   UNL A   1      29.055  31.565  23.933  1.00  0.00     0.030 A 
ATOM     31  C   UNL A   1      28.282  29.927  21.773  1.00  0.00     0.021 A 
ATOM     32  C   UNL A   1      27.988  31.931  23.104  1.00  0.00     0.002 A 
ATOM     33  C   UNL A   1      27.600  31.115  22.045  1.00  0.00     0.002 A 
ENDBRANCH  13  25
ENDBRANCH   7   8
ENDBRANCH   6   7
ENDBRANCH   4   6
ENDBRANCH   3   4
ENDBRANCH   2   3
ENDBRANCH   1   2
BRANCH   1  34
ATOM     34  O   UNL A   1      34.661  33.889  30.565  1.00  0.00    -0.374 OA
BRANCH  34  35
ATOM     35  C   UNL A   1      35.444  33.302  31.563  1.00  0.00     0.202 C 
BRANCH  35  36
ATOM     36  C   UNL A   1      36.497  34.264  32.032  1.00  0.00     0.261 C 
BRANCH  36  37
ATOM     37  O   UNL A   1      37.817  34.330  31.392  1.00  0.00    -0.460 OA
BRANCH  37  38
ATOM     38  C   UNL A   1      38.545  33.777  30.392  1.00  0.00     0.338 C 
ATOM     39  O   UNL A   1      38.900  34.462  29.437  1.00  0.00    -0.246 OA
BRANCH  38  40
ATOM     40  C   UNL A   1      38.886  32.348  30.372  1.00  0.00     0.060 A 
ATOM     41  C   UNL A   1      39.981  31.894  31.120  1.00  0.00     0.016 A 
ATOM     42  C   UNL A   1      38.215  31.478  29.535  1.00  0.00     0.016 A 
ATOM     43  C   UNL A   1      40.613  30.701  30.763  1.00  0.00     0.010 A 
ATOM     44  C   UNL A   1      38.890  30.336  29.124  1.00  0.00     0.010 A 
ATOM     45  C   UNL A   1      40.148  29.997  29.648  1.00  0.00    -0.014 A 
BRANCH  45  46
ATOM     46  C   UNL A   1      41.013  29.099  28.856  1.00  0.00     0.031 A 
ATOM     47  C   UNL A   1      40.834  27.652  28.891  1.00  0.00     0.074 A 
ATOM     48  C   UNL A   1      41.991  29.564  28.045  1.00  0.00     0.049 A 
ATOM     49  N   UNL A   1      41.811  26.843  29.135  1.00  0.00    -0.248 NA
ATOM     50  C   UNL A   1      39.554  26.991  28.676  1.00  0.00     0.031 C 
ATOM     51  C   UNL A   1      42.761  28.924  26.989  1.00  0.00     0.029 A 
ATOM     52  N   UNL A   1      42.466  30.851  28.032  1.00  0.00    -0.354 N 
ATOM     53  C   UNL A   1      41.352  25.601  28.777  1.00  0.00     0.074 A 
ATOM     54  C   UNL A   1      39.913  25.709  28.730  1.00  0.00     0.031 C 
ATOM     55  C   UNL A   1      43.709  29.774  26.535  1.00  0.00     0.029 A 
ATOM     56  C   UNL A   1      43.628  31.016  27.295  1.00  0.00     0.049 A 
ATOM     57  H   UNL A   1      42.020  31.592  28.504  1.00  0.00     0.167 HD
ATOM     58  C   UNL A   1      42.181  24.684  28.204  1.00  0.00     0.037 A 
ATOM     59  C   UNL A   1      44.642  31.747  27.839  1.00  0.00     0.037 A 
ATOM     60  C   UNL A   1      43.454  25.306  27.804  1.00  0.00     0.049 A 
ATOM     61  C   UNL A   1      45.602  30.751  28.420  1.00  0.00     0.074 A 
ATOM     62  C   UNL A   1      43.959  25.659  26.560  1.00  0.00     0.029 A 
ATOM     63  N   UNL A   1      44.253  25.975  28.736  1.00  0.00    -0.354 N 
ATOM     64  N   UNL A   1      45.239  29.516  28.636  1.00  0.00    -0.248 NA
ATOM     65  C   UNL A   1      47.026  30.966  28.658  1.00  0.00     0.031 C 
ATOM     66  C   UNL A   1      45.053  26.543  26.750  1.00  0.00     0.029 A 
ATOM     67  C   UNL A   1      45.225  26.737  28.112  1.00  0.00     0.049 A 
ATOM     68  H   UNL A   1      44.138  25.912  29.712  1.00  0.00     0.167 HD
ATOM     69  C   UNL A   1      46.337  28.757  28.849  1.00  0.00     0.074 A 
ATOM     70  C   UNL A   1      47.430  29.711  28.943  1.00  0.00     0.031 C 
ATOM     71  C   UNL A   1      46.276  27.400  28.874  1.00  0.00     0.037 A 
BRANCH  58  72
ATOM     72  C   UNL A   1      41.637  23.373  27.673  1.00  0.00     0.057 A 
ATOM     73  C   UNL A   1      42.089  22.126  28.133  1.00  0.00     0.134 A 
ATOM     74  C   UNL A   1      40.619  23.295  26.698  1.00  0.00     0.134 A 
ATOM     75  F   UNL A   1      42.953  22.018  29.148  1.00  0.00    -0.206 F 
ATOM     76  C   UNL A   1      41.657  20.911  27.582  1.00  0.00     0.040 A 
ATOM     77  C   UNL A   1      40.222  22.093  26.094  1.00  0.00     0.040 A 
ATOM     78  F   UNL A   1      39.943  24.386  26.305  1.00  0.00    -0.206 F 
ATOM     79  C   UNL A   1      40.748  20.891  26.535  1.00  0.00     0.006 A 
ENDBRANCH  58  72
BRANCH  59  80
ATOM     80  C   UNL A   1      44.174  33.066  28.375  1.00  0.00     0.057 A 
ATOM     81  C   UNL A   1      43.978  34.096  27.428  1.00  0.00     0.134 A 
ATOM     82  C   UNL A   1      43.509  33.229  29.596  1.00  0.00     0.134 A 
ATOM     83  F   UNL A   1      44.558  34.010  26.221  1.00  0.00    -0.206 F 
ATOM     84  C   UNL A   1      43.063  35.143  27.621  1.00  0.00     0.040 A 
ATOM     85  C   UNL A   1      42.595  34.282  29.804  1.00  0.00     0.040 A 
ATOM     86  F   UNL A   1      43.619  32.307  30.562  1.00  0.00    -0.206 F 
ATOM     87  C   UNL A   1      42.335  35.216  28.800  1.00  0.00     0.006 A 
ENDBRANCH  59  80
BRANCH  71  88
ATOM     88  C   UNL A   1      47.285  26.567  29.582  1.00  0.00     0.057 A 
ATOM     89  C   UNL A   1      48.437  26.095  28.941  1.00  0.00     0.134 A 
ATOM     90  C   UNL A   1      47.245  26.433  30.982  1.00  0.00     0.134 A 
ATOM     91  F   UNL A   1      48.624  26.252  27.621  1.00  0.00    -0.206 F 
ATOM     92  C   UNL A   1      49.480  25.502  29.647  1.00  0.00     0.040 A 
ATOM     93  C   UNL A   1      48.307  25.897  31.701  1.00  0.00     0.040 A 
ATOM     94  F   UNL A   1      46.200  26.861  31.706  1.00  0.00    -0.206 F 
ATOM     95  C   UNL A   1      49.425  25.420  31.034  1.00  0.00     0.006 A 
ENDBRANCH  71  88
ENDBRANCH  45  46
ENDBRANCH  38  40
ENDBRANCH  37  38
ENDBRANCH  36  37
ENDBRANCH  35  36
ENDBRANCH  34  35
ENDBRANCH   1  34
TORSDOF 19
ENDMDL
