MODEL 1
REMARK VINA RESULT:     -11.2      0.000      0.000
REMARK SMILES Cc1c(Cl)ccc2c(OCC(=O)OCCOCCOC(=O)c3ccc(-c4c5nc(c(-c6c(F)cccc6F)c6ccc([nH]6)c(-c6c(F)cccc6F)c6nc(c(-c7c(F)cccc7F)c7ccc4[nH]7)C=C6)C=C5)cc3)ccnc12
REMARK SMILES IDX 16 1 15 2 14 3 13 4 11 5 12 6 10 7 9 8 8 9 1 10 2 11 3 12
REMARK SMILES IDX 79 13 4 14 5 15 7 16 78 17 6 18 77 19 76 20 17 21 18 22
REMARK SMILES IDX 19 23 20 24 21 25 22 26 23 27 75 28 24 29 74 30 25 31 26 32
REMARK SMILES IDX 27 33 68 34 28 35 73 36 67 37 69 38 29 39 72 40 66 41 65 42
REMARK SMILES IDX 30 44 56 45 39 46 55 47 40 48 43 49 54 50 70 51 41 52 42 53
REMARK SMILES IDX 53 55 71 56 44 57 31 58 32 59 37 60 33 61 34 62 36 63 38 64
REMARK SMILES IDX 35 65 57 66 58 67 63 68 59 69 60 70 62 71 64 72 61 73 45 74
REMARK SMILES IDX 46 75 51 76 47 77 48 78 50 79 52 80 49 81
REMARK H PARENT 69 43 43 54
REMARK Flexibility Score: inf
ROOT
ATOM      1  O   UNL A   1      46.083  20.683  25.514  1.00  0.00    -0.374 OA
ENDROOT
BRANCH   1   2
ATOM      2  C   UNL A   1      45.900  20.001  24.275  1.00  0.00     0.202 C 
BRANCH   2   3
ATOM      3  C   UNL A   1      44.752  18.986  24.200  1.00  0.00     0.261 C 
BRANCH   3   4
ATOM      4  O   UNL A   1      44.640  18.145  25.368  1.00  0.00    -0.461 OA
BRANCH   4   5
ATOM      5  C   UNL A   1      43.450  18.210  26.031  1.00  0.00     0.344 C 
ATOM      6  O   UNL A   1      43.030  17.350  26.798  1.00  0.00    -0.248 OA
BRANCH   5   7
ATOM      7  C   UNL A   1      42.625  19.452  25.680  1.00  0.00     0.352 C 
BRANCH   7   8
ATOM      8  O   UNL A   1      41.224  19.472  25.871  1.00  0.00    -0.481 OA
BRANCH   8   9
ATOM      9  C   UNL A   1      40.603  20.593  26.367  1.00  0.00     0.131 A 
ATOM     10  C   UNL A   1      36.845  23.751  25.724  1.00  0.00     0.048 C 
ATOM     11  C   UNL A   1      37.419  22.358  25.629  1.00  0.00    -0.006 A 
ATOM     12  C   UNL A   1      36.715  21.358  24.932  1.00  0.00     0.046 A 
ATOM     13  C   UNL A   1      38.678  22.070  26.184  1.00  0.00     0.078 A 
ATOM     14  Cl  UNL A   1      35.134  21.635  24.287  1.00  0.00    -0.084 Cl
ATOM     15  C   UNL A   1      37.273  20.101  24.734  1.00  0.00     0.022 A 
ATOM     16  C   UNL A   1      39.284  20.823  25.904  1.00  0.00     0.043 A 
ATOM     17  N   UNL A   1      39.300  22.973  26.968  1.00  0.00    -0.256 NA
ATOM     18  C   UNL A   1      38.563  19.849  25.184  1.00  0.00     0.016 A 
ATOM     19  C   UNL A   1      40.497  22.667  27.506  1.00  0.00     0.115 A 
ATOM     20  C   UNL A   1      41.192  21.506  27.229  1.00  0.00     0.067 A 
ENDBRANCH   8   9
ENDBRANCH   7   8
ENDBRANCH   5   7
ENDBRANCH   4   5
ENDBRANCH   3   4
ENDBRANCH   2   3
ENDBRANCH   1   2
BRANCH   1  21
ATOM     21  C   UNL A   1      45.443  21.950  25.652  1.00  0.00     0.202 C 
BRANCH  21  22
ATOM     22  C   UNL A   1      44.996  22.647  24.363  1.00  0.00     0.261 C 
BRANCH  22  23
ATOM     23  O   UNL A   1      44.105  23.741  24.627  1.00  0.00    -0.460 OA
BRANCH  23  24
ATOM     24  C   UNL A   1      44.717  24.869  25.045  1.00  0.00     0.338 C 
ATOM     25  O   UNL A   1      45.811  25.302  24.708  1.00  0.00    -0.246 OA
BRANCH  24  26
ATOM     26  C   UNL A   1      43.790  25.650  25.871  1.00  0.00     0.060 A 
ATOM     27  C   UNL A   1      44.041  27.021  25.998  1.00  0.00     0.016 A 
ATOM     28  C   UNL A   1      42.769  25.031  26.595  1.00  0.00     0.016 A 
ATOM     29  C   UNL A   1      43.304  27.775  26.901  1.00  0.00     0.010 A 
ATOM     30  C   UNL A   1      42.040  25.787  27.515  1.00  0.00     0.010 A 
ATOM     31  C   UNL A   1      42.340  27.148  27.701  1.00  0.00    -0.014 A 
BRANCH  31  32
ATOM     32  C   UNL A   1      41.810  27.880  28.872  1.00  0.00     0.031 A 
ATOM     33  C   UNL A   1      42.573  27.800  30.164  1.00  0.00     0.074 A 
ATOM     34  C   UNL A   1      40.714  28.648  28.760  1.00  0.00     0.049 A 
ATOM     35  N   UNL A   1      42.335  28.391  31.307  1.00  0.00    -0.248 NA
ATOM     36  C   UNL A   1      43.771  26.943  30.166  1.00  0.00     0.031 C 
ATOM     37  C   UNL A   1      39.928  28.826  27.540  1.00  0.00     0.029 A 
ATOM     38  N   UNL A   1      40.079  29.425  29.691  1.00  0.00    -0.354 N 
ATOM     39  C   UNL A   1      43.360  27.990  32.155  1.00  0.00     0.074 A 
ATOM     40  C   UNL A   1      44.197  27.074  31.413  1.00  0.00     0.031 C 
ATOM     41  C   UNL A   1      38.906  29.660  27.802  1.00  0.00     0.029 A 
ATOM     42  C   UNL A   1      38.960  30.055  29.207  1.00  0.00     0.049 A 
ATOM     43  H   UNL A   1      40.395  29.523  30.618  1.00  0.00     0.167 HD
ATOM     44  C   UNL A   1      43.590  28.365  33.435  1.00  0.00     0.037 A 
ATOM     45  C   UNL A   1      38.077  30.849  29.841  1.00  0.00     0.037 A 
ATOM     46  C   UNL A   1      42.736  29.255  34.174  1.00  0.00     0.049 A 
ATOM     47  C   UNL A   1      38.300  31.170  31.296  1.00  0.00     0.074 A 
ATOM     48  C   UNL A   1      42.867  29.700  35.477  1.00  0.00     0.029 A 
ATOM     49  N   UNL A   1      41.577  29.827  33.670  1.00  0.00    -0.354 N 
ATOM     50  N   UNL A   1      39.289  30.814  32.081  1.00  0.00    -0.248 NA
ATOM     51  C   UNL A   1      37.286  32.008  31.949  1.00  0.00     0.031 C 
ATOM     52  C   UNL A   1      41.761  30.504  35.776  1.00  0.00     0.029 A 
ATOM     53  C   UNL A   1      40.967  30.598  34.644  1.00  0.00     0.049 A 
ATOM     54  H   UNL A   1      41.238  29.703  32.754  1.00  0.00     0.167 HD
ATOM     55  C   UNL A   1      39.030  31.404  33.312  1.00  0.00     0.074 A 
ATOM     56  C   UNL A   1      37.801  32.157  33.161  1.00  0.00     0.031 C 
ATOM     57  C   UNL A   1      39.742  31.334  34.465  1.00  0.00     0.037 A 
BRANCH  44  58
ATOM     58  C   UNL A   1      44.797  27.785  34.113  1.00  0.00     0.057 A 
ATOM     59  C   UNL A   1      44.725  26.555  34.776  1.00  0.00     0.134 A 
ATOM     60  C   UNL A   1      46.033  28.447  34.110  1.00  0.00     0.134 A 
ATOM     61  F   UNL A   1      43.573  25.869  34.816  1.00  0.00    -0.206 F 
ATOM     62  C   UNL A   1      45.839  26.000  35.409  1.00  0.00     0.040 A 
ATOM     63  C   UNL A   1      47.159  27.891  34.719  1.00  0.00     0.040 A 
ATOM     64  F   UNL A   1      46.175  29.621  33.477  1.00  0.00    -0.206 F 
ATOM     65  C   UNL A   1      47.062  26.666  35.376  1.00  0.00     0.006 A 
ENDBRANCH  44  58
BRANCH  45  66
ATOM     66  C   UNL A   1      36.898  31.389  29.119  1.00  0.00     0.057 A 
ATOM     67  C   UNL A   1      36.864  32.715  28.672  1.00  0.00     0.134 A 
ATOM     68  C   UNL A   1      35.794  30.581  28.822  1.00  0.00     0.134 A 
ATOM     69  F   UNL A   1      37.888  33.543  28.924  1.00  0.00    -0.206 F 
ATOM     70  C   UNL A   1      35.777  33.219  27.956  1.00  0.00     0.040 A 
ATOM     71  C   UNL A   1      34.712  31.064  28.085  1.00  0.00     0.040 A 
ATOM     72  F   UNL A   1      35.777  29.296  29.204  1.00  0.00    -0.206 F 
ATOM     73  C   UNL A   1      34.700  32.388  27.653  1.00  0.00     0.006 A 
ENDBRANCH  45  66
BRANCH  57  74
ATOM     74  C   UNL A   1      39.214  32.112  35.634  1.00  0.00     0.057 A 
ATOM     75  C   UNL A   1      39.548  33.462  35.802  1.00  0.00     0.134 A 
ATOM     76  C   UNL A   1      38.390  31.524  36.602  1.00  0.00     0.134 A 
ATOM     77  F   UNL A   1      40.341  34.083  34.915  1.00  0.00    -0.206 F 
ATOM     78  C   UNL A   1      39.080  34.200  36.889  1.00  0.00     0.040 A 
ATOM     79  C   UNL A   1      37.892  32.259  37.679  1.00  0.00     0.040 A 
ATOM     80  F   UNL A   1      38.022  30.238  36.491  1.00  0.00    -0.206 F 
ATOM     81  C   UNL A   1      38.241  33.599  37.827  1.00  0.00     0.006 A 
ENDBRANCH  57  74
ENDBRANCH  31  32
ENDBRANCH  24  26
ENDBRANCH  23  24
ENDBRANCH  22  23
ENDBRANCH  21  22
ENDBRANCH   1  21
TORSDOF 16
ENDMDL
MODEL 2
REMARK VINA RESULT:     -10.7      1.591      6.707
REMARK SMILES Cc1c(Cl)ccc2c(OCC(=O)OCCOCCOC(=O)c3ccc(-c4c5nc(c(-c6c(F)cccc6F)c6ccc([nH]6)c(-c6c(F)cccc6F)c6nc(c(-c7c(F)cccc7F)c7ccc4[nH]7)C=C6)C=C5)cc3)ccnc12
REMARK SMILES IDX 16 1 15 2 14 3 13 4 11 5 12 6 10 7 9 8 8 9 1 10 2 11 3 12
REMARK SMILES IDX 79 13 4 14 5 15 7 16 78 17 6 18 77 19 76 20 17 21 18 22
REMARK SMILES IDX 19 23 20 24 21 25 22 26 23 27 75 28 24 29 74 30 25 31 26 32
REMARK SMILES IDX 27 33 68 34 28 35 73 36 67 37 69 38 29 39 72 40 66 41 65 42
REMARK SMILES IDX 30 44 56 45 39 46 55 47 40 48 43 49 54 50 70 51 41 52 42 53
REMARK SMILES IDX 53 55 71 56 44 57 31 58 32 59 37 60 33 61 34 62 36 63 38 64
REMARK SMILES IDX 35 65 57 66 58 67 63 68 59 69 60 70 62 71 64 72 61 73 45 74
REMARK SMILES IDX 46 75 51 76 47 77 48 78 50 79 52 80 49 81
REMARK H PARENT 69 43 43 54
REMARK Flexibility Score: inf
ROOT
ATOM      1  O   UNL A   1      45.378  23.636  24.281  1.00  0.00    -0.374 OA
ENDROOT
BRANCH   1   2
ATOM      2  C   UNL A   1      44.689  22.466  23.844  1.00  0.00     0.202 C 
BRANCH   2   3
ATOM      3  C   UNL A   1      44.896  21.186  24.664  1.00  0.00     0.261 C 
BRANCH   3   4
ATOM      4  O   UNL A   1      43.788  20.263  24.596  1.00  0.00    -0.461 OA
BRANCH   4   5
ATOM      5  C   UNL A   1      43.990  19.051  25.187  1.00  0.00     0.344 C 
ATOM      6  O   UNL A   1      44.945  18.314  24.962  1.00  0.00    -0.248 OA
BRANCH   5   7
ATOM      7  C   UNL A   1      42.859  18.641  26.135  1.00  0.00     0.352 C 
BRANCH   7   8
ATOM      8  O   UNL A   1      41.520  19.019  25.879  1.00  0.00    -0.481 OA
BRANCH   8   9
ATOM      9  C   UNL A   1      41.018  20.193  26.385  1.00  0.00     0.131 A 
ATOM     10  C   UNL A   1      37.549  23.681  25.818  1.00  0.00     0.048 C 
ATOM     11  C   UNL A   1      37.991  22.240  25.717  1.00  0.00    -0.006 A 
ATOM     12  C   UNL A   1      37.181  21.307  25.043  1.00  0.00     0.046 A 
ATOM     13  C   UNL A   1      39.232  21.840  26.242  1.00  0.00     0.078 A 
ATOM     14  Cl  UNL A   1      35.616  21.726  24.436  1.00  0.00    -0.084 Cl
ATOM     15  C   UNL A   1      37.617  20.004  24.837  1.00  0.00     0.022 A 
ATOM     16  C   UNL A   1      39.714  20.541  25.953  1.00  0.00     0.043 A 
ATOM     17  N   UNL A   1      39.953  22.685  27.005  1.00  0.00    -0.256 NA
ATOM     18  C   UNL A   1      38.889  19.636  25.256  1.00  0.00     0.016 A 
ATOM     19  C   UNL A   1      41.130  22.271  27.515  1.00  0.00     0.115 A 
ATOM     20  C   UNL A   1      41.709  21.052  27.226  1.00  0.00     0.067 A 
ENDBRANCH   8   9
ENDBRANCH   7   8
ENDBRANCH   5   7
ENDBRANCH   4   5
ENDBRANCH   3   4
ENDBRANCH   2   3
ENDBRANCH   1   2
BRANCH   1  21
ATOM     21  C   UNL A   1      44.721  24.443  25.256  1.00  0.00     0.202 C 
BRANCH  21  22
ATOM     22  C   UNL A   1      43.191  24.511  25.185  1.00  0.00     0.261 C 
BRANCH  22  23
ATOM     23  O   UNL A   1      42.715  25.865  25.192  1.00  0.00    -0.460 OA
BRANCH  23  24
ATOM     24  C   UNL A   1      41.508  26.028  25.773  1.00  0.00     0.338 C 
ATOM     25  O   UNL A   1      40.423  25.615  25.386  1.00  0.00    -0.246 OA
BRANCH  24  26
ATOM     26  C   UNL A   1      41.680  26.651  27.090  1.00  0.00     0.060 A 
ATOM     27  C   UNL A   1      40.819  26.239  28.113  1.00  0.00     0.016 A 
ATOM     28  C   UNL A   1      42.587  27.695  27.284  1.00  0.00     0.016 A 
ATOM     29  C   UNL A   1      40.819  26.914  29.327  1.00  0.00     0.010 A 
ATOM     30  C   UNL A   1      42.575  28.383  28.498  1.00  0.00     0.010 A 
ATOM     31  C   UNL A   1      41.658  28.022  29.502  1.00  0.00    -0.014 A 
BRANCH  31  32
ATOM     32  C   UNL A   1      41.412  28.919  30.651  1.00  0.00     0.031 A 
ATOM     33  C   UNL A   1      40.277  29.899  30.556  1.00  0.00     0.074 A 
ATOM     34  C   UNL A   1      42.142  28.810  31.773  1.00  0.00     0.049 A 
ATOM     35  N   UNL A   1      39.838  30.750  31.447  1.00  0.00    -0.248 NA
ATOM     36  C   UNL A   1      39.532  29.918  29.285  1.00  0.00     0.031 C 
ATOM     37  C   UNL A   1      43.235  27.862  31.981  1.00  0.00     0.029 A 
ATOM     38  N   UNL A   1      42.064  29.505  32.950  1.00  0.00    -0.354 N 
ATOM     39  C   UNL A   1      38.758  31.391  30.852  1.00  0.00     0.074 A 
ATOM     40  C   UNL A   1      38.634  30.865  29.511  1.00  0.00     0.031 C 
ATOM     41  C   UNL A   1      43.733  28.041  33.217  1.00  0.00     0.029 A 
ATOM     42  C   UNL A   1      43.006  29.124  33.873  1.00  0.00     0.049 A 
ATOM     43  H   UNL A   1      41.397  30.209  33.119  1.00  0.00     0.167 HD
ATOM     44  C   UNL A   1      37.935  32.325  31.382  1.00  0.00     0.037 A 
ATOM     45  C   UNL A   1      43.252  29.613  35.104  1.00  0.00     0.037 A 
ATOM     46  C   UNL A   1      38.083  32.863  32.708  1.00  0.00     0.049 A 
ATOM     47  C   UNL A   1      42.384  30.724  35.633  1.00  0.00     0.074 A 
ATOM     48  C   UNL A   1      37.312  33.815  33.347  1.00  0.00     0.029 A 
ATOM     49  N   UNL A   1      39.086  32.496  33.593  1.00  0.00    -0.354 N 
ATOM     50  N   UNL A   1      41.345  31.302  35.076  1.00  0.00    -0.248 NA
ATOM     51  C   UNL A   1      42.721  31.246  36.964  1.00  0.00     0.031 C 
ATOM     52  C   UNL A   1      37.878  34.061  34.605  1.00  0.00     0.029 A 
ATOM     53  C   UNL A   1      38.972  33.225  34.765  1.00  0.00     0.049 A 
ATOM     54  H   UNL A   1      39.777  31.818  33.415  1.00  0.00     0.167 HD
ATOM     55  C   UNL A   1      40.889  32.236  35.998  1.00  0.00     0.074 A 
ATOM     56  C   UNL A   1      41.754  32.133  37.156  1.00  0.00     0.031 C 
ATOM     57  C   UNL A   1      39.850  33.102  35.900  1.00  0.00     0.037 A 
BRANCH  44  58
ATOM     58  C   UNL A   1      36.825  32.836  30.510  1.00  0.00     0.057 A 
ATOM     59  C   UNL A   1      35.527  32.327  30.631  1.00  0.00     0.134 A 
ATOM     60  C   UNL A   1      37.042  33.834  29.549  1.00  0.00     0.134 A 
ATOM     61  F   UNL A   1      35.250  31.372  31.531  1.00  0.00    -0.206 F 
ATOM     62  C   UNL A   1      34.483  32.793  29.829  1.00  0.00     0.040 A 
ATOM     63  C   UNL A   1      36.001  34.325  28.760  1.00  0.00     0.040 A 
ATOM     64  F   UNL A   1      38.259  34.377  29.396  1.00  0.00    -0.206 F 
ATOM     65  C   UNL A   1      34.718  33.800  28.895  1.00  0.00     0.006 A 
ENDBRANCH  44  58
BRANCH  45  66
ATOM     66  C   UNL A   1      44.368  29.071  35.918  1.00  0.00     0.057 A 
ATOM     67  C   UNL A   1      44.169  28.010  36.810  1.00  0.00     0.134 A 
ATOM     68  C   UNL A   1      45.669  29.572  35.793  1.00  0.00     0.134 A 
ATOM     69  F   UNL A   1      42.946  27.485  36.978  1.00  0.00    -0.206 F 
ATOM     70  C   UNL A   1      45.222  27.468  37.549  1.00  0.00     0.040 A 
ATOM     71  C   UNL A   1      46.736  29.022  36.507  1.00  0.00     0.040 A 
ATOM     72  F   UNL A   1      45.928  30.572  34.939  1.00  0.00    -0.206 F 
ATOM     73  C   UNL A   1      46.512  27.968  37.391  1.00  0.00     0.006 A 
ENDBRANCH  45  66
BRANCH  57  74
ATOM     74  C   UNL A   1      39.587  33.980  37.088  1.00  0.00     0.057 A 
ATOM     75  C   UNL A   1      38.822  33.513  38.164  1.00  0.00     0.134 A 
ATOM     76  C   UNL A   1      40.075  35.291  37.161  1.00  0.00     0.134 A 
ATOM     77  F   UNL A   1      38.318  32.270  38.153  1.00  0.00    -0.206 F 
ATOM     78  C   UNL A   1      38.554  34.317  39.272  1.00  0.00     0.040 A 
ATOM     79  C   UNL A   1      39.837  36.096  38.276  1.00  0.00     0.040 A 
ATOM     80  F   UNL A   1      40.826  35.793  36.168  1.00  0.00    -0.206 F 
ATOM     81  C   UNL A   1      39.070  35.611  39.333  1.00  0.00     0.006 A 
ENDBRANCH  57  74
ENDBRANCH  31  32
ENDBRANCH  24  26
ENDBRANCH  23  24
ENDBRANCH  22  23
ENDBRANCH  21  22
ENDBRANCH   1  21
TORSDOF 16
ENDMDL
MODEL 3
REMARK VINA RESULT:     -10.6      2.397      3.662
REMARK SMILES Cc1c(Cl)ccc2c(OCC(=O)OCCOCCOC(=O)c3ccc(-c4c5nc(c(-c6c(F)cccc6F)c6ccc([nH]6)c(-c6c(F)cccc6F)c6nc(c(-c7c(F)cccc7F)c7ccc4[nH]7)C=C6)C=C5)cc3)ccnc12
REMARK SMILES IDX 16 1 15 2 14 3 13 4 11 5 12 6 10 7 9 8 8 9 1 10 2 11 3 12
REMARK SMILES IDX 79 13 4 14 5 15 7 16 78 17 6 18 77 19 76 20 17 21 18 22
REMARK SMILES IDX 19 23 20 24 21 25 22 26 23 27 75 28 24 29 74 30 25 31 26 32
REMARK SMILES IDX 27 33 68 34 28 35 73 36 67 37 69 38 29 39 72 40 66 41 65 42
REMARK SMILES IDX 30 44 56 45 39 46 55 47 40 48 43 49 54 50 70 51 41 52 42 53
REMARK SMILES IDX 53 55 71 56 44 57 31 58 32 59 37 60 33 61 34 62 36 63 38 64
REMARK SMILES IDX 35 65 57 66 58 67 63 68 59 69 60 70 62 71 64 72 61 73 45 74
REMARK SMILES IDX 46 75 51 76 47 77 48 78 50 79 52 80 49 81
REMARK H PARENT 69 43 43 54
REMARK Flexibility Score: inf
ROOT
ATOM      1  O   UNL A   1      41.967  21.121  25.440  1.00  0.00    -0.374 OA
ENDROOT
BRANCH   1   2
ATOM      2  C   UNL A   1      41.077  20.782  26.501  1.00  0.00     0.202 C 
BRANCH   2   3
ATOM      3  C   UNL A   1      40.030  21.831  26.897  1.00  0.00     0.261 C 
BRANCH   3   4
ATOM      4  O   UNL A   1      38.872  21.854  26.034  1.00  0.00    -0.461 OA
BRANCH   4   5
ATOM      5  C   UNL A   1      38.167  23.021  26.022  1.00  0.00     0.344 C 
ATOM      6  O   UNL A   1      38.662  24.138  26.128  1.00  0.00    -0.248 OA
BRANCH   5   7
ATOM      7  C   UNL A   1      36.652  22.814  25.926  1.00  0.00     0.352 C 
BRANCH   7   8
ATOM      8  O   UNL A   1      35.756  23.884  26.158  1.00  0.00    -0.481 OA
BRANCH   8   9
ATOM      9  C   UNL A   1      34.422  23.641  26.380  1.00  0.00     0.131 A 
ATOM     10  C   UNL A   1      29.867  25.566  26.126  1.00  0.00     0.048 C 
ATOM     11  C   UNL A   1      31.272  25.444  25.587  1.00  0.00    -0.006 A 
ATOM     12  C   UNL A   1      31.716  26.330  24.588  1.00  0.00     0.046 A 
ATOM     13  C   UNL A   1      32.156  24.488  26.118  1.00  0.00     0.078 A 
ATOM     14  Cl  UNL A   1      30.656  27.481  23.850  1.00  0.00    -0.084 Cl
ATOM     15  C   UNL A   1      33.037  26.313  24.156  1.00  0.00     0.022 A 
ATOM     16  C   UNL A   1      33.520  24.531  25.746  1.00  0.00     0.043 A 
ATOM     17  N   UNL A   1      31.708  23.548  26.973  1.00  0.00    -0.256 NA
ATOM     18  C   UNL A   1      33.940  25.445  24.758  1.00  0.00     0.016 A 
ATOM     19  C   UNL A   1      32.569  22.629  27.453  1.00  0.00     0.115 A 
ATOM     20  C   UNL A   1      33.927  22.640  27.201  1.00  0.00     0.067 A 
ENDBRANCH   8   9
ENDBRANCH   7   8
ENDBRANCH   5   7
ENDBRANCH   4   5
ENDBRANCH   3   4
ENDBRANCH   2   3
ENDBRANCH   1   2
BRANCH   1  21
ATOM     21  C   UNL A   1      43.358  21.156  25.752  1.00  0.00     0.202 C 
BRANCH  21  22
ATOM     22  C   UNL A   1      44.214  22.176  24.995  1.00  0.00     0.261 C 
BRANCH  22  23
ATOM     23  O   UNL A   1      43.485  23.381  24.713  1.00  0.00    -0.460 OA
BRANCH  23  24
ATOM     24  C   UNL A   1      44.138  24.517  25.040  1.00  0.00     0.338 C 
ATOM     25  O   UNL A   1      45.221  24.908  24.626  1.00  0.00    -0.246 OA
BRANCH  24  26
ATOM     26  C   UNL A   1      43.270  25.358  25.869  1.00  0.00     0.060 A 
ATOM     27  C   UNL A   1      43.621  26.706  26.006  1.00  0.00     0.016 A 
ATOM     28  C   UNL A   1      42.204  24.812  26.587  1.00  0.00     0.016 A 
ATOM     29  C   UNL A   1      42.939  27.507  26.913  1.00  0.00     0.010 A 
ATOM     30  C   UNL A   1      41.530  25.613  27.510  1.00  0.00     0.010 A 
ATOM     31  C   UNL A   1      41.929  26.947  27.706  1.00  0.00    -0.014 A 
BRANCH  31  32
ATOM     32  C   UNL A   1      41.451  27.708  28.880  1.00  0.00     0.031 A 
ATOM     33  C   UNL A   1      42.206  27.569  30.172  1.00  0.00     0.074 A 
ATOM     34  C   UNL A   1      40.412  28.551  28.772  1.00  0.00     0.049 A 
ATOM     35  N   UNL A   1      42.010  28.168  31.318  1.00  0.00    -0.248 NA
ATOM     36  C   UNL A   1      43.341  26.630  30.169  1.00  0.00     0.031 C 
ATOM     37  C   UNL A   1      39.640  28.791  27.554  1.00  0.00     0.029 A 
ATOM     38  N   UNL A   1      39.832  29.367  29.708  1.00  0.00    -0.354 N 
ATOM     39  C   UNL A   1      43.004  27.693  32.164  1.00  0.00     0.074 A 
ATOM     40  C   UNL A   1      43.775  26.725  31.417  1.00  0.00     0.031 C 
ATOM     41  C   UNL A   1      38.679  29.693  27.820  1.00  0.00     0.029 A 
ATOM     42  C   UNL A   1      38.760  30.075  29.227  1.00  0.00     0.049 A 
ATOM     43  H   UNL A   1      40.154  29.437  30.635  1.00  0.00     0.167 HD
ATOM     44  C   UNL A   1      43.259  28.044  33.446  1.00  0.00     0.037 A 
ATOM     45  C   UNL A   1      37.934  30.926  29.865  1.00  0.00     0.037 A 
ATOM     46  C   UNL A   1      42.470  28.988  34.190  1.00  0.00     0.049 A 
ATOM     47  C   UNL A   1      38.179  31.224  31.321  1.00  0.00     0.074 A 
ATOM     48  C   UNL A   1      42.631  29.416  35.494  1.00  0.00     0.029 A 
ATOM     49  N   UNL A   1      41.353  29.642  33.688  1.00  0.00    -0.354 N 
ATOM     50  N   UNL A   1      39.141  30.795  32.105  1.00  0.00    -0.248 NA
ATOM     51  C   UNL A   1      37.226  32.127  31.979  1.00  0.00     0.031 C 
ATOM     52  C   UNL A   1      41.583  30.294  35.798  1.00  0.00     0.029 A 
ATOM     53  C   UNL A   1      40.798  30.449  34.666  1.00  0.00     0.049 A 
ATOM     54  H   UNL A   1      41.007  29.547  32.772  1.00  0.00     0.167 HD
ATOM     55  C   UNL A   1      38.923  31.395  33.339  1.00  0.00     0.074 A 
ATOM     56  C   UNL A   1      37.750  32.233  33.192  1.00  0.00     0.031 C 
ATOM     57  C   UNL A   1      39.628  31.270  34.491  1.00  0.00     0.037 A 
BRANCH  44  58
ATOM     58  C   UNL A   1      44.422  27.378  34.121  1.00  0.00     0.057 A 
ATOM     59  C   UNL A   1      44.278  26.125  34.727  1.00  0.00     0.134 A 
ATOM     60  C   UNL A   1      45.689  27.978  34.171  1.00  0.00     0.134 A 
ATOM     61  F   UNL A   1      43.093  25.495  34.715  1.00  0.00    -0.206 F 
ATOM     62  C   UNL A   1      45.350  25.490  35.358  1.00  0.00     0.040 A 
ATOM     63  C   UNL A   1      46.774  27.343  34.776  1.00  0.00     0.040 A 
ATOM     64  F   UNL A   1      45.899  29.170  33.592  1.00  0.00    -0.206 F 
ATOM     65  C   UNL A   1      46.605  26.097  35.377  1.00  0.00     0.006 A 
ENDBRANCH  44  58
BRANCH  45  66
ATOM     66  C   UNL A   1      36.796  31.551  29.146  1.00  0.00     0.057 A 
ATOM     67  C   UNL A   1      36.849  32.884  28.720  1.00  0.00     0.134 A 
ATOM     68  C   UNL A   1      35.646  30.819  28.831  1.00  0.00     0.134 A 
ATOM     69  F   UNL A   1      37.922  33.641  28.991  1.00  0.00    -0.206 F 
ATOM     70  C   UNL A   1      35.800  33.466  28.006  1.00  0.00     0.040 A 
ATOM     71  C   UNL A   1      34.600  31.381  28.096  1.00  0.00     0.040 A 
ATOM     72  F   UNL A   1      35.545  29.532  29.192  1.00  0.00    -0.206 F 
ATOM     73  C   UNL A   1      34.675  32.710  27.685  1.00  0.00     0.006 A 
ENDBRANCH  45  66
BRANCH  57  74
ATOM     74  C   UNL A   1      39.155  32.077  35.664  1.00  0.00     0.057 A 
ATOM     75  C   UNL A   1      38.243  31.539  36.580  1.00  0.00     0.134 A 
ATOM     76  C   UNL A   1      39.590  33.392  35.879  1.00  0.00     0.134 A 
ATOM     77  F   UNL A   1      37.781  30.289  36.426  1.00  0.00    -0.206 F 
ATOM     78  C   UNL A   1      37.780  32.277  37.669  1.00  0.00     0.040 A 
ATOM     79  C   UNL A   1      39.156  34.131  36.981  1.00  0.00     0.040 A 
ATOM     80  F   UNL A   1      40.475  33.960  35.046  1.00  0.00    -0.206 F 
ATOM     81  C   UNL A   1      38.245  33.575  37.877  1.00  0.00     0.006 A 
ENDBRANCH  57  74
ENDBRANCH  31  32
ENDBRANCH  24  26
ENDBRANCH  23  24
ENDBRANCH  22  23
ENDBRANCH  21  22
ENDBRANCH   1  21
TORSDOF 16
ENDMDL
