MODEL 1
REMARK VINA RESULT:     -11.5      0.000      0.000
REMARK SMILES C[C@@H](Oc1ccc(I)cc1)C(=O)NCc1ccc(C(=O)OCCOCCOC(=O)c2ccc(-c3c4nc(c(-c5c(F)cccc5F)c5ccc([nH]5)c(-c5c(F)cccc5F)c5nc(c(-c6c(F)cccc6F)c6ccc3[nH]6)C=C5)C=C4)cc2)cc1
REMARK SMILES IDX 22 1 21 2 19 3 20 4 18 5 15 6 16 7 85 8 17 9 84 10 14 11
REMARK SMILES IDX 13 12 11 13 12 14 2 16 1 17 3 18 4 19 5 20 10 21 6 22 9 23
REMARK SMILES IDX 7 24 8 25 23 26 24 27 25 28 26 29 27 30 28 31 29 32 30 33
REMARK SMILES IDX 31 34 83 35 32 36 82 37 33 38 34 39 35 40 76 41 36 42 81 43
REMARK SMILES IDX 75 44 77 45 37 46 80 47 74 48 73 49 38 51 64 52 47 53 63 54
REMARK SMILES IDX 48 55 51 56 62 57 78 58 49 59 50 60 61 62 79 63 52 64 39 65
REMARK SMILES IDX 40 66 45 67 41 68 42 69 44 70 46 71 43 72 65 73 66 74 71 75
REMARK SMILES IDX 67 76 68 77 70 78 72 79 69 80 53 81 54 82 59 83 55 84 56 85
REMARK SMILES IDX 58 86 60 87 57 88
REMARK H PARENT 13 15 77 50 51 61
REMARK Flexibility Score: inf
ROOT
ATOM      1  C   UNL A   1      34.246  34.461  28.028  1.00  0.00     0.261 C 
ENDROOT
BRANCH   1   2
ATOM      2  O   UNL A   1      33.766  33.142  28.330  1.00  0.00    -0.460 OA
BRANCH   2   3
ATOM      3  C   UNL A   1      32.706  32.746  27.586  1.00  0.00     0.338 C 
ATOM      4  O   UNL A   1      31.822  33.461  27.137  1.00  0.00    -0.246 OA
BRANCH   3   5
ATOM      5  C   UNL A   1      32.806  31.308  27.252  1.00  0.00     0.060 A 
ATOM      6  C   UNL A   1      32.781  28.561  26.665  1.00  0.00    -0.029 A 
ATOM      7  C   UNL A   1      31.730  29.388  26.245  1.00  0.00     0.006 A 
ATOM      8  C   UNL A   1      33.881  29.144  27.317  1.00  0.00     0.006 A 
ATOM      9  C   UNL A   1      31.737  30.747  26.547  1.00  0.00     0.016 A 
ATOM     10  C   UNL A   1      33.899  30.513  27.610  1.00  0.00     0.016 A 
BRANCH   6  11
ATOM     11  C   UNL A   1      32.779  27.078  26.383  1.00  0.00     0.151 C 
BRANCH  11  12
ATOM     12  N   UNL A   1      31.520  26.444  26.736  1.00  0.00    -0.349 N 
ATOM     13  C   UNL A   1      30.632  25.759  25.955  1.00  0.00     0.261 C 
ATOM     14  O   UNL A   1      29.604  25.332  26.488  1.00  0.00    -0.271 OA
ATOM     15  H   UNL A   1      31.267  26.520  27.684  1.00  0.00     0.163 HD
BRANCH  13  16
ATOM     16  C   UNL A   1      30.863  25.600  24.444  1.00  0.00     0.258 C 
ATOM     17  C   UNL A   1      31.404  24.194  24.183  1.00  0.00     0.064 C 
BRANCH  16  18
ATOM     18  O   UNL A   1      29.621  25.881  23.788  1.00  0.00    -0.481 OA
BRANCH  18  19
ATOM     19  C   UNL A   1      29.397  27.193  23.502  1.00  0.00     0.120 A 
ATOM     20  C   UNL A   1      30.428  28.003  23.033  1.00  0.00     0.047 A 
ATOM     21  C   UNL A   1      28.081  27.648  23.493  1.00  0.00     0.047 A 
ATOM     22  C   UNL A   1      30.150  29.297  22.593  1.00  0.00     0.018 A 
ATOM     23  C   UNL A   1      27.797  28.939  23.041  1.00  0.00     0.018 A 
ATOM     24  C   UNL A   1      28.834  29.760  22.594  1.00  0.00     0.013 A 
ATOM     25  I   UNL A   1      28.414  31.665  21.881  1.00  0.00    -0.044 I 
ENDBRANCH  18  19
ENDBRANCH  16  18
ENDBRANCH  13  16
ENDBRANCH  11  12
ENDBRANCH   6  11
ENDBRANCH   3   5
ENDBRANCH   2   3
ENDBRANCH   1   2
BRANCH   1  26
ATOM     26  C   UNL A   1      33.795  35.476  29.081  1.00  0.00     0.202 C 
BRANCH  26  27
ATOM     27  O   UNL A   1      33.028  34.955  30.166  1.00  0.00    -0.374 OA
BRANCH  27  28
ATOM     28  C   UNL A   1      33.642  34.963  31.456  1.00  0.00     0.202 C 
BRANCH  28  29
ATOM     29  C   UNL A   1      35.025  34.306  31.545  1.00  0.00     0.261 C 
BRANCH  29  30
ATOM     30  O   UNL A   1      34.925  32.880  31.722  1.00  0.00    -0.460 OA
BRANCH  30  31
ATOM     31  C   UNL A   1      35.803  32.351  32.606  1.00  0.00     0.338 C 
ATOM     32  O   UNL A   1      35.729  32.366  33.827  1.00  0.00    -0.246 OA
BRANCH  31  33
ATOM     33  C   UNL A   1      36.822  31.563  31.888  1.00  0.00     0.060 A 
ATOM     34  C   UNL A   1      37.897  31.063  32.637  1.00  0.00     0.016 A 
ATOM     35  C   UNL A   1      36.769  31.369  30.506  1.00  0.00     0.016 A 
ATOM     36  C   UNL A   1      38.949  30.413  31.997  1.00  0.00     0.010 A 
ATOM     37  C   UNL A   1      37.831  30.723  29.865  1.00  0.00     0.010 A 
ATOM     38  C   UNL A   1      38.942  30.274  30.602  1.00  0.00    -0.014 A 
BRANCH  38  39
ATOM     39  C   UNL A   1      40.161  29.790  29.912  1.00  0.00     0.031 A 
ATOM     40  C   UNL A   1      41.314  30.736  29.718  1.00  0.00     0.074 A 
ATOM     41  C   UNL A   1      40.256  28.517  29.493  1.00  0.00     0.049 A 
ATOM     42  N   UNL A   1      42.466  30.533  29.133  1.00  0.00    -0.248 NA
ATOM     43  C   UNL A   1      41.144  32.096  30.257  1.00  0.00     0.031 C 
ATOM     44  C   UNL A   1      39.223  27.496  29.653  1.00  0.00     0.029 A 
ATOM     45  N   UNL A   1      41.276  27.868  28.842  1.00  0.00    -0.354 N 
ATOM     46  C   UNL A   1      43.156  31.735  29.229  1.00  0.00     0.074 A 
ATOM     47  C   UNL A   1      42.283  32.673  29.901  1.00  0.00     0.031 C 
ATOM     48  C   UNL A   1      39.659  26.347  29.107  1.00  0.00     0.029 A 
ATOM     49  C   UNL A   1      40.988  26.560  28.537  1.00  0.00     0.049 A 
ATOM     50  H   UNL A   1      42.131  28.298  28.616  1.00  0.00     0.167 HD
ATOM     51  C   UNL A   1      44.409  32.028  28.806  1.00  0.00     0.037 A 
ATOM     52  C   UNL A   1      41.710  25.648  27.859  1.00  0.00     0.037 A 
ATOM     53  C   UNL A   1      45.279  31.095  28.140  1.00  0.00     0.049 A 
ATOM     54  C   UNL A   1      43.074  26.018  27.341  1.00  0.00     0.074 A 
ATOM     55  C   UNL A   1      46.575  31.292  27.694  1.00  0.00     0.029 A 
ATOM     56  N   UNL A   1      44.940  29.791  27.820  1.00  0.00    -0.354 N 
ATOM     57  N   UNL A   1      43.727  27.147  27.462  1.00  0.00    -0.248 NA
ATOM     58  C   UNL A   1      43.802  24.982  26.592  1.00  0.00     0.031 C 
ATOM     59  C   UNL A   1      47.003  30.120  27.062  1.00  0.00     0.029 A 
ATOM     60  C   UNL A   1      45.991  29.177  27.158  1.00  0.00     0.049 A 
ATOM     61  H   UNL A   1      44.079  29.362  28.031  1.00  0.00     0.167 HD
ATOM     62  C   UNL A   1      44.951  26.951  26.833  1.00  0.00     0.074 A 
ATOM     63  C   UNL A   1      44.953  25.590  26.340  1.00  0.00     0.031 C 
ATOM     64  C   UNL A   1      45.980  27.820  26.677  1.00  0.00     0.037 A 
BRANCH  51  65
ATOM     65  C   UNL A   1      44.904  33.425  29.033  1.00  0.00     0.057 A 
ATOM     66  C   UNL A   1      45.696  33.759  30.140  1.00  0.00     0.134 A 
ATOM     67  C   UNL A   1      44.608  34.445  28.120  1.00  0.00     0.134 A 
ATOM     68  F   UNL A   1      46.004  32.832  31.060  1.00  0.00    -0.206 F 
ATOM     69  C   UNL A   1      46.160  35.060  30.340  1.00  0.00     0.040 A 
ATOM     70  C   UNL A   1      45.086  35.745  28.296  1.00  0.00     0.040 A 
ATOM     71  F   UNL A   1      43.857  34.193  27.038  1.00  0.00    -0.206 F 
ATOM     72  C   UNL A   1      45.860  36.056  29.412  1.00  0.00     0.006 A 
ENDBRANCH  51  65
BRANCH  52  73
ATOM     73  C   UNL A   1      41.156  24.291  27.619  1.00  0.00     0.057 A 
ATOM     74  C   UNL A   1      41.629  23.179  28.323  1.00  0.00     0.134 A 
ATOM     75  C   UNL A   1      40.154  24.074  26.665  1.00  0.00     0.134 A 
ATOM     76  F   UNL A   1      42.604  23.321  29.233  1.00  0.00    -0.206 F 
ATOM     77  C   UNL A   1      41.139  21.895  28.076  1.00  0.00     0.040 A 
ATOM     78  C   UNL A   1      39.638  22.799  26.424  1.00  0.00     0.040 A 
ATOM     79  F   UNL A   1      39.658  25.099  25.958  1.00  0.00    -0.206 F 
ATOM     80  C   UNL A   1      40.137  21.704  27.127  1.00  0.00     0.006 A 
ENDBRANCH  52  73
BRANCH  64  81
ATOM     81  C   UNL A   1      47.207  27.315  25.974  1.00  0.00     0.057 A 
ATOM     82  C   UNL A   1      48.233  26.654  26.661  1.00  0.00     0.134 A 
ATOM     83  C   UNL A   1      47.343  27.459  24.587  1.00  0.00     0.134 A 
ATOM     84  F   UNL A   1      48.169  26.495  27.991  1.00  0.00    -0.206 F 
ATOM     85  C   UNL A   1      49.362  26.173  25.995  1.00  0.00     0.040 A 
ATOM     86  C   UNL A   1      48.455  26.960  23.907  1.00  0.00     0.040 A 
ATOM     87  F   UNL A   1      46.392  28.075  23.870  1.00  0.00    -0.206 F 
ATOM     88  C   UNL A   1      49.472  26.319  24.614  1.00  0.00     0.006 A 
ENDBRANCH  64  81
ENDBRANCH  38  39
ENDBRANCH  31  33
ENDBRANCH  30  31
ENDBRANCH  29  30
ENDBRANCH  28  29
ENDBRANCH  27  28
ENDBRANCH  26  27
ENDBRANCH   1  26
TORSDOF 19
ENDMDL
MODEL 2
REMARK VINA RESULT:     -11.1      4.532      6.878
REMARK SMILES C[C@@H](Oc1ccc(I)cc1)C(=O)NCc1ccc(C(=O)OCCOCCOC(=O)c2ccc(-c3c4nc(c(-c5c(F)cccc5F)c5ccc([nH]5)c(-c5c(F)cccc5F)c5nc(c(-c6c(F)cccc6F)c6ccc3[nH]6)C=C5)C=C4)cc2)cc1
REMARK SMILES IDX 22 1 21 2 19 3 20 4 18 5 15 6 16 7 85 8 17 9 84 10 14 11
REMARK SMILES IDX 13 12 11 13 12 14 2 16 1 17 3 18 4 19 5 20 10 21 6 22 9 23
REMARK SMILES IDX 7 24 8 25 23 26 24 27 25 28 26 29 27 30 28 31 29 32 30 33
REMARK SMILES IDX 31 34 83 35 32 36 82 37 33 38 34 39 35 40 76 41 36 42 81 43
REMARK SMILES IDX 75 44 77 45 37 46 80 47 74 48 73 49 38 51 64 52 47 53 63 54
REMARK SMILES IDX 48 55 51 56 62 57 78 58 49 59 50 60 61 62 79 63 52 64 39 65
REMARK SMILES IDX 40 66 45 67 41 68 42 69 44 70 46 71 43 72 65 73 66 74 71 75
REMARK SMILES IDX 67 76 68 77 70 78 72 79 69 80 53 81 54 82 59 83 55 84 56 85
REMARK SMILES IDX 58 86 60 87 57 88
REMARK H PARENT 13 15 77 50 51 61
REMARK Flexibility Score: inf
ROOT
ATOM      1  C   UNL A   1      34.566  32.754  29.288  1.00  0.00     0.261 C 
ENDROOT
BRANCH   1   2
ATOM      2  O   UNL A   1      34.525  32.275  27.935  1.00  0.00    -0.460 OA
BRANCH   2   3
ATOM      3  C   UNL A   1      33.283  31.974  27.484  1.00  0.00     0.338 C 
ATOM      4  O   UNL A   1      32.365  32.759  27.295  1.00  0.00    -0.246 OA
BRANCH   3   5
ATOM      5  C   UNL A   1      33.194  30.547  27.104  1.00  0.00     0.060 A 
ATOM      6  C   UNL A   1      32.822  27.835  26.473  1.00  0.00    -0.029 A 
ATOM      7  C   UNL A   1      31.783  28.759  26.287  1.00  0.00     0.006 A 
ATOM      8  C   UNL A   1      34.073  28.305  26.908  1.00  0.00     0.006 A 
ATOM      9  C   UNL A   1      31.964  30.100  26.612  1.00  0.00     0.016 A 
ATOM     10  C   UNL A   1      34.264  29.655  27.222  1.00  0.00     0.016 A 
BRANCH   6  11
ATOM     11  C   UNL A   1      32.639  26.369  26.163  1.00  0.00     0.151 C 
BRANCH  11  12
ATOM     12  N   UNL A   1      31.355  25.859  26.614  1.00  0.00    -0.349 N 
ATOM     13  C   UNL A   1      30.226  25.569  25.902  1.00  0.00     0.261 C 
ATOM     14  O   UNL A   1      29.238  25.168  26.524  1.00  0.00    -0.271 OA
ATOM     15  H   UNL A   1      31.289  25.698  27.583  1.00  0.00     0.163 HD
BRANCH  13  16
ATOM     16  C   UNL A   1      30.159  25.816  24.387  1.00  0.00     0.258 C 
ATOM     17  C   UNL A   1      30.594  24.539  23.669  1.00  0.00     0.064 C 
BRANCH  16  18
ATOM     18  O   UNL A   1      28.824  26.234  24.079  1.00  0.00    -0.481 OA
BRANCH  18  19
ATOM     19  C   UNL A   1      28.715  27.468  23.514  1.00  0.00     0.120 A 
ATOM     20  C   UNL A   1      27.478  28.102  23.424  1.00  0.00     0.047 A 
ATOM     21  C   UNL A   1      29.887  28.161  23.218  1.00  0.00     0.047 A 
ATOM     22  C   UNL A   1      27.404  29.425  22.991  1.00  0.00     0.018 A 
ATOM     23  C   UNL A   1      29.817  29.491  22.796  1.00  0.00     0.018 A 
ATOM     24  C   UNL A   1      28.575  30.117  22.682  1.00  0.00     0.013 A 
ATOM     25  I   UNL A   1      28.468  32.107  22.096  1.00  0.00    -0.044 I 
ENDBRANCH  18  19
ENDBRANCH  16  18
ENDBRANCH  13  16
ENDBRANCH  11  12
ENDBRANCH   6  11
ENDBRANCH   3   5
ENDBRANCH   2   3
ENDBRANCH   1   2
BRANCH   1  26
ATOM     26  C   UNL A   1      35.233  34.128  29.376  1.00  0.00     0.202 C 
BRANCH  26  27
ATOM     27  O   UNL A   1      34.785  35.105  28.437  1.00  0.00    -0.374 OA
BRANCH  27  28
ATOM     28  C   UNL A   1      33.436  35.558  28.568  1.00  0.00     0.202 C 
BRANCH  28  29
ATOM     29  C   UNL A   1      33.095  36.282  29.876  1.00  0.00     0.261 C 
BRANCH  29  30
ATOM     30  O   UNL A   1      32.521  35.385  30.846  1.00  0.00    -0.460 OA
BRANCH  30  31
ATOM     31  C   UNL A   1      32.685  35.757  32.137  1.00  0.00     0.338 C 
ATOM     32  O   UNL A   1      31.939  36.455  32.810  1.00  0.00    -0.246 OA
BRANCH  31  33
ATOM     33  C   UNL A   1      33.838  35.046  32.720  1.00  0.00     0.060 A 
ATOM     34  C   UNL A   1      35.075  35.704  32.709  1.00  0.00     0.016 A 
ATOM     35  C   UNL A   1      33.731  33.742  33.209  1.00  0.00     0.016 A 
ATOM     36  C   UNL A   1      36.222  35.040  33.139  1.00  0.00     0.010 A 
ATOM     37  C   UNL A   1      34.886  33.074  33.632  1.00  0.00     0.010 A 
ATOM     38  C   UNL A   1      36.140  33.707  33.565  1.00  0.00    -0.014 A 
BRANCH  38  39
ATOM     39  C   UNL A   1      37.386  32.939  33.801  1.00  0.00     0.031 A 
ATOM     40  C   UNL A   1      38.176  33.196  35.055  1.00  0.00     0.074 A 
ATOM     41  C   UNL A   1      37.793  32.002  32.928  1.00  0.00     0.049 A 
ATOM     42  N   UNL A   1      39.296  32.653  35.457  1.00  0.00    -0.248 NA
ATOM     43  C   UNL A   1      37.628  34.201  35.980  1.00  0.00     0.031 C 
ATOM     44  C   UNL A   1      37.097  31.636  31.696  1.00  0.00     0.029 A 
ATOM     45  N   UNL A   1      38.897  31.186  32.948  1.00  0.00    -0.354 N 
ATOM     46  C   UNL A   1      39.589  33.251  36.676  1.00  0.00     0.074 A 
ATOM     47  C   UNL A   1      38.547  34.220  36.935  1.00  0.00     0.031 C 
ATOM     48  C   UNL A   1      37.796  30.672  31.072  1.00  0.00     0.029 A 
ATOM     49  C   UNL A   1      38.999  30.373  31.847  1.00  0.00     0.049 A 
ATOM     50  H   UNL A   1      39.552  31.185  33.682  1.00  0.00     0.167 HD
ATOM     51  C   UNL A   1      40.627  33.006  37.511  1.00  0.00     0.037 A 
ATOM     52  C   UNL A   1      39.964  29.501  31.497  1.00  0.00     0.037 A 
ATOM     53  C   UNL A   1      41.663  32.040  37.256  1.00  0.00     0.049 A 
ATOM     54  C   UNL A   1      41.142  29.294  32.412  1.00  0.00     0.074 A 
ATOM     55  C   UNL A   1      42.745  31.705  38.053  1.00  0.00     0.029 A 
ATOM     56  N   UNL A   1      41.749  31.260  36.114  1.00  0.00    -0.354 N 
ATOM     57  N   UNL A   1      41.394  29.843  33.574  1.00  0.00    -0.248 NA
ATOM     58  C   UNL A   1      42.170  28.342  31.962  1.00  0.00     0.031 C 
ATOM     59  C   UNL A   1      43.511  30.753  37.371  1.00  0.00     0.029 A 
ATOM     60  C   UNL A   1      42.881  30.461  36.172  1.00  0.00     0.049 A 
ATOM     61  H   UNL A   1      41.103  31.270  35.371  1.00  0.00     0.167 HD
ATOM     62  C   UNL A   1      42.590  29.285  34.009  1.00  0.00     0.074 A 
ATOM     63  C   UNL A   1      43.009  28.346  32.990  1.00  0.00     0.031 C 
ATOM     64  C   UNL A   1      43.281  29.528  35.151  1.00  0.00     0.037 A 
BRANCH  51  65
ATOM     65  C   UNL A   1      40.703  33.815  38.772  1.00  0.00     0.057 A 
ATOM     66  C   UNL A   1      40.011  33.443  39.932  1.00  0.00     0.134 A 
ATOM     67  C   UNL A   1      41.501  34.964  38.836  1.00  0.00     0.134 A 
ATOM     68  F   UNL A   1      39.218  32.361  39.933  1.00  0.00    -0.206 F 
ATOM     69  C   UNL A   1      40.093  34.197  41.104  1.00  0.00     0.040 A 
ATOM     70  C   UNL A   1      41.612  35.712  40.009  1.00  0.00     0.040 A 
ATOM     71  F   UNL A   1      42.192  35.373  37.762  1.00  0.00    -0.206 F 
ATOM     72  C   UNL A   1      40.902  35.332  41.146  1.00  0.00     0.006 A 
ENDBRANCH  51  65
BRANCH  52  73
ATOM     73  C   UNL A   1      39.866  28.758  30.216  1.00  0.00     0.057 A 
ATOM     74  C   UNL A   1      40.404  29.276  29.033  1.00  0.00     0.134 A 
ATOM     75  C   UNL A   1      39.212  27.522  30.141  1.00  0.00     0.134 A 
ATOM     76  F   UNL A   1      41.020  30.467  29.037  1.00  0.00    -0.206 F 
ATOM     77  C   UNL A   1      40.281  28.601  27.817  1.00  0.00     0.040 A 
ATOM     78  C   UNL A   1      39.102  26.825  28.937  1.00  0.00     0.040 A 
ATOM     79  F   UNL A   1      38.676  26.971  31.240  1.00  0.00    -0.206 F 
ATOM     80  C   UNL A   1      39.633  27.368  27.768  1.00  0.00     0.006 A 
ENDBRANCH  52  73
BRANCH  64  81
ATOM     81  C   UNL A   1      44.541  28.744  35.373  1.00  0.00     0.057 A 
ATOM     82  C   UNL A   1      45.791  29.220  34.958  1.00  0.00     0.134 A 
ATOM     83  C   UNL A   1      44.507  27.515  36.045  1.00  0.00     0.134 A 
ATOM     84  F   UNL A   1      45.891  30.384  34.299  1.00  0.00    -0.206 F 
ATOM     85  C   UNL A   1      46.961  28.491  35.186  1.00  0.00     0.040 A 
ATOM     86  C   UNL A   1      45.672  26.789  36.300  1.00  0.00     0.040 A 
ATOM     87  F   UNL A   1      43.343  27.007  36.476  1.00  0.00    -0.206 F 
ATOM     88  C   UNL A   1      46.903  27.276  35.864  1.00  0.00     0.006 A 
ENDBRANCH  64  81
ENDBRANCH  38  39
ENDBRANCH  31  33
ENDBRANCH  30  31
ENDBRANCH  29  30
ENDBRANCH  28  29
ENDBRANCH  27  28
ENDBRANCH  26  27
ENDBRANCH   1  26
TORSDOF 19
ENDMDL
MODEL 3
REMARK VINA RESULT:     -10.7      3.652      8.772
REMARK SMILES C[C@@H](Oc1ccc(I)cc1)C(=O)NCc1ccc(C(=O)OCCOCCOC(=O)c2ccc(-c3c4nc(c(-c5c(F)cccc5F)c5ccc([nH]5)c(-c5c(F)cccc5F)c5nc(c(-c6c(F)cccc6F)c6ccc3[nH]6)C=C5)C=C4)cc2)cc1
REMARK SMILES IDX 22 1 21 2 19 3 20 4 18 5 15 6 16 7 85 8 17 9 84 10 14 11
REMARK SMILES IDX 13 12 11 13 12 14 2 16 1 17 3 18 4 19 5 20 10 21 6 22 9 23
REMARK SMILES IDX 7 24 8 25 23 26 24 27 25 28 26 29 27 30 28 31 29 32 30 33
REMARK SMILES IDX 31 34 83 35 32 36 82 37 33 38 34 39 35 40 76 41 36 42 81 43
REMARK SMILES IDX 75 44 77 45 37 46 80 47 74 48 73 49 38 51 64 52 47 53 63 54
REMARK SMILES IDX 48 55 51 56 62 57 78 58 49 59 50 60 61 62 79 63 52 64 39 65
REMARK SMILES IDX 40 66 45 67 41 68 42 69 44 70 46 71 43 72 65 73 66 74 71 75
REMARK SMILES IDX 67 76 68 77 70 78 72 79 69 80 53 81 54 82 59 83 55 84 56 85
REMARK SMILES IDX 58 86 60 87 57 88
REMARK H PARENT 13 15 77 50 51 61
REMARK Flexibility Score: inf
ROOT
ATOM      1  C   UNL A   1      36.335  22.393  23.830  1.00  0.00     0.261 C 
ENDROOT
BRANCH   1   2
ATOM      2  O   UNL A   1      35.095  22.770  24.448  1.00  0.00    -0.460 OA
BRANCH   2   3
ATOM      3  C   UNL A   1      34.099  23.060  23.577  1.00  0.00     0.338 C 
ATOM      4  O   UNL A   1      33.350  22.261  23.032  1.00  0.00    -0.246 OA
BRANCH   3   5
ATOM      5  C   UNL A   1      33.922  24.523  23.450  1.00  0.00     0.060 A 
ATOM      6  C   UNL A   1      33.669  27.285  23.003  1.00  0.00    -0.029 A 
ATOM      7  C   UNL A   1      33.328  26.367  21.999  1.00  0.00     0.006 A 
ATOM      8  C   UNL A   1      34.066  26.796  24.259  1.00  0.00     0.006 A 
ATOM      9  C   UNL A   1      33.465  24.999  22.217  1.00  0.00     0.016 A 
ATOM     10  C   UNL A   1      34.192  25.420  24.487  1.00  0.00     0.016 A 
BRANCH   6  11
ATOM     11  C   UNL A   1      33.564  28.774  22.779  1.00  0.00     0.151 C 
BRANCH  11  12
ATOM     12  N   UNL A   1      32.387  29.141  22.009  1.00  0.00    -0.349 N 
ATOM     13  C   UNL A   1      31.087  29.280  22.405  1.00  0.00     0.261 C 
ATOM     14  O   UNL A   1      30.251  29.578  21.547  1.00  0.00    -0.271 OA
ATOM     15  H   UNL A   1      32.553  29.317  21.055  1.00  0.00     0.163 HD
BRANCH  13  16
ATOM     16  C   UNL A   1      30.664  28.991  23.854  1.00  0.00     0.258 C 
ATOM     17  C   UNL A   1      30.125  30.283  24.467  1.00  0.00     0.064 C 
BRANCH  16  18
ATOM     18  O   UNL A   1      29.714  27.920  23.818  1.00  0.00    -0.481 OA
BRANCH  18  19
ATOM     19  C   UNL A   1      30.069  26.802  24.510  1.00  0.00     0.120 A 
ATOM     20  C   UNL A   1      30.045  25.551  23.899  1.00  0.00     0.047 A 
ATOM     21  C   UNL A   1      30.649  26.963  25.766  1.00  0.00     0.047 A 
ATOM     22  C   UNL A   1      30.562  24.441  24.566  1.00  0.00     0.018 A 
ATOM     23  C   UNL A   1      31.179  25.855  26.432  1.00  0.00     0.018 A 
ATOM     24  C   UNL A   1      31.131  24.597  25.830  1.00  0.00     0.013 A 
ATOM     25  I   UNL A   1      31.956  22.954  26.796  1.00  0.00    -0.044 I 
ENDBRANCH  18  19
ENDBRANCH  16  18
ENDBRANCH  13  16
ENDBRANCH  11  12
ENDBRANCH   6  11
ENDBRANCH   3   5
ENDBRANCH   2   3
ENDBRANCH   1   2
BRANCH   1  26
ATOM     26  C   UNL A   1      37.431  22.155  24.871  1.00  0.00     0.202 C 
BRANCH  26  27
ATOM     27  O   UNL A   1      37.452  20.863  25.476  1.00  0.00    -0.374 OA
BRANCH  27  28
ATOM     28  C   UNL A   1      38.503  19.979  25.079  1.00  0.00     0.202 C 
BRANCH  28  29
ATOM     29  C   UNL A   1      39.625  19.770  26.103  1.00  0.00     0.261 C 
BRANCH  29  30
ATOM     30  O   UNL A   1      40.615  18.840  25.623  1.00  0.00    -0.460 OA
BRANCH  30  31
ATOM     31  C   UNL A   1      41.865  19.036  26.104  1.00  0.00     0.338 C 
ATOM     32  O   UNL A   1      42.797  18.243  26.098  1.00  0.00    -0.246 OA
BRANCH  31  33
ATOM     33  C   UNL A   1      42.034  20.446  26.499  1.00  0.00     0.060 A 
ATOM     34  C   UNL A   1      42.282  21.377  25.480  1.00  0.00     0.016 A 
ATOM     35  C   UNL A   1      42.017  20.846  27.837  1.00  0.00     0.016 A 
ATOM     36  C   UNL A   1      42.566  22.702  25.800  1.00  0.00     0.010 A 
ATOM     37  C   UNL A   1      42.311  22.176  28.157  1.00  0.00     0.010 A 
ATOM     38  C   UNL A   1      42.622  23.101  27.143  1.00  0.00    -0.014 A 
BRANCH  38  39
ATOM     39  C   UNL A   1      43.146  24.445  27.483  1.00  0.00     0.031 A 
ATOM     40  C   UNL A   1      42.183  25.514  27.923  1.00  0.00     0.074 A 
ATOM     41  C   UNL A   1      44.464  24.703  27.434  1.00  0.00     0.049 A 
ATOM     42  N   UNL A   1      42.418  26.758  28.254  1.00  0.00    -0.248 NA
ATOM     43  C   UNL A   1      40.765  25.128  28.000  1.00  0.00     0.031 C 
ATOM     44  C   UNL A   1      45.499  23.743  27.058  1.00  0.00     0.029 A 
ATOM     45  N   UNL A   1      45.155  25.858  27.703  1.00  0.00    -0.354 N 
ATOM     46  C   UNL A   1      41.181  27.303  28.574  1.00  0.00     0.074 A 
ATOM     47  C   UNL A   1      40.194  26.266  28.368  1.00  0.00     0.031 C 
ATOM     48  C   UNL A   1      46.696  24.351  27.111  1.00  0.00     0.029 A 
ATOM     49  C   UNL A   1      46.509  25.748  27.500  1.00  0.00     0.049 A 
ATOM     50  H   UNL A   1      44.722  26.686  28.011  1.00  0.00     0.167 HD
ATOM     51  C   UNL A   1      40.894  28.553  29.011  1.00  0.00     0.037 A 
ATOM     52  C   UNL A   1      47.480  26.675  27.600  1.00  0.00     0.037 A 
ATOM     53  C   UNL A   1      41.876  29.585  29.218  1.00  0.00     0.049 A 
ATOM     54  C   UNL A   1      47.127  28.076  28.025  1.00  0.00     0.074 A 
ATOM     55  C   UNL A   1      41.685  30.876  29.681  1.00  0.00     0.029 A 
ATOM     56  N   UNL A   1      43.232  29.444  28.971  1.00  0.00    -0.354 N 
ATOM     57  N   UNL A   1      45.960  28.572  28.352  1.00  0.00    -0.248 NA
ATOM     58  C   UNL A   1      48.232  29.045  28.095  1.00  0.00     0.031 C 
ATOM     59  C   UNL A   1      42.921  31.531  29.669  1.00  0.00     0.029 A 
ATOM     60  C   UNL A   1      43.888  30.634  29.245  1.00  0.00     0.049 A 
ATOM     61  H   UNL A   1      43.666  28.621  28.648  1.00  0.00     0.167 HD
ATOM     62  C   UNL A   1      46.191  29.899  28.694  1.00  0.00     0.074 A 
ATOM     63  C   UNL A   1      47.612  30.128  28.545  1.00  0.00     0.031 C 
ATOM     64  C   UNL A   1      45.305  30.844  29.096  1.00  0.00     0.037 A 
BRANCH  51  65
ATOM     65  C   UNL A   1      39.454  28.878  29.274  1.00  0.00     0.057 A 
ATOM     66  C   UNL A   1      38.616  29.388  28.273  1.00  0.00     0.134 A 
ATOM     67  C   UNL A   1      38.890  28.651  30.536  1.00  0.00     0.134 A 
ATOM     68  F   UNL A   1      39.098  29.641  27.047  1.00  0.00    -0.206 F 
ATOM     69  C   UNL A   1      37.274  29.681  28.524  1.00  0.00     0.040 A 
ATOM     70  C   UNL A   1      37.544  28.917  30.792  1.00  0.00     0.040 A 
ATOM     71  F   UNL A   1      39.636  28.162  31.536  1.00  0.00    -0.206 F 
ATOM     72  C   UNL A   1      36.733  29.438  29.786  1.00  0.00     0.006 A 
ENDBRANCH  51  65
BRANCH  52  73
ATOM     73  C   UNL A   1      48.885  26.315  27.284  1.00  0.00     0.057 A 
ATOM     74  C   UNL A   1      49.400  26.463  25.992  1.00  0.00     0.134 A 
ATOM     75  C   UNL A   1      49.740  25.796  28.264  1.00  0.00     0.134 A 
ATOM     76  F   UNL A   1      48.622  26.933  25.005  1.00  0.00    -0.206 F 
ATOM     77  C   UNL A   1      50.709  26.091  25.680  1.00  0.00     0.040 A 
ATOM     78  C   UNL A   1      51.058  25.441  27.972  1.00  0.00     0.040 A 
ATOM     79  F   UNL A   1      49.307  25.631  29.523  1.00  0.00    -0.206 F 
ATOM     80  C   UNL A   1      51.544  25.583  26.673  1.00  0.00     0.006 A 
ENDBRANCH  52  73
BRANCH  64  81
ATOM     81  C   UNL A   1      45.852  32.200  29.435  1.00  0.00     0.057 A 
ATOM     82  C   UNL A   1      45.925  33.226  28.484  1.00  0.00     0.134 A 
ATOM     83  C   UNL A   1      46.273  32.494  30.738  1.00  0.00     0.134 A 
ATOM     84  F   UNL A   1      45.548  33.007  27.216  1.00  0.00    -0.206 F 
ATOM     85  C   UNL A   1      46.418  34.490  28.813  1.00  0.00     0.040 A 
ATOM     86  C   UNL A   1      46.745  33.761  31.085  1.00  0.00     0.040 A 
ATOM     87  F   UNL A   1      46.221  31.558  31.698  1.00  0.00    -0.206 F 
ATOM     88  C   UNL A   1      46.824  34.762  30.118  1.00  0.00     0.006 A 
ENDBRANCH  64  81
ENDBRANCH  38  39
ENDBRANCH  31  33
ENDBRANCH  30  31
ENDBRANCH  29  30
ENDBRANCH  28  29
ENDBRANCH  27  28
ENDBRANCH  26  27
ENDBRANCH   1  26
TORSDOF 19
ENDMDL
