MODEL 1
REMARK VINA RESULT:     -11.8      0.000      0.000
REMARK SMILES Cc1c(CC(=O)N[C@H](CO)C(=O)OCCOCCOC(=O)c2ccc(-c3c4nc(c(-c5c(F)cccc5F)c5ccc([nH]5)c(-c5c(F)cccc5F)c5nc(c(-c6c(F)cccc6F)c6ccc3[nH]6)C=C5)C=C4)cc2)cc(-c2ccc(S(C)(=O)=O)cc2)n1-c1cccc(F)c1
REMARK SMILES IDX 14 1 13 2 11 3 12 4 8 5 7 6 5 7 6 8 4 10 3 11 1 12 2 13
REMARK SMILES IDX 88 14 76 15 77 16 89 17 90 18 95 19 91 20 93 21 92 22 94 23
REMARK SMILES IDX 78 24 79 25 87 26 80 27 86 28 81 29 82 30 83 31 84 32 85 33
REMARK SMILES IDX 9 34 10 35 15 37 16 38 17 39 18 40 19 41 20 42 21 43 22 44
REMARK SMILES IDX 23 45 75 46 24 47 74 48 25 49 26 50 27 51 68 52 28 53 73 54
REMARK SMILES IDX 67 55 69 56 29 57 72 58 66 59 65 60 30 62 56 63 39 64 55 65
REMARK SMILES IDX 40 66 43 67 54 68 70 69 41 70 42 71 53 73 71 74 44 75 31 76
REMARK SMILES IDX 32 77 37 78 33 79 34 80 36 81 38 82 35 83 57 84 58 85 63 86
REMARK SMILES IDX 59 87 60 88 62 89 64 90 61 91 45 92 46 93 51 94 47 95 48 96
REMARK SMILES IDX 50 97 52 98 49 99
REMARK H PARENT 7 9 10 36 69 61 43 72
REMARK Flexibility Score: inf
ROOT
ATOM      1  C   UNL A   1      38.133  21.218  25.428  1.00  0.00     0.261 C 
ENDROOT
BRANCH   1   2
ATOM      2  O   UNL A   1      36.852  21.757  25.762  1.00  0.00    -0.462 OA
BRANCH   2   3
ATOM      3  C   UNL A   1      35.814  21.326  24.983  1.00  0.00     0.331 C 
ATOM      4  O   UNL A   1      35.486  20.161  24.814  1.00  0.00    -0.250 OA
BRANCH   3   5
ATOM      5  C   UNL A   1      35.039  22.492  24.398  1.00  0.00     0.218 C 
BRANCH   5   6
ATOM      6  N   UNL A   1      34.164  21.998  23.332  1.00  0.00    -0.341 N 
ATOM      7  C   UNL A   1      32.823  21.735  23.405  1.00  0.00     0.225 C 
ATOM      8  O   UNL A   1      32.282  21.296  22.385  1.00  0.00    -0.275 OA
ATOM      9  H   UNL A   1      34.592  21.837  22.460  1.00  0.00     0.164 HD
BRANCH   7  10
ATOM     10  C   UNL A   1      32.020  21.989  24.685  1.00  0.00     0.137 C 
BRANCH  10  11
ATOM     11  C   UNL A   1      31.728  23.440  24.997  1.00  0.00    -0.017 A 
ATOM     12  C   UNL A   1      33.271  23.887  27.019  1.00  0.00     0.065 C 
ATOM     13  C   UNL A   1      32.306  24.276  25.946  1.00  0.00     0.024 A 
ATOM     14  N   UNL A   1      31.818  25.580  25.763  1.00  0.00    -0.313 N 
ATOM     15  C   UNL A   1      30.733  24.221  24.346  1.00  0.00     0.033 A 
ATOM     16  C   UNL A   1      30.875  25.552  24.718  1.00  0.00     0.053 A 
BRANCH  14  17
ATOM     17  C   UNL A   1      32.286  26.767  26.424  1.00  0.00     0.049 A 
ATOM     18  C   UNL A   1      31.396  27.563  27.163  1.00  0.00     0.027 A 
ATOM     19  C   UNL A   1      33.592  27.227  26.213  1.00  0.00     0.065 A 
ATOM     20  C   UNL A   1      31.788  28.828  27.620  1.00  0.00     0.005 A 
ATOM     21  C   UNL A   1      33.959  28.493  26.656  1.00  0.00     0.125 A 
ATOM     22  C   UNL A   1      33.068  29.303  27.345  1.00  0.00     0.039 A 
ATOM     23  F   UNL A   1      35.182  28.956  26.364  1.00  0.00    -0.207 F 
ENDBRANCH  14  17
BRANCH  16  24
ATOM     24  C   UNL A   1      30.339  26.720  23.971  1.00  0.00    -0.001 A 
ATOM     25  C   UNL A   1      28.954  26.942  23.876  1.00  0.00     0.011 A 
ATOM     26  C   UNL A   1      31.193  27.689  23.423  1.00  0.00     0.011 A 
ATOM     27  C   UNL A   1      28.428  28.050  23.204  1.00  0.00     0.021 A 
ATOM     28  C   UNL A   1      30.677  28.814  22.759  1.00  0.00     0.021 A 
ATOM     29  C   UNL A   1      29.295  28.981  22.639  1.00  0.00     0.067 A 
BRANCH  29  30
ATOM     30  S   UNL A   1      28.623  30.400  21.803  1.00  0.00     0.175 S 
ATOM     31  C   UNL A   1      27.699  31.274  23.041  1.00  0.00     0.163 C 
ATOM     32  O   UNL A   1      29.727  31.222  21.392  1.00  0.00    -0.224 OA
ATOM     33  O   UNL A   1      27.649  29.904  20.828  1.00  0.00    -0.224 OA
ENDBRANCH  29  30
ENDBRANCH  16  24
ENDBRANCH  10  11
ENDBRANCH   7  10
ENDBRANCH   5   6
BRANCH   5  34
ATOM     34  C   UNL A   1      36.080  23.520  23.928  1.00  0.00     0.193 C 
BRANCH  34  35
ATOM     35  O   UNL A   1      36.703  23.140  22.707  1.00  0.00    -0.394 OA
ATOM     36  H   UNL A   1      36.527  23.812  22.031  1.00  0.00     0.210 HD
ENDBRANCH  34  35
ENDBRANCH   5  34
ENDBRANCH   3   5
ENDBRANCH   2   3
ENDBRANCH   1   2
BRANCH   1  37
ATOM     37  C   UNL A   1      39.373  21.996  25.889  1.00  0.00     0.202 C 
BRANCH  37  38
ATOM     38  O   UNL A   1      39.846  21.698  27.192  1.00  0.00    -0.374 OA
BRANCH  38  39
ATOM     39  C   UNL A   1      40.791  20.629  27.284  1.00  0.00     0.202 C 
BRANCH  39  40
ATOM     40  C   UNL A   1      41.855  20.584  26.168  1.00  0.00     0.261 C 
BRANCH  40  41
ATOM     41  O   UNL A   1      43.070  21.403  26.349  1.00  0.00    -0.460 OA
BRANCH  41  42
ATOM     42  C   UNL A   1      43.306  22.358  25.398  1.00  0.00     0.338 C 
ATOM     43  O   UNL A   1      43.615  22.077  24.243  1.00  0.00    -0.246 OA
BRANCH  42  44
ATOM     44  C   UNL A   1      43.115  23.831  25.806  1.00  0.00     0.060 A 
ATOM     45  C   UNL A   1      42.554  24.051  27.047  1.00  0.00     0.016 A 
ATOM     46  C   UNL A   1      43.281  25.011  25.046  1.00  0.00     0.016 A 
ATOM     47  C   UNL A   1      42.211  25.372  27.491  1.00  0.00     0.010 A 
ATOM     48  C   UNL A   1      42.823  26.373  25.493  1.00  0.00     0.010 A 
ATOM     49  C   UNL A   1      42.230  26.620  26.745  1.00  0.00    -0.014 A 
BRANCH  49  50
ATOM     50  C   UNL A   1      41.379  27.953  27.402  1.00  0.00     0.031 A 
ATOM     51  C   UNL A   1      42.477  28.941  27.577  1.00  0.00     0.074 A 
ATOM     52  C   UNL A   1      40.198  28.460  28.010  1.00  0.00     0.049 A 
ATOM     53  N   UNL A   1      43.435  28.573  28.373  1.00  0.00    -0.248 NA
ATOM     54  C   UNL A   1      42.830  30.027  26.663  1.00  0.00     0.031 C 
ATOM     55  C   UNL A   1      38.952  27.746  28.358  1.00  0.00     0.029 A 
ATOM     56  N   UNL A   1      39.825  29.779  28.529  1.00  0.00    -0.354 N 
ATOM     57  C   UNL A   1      44.455  29.472  28.243  1.00  0.00     0.074 A 
ATOM     58  C   UNL A   1      44.081  30.277  27.082  1.00  0.00     0.031 C 
ATOM     59  C   UNL A   1      37.974  28.582  28.837  1.00  0.00     0.029 A 
ATOM     60  C   UNL A   1      38.435  29.971  28.956  1.00  0.00     0.049 A 
ATOM     61  H   UNL A   1      40.483  30.508  28.590  1.00  0.00     0.167 HD
ATOM     62  C   UNL A   1      45.030  29.809  29.430  1.00  0.00     0.037 A 
ATOM     63  C   UNL A   1      37.734  31.088  29.469  1.00  0.00     0.037 A 
ATOM     64  C   UNL A   1      44.419  31.006  29.936  1.00  0.00     0.049 A 
ATOM     65  C   UNL A   1      38.731  31.872  30.199  1.00  0.00     0.074 A 
ATOM     66  C   UNL A   1      44.040  32.179  29.311  1.00  0.00     0.029 A 
ATOM     67  N   UNL A   1      43.631  30.879  31.058  1.00  0.00    -0.354 N 
ATOM     68  N   UNL A   1      39.124  31.509  31.381  1.00  0.00    -0.248 NA
ATOM     69  C   UNL A   1      39.222  33.167  29.745  1.00  0.00     0.031 C 
ATOM     70  C   UNL A   1      42.710  32.371  29.734  1.00  0.00     0.029 A 
ATOM     71  C   UNL A   1      42.499  31.642  30.898  1.00  0.00     0.049 A 
ATOM     72  H   UNL A   1      43.843  30.330  31.847  1.00  0.00     0.167 HD
ATOM     73  C   UNL A   1      40.284  32.187  31.529  1.00  0.00     0.074 A 
ATOM     74  C   UNL A   1      40.154  33.362  30.681  1.00  0.00     0.031 C 
ATOM     75  C   UNL A   1      41.367  31.407  31.755  1.00  0.00     0.037 A 
BRANCH  62  76
ATOM     76  C   UNL A   1      45.349  28.577  30.259  1.00  0.00     0.057 A 
ATOM     77  C   UNL A   1      45.950  27.482  29.638  1.00  0.00     0.134 A 
ATOM     78  C   UNL A   1      44.874  28.370  31.576  1.00  0.00     0.134 A 
ATOM     79  F   UNL A   1      46.472  27.607  28.409  1.00  0.00    -0.206 F 
ATOM     80  C   UNL A   1      46.006  26.227  30.257  1.00  0.00     0.040 A 
ATOM     81  C   UNL A   1      44.851  27.108  32.169  1.00  0.00     0.040 A 
ATOM     82  F   UNL A   1      44.385  29.387  32.306  1.00  0.00    -0.206 F 
ATOM     83  C   UNL A   1      45.413  26.027  31.504  1.00  0.00     0.006 A 
ENDBRANCH  62  76
BRANCH  63  84
ATOM     84  C   UNL A   1      36.328  31.746  29.832  1.00  0.00     0.057 A 
ATOM     85  C   UNL A   1      35.798  31.746  31.180  1.00  0.00     0.134 A 
ATOM     86  C   UNL A   1      35.735  32.743  29.046  1.00  0.00     0.134 A 
ATOM     87  F   UNL A   1      36.184  30.845  32.093  1.00  0.00    -0.206 F 
ATOM     88  C   UNL A   1      34.896  32.701  31.708  1.00  0.00     0.040 A 
ATOM     89  C   UNL A   1      34.792  33.689  29.560  1.00  0.00     0.040 A 
ATOM     90  F   UNL A   1      36.106  32.900  27.770  1.00  0.00    -0.206 F 
ATOM     91  C   UNL A   1      34.401  33.701  30.899  1.00  0.00     0.006 A 
ENDBRANCH  63  84
BRANCH  75  92
ATOM     92  C   UNL A   1      41.210  30.279  32.764  1.00  0.00     0.057 A 
ATOM     93  C   UNL A   1      41.141  30.385  34.174  1.00  0.00     0.134 A 
ATOM     94  C   UNL A   1      41.234  28.969  32.268  1.00  0.00     0.134 A 
ATOM     95  F   UNL A   1      40.987  31.556  34.808  1.00  0.00    -0.206 F 
ATOM     96  C   UNL A   1      41.202  29.265  35.017  1.00  0.00     0.040 A 
ATOM     97  C   UNL A   1      41.233  27.843  33.097  1.00  0.00     0.040 A 
ATOM     98  F   UNL A   1      41.254  28.752  30.944  1.00  0.00    -0.206 F 
ATOM     99  C   UNL A   1      41.250  27.988  34.479  1.00  0.00     0.006 A 
ENDBRANCH  75  92
ENDBRANCH  49  50
ENDBRANCH  42  44
ENDBRANCH  41  42
ENDBRANCH  40  41
ENDBRANCH  39  40
ENDBRANCH  38  39
ENDBRANCH  37  38
ENDBRANCH   1  37
TORSDOF 22
ENDMDL
MODEL 2
REMARK VINA RESULT:     -11.2      2.068      2.944
REMARK SMILES Cc1c(CC(=O)N[C@H](CO)C(=O)OCCOCCOC(=O)c2ccc(-c3c4nc(c(-c5c(F)cccc5F)c5ccc([nH]5)c(-c5c(F)cccc5F)c5nc(c(-c6c(F)cccc6F)c6ccc3[nH]6)C=C5)C=C4)cc2)cc(-c2ccc(S(C)(=O)=O)cc2)n1-c1cccc(F)c1
REMARK SMILES IDX 14 1 13 2 11 3 12 4 8 5 7 6 5 7 6 8 4 10 3 11 1 12 2 13
REMARK SMILES IDX 88 14 76 15 77 16 89 17 90 18 95 19 91 20 93 21 92 22 94 23
REMARK SMILES IDX 78 24 79 25 87 26 80 27 86 28 81 29 82 30 83 31 84 32 85 33
REMARK SMILES IDX 9 34 10 35 15 37 16 38 17 39 18 40 19 41 20 42 21 43 22 44
REMARK SMILES IDX 23 45 75 46 24 47 74 48 25 49 26 50 27 51 68 52 28 53 73 54
REMARK SMILES IDX 67 55 69 56 29 57 72 58 66 59 65 60 30 62 56 63 39 64 55 65
REMARK SMILES IDX 40 66 43 67 54 68 70 69 41 70 42 71 53 73 71 74 44 75 31 76
REMARK SMILES IDX 32 77 37 78 33 79 34 80 36 81 38 82 35 83 57 84 58 85 63 86
REMARK SMILES IDX 59 87 60 88 62 89 64 90 61 91 45 92 46 93 51 94 47 95 48 96
REMARK SMILES IDX 50 97 52 98 49 99
REMARK H PARENT 7 9 10 36 69 61 43 72
REMARK Flexibility Score: inf
ROOT
ATOM      1  C   UNL A   1      38.770  21.979  25.480  1.00  0.00     0.261 C 
ENDROOT
BRANCH   1   2
ATOM      2  O   UNL A   1      37.475  22.445  25.867  1.00  0.00    -0.462 OA
BRANCH   2   3
ATOM      3  C   UNL A   1      36.421  21.768  25.318  1.00  0.00     0.331 C 
ATOM      4  O   UNL A   1      36.382  20.566  25.104  1.00  0.00    -0.250 OA
BRANCH   3   5
ATOM      5  C   UNL A   1      35.239  22.687  25.072  1.00  0.00     0.218 C 
BRANCH   5   6
ATOM      6  N   UNL A   1      34.056  21.875  24.778  1.00  0.00    -0.341 N 
ATOM      7  C   UNL A   1      32.801  22.004  25.308  1.00  0.00     0.225 C 
ATOM      8  O   UNL A   1      31.950  21.190  24.936  1.00  0.00    -0.275 OA
ATOM      9  H   UNL A   1      34.178  21.153  24.120  1.00  0.00     0.164 HD
BRANCH   7  10
ATOM     10  C   UNL A   1      32.456  23.118  26.302  1.00  0.00     0.137 C 
BRANCH  10  11
ATOM     11  C   UNL A   1      32.484  24.524  25.747  1.00  0.00    -0.017 A 
ATOM     12  C   UNL A   1      30.979  24.320  23.659  1.00  0.00     0.065 C 
ATOM     13  C   UNL A   1      31.804  25.062  24.661  1.00  0.00     0.024 A 
ATOM     14  N   UNL A   1      32.029  26.447  24.621  1.00  0.00    -0.313 N 
ATOM     15  C   UNL A   1      33.284  25.581  26.266  1.00  0.00     0.033 A 
ATOM     16  C   UNL A   1      32.912  26.777  25.667  1.00  0.00     0.053 A 
BRANCH  14  17
ATOM     17  C   UNL A   1      31.378  27.394  23.759  1.00  0.00     0.049 A 
ATOM     18  C   UNL A   1      32.136  28.232  22.926  1.00  0.00     0.027 A 
ATOM     19  C   UNL A   1      29.995  27.600  23.849  1.00  0.00     0.065 A 
ATOM     20  C   UNL A   1      31.531  29.301  22.255  1.00  0.00     0.005 A 
ATOM     21  C   UNL A   1      29.412  28.678  23.193  1.00  0.00     0.125 A 
ATOM     22  C   UNL A   1      30.166  29.538  22.407  1.00  0.00     0.039 A 
ATOM     23  F   UNL A   1      28.105  28.917  23.365  1.00  0.00    -0.207 F 
ENDBRANCH  14  17
BRANCH  16  24
ATOM     24  C   UNL A   1      33.184  28.135  26.208  1.00  0.00    -0.001 A 
ATOM     25  C   UNL A   1      32.149  29.074  26.356  1.00  0.00     0.011 A 
ATOM     26  C   UNL A   1      34.457  28.489  26.680  1.00  0.00     0.011 A 
ATOM     27  C   UNL A   1      32.376  30.346  26.891  1.00  0.00     0.021 A 
ATOM     28  C   UNL A   1      34.695  29.758  27.234  1.00  0.00     0.021 A 
ATOM     29  C   UNL A   1      33.655  30.687  27.321  1.00  0.00     0.067 A 
BRANCH  29  30
ATOM     30  S   UNL A   1      33.937  32.298  28.021  1.00  0.00     0.175 S 
ATOM     31  C   UNL A   1      32.606  33.305  27.417  1.00  0.00     0.163 C 
ATOM     32  O   UNL A   1      33.808  32.178  29.447  1.00  0.00    -0.224 OA
ATOM     33  O   UNL A   1      35.164  32.822  27.417  1.00  0.00    -0.224 OA
ENDBRANCH  29  30
ENDBRANCH  16  24
ENDBRANCH  10  11
ENDBRANCH   7  10
ENDBRANCH   5   6
BRANCH   5  34
ATOM     34  C   UNL A   1      35.649  23.634  23.933  1.00  0.00     0.193 C 
BRANCH  34  35
ATOM     35  O   UNL A   1      36.477  22.994  22.969  1.00  0.00    -0.394 OA
ATOM     36  H   UNL A   1      37.260  22.628  23.407  1.00  0.00     0.210 HD
ENDBRANCH  34  35
ENDBRANCH   5  34
ENDBRANCH   3   5
ENDBRANCH   2   3
ENDBRANCH   1   2
BRANCH   1  37
ATOM     37  C   UNL A   1      39.816  21.790  26.587  1.00  0.00     0.202 C 
BRANCH  37  38
ATOM     38  O   UNL A   1      39.998  20.464  27.052  1.00  0.00    -0.374 OA
BRANCH  38  39
ATOM     39  C   UNL A   1      41.354  20.029  27.184  1.00  0.00     0.202 C 
BRANCH  39  40
ATOM     40  C   UNL A   1      42.338  20.592  26.137  1.00  0.00     0.261 C 
BRANCH  40  41
ATOM     41  O   UNL A   1      43.121  21.787  26.508  1.00  0.00    -0.460 OA
BRANCH  41  42
ATOM     42  C   UNL A   1      43.317  22.715  25.522  1.00  0.00     0.338 C 
ATOM     43  O   UNL A   1      43.605  22.403  24.370  1.00  0.00    -0.246 OA
BRANCH  42  44
ATOM     44  C   UNL A   1      43.109  24.196  25.888  1.00  0.00     0.060 A 
ATOM     45  C   UNL A   1      43.020  24.484  27.234  1.00  0.00     0.016 A 
ATOM     46  C   UNL A   1      42.836  25.306  25.056  1.00  0.00     0.016 A 
ATOM     47  C   UNL A   1      42.702  25.804  27.699  1.00  0.00     0.010 A 
ATOM     48  C   UNL A   1      42.409  26.657  25.564  1.00  0.00     0.010 A 
ATOM     49  C   UNL A   1      42.292  26.969  26.931  1.00  0.00    -0.014 A 
BRANCH  49  50
ATOM     50  C   UNL A   1      41.583  28.275  27.783  1.00  0.00     0.031 A 
ATOM     51  C   UNL A   1      42.751  29.178  27.956  1.00  0.00     0.074 A 
ATOM     52  C   UNL A   1      40.489  28.782  28.536  1.00  0.00     0.049 A 
ATOM     53  N   UNL A   1      43.746  28.680  28.626  1.00  0.00    -0.248 NA
ATOM     54  C   UNL A   1      43.097  30.329  27.121  1.00  0.00     0.031 C 
ATOM     55  C   UNL A   1      39.232  28.108  28.922  1.00  0.00     0.029 A 
ATOM     56  N   UNL A   1      40.244  30.061  29.209  1.00  0.00    -0.354 N 
ATOM     57  C   UNL A   1      44.807  29.530  28.495  1.00  0.00     0.074 A 
ATOM     58  C   UNL A   1      44.392  30.467  27.453  1.00  0.00     0.031 C 
ATOM     59  C   UNL A   1      38.351  28.944  29.561  1.00  0.00     0.029 A 
ATOM     60  C   UNL A   1      38.908  30.287  29.772  1.00  0.00     0.049 A 
ATOM     61  H   UNL A   1      40.950  30.743  29.282  1.00  0.00     0.167 HD
ATOM     62  C   UNL A   1      45.496  29.714  29.654  1.00  0.00     0.037 A 
ATOM     63  C   UNL A   1      38.323  31.384  30.447  1.00  0.00     0.037 A 
ATOM     64  C   UNL A   1      45.005  30.886  30.323  1.00  0.00     0.049 A 
ATOM     65  C   UNL A   1      39.424  32.034  31.159  1.00  0.00     0.074 A 
ATOM     66  C   UNL A   1      44.652  32.135  29.847  1.00  0.00     0.029 A 
ATOM     67  N   UNL A   1      44.304  30.691  31.491  1.00  0.00    -0.354 N 
ATOM     68  N   UNL A   1      39.887  31.534  32.262  1.00  0.00    -0.248 NA
ATOM     69  C   UNL A   1      39.957  33.339  30.789  1.00  0.00     0.031 C 
ATOM     70  C   UNL A   1      43.375  32.357  30.401  1.00  0.00     0.029 A 
ATOM     71  C   UNL A   1      43.214  31.528  31.504  1.00  0.00     0.049 A 
ATOM     72  H   UNL A   1      44.544  30.055  32.203  1.00  0.00     0.167 HD
ATOM     73  C   UNL A   1      41.096  32.129  32.373  1.00  0.00     0.074 A 
ATOM     74  C   UNL A   1      40.972  33.388  31.655  1.00  0.00     0.031 C 
ATOM     75  C   UNL A   1      42.141  31.272  32.429  1.00  0.00     0.037 A 
BRANCH  62  76
ATOM     76  C   UNL A   1      45.803  28.390  30.332  1.00  0.00     0.057 A 
ATOM     77  C   UNL A   1      47.107  27.899  30.294  1.00  0.00     0.134 A 
ATOM     78  C   UNL A   1      44.810  27.500  30.808  1.00  0.00     0.134 A 
ATOM     79  F   UNL A   1      48.116  28.693  29.904  1.00  0.00    -0.206 F 
ATOM     80  C   UNL A   1      47.403  26.573  30.634  1.00  0.00     0.040 A 
ATOM     81  C   UNL A   1      45.079  26.157  31.070  1.00  0.00     0.040 A 
ATOM     82  F   UNL A   1      43.544  27.909  30.993  1.00  0.00    -0.206 F 
ATOM     83  C   UNL A   1      46.381  25.686  30.976  1.00  0.00     0.006 A 
ENDBRANCH  62  76
BRANCH  63  84
ATOM     84  C   UNL A   1      36.995  32.078  30.991  1.00  0.00     0.057 A 
ATOM     85  C   UNL A   1      36.339  31.648  32.208  1.00  0.00     0.134 A 
ATOM     86  C   UNL A   1      36.631  33.387  30.646  1.00  0.00     0.134 A 
ATOM     87  F   UNL A   1      36.500  30.411  32.701  1.00  0.00    -0.206 F 
ATOM     88  C   UNL A   1      35.534  32.463  33.040  1.00  0.00     0.040 A 
ATOM     89  C   UNL A   1      35.785  34.206  31.460  1.00  0.00     0.040 A 
ATOM     90  F   UNL A   1      37.147  33.959  29.552  1.00  0.00    -0.206 F 
ATOM     91  C   UNL A   1      35.269  33.765  32.679  1.00  0.00     0.006 A 
ENDBRANCH  63  84
BRANCH  75  92
ATOM     92  C   UNL A   1      41.996  30.058  33.336  1.00  0.00     0.057 A 
ATOM     93  C   UNL A   1      42.363  29.950  34.699  1.00  0.00     0.134 A 
ATOM     94  C   UNL A   1      41.539  28.872  32.749  1.00  0.00     0.134 A 
ATOM     95  F   UNL A   1      42.703  31.010  35.446  1.00  0.00    -0.206 F 
ATOM     96  C   UNL A   1      42.372  28.724  35.381  1.00  0.00     0.040 A 
ATOM     97  C   UNL A   1      41.486  27.655  33.437  1.00  0.00     0.040 A 
ATOM     98  F   UNL A   1      41.123  28.870  31.473  1.00  0.00    -0.206 F 
ATOM     99  C   UNL A   1      41.935  27.570  34.749  1.00  0.00     0.006 A 
ENDBRANCH  75  92
ENDBRANCH  49  50
ENDBRANCH  42  44
ENDBRANCH  41  42
ENDBRANCH  40  41
ENDBRANCH  39  40
ENDBRANCH  38  39
ENDBRANCH  37  38
ENDBRANCH   1  37
TORSDOF 22
ENDMDL
MODEL 3
REMARK VINA RESULT:      -9.8      8.219     13.246
REMARK SMILES Cc1c(CC(=O)N[C@H](CO)C(=O)OCCOCCOC(=O)c2ccc(-c3c4nc(c(-c5c(F)cccc5F)c5ccc([nH]5)c(-c5c(F)cccc5F)c5nc(c(-c6c(F)cccc6F)c6ccc3[nH]6)C=C5)C=C4)cc2)cc(-c2ccc(S(C)(=O)=O)cc2)n1-c1cccc(F)c1
REMARK SMILES IDX 14 1 13 2 11 3 12 4 8 5 7 6 5 7 6 8 4 10 3 11 1 12 2 13
REMARK SMILES IDX 88 14 76 15 77 16 89 17 90 18 95 19 91 20 93 21 92 22 94 23
REMARK SMILES IDX 78 24 79 25 87 26 80 27 86 28 81 29 82 30 83 31 84 32 85 33
REMARK SMILES IDX 9 34 10 35 15 37 16 38 17 39 18 40 19 41 20 42 21 43 22 44
REMARK SMILES IDX 23 45 75 46 24 47 74 48 25 49 26 50 27 51 68 52 28 53 73 54
REMARK SMILES IDX 67 55 69 56 29 57 72 58 66 59 65 60 30 62 56 63 39 64 55 65
REMARK SMILES IDX 40 66 43 67 54 68 70 69 41 70 42 71 53 73 71 74 44 75 31 76
REMARK SMILES IDX 32 77 37 78 33 79 34 80 36 81 38 82 35 83 57 84 58 85 63 86
REMARK SMILES IDX 59 87 60 88 62 89 64 90 61 91 45 92 46 93 51 94 47 95 48 96
REMARK SMILES IDX 50 97 52 98 49 99
REMARK H PARENT 7 9 10 36 69 61 43 72
REMARK Flexibility Score: inf
ROOT
ATOM      1  C   UNL A   1      53.316  19.608  35.339  1.00  0.00     0.261 C 
ENDROOT
BRANCH   1   2
ATOM      2  O   UNL A   1      52.317  20.147  36.209  1.00  0.00    -0.462 OA
BRANCH   2   3
ATOM      3  C   UNL A   1      51.253  19.325  36.460  1.00  0.00     0.331 C 
ATOM      4  O   UNL A   1      51.314  18.119  36.645  1.00  0.00    -0.250 OA
BRANCH   3   5
ATOM      5  C   UNL A   1      49.960  20.110  36.568  1.00  0.00     0.218 C 
BRANCH   5   6
ATOM      6  N   UNL A   1      49.254  20.048  35.287  1.00  0.00    -0.341 N 
ATOM      7  C   UNL A   1      47.904  20.127  35.070  1.00  0.00     0.225 C 
ATOM      8  O   UNL A   1      47.518  20.025  33.902  1.00  0.00    -0.275 OA
ATOM      9  H   UNL A   1      49.816  19.938  34.486  1.00  0.00     0.164 HD
BRANCH   7  10
ATOM     10  C   UNL A   1      46.916  20.351  36.219  1.00  0.00     0.137 C 
BRANCH  10  11
ATOM     11  C   UNL A   1      46.377  21.758  36.355  1.00  0.00    -0.017 A 
ATOM     12  C   UNL A   1      44.662  21.876  34.427  1.00  0.00     0.065 C 
ATOM     13  C   UNL A   1      45.368  22.393  35.639  1.00  0.00     0.024 A 
ATOM     14  N   UNL A   1      45.114  23.645  36.222  1.00  0.00    -0.313 N 
ATOM     15  C   UNL A   1      46.867  22.725  37.277  1.00  0.00     0.033 A 
ATOM     16  C   UNL A   1      46.017  23.824  37.286  1.00  0.00     0.053 A 
BRANCH  14  17
ATOM     17  C   UNL A   1      44.039  24.540  35.890  1.00  0.00     0.049 A 
ATOM     18  C   UNL A   1      44.286  25.911  35.723  1.00  0.00     0.027 A 
ATOM     19  C   UNL A   1      42.715  24.082  35.880  1.00  0.00     0.065 A 
ATOM     20  C   UNL A   1      43.222  26.816  35.622  1.00  0.00     0.005 A 
ATOM     21  C   UNL A   1      41.669  24.995  35.799  1.00  0.00     0.125 A 
ATOM     22  C   UNL A   1      41.908  26.357  35.683  1.00  0.00     0.039 A 
ATOM     23  F   UNL A   1      40.408  24.551  35.886  1.00  0.00    -0.207 F 
ENDBRANCH  14  17
BRANCH  16  24
ATOM     24  C   UNL A   1      45.924  24.833  38.374  1.00  0.00    -0.001 A 
ATOM     25  C   UNL A   1      46.748  25.971  38.374  1.00  0.00     0.011 A 
ATOM     26  C   UNL A   1      44.947  24.736  39.377  1.00  0.00     0.011 A 
ATOM     27  C   UNL A   1      46.657  26.950  39.371  1.00  0.00     0.021 A 
ATOM     28  C   UNL A   1      44.835  25.719  40.374  1.00  0.00     0.021 A 
ATOM     29  C   UNL A   1      45.703  26.814  40.375  1.00  0.00     0.067 A 
BRANCH  29  30
ATOM     30  S   UNL A   1      45.575  28.070  41.628  1.00  0.00     0.175 S 
ATOM     31  C   UNL A   1      47.025  27.873  42.632  1.00  0.00     0.163 C 
ATOM     32  O   UNL A   1      45.644  29.345  40.970  1.00  0.00    -0.224 OA
ATOM     33  O   UNL A   1      44.431  27.720  42.474  1.00  0.00    -0.224 OA
ENDBRANCH  29  30
ENDBRANCH  16  24
ENDBRANCH  10  11
ENDBRANCH   7  10
ENDBRANCH   5   6
BRANCH   5  34
ATOM     34  C   UNL A   1      50.345  21.533  37.004  1.00  0.00     0.193 C 
BRANCH  34  35
ATOM     35  O   UNL A   1      50.942  21.560  38.295  1.00  0.00    -0.394 OA
ATOM     36  H   UNL A   1      51.886  21.348  38.220  1.00  0.00     0.210 HD
ENDBRANCH  34  35
ENDBRANCH   5  34
ENDBRANCH   3   5
ENDBRANCH   2   3
ENDBRANCH   1   2
BRANCH   1  37
ATOM     37  C   UNL A   1      53.537  20.308  33.992  1.00  0.00     0.202 C 
BRANCH  37  38
ATOM     38  O   UNL A   1      54.000  21.646  34.054  1.00  0.00    -0.374 OA
BRANCH  38  39
ATOM     39  C   UNL A   1      53.843  22.417  32.860  1.00  0.00     0.202 C 
BRANCH  39  40
ATOM     40  C   UNL A   1      52.891  23.627  32.971  1.00  0.00     0.261 C 
BRANCH  40  41
ATOM     41  O   UNL A   1      51.786  23.540  33.945  1.00  0.00    -0.460 OA
BRANCH  41  42
ATOM     42  C   UNL A   1      50.577  23.126  33.457  1.00  0.00     0.338 C 
ATOM     43  O   UNL A   1      50.312  21.942  33.268  1.00  0.00    -0.246 OA
BRANCH  42  44
ATOM     44  C   UNL A   1      49.508  24.204  33.197  1.00  0.00     0.060 A 
ATOM     45  C   UNL A   1      48.333  24.081  33.908  1.00  0.00     0.016 A 
ATOM     46  C   UNL A   1      49.472  25.228  32.223  1.00  0.00     0.016 A 
ATOM     47  C   UNL A   1      47.215  24.947  33.665  1.00  0.00     0.010 A 
ATOM     48  C   UNL A   1      48.255  26.059  31.918  1.00  0.00     0.010 A 
ATOM     49  C   UNL A   1      47.039  25.938  32.615  1.00  0.00    -0.014 A 
BRANCH  49  50
ATOM     50  C   UNL A   1      45.454  26.517  32.325  1.00  0.00     0.031 A 
ATOM     51  C   UNL A   1      44.978  25.557  31.294  1.00  0.00     0.074 A 
ATOM     52  C   UNL A   1      44.497  27.559  32.465  1.00  0.00     0.049 A 
ATOM     53  N   UNL A   1      45.666  25.535  30.193  1.00  0.00    -0.248 NA
ATOM     54  C   UNL A   1      44.157  24.367  31.521  1.00  0.00     0.031 C 
ATOM     55  C   UNL A   1      44.642  28.873  33.125  1.00  0.00     0.029 A 
ATOM     56  N   UNL A   1      43.119  27.725  31.992  1.00  0.00    -0.354 N 
ATOM     57  C   UNL A   1      45.252  24.459  29.461  1.00  0.00     0.074 A 
ATOM     58  C   UNL A   1      44.409  23.699  30.382  1.00  0.00     0.031 C 
ATOM     59  C   UNL A   1      43.469  29.585  33.162  1.00  0.00     0.029 A 
ATOM     60  C   UNL A   1      42.374  28.895  32.468  1.00  0.00     0.049 A 
ATOM     61  H   UNL A   1      42.710  27.076  31.375  1.00  0.00     0.167 HD
ATOM     62  C   UNL A   1      45.127  24.727  28.133  1.00  0.00     0.037 A 
ATOM     63  C   UNL A   1      41.052  29.347  32.247  1.00  0.00     0.037 A 
ATOM     64  C   UNL A   1      43.767  25.087  27.842  1.00  0.00     0.049 A 
ATOM     65  C   UNL A   1      40.702  28.883  30.903  1.00  0.00     0.074 A 
ATOM     66  C   UNL A   1      42.565  24.559  28.275  1.00  0.00     0.029 A 
ATOM     67  N   UNL A   1      43.527  26.399  27.501  1.00  0.00    -0.354 N 
ATOM     68  N   UNL A   1      41.146  29.499  29.853  1.00  0.00    -0.248 NA
ATOM     69  C   UNL A   1      39.727  27.830  30.649  1.00  0.00     0.031 C 
ATOM     70  C   UNL A   1      41.843  25.686  28.719  1.00  0.00     0.029 A 
ATOM     71  C   UNL A   1      42.384  26.824  28.133  1.00  0.00     0.049 A 
ATOM     72  H   UNL A   1      44.085  26.945  26.901  1.00  0.00     0.167 HD
ATOM     73  C   UNL A   1      40.979  28.579  28.876  1.00  0.00     0.074 A 
ATOM     74  C   UNL A   1      39.883  27.735  29.326  1.00  0.00     0.031 C 
ATOM     75  C   UNL A   1      42.116  28.235  28.228  1.00  0.00     0.037 A 
BRANCH  62  76
ATOM     76  C   UNL A   1      46.351  25.447  27.596  1.00  0.00     0.057 A 
ATOM     77  C   UNL A   1      47.240  24.748  26.779  1.00  0.00     0.134 A 
ATOM     78  C   UNL A   1      46.779  26.717  28.048  1.00  0.00     0.134 A 
ATOM     79  F   UNL A   1      46.893  23.558  26.266  1.00  0.00    -0.206 F 
ATOM     80  C   UNL A   1      48.517  25.245  26.491  1.00  0.00     0.040 A 
ATOM     81  C   UNL A   1      48.075  27.185  27.835  1.00  0.00     0.040 A 
ATOM     82  F   UNL A   1      45.955  27.520  28.742  1.00  0.00    -0.206 F 
ATOM     83  C   UNL A   1      48.954  26.443  27.059  1.00  0.00     0.006 A 
ENDBRANCH  62  76
BRANCH  63  84
ATOM     84  C   UNL A   1      39.876  30.335  32.675  1.00  0.00     0.057 A 
ATOM     85  C   UNL A   1      38.680  29.869  33.346  1.00  0.00     0.134 A 
ATOM     86  C   UNL A   1      40.077  31.707  32.876  1.00  0.00     0.134 A 
ATOM     87  F   UNL A   1      38.263  28.599  33.250  1.00  0.00    -0.206 F 
ATOM     88  C   UNL A   1      37.869  30.643  34.211  1.00  0.00     0.040 A 
ATOM     89  C   UNL A   1      39.240  32.507  33.717  1.00  0.00     0.040 A 
ATOM     90  F   UNL A   1      41.141  32.314  32.336  1.00  0.00    -0.206 F 
ATOM     91  C   UNL A   1      38.161  31.973  34.420  1.00  0.00     0.006 A 
ENDBRANCH  63  84
BRANCH  75  92
ATOM     92  C   UNL A   1      43.050  29.366  27.819  1.00  0.00     0.057 A 
ATOM     93  C   UNL A   1      43.983  30.052  28.633  1.00  0.00     0.134 A 
ATOM     94  C   UNL A   1      42.917  29.866  26.518  1.00  0.00     0.134 A 
ATOM     95  F   UNL A   1      44.323  29.633  29.860  1.00  0.00    -0.206 F 
ATOM     96  C   UNL A   1      44.645  31.212  28.205  1.00  0.00     0.040 A 
ATOM     97  C   UNL A   1      43.618  30.986  26.060  1.00  0.00     0.040 A 
ATOM     98  F   UNL A   1      42.093  29.265  25.647  1.00  0.00    -0.206 F 
ATOM     99  C   UNL A   1      44.462  31.685  26.914  1.00  0.00     0.006 A 
ENDBRANCH  75  92
ENDBRANCH  49  50
ENDBRANCH  42  44
ENDBRANCH  41  42
ENDBRANCH  40  41
ENDBRANCH  39  40
ENDBRANCH  38  39
ENDBRANCH  37  38
ENDBRANCH   1  37
TORSDOF 22
ENDMDL
