MODEL 1
REMARK VINA RESULT:     -12.0      0.000      0.000
REMARK SMILES CN1C(=O)C(=Cc2ccc(OCc3cccc(C(=O)OCCOCCOC(=O)c4ccc(-c5c6nc(c(-c7c(F)cccc7F)c7ccc([nH]7)c(-c7c(F)cccc7F)c7nc(c(-c8c(F)cccc8F)c8ccc5[nH]8)C=C7)C=C6)cc4)c3)c(Cl)c2)C(=O)N(C)C1=S
REMARK SMILES IDX 22 1 21 2 20 3 18 4 19 5 17 6 13 7 14 8 83 9 15 10 16 11
REMARK SMILES IDX 12 12 11 13 10 14 7 15 8 16 86 17 9 18 84 19 85 20 6 21 1 22
REMARK SMILES IDX 2 23 3 24 91 25 4 26 5 27 89 28 92 29 87 30 90 31 88 32
REMARK SMILES IDX 23 33 24 34 25 35 26 36 27 37 28 38 29 39 30 40 82 41 31 42
REMARK SMILES IDX 81 43 32 44 33 45 34 46 75 47 35 48 80 49 74 50 76 51 36 52
REMARK SMILES IDX 79 53 73 54 72 55 37 57 63 58 46 59 62 60 47 61 50 62 61 63
REMARK SMILES IDX 77 64 48 65 49 66 60 68 78 69 51 70 38 71 39 72 44 73 40 74
REMARK SMILES IDX 41 75 43 76 45 77 42 78 64 79 65 80 70 81 66 82 67 83 69 84
REMARK SMILES IDX 71 85 68 86 52 87 53 88 58 89 54 90 55 91 57 92 59 93 56 94
REMARK H PARENT 76 56 50 67
REMARK Flexibility Score: inf
ROOT
ATOM      1  C   UNL A   1      41.747  21.527  26.659  1.00  0.00     0.202 C 
ENDROOT
BRANCH   1   2
ATOM      2  C   UNL A   1      40.253  21.334  26.912  1.00  0.00     0.261 C 
BRANCH   2   3
ATOM      3  O   UNL A   1      39.499  21.755  25.762  1.00  0.00    -0.460 OA
BRANCH   3   4
ATOM      4  C   UNL A   1      38.533  20.892  25.372  1.00  0.00     0.338 C 
ATOM      5  O   UNL A   1      38.673  19.701  25.127  1.00  0.00    -0.246 OA
BRANCH   4   6
ATOM      6  C   UNL A   1      37.207  21.550  25.389  1.00  0.00     0.060 A 
ATOM      7  C   UNL A   1      34.793  21.576  25.096  1.00  0.00    -0.010 A 
ATOM      8  C   UNL A   1      34.783  22.922  25.496  1.00  0.00     0.007 A 
ATOM      9  C   UNL A   1      36.018  20.885  25.056  1.00  0.00     0.023 A 
ATOM     10  C   UNL A   1      35.965  23.585  25.812  1.00  0.00     0.001 A 
ATOM     11  C   UNL A   1      37.175  22.900  25.761  1.00  0.00     0.016 A 
BRANCH   7  12
ATOM     12  C   UNL A   1      33.476  20.909  24.759  1.00  0.00     0.265 C 
BRANCH  12  13
ATOM     13  O   UNL A   1      32.862  21.342  23.551  1.00  0.00    -0.487 OA
BRANCH  13  14
ATOM     14  C   UNL A   1      32.407  22.622  23.416  1.00  0.00     0.138 A 
ATOM     15  C   UNL A   1      31.781  25.281  22.755  1.00  0.00    -0.023 A 
ATOM     16  C   UNL A   1      32.692  24.562  21.979  1.00  0.00     0.012 A 
ATOM     17  C   UNL A   1      31.215  24.680  23.875  1.00  0.00     0.032 A 
ATOM     18  C   UNL A   1      32.985  23.242  22.300  1.00  0.00     0.048 A 
ATOM     19  C   UNL A   1      31.494  23.347  24.192  1.00  0.00     0.083 A 
ATOM     20  Cl  UNL A   1      30.562  22.723  25.504  1.00  0.00    -0.080 Cl
BRANCH  15  21
ATOM     21  C   UNL A   1      31.437  26.674  22.491  1.00  0.00     0.027 C 
ATOM     22  C   UNL A   1      32.511  28.317  26.826  1.00  0.00     0.156 C 
ATOM     23  N   UNL A   1      32.127  28.621  25.441  1.00  0.00    -0.288 N 
ATOM     24  C   UNL A   1      32.535  27.712  24.480  1.00  0.00     0.265 C 
ATOM     25  C   UNL A   1      31.393  29.770  25.135  1.00  0.00     0.185 C 
ATOM     26  O   UNL A   1      33.471  26.935  24.633  1.00  0.00    -0.268 OA
ATOM     27  C   UNL A   1      31.747  27.749  23.236  1.00  0.00     0.106 C 
ATOM     28  N   UNL A   1      30.626  29.705  23.971  1.00  0.00    -0.288 N 
ATOM     29  S   UNL A   1      31.471  31.164  26.068  1.00  0.00    -0.040 S 
ATOM     30  C   UNL A   1      30.977  28.943  22.879  1.00  0.00     0.265 C 
ATOM     31  C   UNL A   1      29.346  30.386  23.855  1.00  0.00     0.156 C 
ATOM     32  O   UNL A   1      30.607  29.172  21.731  1.00  0.00    -0.268 OA
ENDBRANCH  15  21
ENDBRANCH  13  14
ENDBRANCH  12  13
ENDBRANCH   7  12
ENDBRANCH   4   6
ENDBRANCH   3   4
ENDBRANCH   2   3
ENDBRANCH   1   2
BRANCH   1  33
ATOM     33  O   UNL A   1      42.528  20.358  26.903  1.00  0.00    -0.374 OA
BRANCH  33  34
ATOM     34  C   UNL A   1      42.199  19.227  26.091  1.00  0.00     0.202 C 
BRANCH  34  35
ATOM     35  C   UNL A   1      43.420  18.449  25.582  1.00  0.00     0.261 C 
BRANCH  35  36
ATOM     36  O   UNL A   1      43.806  18.870  24.259  1.00  0.00    -0.460 OA
BRANCH  36  37
ATOM     37  C   UNL A   1      45.026  19.450  24.141  1.00  0.00     0.338 C 
ATOM     38  O   UNL A   1      46.033  18.936  23.668  1.00  0.00    -0.246 OA
BRANCH  37  39
ATOM     39  C   UNL A   1      44.992  20.860  24.617  1.00  0.00     0.060 A 
ATOM     40  C   UNL A   1      44.332  21.827  23.847  1.00  0.00     0.016 A 
ATOM     41  C   UNL A   1      45.608  21.253  25.805  1.00  0.00     0.016 A 
ATOM     42  C   UNL A   1      44.367  23.182  24.214  1.00  0.00     0.010 A 
ATOM     43  C   UNL A   1      45.661  22.603  26.161  1.00  0.00     0.010 A 
ATOM     44  C   UNL A   1      45.084  23.589  25.344  1.00  0.00    -0.014 A 
BRANCH  44  45
ATOM     45  C   UNL A   1      45.250  25.024  25.709  1.00  0.00     0.031 A 
ATOM     46  C   UNL A   1      46.559  25.744  25.498  1.00  0.00     0.074 A 
ATOM     47  C   UNL A   1      44.257  25.648  26.365  1.00  0.00     0.049 A 
ATOM     48  N   UNL A   1      46.990  26.867  26.019  1.00  0.00    -0.248 NA
ATOM     49  C   UNL A   1      47.541  25.070  24.647  1.00  0.00     0.031 C 
ATOM     50  C   UNL A   1      42.933  25.083  26.626  1.00  0.00     0.029 A 
ATOM     51  N   UNL A   1      44.212  26.896  26.925  1.00  0.00    -0.354 N 
ATOM     52  C   UNL A   1      48.350  26.938  25.706  1.00  0.00     0.074 A 
ATOM     53  C   UNL A   1      48.638  25.775  24.893  1.00  0.00     0.031 C 
ATOM     54  C   UNL A   1      42.193  26.000  27.271  1.00  0.00     0.029 A 
ATOM     55  C   UNL A   1      42.995  27.204  27.476  1.00  0.00     0.049 A 
ATOM     56  H   UNL A   1      44.979  27.513  26.931  1.00  0.00     0.167 HD
ATOM     57  C   UNL A   1      49.268  27.854  26.118  1.00  0.00     0.037 A 
ATOM     58  C   UNL A   1      42.569  28.344  28.048  1.00  0.00     0.037 A 
ATOM     59  C   UNL A   1      48.904  29.099  26.755  1.00  0.00     0.049 A 
ATOM     60  C   UNL A   1      43.507  29.511  28.158  1.00  0.00     0.074 A 
ATOM     61  C   UNL A   1      49.706  30.189  27.052  1.00  0.00     0.029 A 
ATOM     62  N   UNL A   1      47.617  29.436  27.143  1.00  0.00    -0.354 N 
ATOM     63  N   UNL A   1      44.790  29.565  27.891  1.00  0.00    -0.248 NA
ATOM     64  C   UNL A   1      42.935  30.783  28.620  1.00  0.00     0.031 C 
ATOM     65  C   UNL A   1      48.900  31.190  27.608  1.00  0.00     0.029 A 
ATOM     66  C   UNL A   1      47.592  30.734  27.624  1.00  0.00     0.049 A 
ATOM     67  H   UNL A   1      46.836  28.841  27.084  1.00  0.00     0.167 HD
ATOM     68  C   UNL A   1      45.172  30.879  28.128  1.00  0.00     0.074 A 
ATOM     69  C   UNL A   1      43.983  31.593  28.541  1.00  0.00     0.031 C 
ATOM     70  C   UNL A   1      46.400  31.440  28.016  1.00  0.00     0.037 A 
BRANCH  57  71
ATOM     71  C   UNL A   1      50.742  27.563  25.927  1.00  0.00     0.057 A 
ATOM     72  C   UNL A   1      51.454  27.901  24.769  1.00  0.00     0.134 A 
ATOM     73  C   UNL A   1      51.483  26.955  26.958  1.00  0.00     0.134 A 
ATOM     74  F   UNL A   1      50.840  28.520  23.749  1.00  0.00    -0.206 F 
ATOM     75  C   UNL A   1      52.807  27.584  24.612  1.00  0.00     0.040 A 
ATOM     76  C   UNL A   1      52.848  26.676  26.833  1.00  0.00     0.040 A 
ATOM     77  F   UNL A   1      50.900  26.637  28.125  1.00  0.00    -0.206 F 
ATOM     78  C   UNL A   1      53.509  26.972  25.647  1.00  0.00     0.006 A 
ENDBRANCH  57  71
BRANCH  58  79
ATOM     79  C   UNL A   1      41.141  28.467  28.419  1.00  0.00     0.057 A 
ATOM     80  C   UNL A   1      40.736  28.203  29.733  1.00  0.00     0.134 A 
ATOM     81  C   UNL A   1      40.171  28.907  27.515  1.00  0.00     0.134 A 
ATOM     82  F   UNL A   1      41.628  27.779  30.640  1.00  0.00    -0.206 F 
ATOM     83  C   UNL A   1      39.411  28.359  30.134  1.00  0.00     0.040 A 
ATOM     84  C   UNL A   1      38.844  29.088  27.908  1.00  0.00     0.040 A 
ATOM     85  F   UNL A   1      40.507  29.206  26.251  1.00  0.00    -0.206 F 
ATOM     86  C   UNL A   1      38.461  28.810  29.220  1.00  0.00     0.006 A 
ENDBRANCH  58  79
BRANCH  70  87
ATOM     87  C   UNL A   1      46.524  32.907  28.303  1.00  0.00     0.057 A 
ATOM     88  C   UNL A   1      46.857  33.388  29.575  1.00  0.00     0.134 A 
ATOM     89  C   UNL A   1      46.364  33.846  27.276  1.00  0.00     0.134 A 
ATOM     90  F   UNL A   1      47.015  32.540  30.602  1.00  0.00    -0.206 F 
ATOM     91  C   UNL A   1      47.008  34.754  29.820  1.00  0.00     0.040 A 
ATOM     92  C   UNL A   1      46.535  35.213  27.503  1.00  0.00     0.040 A 
ATOM     93  F   UNL A   1      46.052  33.450  26.032  1.00  0.00    -0.206 F 
ATOM     94  C   UNL A   1      46.853  35.670  28.780  1.00  0.00     0.006 A 
ENDBRANCH  70  87
ENDBRANCH  44  45
ENDBRANCH  37  39
ENDBRANCH  36  37
ENDBRANCH  35  36
ENDBRANCH  34  35
ENDBRANCH  33  34
ENDBRANCH   1  33
TORSDOF 18
ENDMDL
MODEL 2
REMARK VINA RESULT:     -11.7      1.698      3.086
REMARK SMILES CN1C(=O)C(=Cc2ccc(OCc3cccc(C(=O)OCCOCCOC(=O)c4ccc(-c5c6nc(c(-c7c(F)cccc7F)c7ccc([nH]7)c(-c7c(F)cccc7F)c7nc(c(-c8c(F)cccc8F)c8ccc5[nH]8)C=C7)C=C6)cc4)c3)c(Cl)c2)C(=O)N(C)C1=S
REMARK SMILES IDX 22 1 21 2 20 3 18 4 19 5 17 6 13 7 14 8 83 9 15 10 16 11
REMARK SMILES IDX 12 12 11 13 10 14 7 15 8 16 86 17 9 18 84 19 85 20 6 21 1 22
REMARK SMILES IDX 2 23 3 24 91 25 4 26 5 27 89 28 92 29 87 30 90 31 88 32
REMARK SMILES IDX 23 33 24 34 25 35 26 36 27 37 28 38 29 39 30 40 82 41 31 42
REMARK SMILES IDX 81 43 32 44 33 45 34 46 75 47 35 48 80 49 74 50 76 51 36 52
REMARK SMILES IDX 79 53 73 54 72 55 37 57 63 58 46 59 62 60 47 61 50 62 61 63
REMARK SMILES IDX 77 64 48 65 49 66 60 68 78 69 51 70 38 71 39 72 44 73 40 74
REMARK SMILES IDX 41 75 43 76 45 77 42 78 64 79 65 80 70 81 66 82 67 83 69 84
REMARK SMILES IDX 71 85 68 86 52 87 53 88 58 89 54 90 55 91 57 92 59 93 56 94
REMARK H PARENT 76 56 50 67
REMARK Flexibility Score: inf
ROOT
ATOM      1  C   UNL A   1      40.007  21.794  26.675  1.00  0.00     0.202 C 
ENDROOT
BRANCH   1   2
ATOM      2  C   UNL A   1      38.965  21.656  25.568  1.00  0.00     0.261 C 
BRANCH   2   3
ATOM      3  O   UNL A   1      37.649  21.905  26.094  1.00  0.00    -0.460 OA
BRANCH   3   4
ATOM      4  C   UNL A   1      37.094  23.074  25.697  1.00  0.00     0.338 C 
ATOM      5  O   UNL A   1      37.592  24.188  25.786  1.00  0.00    -0.246 OA
BRANCH   4   6
ATOM      6  C   UNL A   1      35.808  22.831  25.003  1.00  0.00     0.060 A 
ATOM      7  C   UNL A   1      33.986  23.469  23.525  1.00  0.00    -0.010 A 
ATOM      8  C   UNL A   1      33.396  22.215  23.749  1.00  0.00     0.007 A 
ATOM      9  C   UNL A   1      35.209  23.770  24.151  1.00  0.00     0.023 A 
ATOM     10  C   UNL A   1      33.984  21.290  24.607  1.00  0.00     0.001 A 
ATOM     11  C   UNL A   1      35.189  21.596  25.231  1.00  0.00     0.016 A 
BRANCH   7  12
ATOM     12  C   UNL A   1      33.298  24.437  22.586  1.00  0.00     0.265 C 
BRANCH  12  13
ATOM     13  O   UNL A   1      32.456  25.401  23.209  1.00  0.00    -0.487 OA
BRANCH  13  14
ATOM     14  C   UNL A   1      32.913  26.165  24.244  1.00  0.00     0.138 A 
ATOM     15  C   UNL A   1      34.023  28.038  26.021  1.00  0.00    -0.023 A 
ATOM     16  C   UNL A   1      34.082  28.258  24.644  1.00  0.00     0.012 A 
ATOM     17  C   UNL A   1      33.442  26.867  26.501  1.00  0.00     0.032 A 
ATOM     18  C   UNL A   1      33.516  27.338  23.770  1.00  0.00     0.048 A 
ATOM     19  C   UNL A   1      32.857  25.947  25.627  1.00  0.00     0.083 A 
ATOM     20  Cl  UNL A   1      32.029  24.653  26.414  1.00  0.00    -0.080 Cl
BRANCH  15  21
ATOM     21  C   UNL A   1      34.609  28.949  26.998  1.00  0.00     0.027 C 
ATOM     22  C   UNL A   1      31.398  32.422  26.483  1.00  0.00     0.156 C 
ATOM     23  N   UNL A   1      32.549  31.893  27.227  1.00  0.00    -0.288 N 
ATOM     24  C   UNL A   1      32.681  30.516  27.251  1.00  0.00     0.265 C 
ATOM     25  C   UNL A   1      33.446  32.753  27.867  1.00  0.00     0.185 C 
ATOM     26  O   UNL A   1      31.752  29.740  27.053  1.00  0.00    -0.268 OA
ATOM     27  C   UNL A   1      34.045  30.041  27.542  1.00  0.00     0.106 C 
ATOM     28  N   UNL A   1      34.736  32.251  28.052  1.00  0.00    -0.288 N 
ATOM     29  S   UNL A   1      32.994  34.267  28.434  1.00  0.00    -0.040 S 
ATOM     30  C   UNL A   1      35.006  30.912  28.222  1.00  0.00     0.265 C 
ATOM     31  C   UNL A   1      35.909  33.110  28.000  1.00  0.00     0.156 C 
ATOM     32  O   UNL A   1      36.000  30.477  28.798  1.00  0.00    -0.268 OA
ENDBRANCH  15  21
ENDBRANCH  13  14
ENDBRANCH  12  13
ENDBRANCH   7  12
ENDBRANCH   4   6
ENDBRANCH   3   4
ENDBRANCH   2   3
ENDBRANCH   1   2
BRANCH   1  33
ATOM     33  O   UNL A   1      40.479  20.547  27.182  1.00  0.00    -0.374 OA
BRANCH  33  34
ATOM     34  C   UNL A   1      40.825  19.579  26.187  1.00  0.00     0.202 C 
BRANCH  34  35
ATOM     35  C   UNL A   1      42.291  19.129  26.239  1.00  0.00     0.261 C 
BRANCH  35  36
ATOM     36  O   UNL A   1      42.884  19.096  24.925  1.00  0.00    -0.460 OA
BRANCH  36  37
ATOM     37  C   UNL A   1      44.222  19.305  24.860  1.00  0.00     0.338 C 
ATOM     38  O   UNL A   1      45.083  18.454  24.673  1.00  0.00    -0.246 OA
BRANCH  37  39
ATOM     39  C   UNL A   1      44.540  20.753  24.991  1.00  0.00     0.060 A 
ATOM     40  C   UNL A   1      45.650  21.146  25.751  1.00  0.00     0.016 A 
ATOM     41  C   UNL A   1      43.759  21.737  24.384  1.00  0.00     0.016 A 
ATOM     42  C   UNL A   1      45.919  22.505  25.978  1.00  0.00     0.010 A 
ATOM     43  C   UNL A   1      44.014  23.090  24.626  1.00  0.00     0.010 A 
ATOM     44  C   UNL A   1      45.067  23.489  25.465  1.00  0.00    -0.014 A 
BRANCH  44  45
ATOM     45  C   UNL A   1      45.242  24.936  25.775  1.00  0.00     0.031 A 
ATOM     46  C   UNL A   1      46.535  25.654  25.478  1.00  0.00     0.074 A 
ATOM     47  C   UNL A   1      44.278  25.575  26.459  1.00  0.00     0.049 A 
ATOM     48  N   UNL A   1      46.984  26.795  25.941  1.00  0.00    -0.248 NA
ATOM     49  C   UNL A   1      47.478  24.957  24.601  1.00  0.00     0.031 C 
ATOM     50  C   UNL A   1      42.973  25.014  26.804  1.00  0.00     0.029 A 
ATOM     51  N   UNL A   1      44.254  26.841  26.981  1.00  0.00    -0.354 N 
ATOM     52  C   UNL A   1      48.326  26.862  25.558  1.00  0.00     0.074 A 
ATOM     53  C   UNL A   1      48.581  25.675  24.769  1.00  0.00     0.031 C 
ATOM     54  C   UNL A   1      42.259  25.948  27.454  1.00  0.00     0.029 A 
ATOM     55  C   UNL A   1      43.063  27.161  27.581  1.00  0.00     0.049 A 
ATOM     56  H   UNL A   1      45.016  27.462  26.929  1.00  0.00     0.167 HD
ATOM     57  C   UNL A   1      49.258  27.795  25.895  1.00  0.00     0.037 A 
ATOM     58  C   UNL A   1      42.659  28.317  28.137  1.00  0.00     0.037 A 
ATOM     59  C   UNL A   1      48.919  29.058  26.510  1.00  0.00     0.049 A 
ATOM     60  C   UNL A   1      43.595  29.491  28.164  1.00  0.00     0.074 A 
ATOM     61  C   UNL A   1      49.727  30.160  26.732  1.00  0.00     0.029 A 
ATOM     62  N   UNL A   1      47.651  29.401  26.950  1.00  0.00    -0.354 N 
ATOM     63  N   UNL A   1      44.862  29.542  27.832  1.00  0.00    -0.248 NA
ATOM     64  C   UNL A   1      43.039  30.775  28.613  1.00  0.00     0.031 C 
ATOM     65  C   UNL A   1      48.944  31.175  27.295  1.00  0.00     0.029 A 
ATOM     66  C   UNL A   1      47.641  30.714  27.391  1.00  0.00     0.049 A 
ATOM     67  H   UNL A   1      46.871  28.802  26.948  1.00  0.00     0.167 HD
ATOM     68  C   UNL A   1      45.248  30.865  28.008  1.00  0.00     0.074 A 
ATOM     69  C   UNL A   1      44.077  31.586  28.457  1.00  0.00     0.031 C 
ATOM     70  C   UNL A   1      46.466  31.427  27.817  1.00  0.00     0.037 A 
BRANCH  57  71
ATOM     71  C   UNL A   1      50.723  27.504  25.641  1.00  0.00     0.057 A 
ATOM     72  C   UNL A   1      51.583  26.967  26.606  1.00  0.00     0.134 A 
ATOM     73  C   UNL A   1      51.280  27.737  24.369  1.00  0.00     0.134 A 
ATOM     74  F   UNL A   1      51.131  26.675  27.835  1.00  0.00    -0.206 F 
ATOM     75  C   UNL A   1      52.940  26.745  26.348  1.00  0.00     0.040 A 
ATOM     76  C   UNL A   1      52.624  27.473  24.084  1.00  0.00     0.040 A 
ATOM     77  F   UNL A   1      50.524  28.205  23.364  1.00  0.00    -0.206 F 
ATOM     78  C   UNL A   1      53.464  26.995  25.083  1.00  0.00     0.006 A 
ENDBRANCH  57  71
BRANCH  58  79
ATOM     79  C   UNL A   1      41.250  28.445  28.574  1.00  0.00     0.057 A 
ATOM     80  C   UNL A   1      40.268  28.833  27.655  1.00  0.00     0.134 A 
ATOM     81  C   UNL A   1      40.839  28.125  29.871  1.00  0.00     0.134 A 
ATOM     82  F   UNL A   1      40.609  29.151  26.398  1.00  0.00    -0.206 F 
ATOM     83  C   UNL A   1      38.924  28.914  28.014  1.00  0.00     0.040 A 
ATOM     84  C   UNL A   1      39.494  28.180  30.238  1.00  0.00     0.040 A 
ATOM     85  F   UNL A   1      41.733  27.716  30.784  1.00  0.00    -0.206 F 
ATOM     86  C   UNL A   1      38.533  28.580  29.309  1.00  0.00     0.006 A 
ENDBRANCH  58  79
BRANCH  70  87
ATOM     87  C   UNL A   1      46.595  32.903  28.052  1.00  0.00     0.057 A 
ATOM     88  C   UNL A   1      46.270  33.842  27.066  1.00  0.00     0.134 A 
ATOM     89  C   UNL A   1      46.996  33.389  29.304  1.00  0.00     0.134 A 
ATOM     90  F   UNL A   1      45.888  33.441  25.845  1.00  0.00    -0.206 F 
ATOM     91  C   UNL A   1      46.357  35.213  27.311  1.00  0.00     0.040 A 
ATOM     92  C   UNL A   1      47.065  34.758  29.567  1.00  0.00     0.040 A 
ATOM     93  F   UNL A   1      47.315  32.541  30.294  1.00  0.00    -0.206 F 
ATOM     94  C   UNL A   1      46.749  35.674  28.567  1.00  0.00     0.006 A 
ENDBRANCH  70  87
ENDBRANCH  44  45
ENDBRANCH  37  39
ENDBRANCH  36  37
ENDBRANCH  35  36
ENDBRANCH  34  35
ENDBRANCH  33  34
ENDBRANCH   1  33
TORSDOF 18
ENDMDL
MODEL 3
REMARK VINA RESULT:     -11.4      5.153     11.260
REMARK SMILES CN1C(=O)C(=Cc2ccc(OCc3cccc(C(=O)OCCOCCOC(=O)c4ccc(-c5c6nc(c(-c7c(F)cccc7F)c7ccc([nH]7)c(-c7c(F)cccc7F)c7nc(c(-c8c(F)cccc8F)c8ccc5[nH]8)C=C7)C=C6)cc4)c3)c(Cl)c2)C(=O)N(C)C1=S
REMARK SMILES IDX 22 1 21 2 20 3 18 4 19 5 17 6 13 7 14 8 83 9 15 10 16 11
REMARK SMILES IDX 12 12 11 13 10 14 7 15 8 16 86 17 9 18 84 19 85 20 6 21 1 22
REMARK SMILES IDX 2 23 3 24 91 25 4 26 5 27 89 28 92 29 87 30 90 31 88 32
REMARK SMILES IDX 23 33 24 34 25 35 26 36 27 37 28 38 29 39 30 40 82 41 31 42
REMARK SMILES IDX 81 43 32 44 33 45 34 46 75 47 35 48 80 49 74 50 76 51 36 52
REMARK SMILES IDX 79 53 73 54 72 55 37 57 63 58 46 59 62 60 47 61 50 62 61 63
REMARK SMILES IDX 77 64 48 65 49 66 60 68 78 69 51 70 38 71 39 72 44 73 40 74
REMARK SMILES IDX 41 75 43 76 45 77 42 78 64 79 65 80 70 81 66 82 67 83 69 84
REMARK SMILES IDX 71 85 68 86 52 87 53 88 58 89 54 90 55 91 57 92 59 93 56 94
REMARK H PARENT 76 56 50 67
REMARK Flexibility Score: inf
ROOT
ATOM      1  C   UNL A   1      32.930  36.500  31.554  1.00  0.00     0.202 C 
ENDROOT
BRANCH   1   2
ATOM      2  C   UNL A   1      32.904  36.054  30.094  1.00  0.00     0.261 C 
BRANCH   2   3
ATOM      3  O   UNL A   1      32.920  34.618  30.016  1.00  0.00    -0.460 OA
BRANCH   3   4
ATOM      4  C   UNL A   1      33.213  34.120  28.792  1.00  0.00     0.338 C 
ATOM      5  O   UNL A   1      32.552  34.256  27.771  1.00  0.00    -0.246 OA
BRANCH   4   6
ATOM      6  C   UNL A   1      34.541  33.465  28.798  1.00  0.00     0.060 A 
ATOM      7  C   UNL A   1      36.018  31.552  28.538  1.00  0.00    -0.010 A 
ATOM      8  C   UNL A   1      37.110  32.386  28.826  1.00  0.00     0.007 A 
ATOM      9  C   UNL A   1      34.725  32.105  28.513  1.00  0.00     0.023 A 
ATOM     10  C   UNL A   1      36.925  33.732  29.125  1.00  0.00     0.001 A 
ATOM     11  C   UNL A   1      35.643  34.272  29.108  1.00  0.00     0.016 A 
BRANCH   7  12
ATOM     12  C   UNL A   1      36.280  30.093  28.227  1.00  0.00     0.265 C 
BRANCH  12  13
ATOM     13  O   UNL A   1      36.826  29.328  29.295  1.00  0.00    -0.487 OA
BRANCH  13  14
ATOM     14  C   UNL A   1      38.061  28.755  29.187  1.00  0.00     0.138 A 
ATOM     15  C   UNL A   1      40.630  27.821  28.536  1.00  0.00    -0.023 A 
ATOM     16  C   UNL A   1      39.979  28.723  27.694  1.00  0.00     0.012 A 
ATOM     17  C   UNL A   1      39.981  27.363  29.679  1.00  0.00     0.032 A 
ATOM     18  C   UNL A   1      38.716  29.196  28.029  1.00  0.00     0.048 A 
ATOM     19  C   UNL A   1      38.717  27.849  30.030  1.00  0.00     0.083 A 
ATOM     20  Cl  UNL A   1      38.154  27.307  31.568  1.00  0.00    -0.080 Cl
BRANCH  15  21
ATOM     21  C   UNL A   1      41.948  27.268  28.243  1.00  0.00     0.027 C 
ATOM     22  C   UNL A   1      40.427  22.980  26.846  1.00  0.00     0.156 C 
ATOM     23  N   UNL A   1      41.549  23.919  26.979  1.00  0.00    -0.288 N 
ATOM     24  C   UNL A   1      41.229  25.265  26.935  1.00  0.00     0.265 C 
ATOM     25  C   UNL A   1      42.858  23.456  27.139  1.00  0.00     0.185 C 
ATOM     26  O   UNL A   1      40.203  25.704  26.426  1.00  0.00    -0.268 OA
ATOM     27  C   UNL A   1      42.232  26.149  27.554  1.00  0.00     0.106 C 
ATOM     28  N   UNL A   1      43.732  24.328  27.788  1.00  0.00    -0.288 N 
ATOM     29  S   UNL A   1      43.368  21.973  26.538  1.00  0.00    -0.040 S 
ATOM     30  C   UNL A   1      43.616  25.698  27.725  1.00  0.00     0.265 C 
ATOM     31  C   UNL A   1      44.799  23.845  28.651  1.00  0.00     0.156 C 
ATOM     32  O   UNL A   1      44.548  26.479  27.892  1.00  0.00    -0.268 OA
ENDBRANCH  15  21
ENDBRANCH  13  14
ENDBRANCH  12  13
ENDBRANCH   7  12
ENDBRANCH   4   6
ENDBRANCH   3   4
ENDBRANCH   2   3
ENDBRANCH   1   2
BRANCH   1  33
ATOM     33  O   UNL A   1      34.190  36.299  32.195  1.00  0.00    -0.374 OA
BRANCH  33  34
ATOM     34  C   UNL A   1      34.361  35.019  32.809  1.00  0.00     0.202 C 
BRANCH  34  35
ATOM     35  C   UNL A   1      35.662  34.882  33.612  1.00  0.00     0.261 C 
BRANCH  35  36
ATOM     36  O   UNL A   1      36.468  33.785  33.136  1.00  0.00    -0.460 OA
BRANCH  36  37
ATOM     37  C   UNL A   1      37.071  33.024  34.082  1.00  0.00     0.338 C 
ATOM     38  O   UNL A   1      36.736  32.921  35.255  1.00  0.00    -0.246 OA
BRANCH  37  39
ATOM     39  C   UNL A   1      38.201  32.249  33.498  1.00  0.00     0.060 A 
ATOM     40  C   UNL A   1      39.443  32.255  34.146  1.00  0.00     0.016 A 
ATOM     41  C   UNL A   1      38.063  31.521  32.316  1.00  0.00     0.016 A 
ATOM     42  C   UNL A   1      40.555  31.619  33.571  1.00  0.00     0.010 A 
ATOM     43  C   UNL A   1      39.173  30.905  31.733  1.00  0.00     0.010 A 
ATOM     44  C   UNL A   1      40.442  30.989  32.328  1.00  0.00    -0.014 A 
BRANCH  44  45
ATOM     45  C   UNL A   1      41.617  30.403  31.622  1.00  0.00     0.031 A 
ATOM     46  C   UNL A   1      42.150  29.038  31.980  1.00  0.00     0.074 A 
ATOM     47  C   UNL A   1      42.296  31.164  30.747  1.00  0.00     0.049 A 
ATOM     48  N   UNL A   1      43.313  28.497  31.710  1.00  0.00    -0.248 NA
ATOM     49  C   UNL A   1      41.287  28.202  32.817  1.00  0.00     0.031 C 
ATOM     50  C   UNL A   1      41.892  32.494  30.295  1.00  0.00     0.029 A 
ATOM     51  N   UNL A   1      43.467  30.918  30.083  1.00  0.00    -0.354 N 
ATOM     52  C   UNL A   1      43.389  27.341  32.493  1.00  0.00     0.074 A 
ATOM     53  C   UNL A   1      42.122  27.240  33.186  1.00  0.00     0.031 C 
ATOM     54  C   UNL A   1      42.789  32.936  29.398  1.00  0.00     0.029 A 
ATOM     55  C   UNL A   1      43.831  31.926  29.227  1.00  0.00     0.049 A 
ATOM     56  H   UNL A   1      43.997  30.098  30.206  1.00  0.00     0.167 HD
ATOM     57  C   UNL A   1      44.443  26.496  32.656  1.00  0.00     0.037 A 
ATOM     58  C   UNL A   1      44.870  32.004  28.376  1.00  0.00     0.037 A 
ATOM     59  C   UNL A   1      45.608  26.517  31.801  1.00  0.00     0.049 A 
ATOM     60  C   UNL A   1      45.843  30.864  28.292  1.00  0.00     0.074 A 
ATOM     61  C   UNL A   1      46.652  25.610  31.734  1.00  0.00     0.029 A 
ATOM     62  N   UNL A   1      45.847  27.472  30.826  1.00  0.00    -0.354 N 
ATOM     63  N   UNL A   1      45.929  29.797  29.048  1.00  0.00    -0.248 NA
ATOM     64  C   UNL A   1      46.846  30.924  27.219  1.00  0.00     0.031 C 
ATOM     65  C   UNL A   1      47.518  26.011  30.709  1.00  0.00     0.029 A 
ATOM     66  C   UNL A   1      46.992  27.147  30.117  1.00  0.00     0.049 A 
ATOM     67  H   UNL A   1      45.287  28.263  30.660  1.00  0.00     0.167 HD
ATOM     68  C   UNL A   1      46.976  29.046  28.528  1.00  0.00     0.074 A 
ATOM     69  C   UNL A   1      47.482  29.771  27.382  1.00  0.00     0.031 C 
ATOM     70  C   UNL A   1      47.475  27.865  28.966  1.00  0.00     0.037 A 
BRANCH  57  71
ATOM     71  C   UNL A   1      44.421  25.496  33.794  1.00  0.00     0.057 A 
ATOM     72  C   UNL A   1      44.680  25.835  35.127  1.00  0.00     0.134 A 
ATOM     73  C   UNL A   1      44.089  24.150  33.547  1.00  0.00     0.134 A 
ATOM     74  F   UNL A   1      44.965  27.103  35.464  1.00  0.00    -0.206 F 
ATOM     75  C   UNL A   1      44.687  24.879  36.148  1.00  0.00     0.040 A 
ATOM     76  C   UNL A   1      44.045  23.193  34.566  1.00  0.00     0.040 A 
ATOM     77  F   UNL A   1      43.778  23.737  32.308  1.00  0.00    -0.206 F 
ATOM     78  C   UNL A   1      44.365  23.554  35.870  1.00  0.00     0.006 A 
ENDBRANCH  57  71
BRANCH  58  79
ATOM     79  C   UNL A   1      44.940  33.148  27.438  1.00  0.00     0.057 A 
ATOM     80  C   UNL A   1      45.647  34.302  27.798  1.00  0.00     0.134 A 
ATOM     81  C   UNL A   1      44.378  33.100  26.160  1.00  0.00     0.134 A 
ATOM     82  F   UNL A   1      46.206  34.399  29.012  1.00  0.00    -0.206 F 
ATOM     83  C   UNL A   1      45.781  35.377  26.922  1.00  0.00     0.040 A 
ATOM     84  C   UNL A   1      44.523  34.161  25.265  1.00  0.00     0.040 A 
ATOM     85  F   UNL A   1      43.717  32.007  25.751  1.00  0.00    -0.206 F 
ATOM     86  C   UNL A   1      45.223  35.305  25.648  1.00  0.00     0.006 A 
ENDBRANCH  58  79
BRANCH  70  87
ATOM     87  C   UNL A   1      48.600  27.252  28.186  1.00  0.00     0.057 A 
ATOM     88  C   UNL A   1      48.372  26.369  27.124  1.00  0.00     0.134 A 
ATOM     89  C   UNL A   1      49.928  27.599  28.468  1.00  0.00     0.134 A 
ATOM     90  F   UNL A   1      47.123  25.992  26.811  1.00  0.00    -0.206 F 
ATOM     91  C   UNL A   1      49.427  25.837  26.382  1.00  0.00     0.040 A 
ATOM     92  C   UNL A   1      50.989  27.091  27.718  1.00  0.00     0.040 A 
ATOM     93  F   UNL A   1      50.214  28.447  29.468  1.00  0.00    -0.206 F 
ATOM     94  C   UNL A   1      50.740  26.203  26.673  1.00  0.00     0.006 A 
ENDBRANCH  70  87
ENDBRANCH  44  45
ENDBRANCH  37  39
ENDBRANCH  36  37
ENDBRANCH  35  36
ENDBRANCH  34  35
ENDBRANCH  33  34
ENDBRANCH   1  33
TORSDOF 18
ENDMDL
