MODEL 1
REMARK VINA RESULT:     -12.4      0.000      0.000
REMARK SMILES O=C(OCCOCCOC(=O)c1ccn(-c2cc(-c3ccncc3)nc(-c3ccccc3F)n2)n1)c1ccc(-c2c3nc(c(-c4c(F)cccc4F)c4ccc([nH]4)c(-c4c(F)cccc4F)c4nc(c(-c5c(F)cccc5F)c5ccc2[nH]5)C=C4)C=C3)cc1
REMARK SMILES IDX 6 1 5 2 4 3 3 4 2 5 1 6 36 7 37 8 89 9 38 10 88 11 39 12
REMARK SMILES IDX 40 13 41 14 82 15 42 16 87 17 81 18 83 19 43 20 86 21 80 22
REMARK SMILES IDX 79 23 44 25 70 26 53 27 69 28 54 29 57 30 68 31 84 32 55 33
REMARK SMILES IDX 56 34 67 36 85 37 58 38 45 39 46 40 51 41 47 42 48 43 50 44
REMARK SMILES IDX 52 45 49 46 71 47 72 48 77 49 73 50 74 51 76 52 78 53 75 54
REMARK SMILES IDX 59 55 60 56 65 57 61 58 62 59 64 60 66 61 63 62 7 63 8 64
REMARK SMILES IDX 9 65 10 66 11 67 12 68 13 69 35 70 14 71 15 72 16 73 17 74
REMARK SMILES IDX 34 75 18 76 26 77 25 78 19 79 20 80 24 81 21 82 23 83 22 84
REMARK SMILES IDX 27 85 28 86 32 87 29 88 31 89 33 90 30 91
REMARK H PARENT 83 24 57 35
REMARK Flexibility Score: inf
ROOT
ATOM      1  O   UNL A   1      45.128  17.975  25.506  1.00  0.00    -0.374 OA
ENDROOT
BRANCH   1   2
ATOM      2  C   UNL A   1      46.305  18.759  25.669  1.00  0.00     0.202 C 
BRANCH   2   3
ATOM      3  C   UNL A   1      46.500  19.930  24.716  1.00  0.00     0.261 C 
BRANCH   3   4
ATOM      4  O   UNL A   1      46.209  21.234  25.266  1.00  0.00    -0.460 OA
BRANCH   4   5
ATOM      5  C   UNL A   1      45.393  22.104  24.626  1.00  0.00     0.338 C 
ATOM      6  O   UNL A   1      44.555  21.742  23.809  1.00  0.00    -0.246 OA
BRANCH   5   7
ATOM      7  C   UNL A   1      45.340  23.455  25.240  1.00  0.00     0.060 A 
ATOM      8  C   UNL A   1      45.933  23.738  26.469  1.00  0.00     0.016 A 
ATOM      9  C   UNL A   1      44.534  24.420  24.618  1.00  0.00     0.016 A 
ATOM     10  C   UNL A   1      45.547  24.847  27.180  1.00  0.00     0.010 A 
ATOM     11  C   UNL A   1      44.176  25.566  25.311  1.00  0.00     0.010 A 
ATOM     12  C   UNL A   1      44.611  25.713  26.625  1.00  0.00    -0.014 A 
BRANCH  12  13
ATOM     13  C   UNL A   1      44.146  26.771  27.502  1.00  0.00     0.031 A 
ATOM     14  C   UNL A   1      45.068  27.930  27.612  1.00  0.00     0.074 A 
ATOM     15  C   UNL A   1      42.968  26.687  28.145  1.00  0.00     0.049 A 
ATOM     16  N   UNL A   1      45.660  28.392  28.666  1.00  0.00    -0.248 NA
ATOM     17  C   UNL A   1      45.487  28.569  26.355  1.00  0.00     0.031 C 
ATOM     18  C   UNL A   1      41.889  25.721  27.930  1.00  0.00     0.029 A 
ATOM     19  N   UNL A   1      42.444  27.536  29.067  1.00  0.00    -0.354 N 
ATOM     20  C   UNL A   1      46.379  29.505  28.233  1.00  0.00     0.074 A 
ATOM     21  C   UNL A   1      46.360  29.473  26.795  1.00  0.00     0.031 C 
ATOM     22  C   UNL A   1      40.759  26.190  28.504  1.00  0.00     0.029 A 
ATOM     23  C   UNL A   1      41.073  27.410  29.227  1.00  0.00     0.049 A 
ATOM     24  H   UNL A   1      42.987  28.180  29.575  1.00  0.00     0.167 HD
ATOM     25  C   UNL A   1      46.730  30.500  29.092  1.00  0.00     0.037 A 
ATOM     26  C   UNL A   1      40.256  28.314  29.819  1.00  0.00     0.037 A 
ATOM     27  C   UNL A   1      46.769  30.035  30.453  1.00  0.00     0.049 A 
ATOM     28  C   UNL A   1      41.101  29.194  30.668  1.00  0.00     0.074 A 
ATOM     29  C   UNL A   1      47.482  29.066  31.131  1.00  0.00     0.029 A 
ATOM     30  N   UNL A   1      45.738  30.387  31.287  1.00  0.00    -0.354 N 
ATOM     31  N   UNL A   1      41.703  28.806  31.757  1.00  0.00    -0.248 NA
ATOM     32  C   UNL A   1      41.625  30.414  30.067  1.00  0.00     0.031 C 
ATOM     33  C   UNL A   1      46.577  28.552  32.104  1.00  0.00     0.029 A 
ATOM     34  C   UNL A   1      45.383  29.262  31.983  1.00  0.00     0.049 A 
ATOM     35  H   UNL A   1      45.330  31.279  31.371  1.00  0.00     0.167 HD
ATOM     36  C   UNL A   1      42.920  29.474  31.747  1.00  0.00     0.074 A 
ATOM     37  C   UNL A   1      42.773  30.520  30.740  1.00  0.00     0.031 C 
ATOM     38  C   UNL A   1      44.023  28.942  32.350  1.00  0.00     0.037 A 
BRANCH  25  39
ATOM     39  C   UNL A   1      46.635  31.967  28.736  1.00  0.00     0.057 A 
ATOM     40  C   UNL A   1      47.749  32.822  28.587  1.00  0.00     0.134 A 
ATOM     41  C   UNL A   1      45.429  32.466  28.213  1.00  0.00     0.134 A 
ATOM     42  F   UNL A   1      48.981  32.482  28.975  1.00  0.00    -0.206 F 
ATOM     43  C   UNL A   1      47.677  34.052  27.928  1.00  0.00     0.040 A 
ATOM     44  C   UNL A   1      45.359  33.672  27.505  1.00  0.00     0.040 A 
ATOM     45  F   UNL A   1      44.296  31.751  28.288  1.00  0.00    -0.206 F 
ATOM     46  C   UNL A   1      46.490  34.463  27.350  1.00  0.00     0.006 A 
ENDBRANCH  25  39
BRANCH  26  47
ATOM     47  C   UNL A   1      38.881  28.688  29.412  1.00  0.00     0.057 A 
ATOM     48  C   UNL A   1      38.602  29.261  28.157  1.00  0.00     0.134 A 
ATOM     49  C   UNL A   1      37.845  28.742  30.355  1.00  0.00     0.134 A 
ATOM     50  F   UNL A   1      39.539  29.341  27.201  1.00  0.00    -0.206 F 
ATOM     51  C   UNL A   1      37.376  29.862  27.862  1.00  0.00     0.040 A 
ATOM     52  C   UNL A   1      36.616  29.354  30.076  1.00  0.00     0.040 A 
ATOM     53  F   UNL A   1      38.026  28.262  31.593  1.00  0.00    -0.206 F 
ATOM     54  C   UNL A   1      36.382  29.926  28.829  1.00  0.00     0.006 A 
ENDBRANCH  26  47
BRANCH  38  55
ATOM     55  C   UNL A   1      43.838  27.752  33.246  1.00  0.00     0.057 A 
ATOM     56  C   UNL A   1      43.778  27.955  34.630  1.00  0.00     0.134 A 
ATOM     57  C   UNL A   1      43.897  26.424  32.799  1.00  0.00     0.134 A 
ATOM     58  F   UNL A   1      43.780  29.200  35.131  1.00  0.00    -0.206 F 
ATOM     59  C   UNL A   1      43.778  26.888  35.530  1.00  0.00     0.040 A 
ATOM     60  C   UNL A   1      43.862  25.346  33.689  1.00  0.00     0.040 A 
ATOM     61  F   UNL A   1      44.056  26.136  31.501  1.00  0.00    -0.206 F 
ATOM     62  C   UNL A   1      43.812  25.578  35.060  1.00  0.00     0.006 A 
ENDBRANCH  38  55
ENDBRANCH  12  13
ENDBRANCH   5   7
ENDBRANCH   4   5
ENDBRANCH   3   4
ENDBRANCH   2   3
ENDBRANCH   1   2
BRANCH   1  63
ATOM     63  C   UNL A   1      43.962  18.663  25.017  1.00  0.00     0.202 C 
BRANCH  63  64
ATOM     64  C   UNL A   1      42.653  18.624  25.830  1.00  0.00     0.261 C 
BRANCH  64  65
ATOM     65  O   UNL A   1      41.756  19.700  25.491  1.00  0.00    -0.458 OA
BRANCH  65  66
ATOM     66  C   UNL A   1      41.842  20.815  26.276  1.00  0.00     0.358 C 
ATOM     67  O   UNL A   1      42.889  21.249  26.755  1.00  0.00    -0.244 OA
BRANCH  66  68
ATOM     68  C   UNL A   1      40.563  21.523  26.414  1.00  0.00     0.170 A 
ATOM     69  C   UNL A   1      40.394  22.882  26.763  1.00  0.00     0.058 A 
ATOM     70  N   UNL A   1      39.372  20.941  26.129  1.00  0.00    -0.159 NA
ATOM     71  C   UNL A   1      39.081  23.157  26.476  1.00  0.00     0.118 A 
ATOM     72  N   UNL A   1      38.500  21.980  26.064  1.00  0.00    -0.222 N 
BRANCH  72  73
ATOM     73  C   UNL A   1      37.191  21.854  25.522  1.00  0.00     0.158 A 
ATOM     74  C   UNL A   1      36.687  20.606  25.216  1.00  0.00     0.078 A 
ATOM     75  N   UNL A   1      36.487  22.996  25.365  1.00  0.00    -0.209 NA
ATOM     76  C   UNL A   1      35.371  20.583  24.786  1.00  0.00     0.077 A 
ATOM     77  C   UNL A   1      35.265  22.874  24.828  1.00  0.00     0.165 A 
ATOM     78  N   UNL A   1      34.668  21.709  24.535  1.00  0.00    -0.228 NA
BRANCH  76  79
ATOM     79  C   UNL A   1      34.597  19.340  24.662  1.00  0.00     0.003 A 
ATOM     80  C   UNL A   1      35.245  18.102  24.543  1.00  0.00     0.030 A 
ATOM     81  C   UNL A   1      33.201  19.339  24.737  1.00  0.00     0.030 A 
ATOM     82  C   UNL A   1      34.483  16.944  24.492  1.00  0.00     0.111 A 
ATOM     83  C   UNL A   1      32.525  18.129  24.666  1.00  0.00     0.111 A 
ATOM     84  N   UNL A   1      33.137  16.932  24.539  1.00  0.00    -0.265 NA
ENDBRANCH  76  79
BRANCH  77  85
ATOM     85  C   UNL A   1      34.596  24.109  24.447  1.00  0.00     0.055 A 
ATOM     86  C   UNL A   1      34.436  25.155  25.376  1.00  0.00     0.015 A 
ATOM     87  C   UNL A   1      34.063  24.281  23.168  1.00  0.00     0.134 A 
ATOM     88  C   UNL A   1      33.761  26.329  25.028  1.00  0.00     0.001 A 
ATOM     89  C   UNL A   1      33.381  25.446  22.816  1.00  0.00     0.040 A 
ATOM     90  F   UNL A   1      34.165  23.304  22.255  1.00  0.00    -0.206 F 
ATOM     91  C   UNL A   1      33.230  26.472  23.748  1.00  0.00     0.003 A 
ENDBRANCH  77  85
ENDBRANCH  72  73
ENDBRANCH  66  68
ENDBRANCH  65  66
ENDBRANCH  64  65
ENDBRANCH  63  64
ENDBRANCH   1  63
TORSDOF 17
ENDMDL
MODEL 2
REMARK VINA RESULT:     -12.0      3.739      6.540
REMARK SMILES O=C(OCCOCCOC(=O)c1ccn(-c2cc(-c3ccncc3)nc(-c3ccccc3F)n2)n1)c1ccc(-c2c3nc(c(-c4c(F)cccc4F)c4ccc([nH]4)c(-c4c(F)cccc4F)c4nc(c(-c5c(F)cccc5F)c5ccc2[nH]5)C=C4)C=C3)cc1
REMARK SMILES IDX 6 1 5 2 4 3 3 4 2 5 1 6 36 7 37 8 89 9 38 10 88 11 39 12
REMARK SMILES IDX 40 13 41 14 82 15 42 16 87 17 81 18 83 19 43 20 86 21 80 22
REMARK SMILES IDX 79 23 44 25 70 26 53 27 69 28 54 29 57 30 68 31 84 32 55 33
REMARK SMILES IDX 56 34 67 36 85 37 58 38 45 39 46 40 51 41 47 42 48 43 50 44
REMARK SMILES IDX 52 45 49 46 71 47 72 48 77 49 73 50 74 51 76 52 78 53 75 54
REMARK SMILES IDX 59 55 60 56 65 57 61 58 62 59 64 60 66 61 63 62 7 63 8 64
REMARK SMILES IDX 9 65 10 66 11 67 12 68 13 69 35 70 14 71 15 72 16 73 17 74
REMARK SMILES IDX 34 75 18 76 26 77 25 78 19 79 20 80 24 81 21 82 23 83 22 84
REMARK SMILES IDX 27 85 28 86 32 87 29 88 31 89 33 90 30 91
REMARK H PARENT 83 24 57 35
REMARK Flexibility Score: inf
ROOT
ATOM      1  O   UNL A   1      35.708  21.948  24.674  1.00  0.00    -0.374 OA
ENDROOT
BRANCH   1   2
ATOM      2  C   UNL A   1      36.767  22.515  25.438  1.00  0.00     0.202 C 
BRANCH   2   3
ATOM      3  C   UNL A   1      37.985  21.640  25.697  1.00  0.00     0.261 C 
BRANCH   3   4
ATOM      4  O   UNL A   1      39.248  22.339  25.769  1.00  0.00    -0.460 OA
BRANCH   4   5
ATOM      5  C   UNL A   1      39.870  22.551  26.952  1.00  0.00     0.338 C 
ATOM      6  O   UNL A   1      40.288  21.636  27.651  1.00  0.00    -0.246 OA
BRANCH   5   7
ATOM      7  C   UNL A   1      40.324  23.950  27.160  1.00  0.00     0.060 A 
ATOM      8  C   UNL A   1      41.470  24.260  27.889  1.00  0.00     0.016 A 
ATOM      9  C   UNL A   1      39.474  24.979  26.729  1.00  0.00     0.016 A 
ATOM     10  C   UNL A   1      41.646  25.527  28.388  1.00  0.00     0.010 A 
ATOM     11  C   UNL A   1      39.672  26.272  27.189  1.00  0.00     0.010 A 
ATOM     12  C   UNL A   1      40.703  26.506  28.096  1.00  0.00    -0.014 A 
BRANCH  12  13
ATOM     13  C   UNL A   1      40.882  27.770  28.784  1.00  0.00     0.031 A 
ATOM     14  C   UNL A   1      42.124  28.498  28.422  1.00  0.00     0.074 A 
ATOM     15  C   UNL A   1      39.978  28.225  29.670  1.00  0.00     0.049 A 
ATOM     16  N   UNL A   1      43.110  28.841  29.186  1.00  0.00    -0.248 NA
ATOM     17  C   UNL A   1      42.352  28.754  26.991  1.00  0.00     0.031 C 
ATOM     18  C   UNL A   1      38.628  27.718  29.923  1.00  0.00     0.029 A 
ATOM     19  N   UNL A   1      40.049  29.325  30.463  1.00  0.00    -0.354 N 
ATOM     20  C   UNL A   1      44.000  29.529  28.364  1.00  0.00     0.074 A 
ATOM     21  C   UNL A   1      43.561  29.312  27.011  1.00  0.00     0.031 C 
ATOM     22  C   UNL A   1      37.929  28.653  30.604  1.00  0.00     0.029 A 
ATOM     23  C   UNL A   1      38.819  29.750  30.941  1.00  0.00     0.049 A 
ATOM     24  H   UNL A   1      40.894  29.780  30.678  1.00  0.00     0.167 HD
ATOM     25  C   UNL A   1      44.888  30.425  28.872  1.00  0.00     0.037 A 
ATOM     26  C   UNL A   1      38.551  30.967  31.472  1.00  0.00     0.037 A 
ATOM     27  C   UNL A   1      45.159  30.170  30.262  1.00  0.00     0.049 A 
ATOM     28  C   UNL A   1      39.843  31.570  31.891  1.00  0.00     0.074 A 
ATOM     29  C   UNL A   1      45.677  29.105  30.974  1.00  0.00     0.029 A 
ATOM     30  N   UNL A   1      44.586  30.995  31.197  1.00  0.00    -0.354 N 
ATOM     31  N   UNL A   1      40.569  31.135  32.882  1.00  0.00    -0.248 NA
ATOM     32  C   UNL A   1      40.543  32.407  30.927  1.00  0.00     0.031 C 
ATOM     33  C   UNL A   1      44.971  29.108  32.212  1.00  0.00     0.029 A 
ATOM     34  C   UNL A   1      44.095  30.194  32.193  1.00  0.00     0.049 A 
ATOM     35  H   UNL A   1      44.536  31.977  31.158  1.00  0.00     0.167 HD
ATOM     36  C   UNL A   1      41.881  31.285  32.455  1.00  0.00     0.074 A 
ATOM     37  C   UNL A   1      41.805  32.162  31.290  1.00  0.00     0.031 C 
ATOM     38  C   UNL A   1      42.871  30.464  32.910  1.00  0.00     0.037 A 
BRANCH  25  39
ATOM     39  C   UNL A   1      45.184  31.756  28.218  1.00  0.00     0.057 A 
ATOM     40  C   UNL A   1      46.404  32.078  27.585  1.00  0.00     0.134 A 
ATOM     41  C   UNL A   1      44.117  32.625  27.925  1.00  0.00     0.134 A 
ATOM     42  F   UNL A   1      47.503  31.327  27.708  1.00  0.00    -0.206 F 
ATOM     43  C   UNL A   1      46.539  33.147  26.697  1.00  0.00     0.040 A 
ATOM     44  C   UNL A   1      44.228  33.666  26.996  1.00  0.00     0.040 A 
ATOM     45  F   UNL A   1      42.902  32.429  28.460  1.00  0.00    -0.206 F 
ATOM     46  C   UNL A   1      45.441  33.921  26.368  1.00  0.00     0.006 A 
ENDBRANCH  25  39
BRANCH  26  47
ATOM     47  C   UNL A   1      37.319  31.773  31.299  1.00  0.00     0.057 A 
ATOM     48  C   UNL A   1      37.062  32.503  30.123  1.00  0.00     0.134 A 
ATOM     49  C   UNL A   1      36.494  32.064  32.393  1.00  0.00     0.134 A 
ATOM     50  F   UNL A   1      37.835  32.371  29.035  1.00  0.00    -0.206 F 
ATOM     51  C   UNL A   1      36.058  33.471  30.044  1.00  0.00     0.040 A 
ATOM     52  C   UNL A   1      35.492  33.042  32.331  1.00  0.00     0.040 A 
ATOM     53  F   UNL A   1      36.686  31.454  33.571  1.00  0.00    -0.206 F 
ATOM     54  C   UNL A   1      35.278  33.757  31.157  1.00  0.00     0.006 A 
ENDBRANCH  26  47
BRANCH  38  55
ATOM     55  C   UNL A   1      42.569  29.565  34.075  1.00  0.00     0.057 A 
ATOM     56  C   UNL A   1      43.058  29.916  35.338  1.00  0.00     0.134 A 
ATOM     57  C   UNL A   1      41.977  28.301  33.949  1.00  0.00     0.134 A 
ATOM     58  F   UNL A   1      43.690  31.086  35.518  1.00  0.00    -0.206 F 
ATOM     59  C   UNL A   1      42.963  29.050  36.430  1.00  0.00     0.040 A 
ATOM     60  C   UNL A   1      41.845  27.439  35.041  1.00  0.00     0.040 A 
ATOM     61  F   UNL A   1      41.571  27.840  32.759  1.00  0.00    -0.206 F 
ATOM     62  C   UNL A   1      42.348  27.810  36.285  1.00  0.00     0.006 A 
ENDBRANCH  38  55
ENDBRANCH  12  13
ENDBRANCH   5   7
ENDBRANCH   4   5
ENDBRANCH   3   4
ENDBRANCH   2   3
ENDBRANCH   1   2
BRANCH   1  63
ATOM     63  C   UNL A   1      34.481  21.681  25.376  1.00  0.00     0.202 C 
BRANCH  63  64
ATOM     64  C   UNL A   1      33.475  20.665  24.801  1.00  0.00     0.261 C 
BRANCH  64  65
ATOM     65  O   UNL A   1      32.184  21.249  24.535  1.00  0.00    -0.458 OA
BRANCH  65  66
ATOM     66  C   UNL A   1      32.187  22.359  23.739  1.00  0.00     0.358 C 
ATOM     67  O   UNL A   1      32.665  22.401  22.605  1.00  0.00    -0.244 OA
BRANCH  66  68
ATOM     68  C   UNL A   1      31.460  23.492  24.326  1.00  0.00     0.170 A 
ATOM     69  C   UNL A   1      30.732  23.480  25.537  1.00  0.00     0.058 A 
ATOM     70  N   UNL A   1      31.486  24.734  23.784  1.00  0.00    -0.159 NA
ATOM     71  C   UNL A   1      30.494  24.802  25.817  1.00  0.00     0.118 A 
ATOM     72  N   UNL A   1      30.989  25.535  24.763  1.00  0.00    -0.222 N 
BRANCH  72  73
ATOM     73  C   UNL A   1      31.090  26.953  24.723  1.00  0.00     0.158 A 
ATOM     74  C   UNL A   1      30.320  27.675  23.833  1.00  0.00     0.078 A 
ATOM     75  N   UNL A   1      31.933  27.527  25.608  1.00  0.00    -0.209 NA
ATOM     76  C   UNL A   1      30.420  29.052  23.939  1.00  0.00     0.077 A 
ATOM     77  C   UNL A   1      32.045  28.861  25.547  1.00  0.00     0.165 A 
ATOM     78  N   UNL A   1      31.315  29.656  24.751  1.00  0.00    -0.228 NA
BRANCH  76  79
ATOM     79  C   UNL A   1      29.496  29.971  23.258  1.00  0.00     0.003 A 
ATOM     80  C   UNL A   1      29.184  31.217  23.819  1.00  0.00     0.030 A 
ATOM     81  C   UNL A   1      28.963  29.671  22.001  1.00  0.00     0.030 A 
ATOM     82  C   UNL A   1      28.358  32.084  23.118  1.00  0.00     0.111 A 
ATOM     83  C   UNL A   1      28.138  30.599  21.383  1.00  0.00     0.111 A 
ATOM     84  N   UNL A   1      27.819  31.797  21.918  1.00  0.00    -0.265 NA
ENDBRANCH  76  79
BRANCH  77  85
ATOM     85  C   UNL A   1      33.112  29.461  26.334  1.00  0.00     0.055 A 
ATOM     86  C   UNL A   1      34.338  28.792  26.509  1.00  0.00     0.015 A 
ATOM     87  C   UNL A   1      32.941  30.693  26.968  1.00  0.00     0.134 A 
ATOM     88  C   UNL A   1      35.353  29.346  27.296  1.00  0.00     0.001 A 
ATOM     89  C   UNL A   1      33.946  31.248  27.761  1.00  0.00     0.040 A 
ATOM     90  F   UNL A   1      31.781  31.358  26.854  1.00  0.00    -0.206 F 
ATOM     91  C   UNL A   1      35.154  30.572  27.925  1.00  0.00     0.003 A 
ENDBRANCH  77  85
ENDBRANCH  72  73
ENDBRANCH  66  68
ENDBRANCH  65  66
ENDBRANCH  64  65
ENDBRANCH  63  64
ENDBRANCH   1  63
TORSDOF 17
ENDMDL
MODEL 3
REMARK VINA RESULT:     -11.9      3.794      8.507
REMARK SMILES O=C(OCCOCCOC(=O)c1ccn(-c2cc(-c3ccncc3)nc(-c3ccccc3F)n2)n1)c1ccc(-c2c3nc(c(-c4c(F)cccc4F)c4ccc([nH]4)c(-c4c(F)cccc4F)c4nc(c(-c5c(F)cccc5F)c5ccc2[nH]5)C=C4)C=C3)cc1
REMARK SMILES IDX 6 1 5 2 4 3 3 4 2 5 1 6 36 7 37 8 89 9 38 10 88 11 39 12
REMARK SMILES IDX 40 13 41 14 82 15 42 16 87 17 81 18 83 19 43 20 86 21 80 22
REMARK SMILES IDX 79 23 44 25 70 26 53 27 69 28 54 29 57 30 68 31 84 32 55 33
REMARK SMILES IDX 56 34 67 36 85 37 58 38 45 39 46 40 51 41 47 42 48 43 50 44
REMARK SMILES IDX 52 45 49 46 71 47 72 48 77 49 73 50 74 51 76 52 78 53 75 54
REMARK SMILES IDX 59 55 60 56 65 57 61 58 62 59 64 60 66 61 63 62 7 63 8 64
REMARK SMILES IDX 9 65 10 66 11 67 12 68 13 69 35 70 14 71 15 72 16 73 17 74
REMARK SMILES IDX 34 75 18 76 26 77 25 78 19 79 20 80 24 81 21 82 23 83 22 84
REMARK SMILES IDX 27 85 28 86 32 87 29 88 31 89 33 90 30 91
REMARK H PARENT 83 24 57 35
REMARK Flexibility Score: inf
ROOT
ATOM      1  O   UNL A   1      32.334  29.974  26.454  1.00  0.00    -0.374 OA
ENDROOT
BRANCH   1   2
ATOM      2  C   UNL A   1      33.375  29.101  26.878  1.00  0.00     0.202 C 
BRANCH   2   3
ATOM      3  C   UNL A   1      34.741  29.720  27.140  1.00  0.00     0.261 C 
BRANCH   3   4
ATOM      4  O   UNL A   1      35.301  29.460  28.447  1.00  0.00    -0.460 OA
BRANCH   4   5
ATOM      5  C   UNL A   1      36.453  30.045  28.849  1.00  0.00     0.338 C 
ATOM      6  O   UNL A   1      36.478  30.964  29.659  1.00  0.00    -0.246 OA
BRANCH   5   7
ATOM      7  C   UNL A   1      37.676  29.269  28.526  1.00  0.00     0.060 A 
ATOM      8  C   UNL A   1      38.175  28.279  29.371  1.00  0.00     0.016 A 
ATOM      9  C   UNL A   1      38.419  29.664  27.404  1.00  0.00     0.016 A 
ATOM     10  C   UNL A   1      39.479  27.864  29.250  1.00  0.00     0.010 A 
ATOM     11  C   UNL A   1      39.721  29.214  27.248  1.00  0.00     0.010 A 
ATOM     12  C   UNL A   1      40.265  28.395  28.233  1.00  0.00    -0.014 A 
BRANCH  12  13
ATOM     13  C   UNL A   1      41.666  28.021  28.270  1.00  0.00     0.031 A 
ATOM     14  C   UNL A   1      41.980  26.737  27.594  1.00  0.00     0.074 A 
ATOM     15  C   UNL A   1      42.587  28.796  28.869  1.00  0.00     0.049 A 
ATOM     16  N   UNL A   1      42.491  25.662  28.101  1.00  0.00    -0.248 NA
ATOM     17  C   UNL A   1      41.536  26.594  26.198  1.00  0.00     0.031 C 
ATOM     18  C   UNL A   1      42.435  30.171  29.351  1.00  0.00     0.029 A 
ATOM     19  N   UNL A   1      43.905  28.541  29.076  1.00  0.00    -0.354 N 
ATOM     20  C   UNL A   1      42.611  24.768  27.039  1.00  0.00     0.074 A 
ATOM     21  C   UNL A   1      41.874  25.333  25.940  1.00  0.00     0.031 C 
ATOM     22  C   UNL A   1      43.661  30.705  29.547  1.00  0.00     0.029 A 
ATOM     23  C   UNL A   1      44.662  29.674  29.333  1.00  0.00     0.049 A 
ATOM     24  H   UNL A   1      44.289  27.635  29.046  1.00  0.00     0.167 HD
ATOM     25  C   UNL A   1      43.510  23.747  27.069  1.00  0.00     0.037 A 
ATOM     26  C   UNL A   1      46.011  29.761  29.259  1.00  0.00     0.037 A 
ATOM     27  C   UNL A   1      43.869  23.399  28.418  1.00  0.00     0.049 A 
ATOM     28  C   UNL A   1      46.556  28.381  29.334  1.00  0.00     0.074 A 
ATOM     29  C   UNL A   1      43.176  22.951  29.525  1.00  0.00     0.029 A 
ATOM     30  N   UNL A   1      45.095  23.801  28.887  1.00  0.00    -0.354 N 
ATOM     31  N   UNL A   1      46.516  27.633  30.402  1.00  0.00    -0.248 NA
ATOM     32  C   UNL A   1      46.770  27.668  28.083  1.00  0.00     0.031 C 
ATOM     33  C   UNL A   1      43.828  23.552  30.640  1.00  0.00     0.029 A 
ATOM     34  C   UNL A   1      44.898  24.299  30.148  1.00  0.00     0.049 A 
ATOM     35  H   UNL A   1      45.953  23.743  28.409  1.00  0.00     0.167 HD
ATOM     36  C   UNL A   1      46.281  26.350  29.928  1.00  0.00     0.074 A 
ATOM     37  C   UNL A   1      46.545  26.418  28.494  1.00  0.00     0.031 C 
ATOM     38  C   UNL A   1      45.623  25.426  30.687  1.00  0.00     0.037 A 
BRANCH  25  39
ATOM     39  C   UNL A   1      44.355  23.356  25.876  1.00  0.00     0.057 A 
ATOM     40  C   UNL A   1      45.341  24.182  25.296  1.00  0.00     0.134 A 
ATOM     41  C   UNL A   1      44.415  22.003  25.497  1.00  0.00     0.134 A 
ATOM     42  F   UNL A   1      45.465  25.480  25.591  1.00  0.00    -0.206 F 
ATOM     43  C   UNL A   1      46.336  23.693  24.446  1.00  0.00     0.040 A 
ATOM     44  C   UNL A   1      45.439  21.494  24.688  1.00  0.00     0.040 A 
ATOM     45  F   UNL A   1      43.536  21.112  25.979  1.00  0.00    -0.206 F 
ATOM     46  C   UNL A   1      46.411  22.340  24.170  1.00  0.00     0.006 A 
ENDBRANCH  25  39
BRANCH  26  47
ATOM     47  C   UNL A   1      46.813  30.904  28.762  1.00  0.00     0.057 A 
ATOM     48  C   UNL A   1      46.824  31.276  27.405  1.00  0.00     0.134 A 
ATOM     49  C   UNL A   1      47.802  31.488  29.566  1.00  0.00     0.134 A 
ATOM     50  F   UNL A   1      45.979  30.725  26.521  1.00  0.00    -0.206 F 
ATOM     51  C   UNL A   1      47.766  32.162  26.876  1.00  0.00     0.040 A 
ATOM     52  C   UNL A   1      48.761  32.368  29.046  1.00  0.00     0.040 A 
ATOM     53  F   UNL A   1      47.902  31.166  30.863  1.00  0.00    -0.206 F 
ATOM     54  C   UNL A   1      48.751  32.699  27.695  1.00  0.00     0.006 A 
ENDBRANCH  26  47
BRANCH  38  55
ATOM     55  C   UNL A   1      45.390  25.735  32.138  1.00  0.00     0.057 A 
ATOM     56  C   UNL A   1      44.256  26.473  32.495  1.00  0.00     0.134 A 
ATOM     57  C   UNL A   1      46.330  25.482  33.147  1.00  0.00     0.134 A 
ATOM     58  F   UNL A   1      43.345  26.803  31.567  1.00  0.00    -0.206 F 
ATOM     59  C   UNL A   1      44.063  26.941  33.796  1.00  0.00     0.040 A 
ATOM     60  C   UNL A   1      46.132  25.915  34.462  1.00  0.00     0.040 A 
ATOM     61  F   UNL A   1      47.490  24.871  32.878  1.00  0.00    -0.206 F 
ATOM     62  C   UNL A   1      44.999  26.656  34.786  1.00  0.00     0.006 A 
ENDBRANCH  38  55
ENDBRANCH  12  13
ENDBRANCH   5   7
ENDBRANCH   4   5
ENDBRANCH   3   4
ENDBRANCH   2   3
ENDBRANCH   1   2
BRANCH   1  63
ATOM     63  C   UNL A   1      31.788  29.733  25.144  1.00  0.00     0.202 C 
BRANCH  63  64
ATOM     64  C   UNL A   1      31.261  28.332  24.780  1.00  0.00     0.261 C 
BRANCH  64  65
ATOM     65  O   UNL A   1      32.146  27.617  23.895  1.00  0.00    -0.458 OA
BRANCH  65  66
ATOM     66  C   UNL A   1      31.544  26.754  23.022  1.00  0.00     0.358 C 
ATOM     67  O   UNL A   1      31.060  27.085  21.940  1.00  0.00    -0.244 OA
BRANCH  66  68
ATOM     68  C   UNL A   1      31.621  25.352  23.451  1.00  0.00     0.170 A 
ATOM     69  C   UNL A   1      30.675  24.340  23.174  1.00  0.00     0.058 A 
ATOM     70  N   UNL A   1      32.693  24.850  24.113  1.00  0.00    -0.159 NA
ATOM     71  C   UNL A   1      31.306  23.168  23.507  1.00  0.00     0.118 A 
ATOM     72  N   UNL A   1      32.531  23.504  24.036  1.00  0.00    -0.222 N 
BRANCH  72  73
ATOM     73  C   UNL A   1      33.565  22.584  24.364  1.00  0.00     0.158 A 
ATOM     74  C   UNL A   1      34.849  23.039  24.589  1.00  0.00     0.078 A 
ATOM     75  N   UNL A   1      33.211  21.285  24.470  1.00  0.00    -0.209 NA
ATOM     76  C   UNL A   1      35.760  22.079  24.995  1.00  0.00     0.077 A 
ATOM     77  C   UNL A   1      34.195  20.419  24.751  1.00  0.00     0.165 A 
ATOM     78  N   UNL A   1      35.462  20.762  25.027  1.00  0.00    -0.228 NA
BRANCH  76  79
ATOM     79  C   UNL A   1      37.091  22.417  25.520  1.00  0.00     0.003 A 
ATOM     80  C   UNL A   1      37.345  23.685  26.060  1.00  0.00     0.030 A 
ATOM     81  C   UNL A   1      38.117  21.469  25.572  1.00  0.00     0.030 A 
ATOM     82  C   UNL A   1      38.594  23.948  26.604  1.00  0.00     0.111 A 
ATOM     83  C   UNL A   1      39.337  21.830  26.126  1.00  0.00     0.111 A 
ATOM     84  N   UNL A   1      39.599  23.052  26.638  1.00  0.00    -0.265 NA
ENDBRANCH  76  79
BRANCH  77  85
ATOM     85  C   UNL A   1      33.868  19.005  24.642  1.00  0.00     0.055 A 
ATOM     86  C   UNL A   1      32.526  18.578  24.628  1.00  0.00     0.015 A 
ATOM     87  C   UNL A   1      34.867  18.032  24.586  1.00  0.00     0.134 A 
ATOM     88  C   UNL A   1      32.206  17.219  24.562  1.00  0.00     0.001 A 
ATOM     89  C   UNL A   1      34.555  16.673  24.528  1.00  0.00     0.040 A 
ATOM     90  F   UNL A   1      36.160  18.386  24.623  1.00  0.00    -0.206 F 
ATOM     91  C   UNL A   1      33.221  16.266  24.516  1.00  0.00     0.003 A 
ENDBRANCH  77  85
ENDBRANCH  72  73
ENDBRANCH  66  68
ENDBRANCH  65  66
ENDBRANCH  64  65
ENDBRANCH  63  64
ENDBRANCH   1  63
TORSDOF 17
ENDMDL
