MODEL 1
REMARK VINA RESULT:     -11.4      0.000      0.000
REMARK SMILES CC(=O)N[C@H]1[C@@H](Oc2ccc(C)c(C)c2)O[C@H]2CO[C@H](c3ccco3)O[C@@H]2[C@H]1OCC(=O)OCCOCCOC(=O)c1ccc(-c2c3nc(c(-c4c(F)cccc4F)c4ccc([nH]4)c(-c4c(F)cccc4F)c4nc(c(-c5c(F)cccc5F)c5ccc2[nH]5)C=C4)C=C3)cc1
REMARK SMILES IDX 35 1 34 2 33 3 31 4 32 5 30 6 29 7 28 8 5 9 6 10 16 11 27 12
REMARK SMILES IDX 17 13 26 14 18 15 20 16 19 17 4 18 1 19 2 20 3 21 7 23 8 24
REMARK SMILES IDX 9 25 15 26 10 27 13 28 11 29 14 30 12 31 21 32 22 33 25 34
REMARK SMILES IDX 23 35 24 36 36 37 37 38 38 39 39 40 40 41 41 42 42 43 43 44
REMARK SMILES IDX 95 45 44 46 94 47 45 48 46 49 47 50 88 51 48 52 93 53 87 54
REMARK SMILES IDX 89 55 49 56 92 57 86 58 85 59 50 61 76 62 59 63 75 64 60 65
REMARK SMILES IDX 63 66 74 67 90 68 61 69 62 70 73 72 91 73 64 74 51 75 52 76
REMARK SMILES IDX 57 77 53 78 54 79 56 80 58 81 55 82 77 83 78 84 83 85 79 86
REMARK SMILES IDX 80 87 82 88 84 89 81 90 65 91 66 92 71 93 67 94 68 95 70 96
REMARK SMILES IDX 72 97 69 98
REMARK H PARENT 4 22 89 60 63 71
REMARK Flexibility Score: inf
ROOT
ATOM      1  C   UNL A   1      38.820  20.667  25.556  1.00  0.00     0.202 C 
ENDROOT
BRANCH   1   2
ATOM      2  C   UNL A   1      38.049  21.977  25.743  1.00  0.00     0.261 C 
BRANCH   2   3
ATOM      3  O   UNL A   1      36.623  21.812  25.599  1.00  0.00    -0.462 OA
BRANCH   3   4
ATOM      4  C   UNL A   1      35.885  22.902  25.949  1.00  0.00     0.332 C 
ATOM      5  O   UNL A   1      36.183  24.065  25.686  1.00  0.00    -0.250 OA
BRANCH   4   6
ATOM      6  C   UNL A   1      34.630  22.561  26.763  1.00  0.00     0.283 C 
BRANCH   6   7
ATOM      7  O   UNL A   1      33.460  23.346  26.802  1.00  0.00    -0.361 OA
BRANCH   7   8
ATOM      8  C   UNL A   1      32.455  23.229  25.770  1.00  0.00     0.179 C 
ATOM      9  C   UNL A   1      32.153  24.706  25.286  1.00  0.00     0.182 C 
ATOM     10  C   UNL A   1      31.680  24.832  23.783  1.00  0.00     0.333 C 
ATOM     11  O   UNL A   1      32.054  23.780  22.904  1.00  0.00    -0.332 OA
ATOM     12  C   UNL A   1      32.818  22.275  24.605  1.00  0.00     0.184 C 
ATOM     13  C   UNL A   1      31.844  22.500  23.450  1.00  0.00     0.180 C 
ATOM     14  O   UNL A   1      32.734  20.901  25.015  1.00  0.00    -0.337 OA
ATOM     15  C   UNL A   1      32.078  21.469  22.354  1.00  0.00     0.199 C 
ATOM     16  C   UNL A   1      33.044  20.032  23.917  1.00  0.00     0.319 C 
ATOM     17  O   UNL A   1      32.064  20.159  22.891  1.00  0.00    -0.343 OA
BRANCH   9  18
ATOM     18  N   UNL A   1      33.244  25.620  25.679  1.00  0.00    -0.345 N 
ATOM     19  C   UNL A   1      31.869  27.531  26.487  1.00  0.00     0.114 C 
ATOM     20  C   UNL A   1      33.196  26.858  26.245  1.00  0.00     0.217 C 
ATOM     21  O   UNL A   1      34.250  27.413  26.558  1.00  0.00    -0.275 OA
ATOM     22  H   UNL A   1      34.151  25.281  25.504  1.00  0.00     0.164 HD
ENDBRANCH   9  18
BRANCH  10  23
ATOM     23  O   UNL A   1      31.931  26.109  23.171  1.00  0.00    -0.463 OA
BRANCH  23  24
ATOM     24  C   UNL A   1      30.895  26.984  22.959  1.00  0.00     0.123 A 
ATOM     25  C   UNL A   1      30.980  28.267  22.429  1.00  0.00     0.047 A 
ATOM     26  C   UNL A   1      29.652  26.528  23.408  1.00  0.00     0.050 A 
ATOM     27  C   UNL A   1      29.866  29.111  22.432  1.00  0.00     0.007 A 
ATOM     28  C   UNL A   1      28.521  27.365  23.423  1.00  0.00    -0.045 A 
ATOM     29  C   UNL A   1      28.639  28.687  22.960  1.00  0.00    -0.048 A 
ATOM     30  C   UNL A   1      27.256  26.827  24.032  1.00  0.00     0.045 C 
ATOM     31  C   UNL A   1      27.505  29.670  23.044  1.00  0.00     0.044 C 
ENDBRANCH  23  24
ENDBRANCH  10  23
BRANCH  16  32
ATOM     32  C   UNL A   1      32.994  18.607  24.349  1.00  0.00     0.159 A 
ATOM     33  C   UNL A   1      33.325  17.439  23.685  1.00  0.00     0.051 A 
ATOM     34  O   UNL A   1      32.561  18.309  25.609  1.00  0.00    -0.464 OA
ATOM     35  C   UNL A   1      33.062  16.376  24.577  1.00  0.00     0.042 A 
ATOM     36  C   UNL A   1      32.595  16.957  25.732  1.00  0.00     0.195 A 
ENDBRANCH  16  32
ENDBRANCH   7   8
ENDBRANCH   6   7
ENDBRANCH   4   6
ENDBRANCH   3   4
ENDBRANCH   2   3
ENDBRANCH   1   2
BRANCH   1  37
ATOM     37  O   UNL A   1      40.139  20.629  26.096  1.00  0.00    -0.374 OA
BRANCH  37  38
ATOM     38  C   UNL A   1      40.663  21.847  26.627  1.00  0.00     0.202 C 
BRANCH  38  39
ATOM     39  C   UNL A   1      42.022  22.276  26.062  1.00  0.00     0.261 C 
BRANCH  39  40
ATOM     40  O   UNL A   1      42.043  23.678  25.722  1.00  0.00    -0.460 OA
BRANCH  40  41
ATOM     41  C   UNL A   1      42.958  24.398  26.415  1.00  0.00     0.338 C 
ATOM     42  O   UNL A   1      44.171  24.296  26.359  1.00  0.00    -0.246 OA
BRANCH  41  43
ATOM     43  C   UNL A   1      42.304  25.481  27.174  1.00  0.00     0.060 A 
ATOM     44  C   UNL A   1      42.904  26.745  27.137  1.00  0.00     0.016 A 
ATOM     45  C   UNL A   1      41.219  25.233  28.017  1.00  0.00     0.016 A 
ATOM     46  C   UNL A   1      42.461  27.752  27.994  1.00  0.00     0.010 A 
ATOM     47  C   UNL A   1      40.779  26.246  28.880  1.00  0.00     0.010 A 
ATOM     48  C   UNL A   1      41.427  27.496  28.906  1.00  0.00    -0.014 A 
BRANCH  48  49
ATOM     49  C   UNL A   1      41.154  28.479  29.985  1.00  0.00     0.031 A 
ATOM     50  C   UNL A   1      42.055  28.515  31.190  1.00  0.00     0.074 A 
ATOM     51  C   UNL A   1      40.158  29.376  29.870  1.00  0.00     0.049 A 
ATOM     52  N   UNL A   1      42.021  29.310  32.231  1.00  0.00    -0.248 NA
ATOM     53  C   UNL A   1      43.146  27.529  31.224  1.00  0.00     0.031 C 
ATOM     54  C   UNL A   1      39.236  29.477  28.740  1.00  0.00     0.029 A 
ATOM     55  N   UNL A   1      39.760  30.379  30.719  1.00  0.00    -0.354 N 
ATOM     56  C   UNL A   1      43.082  28.921  33.040  1.00  0.00     0.074 A 
ATOM     57  C   UNL A   1      43.723  27.801  32.385  1.00  0.00     0.031 C 
ATOM     58  C   UNL A   1      38.379  30.487  28.966  1.00  0.00     0.029 A 
ATOM     59  C   UNL A   1      38.677  31.090  30.265  1.00  0.00     0.049 A 
ATOM     60  H   UNL A   1      40.210  30.571  31.573  1.00  0.00     0.167 HD
ATOM     61  C   UNL A   1      43.497  29.456  34.212  1.00  0.00     0.037 A 
ATOM     62  C   UNL A   1      37.997  32.103  30.836  1.00  0.00     0.037 A 
ATOM     63  C   UNL A   1      42.868  30.572  34.868  1.00  0.00     0.049 A 
ATOM     64  C   UNL A   1      38.436  32.636  32.174  1.00  0.00     0.074 A 
ATOM     65  C   UNL A   1      43.227  31.190  36.055  1.00  0.00     0.029 A 
ATOM     66  N   UNL A   1      41.746  31.235  34.395  1.00  0.00    -0.354 N 
ATOM     67  N   UNL A   1      39.455  32.275  32.915  1.00  0.00    -0.248 NA
ATOM     68  C   UNL A   1      37.628  33.720  32.753  1.00  0.00     0.031 C 
ATOM     69  C   UNL A   1      42.298  32.203  36.318  1.00  0.00     0.029 A 
ATOM     70  C   UNL A   1      41.386  32.241  35.276  1.00  0.00     0.049 A 
ATOM     71  H   UNL A   1      41.276  31.022  33.556  1.00  0.00     0.167 HD
ATOM     72  C   UNL A   1      39.427  33.103  34.031  1.00  0.00     0.074 A 
ATOM     73  C   UNL A   1      38.297  33.992  33.866  1.00  0.00     0.031 C 
ATOM     74  C   UNL A   1      40.264  33.126  35.096  1.00  0.00     0.037 A 
BRANCH  61  75
ATOM     75  C   UNL A   1      44.687  28.828  34.874  1.00  0.00     0.057 A 
ATOM     76  C   UNL A   1      44.554  27.740  35.747  1.00  0.00     0.134 A 
ATOM     77  C   UNL A   1      45.981  29.292  34.609  1.00  0.00     0.134 A 
ATOM     78  F   UNL A   1      43.340  27.258  36.052  1.00  0.00    -0.206 F 
ATOM     79  C   UNL A   1      45.667  27.146  36.345  1.00  0.00     0.040 A 
ATOM     80  C   UNL A   1      47.102  28.693  35.184  1.00  0.00     0.040 A 
ATOM     81  F   UNL A   1      46.176  30.329  33.780  1.00  0.00    -0.206 F 
ATOM     82  C   UNL A   1      46.946  27.619  36.058  1.00  0.00     0.006 A 
ENDBRANCH  61  75
BRANCH  62  83
ATOM     83  C   UNL A   1      36.816  32.684  30.151  1.00  0.00     0.057 A 
ATOM     84  C   UNL A   1      36.951  33.732  29.233  1.00  0.00     0.134 A 
ATOM     85  C   UNL A   1      35.521  32.226  30.421  1.00  0.00     0.134 A 
ATOM     86  F   UNL A   1      38.164  34.231  28.952  1.00  0.00    -0.206 F 
ATOM     87  C   UNL A   1      35.840  34.314  28.620  1.00  0.00     0.040 A 
ATOM     88  C   UNL A   1      34.403  32.783  29.799  1.00  0.00     0.040 A 
ATOM     89  F   UNL A   1      35.327  31.226  31.294  1.00  0.00    -0.206 F 
ATOM     90  C   UNL A   1      34.561  33.835  28.900  1.00  0.00     0.006 A 
ENDBRANCH  62  83
BRANCH  74  91
ATOM     91  C   UNL A   1      40.012  34.162  36.150  1.00  0.00     0.057 A 
ATOM     92  C   UNL A   1      39.256  33.881  37.296  1.00  0.00     0.134 A 
ATOM     93  C   UNL A   1      40.563  35.445  36.037  1.00  0.00     0.134 A 
ATOM     94  F   UNL A   1      38.691  32.675  37.458  1.00  0.00    -0.206 F 
ATOM     95  C   UNL A   1      39.041  34.846  38.282  1.00  0.00     0.040 A 
ATOM     96  C   UNL A   1      40.374  36.411  37.027  1.00  0.00     0.040 A 
ATOM     97  F   UNL A   1      41.304  35.775  34.969  1.00  0.00    -0.206 F 
ATOM     98  C   UNL A   1      39.607  36.113  38.151  1.00  0.00     0.006 A 
ENDBRANCH  74  91
ENDBRANCH  48  49
ENDBRANCH  41  43
ENDBRANCH  40  41
ENDBRANCH  39  40
ENDBRANCH  38  39
ENDBRANCH  37  38
ENDBRANCH   1  37
TORSDOF 20
ENDMDL
MODEL 2
REMARK VINA RESULT:     -11.1      4.499     10.166
REMARK SMILES CC(=O)N[C@H]1[C@@H](Oc2ccc(C)c(C)c2)O[C@H]2CO[C@H](c3ccco3)O[C@@H]2[C@H]1OCC(=O)OCCOCCOC(=O)c1ccc(-c2c3nc(c(-c4c(F)cccc4F)c4ccc([nH]4)c(-c4c(F)cccc4F)c4nc(c(-c5c(F)cccc5F)c5ccc2[nH]5)C=C4)C=C3)cc1
REMARK SMILES IDX 35 1 34 2 33 3 31 4 32 5 30 6 29 7 28 8 5 9 6 10 16 11 27 12
REMARK SMILES IDX 17 13 26 14 18 15 20 16 19 17 4 18 1 19 2 20 3 21 7 23 8 24
REMARK SMILES IDX 9 25 15 26 10 27 13 28 11 29 14 30 12 31 21 32 22 33 25 34
REMARK SMILES IDX 23 35 24 36 36 37 37 38 38 39 39 40 40 41 41 42 42 43 43 44
REMARK SMILES IDX 95 45 44 46 94 47 45 48 46 49 47 50 88 51 48 52 93 53 87 54
REMARK SMILES IDX 89 55 49 56 92 57 86 58 85 59 50 61 76 62 59 63 75 64 60 65
REMARK SMILES IDX 63 66 74 67 90 68 61 69 62 70 73 72 91 73 64 74 51 75 52 76
REMARK SMILES IDX 57 77 53 78 54 79 56 80 58 81 55 82 77 83 78 84 83 85 79 86
REMARK SMILES IDX 80 87 82 88 84 89 81 90 65 91 66 92 71 93 67 94 68 95 70 96
REMARK SMILES IDX 72 97 69 98
REMARK H PARENT 4 22 89 60 63 71
REMARK Flexibility Score: inf
ROOT
ATOM      1  C   UNL A   1      35.312  30.553  27.722  1.00  0.00     0.202 C 
ENDROOT
BRANCH   1   2
ATOM      2  C   UNL A   1      34.418  29.317  27.580  1.00  0.00     0.261 C 
BRANCH   2   3
ATOM      3  O   UNL A   1      33.458  29.442  26.511  1.00  0.00    -0.462 OA
BRANCH   3   4
ATOM      4  C   UNL A   1      32.156  29.445  26.910  1.00  0.00     0.332 C 
ATOM      5  O   UNL A   1      31.403  30.413  26.840  1.00  0.00    -0.250 OA
BRANCH   4   6
ATOM      6  C   UNL A   1      31.695  28.113  27.517  1.00  0.00     0.283 C 
BRANCH   6   7
ATOM      7  O   UNL A   1      31.617  26.894  26.812  1.00  0.00    -0.361 OA
BRANCH   7   8
ATOM      8  C   UNL A   1      32.281  26.732  25.539  1.00  0.00     0.179 C 
ATOM      9  C   UNL A   1      33.122  25.395  25.654  1.00  0.00     0.182 C 
ATOM     10  C   UNL A   1      33.348  24.630  24.290  1.00  0.00     0.333 C 
ATOM     11  O   UNL A   1      32.408  24.878  23.253  1.00  0.00    -0.332 OA
ATOM     12  C   UNL A   1      31.347  26.753  24.303  1.00  0.00     0.184 C 
ATOM     13  C   UNL A   1      32.116  26.245  23.086  1.00  0.00     0.180 C 
ATOM     14  O   UNL A   1      30.880  28.083  24.029  1.00  0.00    -0.337 OA
ATOM     15  C   UNL A   1      31.273  26.401  21.826  1.00  0.00     0.199 C 
ATOM     16  C   UNL A   1      30.042  28.089  22.866  1.00  0.00     0.319 C 
ATOM     17  O   UNL A   1      30.793  27.728  21.711  1.00  0.00    -0.343 OA
BRANCH   9  18
ATOM     18  N   UNL A   1      32.630  24.560  26.767  1.00  0.00    -0.345 N 
ATOM     19  C   UNL A   1      30.637  23.569  25.652  1.00  0.00     0.114 C 
ATOM     20  C   UNL A   1      31.569  23.707  26.828  1.00  0.00     0.217 C 
ATOM     21  O   UNL A   1      31.389  23.051  27.855  1.00  0.00    -0.275 OA
ATOM     22  H   UNL A   1      33.151  24.631  27.599  1.00  0.00     0.164 HD
ENDBRANCH   9  18
BRANCH  10  23
ATOM     23  O   UNL A   1      33.592  23.219  24.417  1.00  0.00    -0.463 OA
BRANCH  23  24
ATOM     24  C   UNL A   1      34.872  22.756  24.594  1.00  0.00     0.123 A 
ATOM     25  C   UNL A   1      35.333  21.464  24.366  1.00  0.00     0.047 A 
ATOM     26  C   UNL A   1      35.755  23.694  25.137  1.00  0.00     0.050 A 
ATOM     27  C   UNL A   1      36.623  21.092  24.756  1.00  0.00     0.007 A 
ATOM     28  C   UNL A   1      37.055  23.337  25.541  1.00  0.00    -0.045 A 
ATOM     29  C   UNL A   1      37.482  22.007  25.379  1.00  0.00    -0.048 A 
ATOM     30  C   UNL A   1      37.893  24.383  26.221  1.00  0.00     0.045 C 
ATOM     31  C   UNL A   1      38.814  21.526  25.882  1.00  0.00     0.044 C 
ENDBRANCH  23  24
ENDBRANCH  10  23
BRANCH  16  32
ATOM     32  C   UNL A   1      29.526  29.460  22.601  1.00  0.00     0.159 A 
ATOM     33  C   UNL A   1      29.197  30.494  23.460  1.00  0.00     0.051 A 
ATOM     34  O   UNL A   1      29.313  29.853  21.311  1.00  0.00    -0.464 OA
ATOM     35  C   UNL A   1      28.743  31.563  22.655  1.00  0.00     0.042 A 
ATOM     36  C   UNL A   1      28.829  31.122  21.356  1.00  0.00     0.195 A 
ENDBRANCH  16  32
ENDBRANCH   7   8
ENDBRANCH   6   7
ENDBRANCH   4   6
ENDBRANCH   3   4
ENDBRANCH   2   3
ENDBRANCH   1   2
BRANCH   1  37
ATOM     37  O   UNL A   1      34.654  31.816  27.660  1.00  0.00    -0.374 OA
BRANCH  37  38
ATOM     38  C   UNL A   1      34.476  32.521  28.890  1.00  0.00     0.202 C 
BRANCH  38  39
ATOM     39  C   UNL A   1      35.193  31.915  30.101  1.00  0.00     0.261 C 
BRANCH  39  40
ATOM     40  O   UNL A   1      36.468  32.548  30.341  1.00  0.00    -0.460 OA
BRANCH  40  41
ATOM     41  C   UNL A   1      37.203  31.952  31.311  1.00  0.00     0.338 C 
ATOM     42  O   UNL A   1      37.020  32.010  32.515  1.00  0.00    -0.246 OA
BRANCH  41  43
ATOM     43  C   UNL A   1      38.213  31.052  30.722  1.00  0.00     0.060 A 
ATOM     44  C   UNL A   1      39.130  30.455  31.596  1.00  0.00     0.016 A 
ATOM     45  C   UNL A   1      38.353  30.912  29.340  1.00  0.00     0.016 A 
ATOM     46  C   UNL A   1      40.231  29.767  31.086  1.00  0.00     0.010 A 
ATOM     47  C   UNL A   1      39.463  30.224  28.832  1.00  0.00     0.010 A 
ATOM     48  C   UNL A   1      40.432  29.688  29.701  1.00  0.00    -0.014 A 
BRANCH  48  49
ATOM     49  C   UNL A   1      41.736  29.195  29.187  1.00  0.00     0.031 A 
ATOM     50  C   UNL A   1      42.917  30.129  29.168  1.00  0.00     0.074 A 
ATOM     51  C   UNL A   1      41.890  27.915  28.802  1.00  0.00     0.049 A 
ATOM     52  N   UNL A   1      44.151  29.901  28.792  1.00  0.00    -0.248 NA
ATOM     53  C   UNL A   1      42.677  31.501  29.641  1.00  0.00     0.031 C 
ATOM     54  C   UNL A   1      40.841  26.898  28.808  1.00  0.00     0.029 A 
ATOM     55  N   UNL A   1      43.000  27.254  28.336  1.00  0.00    -0.354 N 
ATOM     56  C   UNL A   1      44.833  31.096  28.985  1.00  0.00     0.074 A 
ATOM     57  C   UNL A   1      43.870  32.056  29.481  1.00  0.00     0.031 C 
ATOM     58  C   UNL A   1      41.358  25.739  28.364  1.00  0.00     0.029 A 
ATOM     59  C   UNL A   1      42.766  25.938  28.024  1.00  0.00     0.049 A 
ATOM     60  H   UNL A   1      43.880  27.683  28.235  1.00  0.00     0.167 HD
ATOM     61  C   UNL A   1      46.144  31.368  28.784  1.00  0.00     0.037 A 
ATOM     62  C   UNL A   1      43.590  25.003  27.512  1.00  0.00     0.037 A 
ATOM     63  C   UNL A   1      47.108  30.420  28.294  1.00  0.00     0.049 A 
ATOM     64  C   UNL A   1      45.028  25.349  27.232  1.00  0.00     0.074 A 
ATOM     65  C   UNL A   1      48.463  30.604  28.069  1.00  0.00     0.029 A 
ATOM     66  N   UNL A   1      46.820  29.109  27.949  1.00  0.00    -0.354 N 
ATOM     67  N   UNL A   1      45.665  26.476  27.441  1.00  0.00    -0.248 NA
ATOM     68  C   UNL A   1      45.863  24.291  26.643  1.00  0.00     0.031 C 
ATOM     69  C   UNL A   1      48.986  29.413  27.551  1.00  0.00     0.029 A 
ATOM     70  C   UNL A   1      47.966  28.478  27.493  1.00  0.00     0.049 A 
ATOM     71  H   UNL A   1      45.932  28.688  28.018  1.00  0.00     0.167 HD
ATOM     72  C   UNL A   1      46.976  26.254  27.038  1.00  0.00     0.074 A 
ATOM     73  C   UNL A   1      47.048  24.883  26.581  1.00  0.00     0.031 C 
ATOM     74  C   UNL A   1      48.027  27.110  27.048  1.00  0.00     0.037 A 
BRANCH  61  75
ATOM     75  C   UNL A   1      46.612  32.761  29.080  1.00  0.00     0.057 A 
ATOM     76  C   UNL A   1      47.077  33.127  30.350  1.00  0.00     0.134 A 
ATOM     77  C   UNL A   1      46.635  33.737  28.076  1.00  0.00     0.134 A 
ATOM     78  F   UNL A   1      47.069  32.241  31.357  1.00  0.00    -0.206 F 
ATOM     79  C   UNL A   1      47.532  34.420  30.615  1.00  0.00     0.040 A 
ATOM     80  C   UNL A   1      47.107  35.027  28.324  1.00  0.00     0.040 A 
ATOM     81  F   UNL A   1      46.206  33.450  26.837  1.00  0.00    -0.206 F 
ATOM     82  C   UNL A   1      47.554  35.372  29.598  1.00  0.00     0.006 A 
ENDBRANCH  61  75
BRANCH  62  83
ATOM     83  C   UNL A   1      43.079  23.641  27.221  1.00  0.00     0.057 A 
ATOM     84  C   UNL A   1      42.885  22.703  28.241  1.00  0.00     0.134 A 
ATOM     85  C   UNL A   1      42.802  23.235  25.910  1.00  0.00     0.134 A 
ATOM     86  F   UNL A   1      43.158  23.025  29.514  1.00  0.00    -0.206 F 
ATOM     87  C   UNL A   1      42.448  21.405  27.968  1.00  0.00     0.040 A 
ATOM     88  C   UNL A   1      42.344  21.948  25.624  1.00  0.00     0.040 A 
ATOM     89  F   UNL A   1      42.972  24.087  24.888  1.00  0.00    -0.206 F 
ATOM     90  C   UNL A   1      42.172  21.027  26.655  1.00  0.00     0.006 A 
ENDBRANCH  62  83
BRANCH  74  91
ATOM     91  C   UNL A   1      49.350  26.582  26.580  1.00  0.00     0.057 A 
ATOM     92  C   UNL A   1      49.797  26.766  25.265  1.00  0.00     0.134 A 
ATOM     93  C   UNL A   1      50.207  25.915  27.466  1.00  0.00     0.134 A 
ATOM     94  F   UNL A   1      49.019  27.386  24.365  1.00  0.00    -0.206 F 
ATOM     95  C   UNL A   1      51.038  26.289  24.843  1.00  0.00     0.040 A 
ATOM     96  C   UNL A   1      51.460  25.453  27.062  1.00  0.00     0.040 A 
ATOM     97  F   UNL A   1      49.843  25.714  28.742  1.00  0.00    -0.206 F 
ATOM     98  C   UNL A   1      51.876  25.635  25.745  1.00  0.00     0.006 A 
ENDBRANCH  74  91
ENDBRANCH  48  49
ENDBRANCH  41  43
ENDBRANCH  40  41
ENDBRANCH  39  40
ENDBRANCH  38  39
ENDBRANCH  37  38
ENDBRANCH   1  37
TORSDOF 20
ENDMDL
MODEL 3
REMARK VINA RESULT:     -10.8      4.618     10.315
REMARK SMILES CC(=O)N[C@H]1[C@@H](Oc2ccc(C)c(C)c2)O[C@H]2CO[C@H](c3ccco3)O[C@@H]2[C@H]1OCC(=O)OCCOCCOC(=O)c1ccc(-c2c3nc(c(-c4c(F)cccc4F)c4ccc([nH]4)c(-c4c(F)cccc4F)c4nc(c(-c5c(F)cccc5F)c5ccc2[nH]5)C=C4)C=C3)cc1
REMARK SMILES IDX 35 1 34 2 33 3 31 4 32 5 30 6 29 7 28 8 5 9 6 10 16 11 27 12
REMARK SMILES IDX 17 13 26 14 18 15 20 16 19 17 4 18 1 19 2 20 3 21 7 23 8 24
REMARK SMILES IDX 9 25 15 26 10 27 13 28 11 29 14 30 12 31 21 32 22 33 25 34
REMARK SMILES IDX 23 35 24 36 36 37 37 38 38 39 39 40 40 41 41 42 42 43 43 44
REMARK SMILES IDX 95 45 44 46 94 47 45 48 46 49 47 50 88 51 48 52 93 53 87 54
REMARK SMILES IDX 89 55 49 56 92 57 86 58 85 59 50 61 76 62 59 63 75 64 60 65
REMARK SMILES IDX 63 66 74 67 90 68 61 69 62 70 73 72 91 73 64 74 51 75 52 76
REMARK SMILES IDX 57 77 53 78 54 79 56 80 58 81 55 82 77 83 78 84 83 85 79 86
REMARK SMILES IDX 80 87 82 88 84 89 81 90 65 91 66 92 71 93 67 94 68 95 70 96
REMARK SMILES IDX 72 97 69 98
REMARK H PARENT 4 22 89 60 63 71
REMARK Flexibility Score: inf
ROOT
ATOM      1  C   UNL A   1      35.301  30.413  28.035  1.00  0.00     0.202 C 
ENDROOT
BRANCH   1   2
ATOM      2  C   UNL A   1      34.394  29.300  27.503  1.00  0.00     0.261 C 
BRANCH   2   3
ATOM      3  O   UNL A   1      33.440  29.774  26.530  1.00  0.00    -0.462 OA
BRANCH   3   4
ATOM      4  C   UNL A   1      32.145  29.763  26.949  1.00  0.00     0.332 C 
ATOM      5  O   UNL A   1      31.392  30.733  26.927  1.00  0.00    -0.250 OA
BRANCH   4   6
ATOM      6  C   UNL A   1      31.691  28.410  27.513  1.00  0.00     0.283 C 
BRANCH   6   7
ATOM      7  O   UNL A   1      31.583  27.222  26.761  1.00  0.00    -0.361 OA
BRANCH   7   8
ATOM      8  C   UNL A   1      32.158  27.129  25.439  1.00  0.00     0.179 C 
ATOM      9  C   UNL A   1      33.050  25.820  25.443  1.00  0.00     0.182 C 
ATOM     10  C   UNL A   1      33.202  25.113  24.038  1.00  0.00     0.333 C 
ATOM     11  O   UNL A   1      32.181  25.363  23.081  1.00  0.00    -0.332 OA
ATOM     12  C   UNL A   1      31.137  27.160  24.275  1.00  0.00     0.184 C 
ATOM     13  C   UNL A   1      31.832  26.723  22.987  1.00  0.00     0.180 C 
ATOM     14  O   UNL A   1      30.608  28.481  24.086  1.00  0.00    -0.337 OA
ATOM     15  C   UNL A   1      30.895  26.894  21.798  1.00  0.00     0.199 C 
ATOM     16  C   UNL A   1      29.687  28.498  22.986  1.00  0.00     0.319 C 
ATOM     17  O   UNL A   1      30.364  28.206  21.767  1.00  0.00    -0.343 OA
BRANCH   9  18
ATOM     18  N   UNL A   1      32.668  24.929  26.556  1.00  0.00    -0.345 N 
ATOM     19  C   UNL A   1      30.552  24.020  25.611  1.00  0.00     0.114 C 
ATOM     20  C   UNL A   1      31.607  24.084  26.685  1.00  0.00     0.217 C 
ATOM     21  O   UNL A   1      31.529  23.373  27.688  1.00  0.00    -0.275 OA
ATOM     22  H   UNL A   1      33.277  24.949  27.329  1.00  0.00     0.164 HD
ENDBRANCH   9  18
BRANCH  10  23
ATOM     23  O   UNL A   1      33.500  23.707  24.094  1.00  0.00    -0.463 OA
BRANCH  23  24
ATOM     24  C   UNL A   1      34.703  23.280  24.601  1.00  0.00     0.123 A 
ATOM     25  C   UNL A   1      35.787  24.073  24.960  1.00  0.00     0.047 A 
ATOM     26  C   UNL A   1      34.838  21.891  24.675  1.00  0.00     0.050 A 
ATOM     27  C   UNL A   1      37.011  23.490  25.299  1.00  0.00     0.007 A 
ATOM     28  C   UNL A   1      36.064  21.285  25.009  1.00  0.00    -0.045 A 
ATOM     29  C   UNL A   1      37.176  22.099  25.291  1.00  0.00    -0.048 A 
ATOM     30  C   UNL A   1      36.148  19.786  24.950  1.00  0.00     0.045 C 
ATOM     31  C   UNL A   1      38.541  21.527  25.551  1.00  0.00     0.044 C 
ENDBRANCH  23  24
ENDBRANCH  10  23
BRANCH  16  32
ATOM     32  C   UNL A   1      29.108  29.859  22.811  1.00  0.00     0.159 A 
ATOM     33  C   UNL A   1      28.425  30.432  21.752  1.00  0.00     0.051 A 
ATOM     34  O   UNL A   1      29.221  30.765  23.825  1.00  0.00    -0.464 OA
ATOM     35  C   UNL A   1      28.125  31.759  22.132  1.00  0.00     0.042 A 
ATOM     36  C   UNL A   1      28.633  31.914  23.400  1.00  0.00     0.195 A 
ENDBRANCH  16  32
ENDBRANCH   7   8
ENDBRANCH   6   7
ENDBRANCH   4   6
ENDBRANCH   3   4
ENDBRANCH   2   3
ENDBRANCH   1   2
BRANCH   1  37
ATOM     37  O   UNL A   1      34.718  31.712  28.126  1.00  0.00    -0.374 OA
BRANCH  37  38
ATOM     38  C   UNL A   1      35.146  32.547  29.203  1.00  0.00     0.202 C 
BRANCH  38  39
ATOM     39  C   UNL A   1      36.653  32.821  29.260  1.00  0.00     0.261 C 
BRANCH  39  40
ATOM     40  O   UNL A   1      37.187  32.603  30.582  1.00  0.00    -0.460 OA
BRANCH  40  41
ATOM     41  C   UNL A   1      37.077  31.324  31.016  1.00  0.00     0.338 C 
ATOM     42  O   UNL A   1      36.153  30.836  31.643  1.00  0.00    -0.246 OA
BRANCH  41  43
ATOM     43  C   UNL A   1      38.181  30.498  30.493  1.00  0.00     0.060 A 
ATOM     44  C   UNL A   1      39.107  30.001  31.418  1.00  0.00     0.016 A 
ATOM     45  C   UNL A   1      38.390  30.336  29.122  1.00  0.00     0.016 A 
ATOM     46  C   UNL A   1      40.281  29.395  30.972  1.00  0.00     0.010 A 
ATOM     47  C   UNL A   1      39.573  29.731  28.677  1.00  0.00     0.010 A 
ATOM     48  C   UNL A   1      40.546  29.299  29.598  1.00  0.00    -0.014 A 
BRANCH  48  49
ATOM     49  C   UNL A   1      41.906  28.905  29.150  1.00  0.00     0.031 A 
ATOM     50  C   UNL A   1      42.143  27.495  28.679  1.00  0.00     0.074 A 
ATOM     51  C   UNL A   1      42.906  29.803  29.097  1.00  0.00     0.049 A 
ATOM     52  N   UNL A   1      43.239  26.946  28.217  1.00  0.00    -0.248 NA
ATOM     53  C   UNL A   1      40.990  26.582  28.730  1.00  0.00     0.031 C 
ATOM     54  C   UNL A   1      42.803  31.209  29.485  1.00  0.00     0.029 A 
ATOM     55  N   UNL A   1      44.209  29.662  28.687  1.00  0.00    -0.354 N 
ATOM     56  C   UNL A   1      42.908  25.629  27.921  1.00  0.00     0.074 A 
ATOM     57  C   UNL A   1      41.518  25.451  28.285  1.00  0.00     0.031 C 
ATOM     58  C   UNL A   1      43.994  31.801  29.295  1.00  0.00     0.029 A 
ATOM     59  C   UNL A   1      44.949  30.813  28.793  1.00  0.00     0.049 A 
ATOM     60  H   UNL A   1      44.579  28.814  28.350  1.00  0.00     0.167 HD
ATOM     61  C   UNL A   1      43.682  24.658  27.382  1.00  0.00     0.037 A 
ATOM     62  C   UNL A   1      46.250  31.042  28.527  1.00  0.00     0.037 A 
ATOM     63  C   UNL A   1      45.063  24.826  27.014  1.00  0.00     0.049 A 
ATOM     64  C   UNL A   1      47.109  29.928  27.992  1.00  0.00     0.074 A 
ATOM     65  C   UNL A   1      45.925  23.901  26.449  1.00  0.00     0.029 A 
ATOM     66  N   UNL A   1      45.786  25.998  27.179  1.00  0.00    -0.354 N 
ATOM     67  N   UNL A   1      46.776  28.695  27.695  1.00  0.00    -0.248 NA
ATOM     68  C   UNL A   1      48.527  30.239  27.754  1.00  0.00     0.031 C 
ATOM     69  C   UNL A   1      47.181  24.502  26.308  1.00  0.00     0.029 A 
ATOM     70  C   UNL A   1      47.089  25.813  26.747  1.00  0.00     0.049 A 
ATOM     71  H   UNL A   1      45.426  26.837  27.548  1.00  0.00     0.167 HD
ATOM     72  C   UNL A   1      47.932  28.094  27.211  1.00  0.00     0.074 A 
ATOM     73  C   UNL A   1      48.974  29.099  27.244  1.00  0.00     0.031 C 
ATOM     74  C   UNL A   1      48.114  26.823  26.777  1.00  0.00     0.037 A 
BRANCH  61  75
ATOM     75  C   UNL A   1      43.055  23.313  27.168  1.00  0.00     0.057 A 
ATOM     76  C   UNL A   1      42.649  22.884  25.898  1.00  0.00     0.134 A 
ATOM     77  C   UNL A   1      42.889  22.424  28.237  1.00  0.00     0.134 A 
ATOM     78  F   UNL A   1      42.769  23.694  24.837  1.00  0.00    -0.206 F 
ATOM     79  C   UNL A   1      42.084  21.622  25.702  1.00  0.00     0.040 A 
ATOM     80  C   UNL A   1      42.346  21.153  28.050  1.00  0.00     0.040 A 
ATOM     81  F   UNL A   1      43.261  22.774  29.478  1.00  0.00    -0.206 F 
ATOM     82  C   UNL A   1      41.937  20.750  26.779  1.00  0.00     0.006 A 
ENDBRANCH  61  75
BRANCH  62  83
ATOM     83  C   UNL A   1      46.832  32.386  28.767  1.00  0.00     0.057 A 
ATOM     84  C   UNL A   1      46.852  33.359  27.762  1.00  0.00     0.134 A 
ATOM     85  C   UNL A   1      47.410  32.717  29.998  1.00  0.00     0.134 A 
ATOM     86  F   UNL A   1      46.337  33.093  26.553  1.00  0.00    -0.206 F 
ATOM     87  C   UNL A   1      47.440  34.610  27.968  1.00  0.00     0.040 A 
ATOM     88  C   UNL A   1      47.981  33.969  30.225  1.00  0.00     0.040 A 
ATOM     89  F   UNL A   1      47.425  31.824  31.000  1.00  0.00    -0.206 F 
ATOM     90  C   UNL A   1      48.003  34.918  29.205  1.00  0.00     0.006 A 
ENDBRANCH  62  83
BRANCH  74  91
ATOM     91  C   UNL A   1      49.478  26.455  26.273  1.00  0.00     0.057 A 
ATOM     92  C   UNL A   1      49.904  26.793  24.981  1.00  0.00     0.134 A 
ATOM     93  C   UNL A   1      50.390  25.789  27.101  1.00  0.00     0.134 A 
ATOM     94  F   UNL A   1      49.075  27.421  24.135  1.00  0.00    -0.206 F 
ATOM     95  C   UNL A   1      51.182  26.463  24.527  1.00  0.00     0.040 A 
ATOM     96  C   UNL A   1      51.678  25.474  26.666  1.00  0.00     0.040 A 
ATOM     97  F   UNL A   1      50.047  25.445  28.352  1.00  0.00    -0.206 F 
ATOM     98  C   UNL A   1      52.074  25.807  25.373  1.00  0.00     0.006 A 
ENDBRANCH  74  91
ENDBRANCH  48  49
ENDBRANCH  41  43
ENDBRANCH  40  41
ENDBRANCH  39  40
ENDBRANCH  38  39
ENDBRANCH  37  38
ENDBRANCH   1  37
TORSDOF 20
ENDMDL
