MODEL 1
REMARK VINA RESULT:     -11.3      0.000      0.000
REMARK SMILES Cc1ccccc1OCc1nc2cc(C(=O)OCCOCCOC(=O)c3ccc(-c4c5nc(c(-c6c(F)cccc6F)c6ccc([nH]6)c(-c6c(F)cccc6F)c6nc(c(-c7c(F)cccc7F)c7ccc4[nH]7)C=C6)C=C5)cc3)ccc2n1C[C@H](C)O
REMARK SMILES IDX 19 1 18 2 17 3 15 4 16 5 14 6 10 7 11 8 83 9 12 10 82 11
REMARK SMILES IDX 13 12 81 13 80 14 9 15 8 16 7 17 1 18 2 19 3 20 4 21 6 22
REMARK SMILES IDX 5 23 84 24 85 25 86 26 87 27 20 29 21 30 22 31 23 32 24 33
REMARK SMILES IDX 25 34 26 35 27 36 79 37 28 38 78 39 29 40 30 41 31 42 72 43
REMARK SMILES IDX 32 44 77 45 71 46 73 47 33 48 76 49 70 50 69 51 34 53 60 54
REMARK SMILES IDX 43 55 59 56 44 57 47 58 58 59 74 60 45 61 46 62 57 64 75 65
REMARK SMILES IDX 48 66 35 67 36 68 41 69 37 70 38 71 40 72 42 73 39 74 61 75
REMARK SMILES IDX 62 76 67 77 63 78 64 79 66 80 68 81 65 82 49 83 50 84 55 85
REMARK SMILES IDX 51 86 52 87 54 88 56 89 53 90
REMARK H PARENT 87 28 73 52 47 63
REMARK Flexibility Score: inf
ROOT
ATOM      1  C   UNL A   1      40.920  21.978  27.706  1.00  0.00     0.202 C 
ENDROOT
BRANCH   1   2
ATOM      2  C   UNL A   1      40.397  21.515  26.354  1.00  0.00     0.261 C 
BRANCH   2   3
ATOM      3  O   UNL A   1      39.127  22.134  26.182  1.00  0.00    -0.460 OA
BRANCH   3   4
ATOM      4  C   UNL A   1      38.236  21.468  25.377  1.00  0.00     0.338 C 
ATOM      5  O   UNL A   1      38.164  20.330  25.084  1.00  0.00    -0.246 OA
BRANCH   4   6
ATOM      6  C   UNL A   1      37.408  22.588  24.883  1.00  0.00     0.062 A 
ATOM      7  C   UNL A   1      33.360  23.760  23.593  1.00  0.00     0.148 A 
ATOM      8  N   UNL A   1      34.366  23.336  22.812  1.00  0.00    -0.229 NA
ATOM      9  N   UNL A   1      33.505  23.083  24.769  1.00  0.00    -0.322 N 
ATOM     10  C   UNL A   1      35.358  22.980  23.729  1.00  0.00     0.090 A 
ATOM     11  C   UNL A   1      34.854  23.221  25.000  1.00  0.00     0.068 A 
ATOM     12  C   UNL A   1      36.663  22.473  23.679  1.00  0.00     0.046 A 
ATOM     13  C   UNL A   1      35.675  23.688  26.027  1.00  0.00     0.029 A 
ATOM     14  C   UNL A   1      37.012  23.387  25.939  1.00  0.00     0.018 A 
BRANCH   7  15
ATOM     15  C   UNL A   1      32.684  25.105  23.772  1.00  0.00     0.304 C 
BRANCH  15  16
ATOM     16  O   UNL A   1      33.788  26.072  23.730  1.00  0.00    -0.485 OA
BRANCH  16  17
ATOM     17  C   UNL A   1      33.756  27.177  24.541  1.00  0.00     0.122 A 
ATOM     18  C   UNL A   1      33.231  28.959  22.669  1.00  0.00     0.048 C 
ATOM     19  C   UNL A   1      33.437  28.480  24.075  1.00  0.00    -0.009 A 
ATOM     20  C   UNL A   1      33.190  29.502  25.006  1.00  0.00     0.007 A 
ATOM     21  C   UNL A   1      33.230  29.255  26.364  1.00  0.00     0.001 A 
ATOM     22  C   UNL A   1      33.811  26.946  25.917  1.00  0.00     0.047 A 
ATOM     23  C   UNL A   1      33.541  27.979  26.819  1.00  0.00     0.004 A 
ENDBRANCH  16  17
ENDBRANCH  15  16
ENDBRANCH   7  15
BRANCH   9  24
ATOM     24  C   UNL A   1      32.579  22.062  25.240  1.00  0.00     0.155 C 
BRANCH  24  25
ATOM     25  C   UNL A   1      32.879  20.618  24.800  1.00  0.00     0.131 C 
ATOM     26  C   UNL A   1      32.422  20.371  23.366  1.00  0.00     0.040 C 
BRANCH  25  27
ATOM     27  O   UNL A   1      32.191  19.704  25.658  1.00  0.00    -0.392 OA
ATOM     28  H   UNL A   1      31.696  19.067  25.120  1.00  0.00     0.211 HD
ENDBRANCH  25  27
ENDBRANCH  24  25
ENDBRANCH   9  24
ENDBRANCH   4   6
ENDBRANCH   3   4
ENDBRANCH   2   3
ENDBRANCH   1   2
BRANCH   1  29
ATOM     29  O   UNL A   1      42.208  22.527  27.461  1.00  0.00    -0.374 OA
BRANCH  29  30
ATOM     30  C   UNL A   1      42.792  23.245  28.536  1.00  0.00     0.202 C 
BRANCH  30  31
ATOM     31  C   UNL A   1      44.163  23.810  28.165  1.00  0.00     0.261 C 
BRANCH  31  32
ATOM     32  O   UNL A   1      44.622  24.633  29.256  1.00  0.00    -0.460 OA
BRANCH  32  33
ATOM     33  C   UNL A   1      45.033  25.874  28.892  1.00  0.00     0.338 C 
ATOM     34  O   UNL A   1      46.008  26.114  28.195  1.00  0.00    -0.246 OA
BRANCH  33  35
ATOM     35  C   UNL A   1      44.310  26.922  29.676  1.00  0.00     0.060 A 
ATOM     36  C   UNL A   1      44.007  26.671  31.019  1.00  0.00     0.016 A 
ATOM     37  C   UNL A   1      43.679  27.987  29.035  1.00  0.00     0.016 A 
ATOM     38  C   UNL A   1      43.025  27.426  31.680  1.00  0.00     0.010 A 
ATOM     39  C   UNL A   1      42.628  28.653  29.663  1.00  0.00     0.010 A 
ATOM     40  C   UNL A   1      42.272  28.393  30.996  1.00  0.00    -0.014 A 
BRANCH  40  41
ATOM     41  C   UNL A   1      41.113  29.150  31.596  1.00  0.00     0.031 A 
ATOM     42  C   UNL A   1      41.441  30.530  32.090  1.00  0.00     0.074 A 
ATOM     43  C   UNL A   1      39.846  28.745  31.358  1.00  0.00     0.049 A 
ATOM     44  N   UNL A   1      41.105  31.649  31.533  1.00  0.00    -0.248 NA
ATOM     45  C   UNL A   1      42.497  30.687  33.089  1.00  0.00     0.031 C 
ATOM     46  C   UNL A   1      38.544  29.336  31.671  1.00  0.00     0.029 A 
ATOM     47  N   UNL A   1      39.531  27.763  30.425  1.00  0.00    -0.354 N 
ATOM     48  C   UNL A   1      41.942  32.659  32.037  1.00  0.00     0.074 A 
ATOM     49  C   UNL A   1      42.794  31.989  32.988  1.00  0.00     0.031 C 
ATOM     50  C   UNL A   1      37.660  28.901  30.746  1.00  0.00     0.029 A 
ATOM     51  C   UNL A   1      38.419  28.198  29.721  1.00  0.00     0.049 A 
ATOM     52  H   UNL A   1      40.009  26.913  30.291  1.00  0.00     0.167 HD
ATOM     53  C   UNL A   1      41.845  33.968  31.628  1.00  0.00     0.037 A 
ATOM     54  C   UNL A   1      38.557  28.543  28.409  1.00  0.00     0.037 A 
ATOM     55  C   UNL A   1      40.742  34.163  30.725  1.00  0.00     0.049 A 
ATOM     56  C   UNL A   1      38.039  30.019  28.310  1.00  0.00     0.074 A 
ATOM     57  C   UNL A   1      40.477  34.702  29.483  1.00  0.00     0.029 A 
ATOM     58  N   UNL A   1      39.548  33.721  31.217  1.00  0.00    -0.354 N 
ATOM     59  N   UNL A   1      38.535  31.073  28.940  1.00  0.00    -0.248 NA
ATOM     60  C   UNL A   1      36.616  30.230  27.983  1.00  0.00     0.031 C 
ATOM     61  C   UNL A   1      39.125  34.371  29.175  1.00  0.00     0.029 A 
ATOM     62  C   UNL A   1      38.637  33.616  30.226  1.00  0.00     0.049 A 
ATOM     63  H   UNL A   1      39.376  33.508  32.164  1.00  0.00     0.167 HD
ATOM     64  C   UNL A   1      37.427  31.826  29.435  1.00  0.00     0.074 A 
ATOM     65  C   UNL A   1      36.279  31.256  28.780  1.00  0.00     0.031 C 
ATOM     66  C   UNL A   1      37.498  32.773  30.439  1.00  0.00     0.037 A 
BRANCH  53  67
ATOM     67  C   UNL A   1      42.609  35.187  32.094  1.00  0.00     0.057 A 
ATOM     68  C   UNL A   1      43.596  35.761  31.251  1.00  0.00     0.134 A 
ATOM     69  C   UNL A   1      42.491  35.785  33.351  1.00  0.00     0.134 A 
ATOM     70  F   UNL A   1      43.790  35.326  29.996  1.00  0.00    -0.206 F 
ATOM     71  C   UNL A   1      44.423  36.820  31.642  1.00  0.00     0.040 A 
ATOM     72  C   UNL A   1      43.282  36.883  33.738  1.00  0.00     0.040 A 
ATOM     73  F   UNL A   1      41.634  35.320  34.268  1.00  0.00    -0.206 F 
ATOM     74  C   UNL A   1      44.263  37.392  32.892  1.00  0.00     0.006 A 
ENDBRANCH  53  67
BRANCH  54  75
ATOM     75  C   UNL A   1      39.532  27.683  27.571  1.00  0.00     0.057 A 
ATOM     76  C   UNL A   1      40.565  28.168  26.773  1.00  0.00     0.134 A 
ATOM     77  C   UNL A   1      39.433  26.254  27.493  1.00  0.00     0.134 A 
ATOM     78  F   UNL A   1      40.822  29.475  26.769  1.00  0.00    -0.206 F 
ATOM     79  C   UNL A   1      41.405  27.337  25.974  1.00  0.00     0.040 A 
ATOM     80  C   UNL A   1      40.353  25.410  26.839  1.00  0.00     0.040 A 
ATOM     81  F   UNL A   1      38.394  25.586  28.024  1.00  0.00    -0.206 F 
ATOM     82  C   UNL A   1      41.336  25.951  26.044  1.00  0.00     0.006 A 
ENDBRANCH  54  75
BRANCH  66  83
ATOM     83  C   UNL A   1      36.567  33.018  31.686  1.00  0.00     0.057 A 
ATOM     84  C   UNL A   1      36.900  32.697  33.011  1.00  0.00     0.134 A 
ATOM     85  C   UNL A   1      35.324  33.738  31.609  1.00  0.00     0.134 A 
ATOM     86  F   UNL A   1      38.056  32.095  33.308  1.00  0.00    -0.206 F 
ATOM     87  C   UNL A   1      36.075  33.007  34.124  1.00  0.00     0.040 A 
ATOM     88  C   UNL A   1      34.511  34.077  32.712  1.00  0.00     0.040 A 
ATOM     89  F   UNL A   1      34.831  34.215  30.459  1.00  0.00    -0.206 F 
ATOM     90  C   UNL A   1      34.878  33.697  33.983  1.00  0.00     0.006 A 
ENDBRANCH  66  83
ENDBRANCH  40  41
ENDBRANCH  33  35
ENDBRANCH  32  33
ENDBRANCH  31  32
ENDBRANCH  30  31
ENDBRANCH  29  30
ENDBRANCH   1  29
TORSDOF 20
ENDMDL
MODEL 2
REMARK VINA RESULT:     -10.5      3.692      9.022
REMARK SMILES Cc1ccccc1OCc1nc2cc(C(=O)OCCOCCOC(=O)c3ccc(-c4c5nc(c(-c6c(F)cccc6F)c6ccc([nH]6)c(-c6c(F)cccc6F)c6nc(c(-c7c(F)cccc7F)c7ccc4[nH]7)C=C6)C=C5)cc3)ccc2n1C[C@H](C)O
REMARK SMILES IDX 19 1 18 2 17 3 15 4 16 5 14 6 10 7 11 8 83 9 12 10 82 11
REMARK SMILES IDX 13 12 81 13 80 14 9 15 8 16 7 17 1 18 2 19 3 20 4 21 6 22
REMARK SMILES IDX 5 23 84 24 85 25 86 26 87 27 20 29 21 30 22 31 23 32 24 33
REMARK SMILES IDX 25 34 26 35 27 36 79 37 28 38 78 39 29 40 30 41 31 42 72 43
REMARK SMILES IDX 32 44 77 45 71 46 73 47 33 48 76 49 70 50 69 51 34 53 60 54
REMARK SMILES IDX 43 55 59 56 44 57 47 58 58 59 74 60 45 61 46 62 57 64 75 65
REMARK SMILES IDX 48 66 35 67 36 68 41 69 37 70 38 71 40 72 42 73 39 74 61 75
REMARK SMILES IDX 62 76 67 77 63 78 64 79 66 80 68 81 65 82 49 83 50 84 55 85
REMARK SMILES IDX 51 86 52 87 54 88 56 89 53 90
REMARK H PARENT 87 28 73 52 47 63
REMARK Flexibility Score: inf
ROOT
ATOM      1  C   UNL A   1      35.552  33.203  28.032  1.00  0.00     0.202 C 
ENDROOT
BRANCH   1   2
ATOM      2  C   UNL A   1      34.113  32.773  28.276  1.00  0.00     0.261 C 
BRANCH   2   3
ATOM      3  O   UNL A   1      34.062  31.376  28.010  1.00  0.00    -0.460 OA
BRANCH   3   4
ATOM      4  C   UNL A   1      33.018  30.950  27.224  1.00  0.00     0.338 C 
ATOM      5  O   UNL A   1      32.259  31.554  26.559  1.00  0.00    -0.246 OA
BRANCH   4   6
ATOM      6  C   UNL A   1      33.033  29.498  27.498  1.00  0.00     0.062 A 
ATOM      7  C   UNL A   1      32.107  25.525  25.830  1.00  0.00     0.148 A 
ATOM      8  N   UNL A   1      31.303  26.293  26.582  1.00  0.00    -0.229 NA
ATOM      9  N   UNL A   1      32.845  26.395  25.083  1.00  0.00    -0.322 N 
ATOM     10  C   UNL A   1      32.028  27.479  26.722  1.00  0.00     0.090 A 
ATOM     11  C   UNL A   1      33.222  27.319  26.030  1.00  0.00     0.068 A 
ATOM     12  C   UNL A   1      31.855  28.715  27.358  1.00  0.00     0.046 A 
ATOM     13  C   UNL A   1      34.411  27.876  26.501  1.00  0.00     0.029 A 
ATOM     14  C   UNL A   1      34.302  28.989  27.298  1.00  0.00     0.018 A 
BRANCH   7  15
ATOM     15  C   UNL A   1      32.831  24.219  26.091  1.00  0.00     0.304 C 
BRANCH  15  16
ATOM     16  O   UNL A   1      32.700  23.475  24.832  1.00  0.00    -0.485 OA
BRANCH  16  17
ATOM     17  C   UNL A   1      32.632  22.107  24.854  1.00  0.00     0.122 A 
ATOM     18  C   UNL A   1      32.053  21.753  22.305  1.00  0.00     0.048 C 
ATOM     19  C   UNL A   1      32.404  21.316  23.696  1.00  0.00    -0.009 A 
ATOM     20  C   UNL A   1      32.590  19.926  23.765  1.00  0.00     0.007 A 
ATOM     21  C   UNL A   1      33.011  19.319  24.932  1.00  0.00     0.001 A 
ATOM     22  C   UNL A   1      33.039  21.477  26.032  1.00  0.00     0.047 A 
ATOM     23  C   UNL A   1      33.233  20.094  26.065  1.00  0.00     0.004 A 
ENDBRANCH  16  17
ENDBRANCH  15  16
ENDBRANCH   7  15
BRANCH   9  24
ATOM     24  C   UNL A   1      32.715  26.542  23.639  1.00  0.00     0.155 C 
BRANCH  24  25
ATOM     25  C   UNL A   1      33.099  27.916  23.060  1.00  0.00     0.131 C 
ATOM     26  C   UNL A   1      31.885  28.835  22.967  1.00  0.00     0.040 C 
BRANCH  25  27
ATOM     27  O   UNL A   1      33.638  27.747  21.746  1.00  0.00    -0.392 OA
ATOM     28  H   UNL A   1      32.923  27.800  21.093  1.00  0.00     0.211 HD
ENDBRANCH  25  27
ENDBRANCH  24  25
ENDBRANCH   9  24
ENDBRANCH   4   6
ENDBRANCH   3   4
ENDBRANCH   2   3
ENDBRANCH   1   2
BRANCH   1  29
ATOM     29  O   UNL A   1      35.931  33.970  29.168  1.00  0.00    -0.374 OA
BRANCH  29  30
ATOM     30  C   UNL A   1      36.575  33.257  30.212  1.00  0.00     0.202 C 
BRANCH  30  31
ATOM     31  C   UNL A   1      38.095  33.393  30.139  1.00  0.00     0.261 C 
BRANCH  31  32
ATOM     32  O   UNL A   1      38.667  32.662  31.243  1.00  0.00    -0.460 OA
BRANCH  32  33
ATOM     33  C   UNL A   1      39.897  33.089  31.625  1.00  0.00     0.338 C 
ATOM     34  O   UNL A   1      40.142  34.187  32.102  1.00  0.00    -0.246 OA
BRANCH  33  35
ATOM     35  C   UNL A   1      40.958  32.155  31.135  1.00  0.00     0.060 A 
ATOM     36  C   UNL A   1      41.946  32.649  30.277  1.00  0.00     0.016 A 
ATOM     37  C   UNL A   1      40.810  30.775  31.264  1.00  0.00     0.016 A 
ATOM     38  C   UNL A   1      42.719  31.770  29.501  1.00  0.00     0.010 A 
ATOM     39  C   UNL A   1      41.500  29.919  30.407  1.00  0.00     0.010 A 
ATOM     40  C   UNL A   1      42.469  30.389  29.505  1.00  0.00    -0.014 A 
BRANCH  40  41
ATOM     41  C   UNL A   1      43.160  29.396  28.603  1.00  0.00     0.031 A 
ATOM     42  C   UNL A   1      44.366  28.729  29.199  1.00  0.00     0.074 A 
ATOM     43  C   UNL A   1      42.518  28.906  27.520  1.00  0.00     0.049 A 
ATOM     44  N   UNL A   1      44.447  27.503  29.609  1.00  0.00    -0.248 NA
ATOM     45  C   UNL A   1      45.465  29.563  29.683  1.00  0.00     0.031 C 
ATOM     46  C   UNL A   1      42.858  27.852  26.563  1.00  0.00     0.029 A 
ATOM     47  N   UNL A   1      41.165  29.124  27.283  1.00  0.00    -0.354 N 
ATOM     48  C   UNL A   1      45.555  27.400  30.467  1.00  0.00     0.074 A 
ATOM     49  C   UNL A   1      46.134  28.720  30.480  1.00  0.00     0.031 C 
ATOM     50  C   UNL A   1      41.702  27.348  26.076  1.00  0.00     0.029 A 
ATOM     51  C   UNL A   1      40.617  27.923  26.859  1.00  0.00     0.049 A 
ATOM     52  H   UNL A   1      40.685  29.976  27.395  1.00  0.00     0.167 HD
ATOM     53  C   UNL A   1      45.903  26.219  31.081  1.00  0.00     0.037 A 
ATOM     54  C   UNL A   1      39.745  27.265  27.676  1.00  0.00     0.037 A 
ATOM     55  C   UNL A   1      45.064  25.131  30.656  1.00  0.00     0.049 A 
ATOM     56  C   UNL A   1      40.362  25.839  27.880  1.00  0.00     0.074 A 
ATOM     57  C   UNL A   1      44.281  24.129  31.192  1.00  0.00     0.029 A 
ATOM     58  N   UNL A   1      45.017  24.974  29.300  1.00  0.00    -0.354 N 
ATOM     59  N   UNL A   1      41.537  25.558  28.424  1.00  0.00    -0.248 NA
ATOM     60  C   UNL A   1      39.949  24.770  26.953  1.00  0.00     0.031 C 
ATOM     61  C   UNL A   1      43.606  23.510  30.099  1.00  0.00     0.029 A 
ATOM     62  C   UNL A   1      43.979  24.184  28.951  1.00  0.00     0.049 A 
ATOM     63  H   UNL A   1      45.652  25.381  28.666  1.00  0.00     0.167 HD
ATOM     64  C   UNL A   1      42.148  24.558  27.608  1.00  0.00     0.074 A 
ATOM     65  C   UNL A   1      41.095  24.106  26.738  1.00  0.00     0.031 C 
ATOM     66  C   UNL A   1      43.497  24.256  27.603  1.00  0.00     0.037 A 
BRANCH  53  67
ATOM     67  C   UNL A   1      47.079  25.905  31.977  1.00  0.00     0.057 A 
ATOM     68  C   UNL A   1      48.366  25.718  31.407  1.00  0.00     0.134 A 
ATOM     69  C   UNL A   1      47.014  25.697  33.358  1.00  0.00     0.134 A 
ATOM     70  F   UNL A   1      48.595  25.930  30.102  1.00  0.00    -0.206 F 
ATOM     71  C   UNL A   1      49.486  25.321  32.146  1.00  0.00     0.040 A 
ATOM     72  C   UNL A   1      48.144  25.346  34.119  1.00  0.00     0.040 A 
ATOM     73  F   UNL A   1      45.856  25.793  34.024  1.00  0.00    -0.206 F 
ATOM     74  C   UNL A   1      49.379  25.139  33.513  1.00  0.00     0.006 A 
ENDBRANCH  53  67
BRANCH  54  75
ATOM     75  C   UNL A   1      38.769  28.146  28.491  1.00  0.00     0.057 A 
ATOM     76  C   UNL A   1      38.039  29.224  27.996  1.00  0.00     0.134 A 
ATOM     77  C   UNL A   1      38.550  27.962  29.896  1.00  0.00     0.134 A 
ATOM     78  F   UNL A   1      38.094  29.501  26.695  1.00  0.00    -0.206 F 
ATOM     79  C   UNL A   1      37.192  30.042  28.801  1.00  0.00     0.040 A 
ATOM     80  C   UNL A   1      37.597  28.657  30.668  1.00  0.00     0.040 A 
ATOM     81  F   UNL A   1      39.292  27.109  30.624  1.00  0.00    -0.206 F 
ATOM     82  C   UNL A   1      36.927  29.730  30.129  1.00  0.00     0.006 A 
ENDBRANCH  54  75
BRANCH  66  83
ATOM     83  C   UNL A   1      44.488  24.007  26.404  1.00  0.00     0.057 A 
ATOM     84  C   UNL A   1      45.428  24.938  25.936  1.00  0.00     0.134 A 
ATOM     85  C   UNL A   1      44.631  22.732  25.754  1.00  0.00     0.134 A 
ATOM     86  F   UNL A   1      45.516  26.161  26.466  1.00  0.00    -0.206 F 
ATOM     87  C   UNL A   1      46.366  24.654  24.907  1.00  0.00     0.040 A 
ATOM     88  C   UNL A   1      45.579  22.432  24.753  1.00  0.00     0.040 A 
ATOM     89  F   UNL A   1      43.893  21.664  26.082  1.00  0.00    -0.206 F 
ATOM     90  C   UNL A   1      46.447  23.403  24.310  1.00  0.00     0.006 A 
ENDBRANCH  66  83
ENDBRANCH  40  41
ENDBRANCH  33  35
ENDBRANCH  32  33
ENDBRANCH  31  32
ENDBRANCH  30  31
ENDBRANCH  29  30
ENDBRANCH   1  29
TORSDOF 20
ENDMDL
MODEL 3
REMARK VINA RESULT:     -10.4      2.068      3.054
REMARK SMILES Cc1ccccc1OCc1nc2cc(C(=O)OCCOCCOC(=O)c3ccc(-c4c5nc(c(-c6c(F)cccc6F)c6ccc([nH]6)c(-c6c(F)cccc6F)c6nc(c(-c7c(F)cccc7F)c7ccc4[nH]7)C=C6)C=C5)cc3)ccc2n1C[C@H](C)O
REMARK SMILES IDX 19 1 18 2 17 3 15 4 16 5 14 6 10 7 11 8 83 9 12 10 82 11
REMARK SMILES IDX 13 12 81 13 80 14 9 15 8 16 7 17 1 18 2 19 3 20 4 21 6 22
REMARK SMILES IDX 5 23 84 24 85 25 86 26 87 27 20 29 21 30 22 31 23 32 24 33
REMARK SMILES IDX 25 34 26 35 27 36 79 37 28 38 78 39 29 40 30 41 31 42 72 43
REMARK SMILES IDX 32 44 77 45 71 46 73 47 33 48 76 49 70 50 69 51 34 53 60 54
REMARK SMILES IDX 43 55 59 56 44 57 47 58 58 59 74 60 45 61 46 62 57 64 75 65
REMARK SMILES IDX 48 66 35 67 36 68 41 69 37 70 38 71 40 72 42 73 39 74 61 75
REMARK SMILES IDX 62 76 67 77 63 78 64 79 66 80 68 81 65 82 49 83 50 84 55 85
REMARK SMILES IDX 51 86 52 87 54 88 56 89 53 90
REMARK H PARENT 87 28 73 52 47 63
REMARK Flexibility Score: inf
ROOT
ATOM      1  C   UNL A   1      41.216  22.734  27.062  1.00  0.00     0.202 C 
ENDROOT
BRANCH   1   2
ATOM      2  C   UNL A   1      40.304  21.709  26.404  1.00  0.00     0.261 C 
BRANCH   2   3
ATOM      3  O   UNL A   1      39.083  22.383  26.119  1.00  0.00    -0.460 OA
BRANCH   3   4
ATOM      4  C   UNL A   1      38.155  21.669  25.399  1.00  0.00     0.338 C 
ATOM      5  O   UNL A   1      38.111  20.528  25.118  1.00  0.00    -0.246 OA
BRANCH   4   6
ATOM      6  C   UNL A   1      37.236  22.747  24.977  1.00  0.00     0.062 A 
ATOM      7  C   UNL A   1      33.215  23.614  23.394  1.00  0.00     0.148 A 
ATOM      8  N   UNL A   1      34.343  23.445  22.686  1.00  0.00    -0.229 NA
ATOM      9  N   UNL A   1      33.333  22.781  24.467  1.00  0.00    -0.322 N 
ATOM     10  C   UNL A   1      35.277  23.068  23.654  1.00  0.00     0.090 A 
ATOM     11  C   UNL A   1      34.620  23.042  24.877  1.00  0.00     0.068 A 
ATOM     12  C   UNL A   1      36.638  22.736  23.689  1.00  0.00     0.046 A 
ATOM     13  C   UNL A   1      35.262  23.433  26.052  1.00  0.00     0.029 A 
ATOM     14  C   UNL A   1      36.629  23.313  26.082  1.00  0.00     0.018 A 
BRANCH   7  15
ATOM     15  C   UNL A   1      32.347  24.822  23.683  1.00  0.00     0.304 C 
BRANCH  15  16
ATOM     16  O   UNL A   1      33.151  25.963  23.225  1.00  0.00    -0.485 OA
BRANCH  16  17
ATOM     17  C   UNL A   1      33.394  27.009  24.078  1.00  0.00     0.122 A 
ATOM     18  C   UNL A   1      32.215  28.890  22.653  1.00  0.00     0.048 C 
ATOM     19  C   UNL A   1      32.913  28.327  23.854  1.00  0.00    -0.009 A 
ATOM     20  C   UNL A   1      33.000  29.274  24.888  1.00  0.00     0.007 A 
ATOM     21  C   UNL A   1      33.523  28.939  26.122  1.00  0.00     0.001 A 
ATOM     22  C   UNL A   1      33.937  26.690  25.324  1.00  0.00     0.047 A 
ATOM     23  C   UNL A   1      33.992  27.649  26.338  1.00  0.00     0.004 A 
ENDBRANCH  16  17
ENDBRANCH  15  16
ENDBRANCH   7  15
BRANCH   9  24
ATOM     24  C   UNL A   1      32.512  21.595  24.671  1.00  0.00     0.155 C 
BRANCH  24  25
ATOM     25  C   UNL A   1      33.272  20.266  24.839  1.00  0.00     0.131 C 
ATOM     26  C   UNL A   1      32.516  19.112  24.188  1.00  0.00     0.040 C 
BRANCH  25  27
ATOM     27  O   UNL A   1      33.426  19.976  26.231  1.00  0.00    -0.392 OA
ATOM     28  H   UNL A   1      34.370  19.915  26.445  1.00  0.00     0.211 HD
ENDBRANCH  25  27
ENDBRANCH  24  25
ENDBRANCH   9  24
ENDBRANCH   4   6
ENDBRANCH   3   4
ENDBRANCH   2   3
ENDBRANCH   1   2
BRANCH   1  29
ATOM     29  O   UNL A   1      42.124  23.156  26.054  1.00  0.00    -0.374 OA
BRANCH  29  30
ATOM     30  C   UNL A   1      42.726  24.425  26.251  1.00  0.00     0.202 C 
BRANCH  30  31
ATOM     31  C   UNL A   1      43.730  24.756  25.147  1.00  0.00     0.261 C 
BRANCH  31  32
ATOM     32  O   UNL A   1      44.392  25.989  25.494  1.00  0.00    -0.460 OA
BRANCH  32  33
ATOM     33  C   UNL A   1      43.627  27.100  25.350  1.00  0.00     0.338 C 
ATOM     34  O   UNL A   1      43.013  27.403  24.338  1.00  0.00    -0.246 OA
BRANCH  33  35
ATOM     35  C   UNL A   1      43.852  28.048  26.485  1.00  0.00     0.060 A 
ATOM     36  C   UNL A   1      44.288  27.538  27.713  1.00  0.00     0.016 A 
ATOM     37  C   UNL A   1      43.357  29.351  26.438  1.00  0.00     0.016 A 
ATOM     38  C   UNL A   1      44.152  28.296  28.887  1.00  0.00     0.010 A 
ATOM     39  C   UNL A   1      43.120  30.048  27.621  1.00  0.00     0.010 A 
ATOM     40  C   UNL A   1      43.508  29.544  28.874  1.00  0.00    -0.014 A 
BRANCH  40  41
ATOM     41  C   UNL A   1      43.202  30.357  30.107  1.00  0.00     0.031 A 
ATOM     42  C   UNL A   1      43.444  31.834  29.970  1.00  0.00     0.074 A 
ATOM     43  C   UNL A   1      42.438  29.833  31.090  1.00  0.00     0.049 A 
ATOM     44  N   UNL A   1      42.543  32.758  29.870  1.00  0.00    -0.248 NA
ATOM     45  C   UNL A   1      44.777  32.296  29.586  1.00  0.00     0.031 C 
ATOM     46  C   UNL A   1      41.863  30.407  32.308  1.00  0.00     0.029 A 
ATOM     47  N   UNL A   1      41.750  28.633  30.950  1.00  0.00    -0.354 N 
ATOM     48  C   UNL A   1      43.151  33.908  29.340  1.00  0.00     0.074 A 
ATOM     49  C   UNL A   1      44.537  33.547  29.172  1.00  0.00     0.031 C 
ATOM     50  C   UNL A   1      40.749  29.704  32.609  1.00  0.00     0.029 A 
ATOM     51  C   UNL A   1      40.484  28.814  31.487  1.00  0.00     0.049 A 
ATOM     52  H   UNL A   1      42.098  27.806  30.545  1.00  0.00     0.167 HD
ATOM     53  C   UNL A   1      42.450  35.066  29.098  1.00  0.00     0.037 A 
ATOM     54  C   UNL A   1      39.405  28.829  30.654  1.00  0.00     0.037 A 
ATOM     55  C   UNL A   1      41.086  34.965  29.543  1.00  0.00     0.049 A 
ATOM     56  C   UNL A   1      38.694  30.200  30.917  1.00  0.00     0.074 A 
ATOM     57  C   UNL A   1      39.804  35.161  29.072  1.00  0.00     0.029 A 
ATOM     58  N   UNL A   1      40.964  34.591  30.851  1.00  0.00    -0.354 N 
ATOM     59  N   UNL A   1      39.215  31.405  30.739  1.00  0.00    -0.248 NA
ATOM     60  C   UNL A   1      37.627  30.241  31.934  1.00  0.00     0.031 C 
ATOM     61  C   UNL A   1      38.920  34.686  30.085  1.00  0.00     0.029 A 
ATOM     62  C   UNL A   1      39.701  34.190  31.112  1.00  0.00     0.049 A 
ATOM     63  H   UNL A   1      41.695  34.611  31.510  1.00  0.00     0.167 HD
ATOM     64  C   UNL A   1      38.851  32.192  31.874  1.00  0.00     0.074 A 
ATOM     65  C   UNL A   1      37.850  31.411  32.551  1.00  0.00     0.031 C 
ATOM     66  C   UNL A   1      39.478  33.362  32.260  1.00  0.00     0.037 A 
BRANCH  53  67
ATOM     67  C   UNL A   1      42.938  36.405  28.592  1.00  0.00     0.057 A 
ATOM     68  C   UNL A   1      43.468  37.350  29.509  1.00  0.00     0.134 A 
ATOM     69  C   UNL A   1      42.849  36.855  27.272  1.00  0.00     0.134 A 
ATOM     70  F   UNL A   1      43.660  37.045  30.802  1.00  0.00    -0.206 F 
ATOM     71  C   UNL A   1      43.843  38.649  29.148  1.00  0.00     0.040 A 
ATOM     72  C   UNL A   1      43.269  38.141  26.887  1.00  0.00     0.040 A 
ATOM     73  F   UNL A   1      42.326  36.088  26.308  1.00  0.00    -0.206 F 
ATOM     74  C   UNL A   1      43.750  39.048  27.827  1.00  0.00     0.006 A 
ENDBRANCH  53  67
BRANCH  54  75
ATOM     75  C   UNL A   1      39.444  27.845  29.461  1.00  0.00     0.057 A 
ATOM     76  C   UNL A   1      39.812  28.163  28.156  1.00  0.00     0.134 A 
ATOM     77  C   UNL A   1      39.047  26.472  29.575  1.00  0.00     0.134 A 
ATOM     78  F   UNL A   1      40.253  29.390  27.888  1.00  0.00    -0.206 F 
ATOM     79  C   UNL A   1      39.779  27.233  27.075  1.00  0.00     0.040 A 
ATOM     80  C   UNL A   1      39.163  25.504  28.558  1.00  0.00     0.040 A 
ATOM     81  F   UNL A   1      38.471  25.992  30.692  1.00  0.00    -0.206 F 
ATOM     82  C   UNL A   1      39.505  25.887  27.282  1.00  0.00     0.006 A 
ENDBRANCH  54  75
BRANCH  66  83
ATOM     83  C   UNL A   1      39.943  33.855  33.682  1.00  0.00     0.057 A 
ATOM     84  C   UNL A   1      41.273  33.871  34.129  1.00  0.00     0.134 A 
ATOM     85  C   UNL A   1      39.057  34.482  34.625  1.00  0.00     0.134 A 
ATOM     86  F   UNL A   1      42.267  33.407  33.365  1.00  0.00    -0.206 F 
ATOM     87  C   UNL A   1      41.672  34.401  35.385  1.00  0.00     0.040 A 
ATOM     88  C   UNL A   1      39.447  35.038  35.862  1.00  0.00     0.040 A 
ATOM     89  F   UNL A   1      37.749  34.652  34.390  1.00  0.00    -0.206 F 
ATOM     90  C   UNL A   1      40.764  34.985  36.258  1.00  0.00     0.006 A 
ENDBRANCH  66  83
ENDBRANCH  40  41
ENDBRANCH  33  35
ENDBRANCH  32  33
ENDBRANCH  31  32
ENDBRANCH  30  31
ENDBRANCH  29  30
ENDBRANCH   1  29
TORSDOF 20
ENDMDL
