MODEL 1
REMARK VINA RESULT:     -10.4      0.000      0.000
REMARK SMILES C[C@@H](C(=O)OCCOCCOC(=O)c1ccc(-c2c3nc(c(-c4c(F)cccc4F)c4ccc([nH]4)c(-c4c(F)cccc4F)c4nc(c(-c5c(F)cccc5F)c5ccc2[nH]5)C=C4)C=C3)cc1)[C@@H](C)C(=O)c1cccc(Cl)c1
REMARK SMILES IDX 7 1 6 2 5 3 3 4 4 5 2 6 1 7 68 8 69 9 70 10 71 11 72 12
REMARK SMILES IDX 73 13 78 14 74 15 76 16 75 17 77 18 8 19 9 20 10 21 11 22
REMARK SMILES IDX 12 23 13 24 14 25 15 26 67 27 16 28 66 29 17 30 18 31 19 32
REMARK SMILES IDX 60 33 20 34 65 35 59 36 61 37 21 38 64 39 58 40 57 41 22 43
REMARK SMILES IDX 48 44 31 45 47 46 32 47 35 48 46 49 62 50 33 51 34 52 45 54
REMARK SMILES IDX 63 55 36 56 23 57 24 58 29 59 25 60 26 61 28 62 30 63 27 64
REMARK SMILES IDX 49 65 50 66 55 67 51 68 52 69 54 70 56 71 53 72 37 73 38 74
REMARK SMILES IDX 43 75 39 76 40 77 42 78 44 79 41 80
REMARK H PARENT 61 42 35 53
REMARK Flexibility Score: inf
ROOT
ATOM      1  C   UNL A   1      32.216  29.485  26.866  1.00  0.00     0.202 C 
ENDROOT
BRANCH   1   2
ATOM      2  C   UNL A   1      33.323  28.425  26.911  1.00  0.00     0.261 C 
BRANCH   2   3
ATOM      3  O   UNL A   1      33.716  27.944  25.617  1.00  0.00    -0.463 OA
BRANCH   3   4
ATOM      4  C   UNL A   1      33.155  26.758  25.263  1.00  0.00     0.309 C 
ATOM      5  O   UNL A   1      33.119  25.781  25.999  1.00  0.00    -0.252 OA
BRANCH   4   6
ATOM      6  C   UNL A   1      32.614  26.735  23.830  1.00  0.00     0.106 C 
ATOM      7  C   UNL A   1      33.567  26.073  22.819  1.00  0.00     0.021 C 
BRANCH   6   8
ATOM      8  C   UNL A   1      32.223  28.166  23.381  1.00  0.00     0.072 C 
ATOM      9  C   UNL A   1      33.349  28.922  22.671  1.00  0.00     0.017 C 
BRANCH   8  10
ATOM     10  C   UNL A   1      30.929  28.397  22.573  1.00  0.00     0.166 C 
ATOM     11  O   UNL A   1      30.449  27.443  21.951  1.00  0.00    -0.294 OA
BRANCH  10  12
ATOM     12  C   UNL A   1      30.118  29.663  22.628  1.00  0.00     0.019 A 
ATOM     13  C   UNL A   1      29.905  30.232  23.895  1.00  0.00     0.012 A 
ATOM     14  C   UNL A   1      29.510  30.267  21.525  1.00  0.00     0.032 A 
ATOM     15  C   UNL A   1      29.110  31.371  24.052  1.00  0.00     0.002 A 
ATOM     16  C   UNL A   1      28.705  31.397  21.686  1.00  0.00     0.041 A 
ATOM     17  C   UNL A   1      28.505  31.955  22.942  1.00  0.00     0.020 A 
ATOM     18  Cl  UNL A   1      27.929  32.084  20.309  1.00  0.00    -0.084 Cl
ENDBRANCH  10  12
ENDBRANCH   8  10
ENDBRANCH   6   8
ENDBRANCH   4   6
ENDBRANCH   3   4
ENDBRANCH   2   3
ENDBRANCH   1   2
BRANCH   1  19
ATOM     19  O   UNL A   1      32.560  30.834  27.151  1.00  0.00    -0.374 OA
BRANCH  19  20
ATOM     20  C   UNL A   1      31.625  31.863  26.832  1.00  0.00     0.202 C 
BRANCH  20  21
ATOM     21  C   UNL A   1      32.095  33.322  26.910  1.00  0.00     0.261 C 
BRANCH  21  22
ATOM     22  O   UNL A   1      32.325  33.759  28.264  1.00  0.00    -0.460 OA
BRANCH  22  23
ATOM     23  C   UNL A   1      33.460  34.479  28.435  1.00  0.00     0.338 C 
ATOM     24  O   UNL A   1      33.558  35.694  28.554  1.00  0.00    -0.246 OA
BRANCH  23  25
ATOM     25  C   UNL A   1      34.609  33.588  28.654  1.00  0.00     0.060 A 
ATOM     26  C   UNL A   1      34.378  32.384  29.334  1.00  0.00     0.016 A 
ATOM     27  C   UNL A   1      35.907  33.979  28.322  1.00  0.00     0.016 A 
ATOM     28  C   UNL A   1      35.450  31.588  29.728  1.00  0.00     0.010 A 
ATOM     29  C   UNL A   1      36.984  33.184  28.730  1.00  0.00     0.010 A 
ATOM     30  C   UNL A   1      36.760  32.007  29.468  1.00  0.00    -0.014 A 
BRANCH  30  31
ATOM     31  C   UNL A   1      37.888  31.295  30.117  1.00  0.00     0.031 A 
ATOM     32  C   UNL A   1      38.201  31.586  31.559  1.00  0.00     0.074 A 
ATOM     33  C   UNL A   1      38.595  30.368  29.445  1.00  0.00     0.049 A 
ATOM     34  N   UNL A   1      39.142  31.089  32.321  1.00  0.00    -0.248 NA
ATOM     35  C   UNL A   1      37.334  32.566  32.232  1.00  0.00     0.031 C 
ATOM     36  C   UNL A   1      38.359  29.965  28.061  1.00  0.00     0.029 A 
ATOM     37  N   UNL A   1      39.657  29.600  29.846  1.00  0.00    -0.354 N 
ATOM     38  C   UNL A   1      38.984  31.699  33.559  1.00  0.00     0.074 A 
ATOM     39  C   UNL A   1      37.875  32.619  33.441  1.00  0.00     0.031 C 
ATOM     40  C   UNL A   1      39.259  29.026  27.722  1.00  0.00     0.029 A 
ATOM     41  C   UNL A   1      40.147  28.783  28.858  1.00  0.00     0.049 A 
ATOM     42  H   UNL A   1      40.034  29.630  30.756  1.00  0.00     0.167 HD
ATOM     43  C   UNL A   1      39.694  31.502  34.696  1.00  0.00     0.037 A 
ATOM     44  C   UNL A   1      41.205  27.948  28.865  1.00  0.00     0.037 A 
ATOM     45  C   UNL A   1      40.794  30.582  34.816  1.00  0.00     0.049 A 
ATOM     46  C   UNL A   1      42.021  27.799  30.121  1.00  0.00     0.074 A 
ATOM     47  C   UNL A   1      41.563  30.298  35.930  1.00  0.00     0.029 A 
ATOM     48  N   UNL A   1      41.286  29.803  33.781  1.00  0.00    -0.354 N 
ATOM     49  N   UNL A   1      41.851  28.363  31.292  1.00  0.00    -0.248 NA
ATOM     50  C   UNL A   1      43.181  26.896  30.054  1.00  0.00     0.031 C 
ATOM     51  C   UNL A   1      42.549  29.378  35.559  1.00  0.00     0.029 A 
ATOM     52  C   UNL A   1      42.365  29.057  34.223  1.00  0.00     0.049 A 
ATOM     53  H   UNL A   1      40.922  29.783  32.866  1.00  0.00     0.167 HD
ATOM     54  C   UNL A   1      42.859  27.864  32.107  1.00  0.00     0.074 A 
ATOM     55  C   UNL A   1      43.633  26.944  31.299  1.00  0.00     0.031 C 
ATOM     56  C   UNL A   1      43.121  28.141  33.408  1.00  0.00     0.037 A 
BRANCH  43  57
ATOM     57  C   UNL A   1      39.314  32.316  35.897  1.00  0.00     0.057 A 
ATOM     58  C   UNL A   1      39.862  33.583  36.135  1.00  0.00     0.134 A 
ATOM     59  C   UNL A   1      38.366  31.839  36.811  1.00  0.00     0.134 A 
ATOM     60  F   UNL A   1      40.788  34.090  35.305  1.00  0.00    -0.206 F 
ATOM     61  C   UNL A   1      39.496  34.337  37.250  1.00  0.00     0.040 A 
ATOM     62  C   UNL A   1      37.974  32.594  37.916  1.00  0.00     0.040 A 
ATOM     63  F   UNL A   1      37.801  30.634  36.639  1.00  0.00    -0.206 F 
ATOM     64  C   UNL A   1      38.544  33.846  38.141  1.00  0.00     0.006 A 
ENDBRANCH  43  57
BRANCH  44  65
ATOM     65  C   UNL A   1      41.563  27.193  27.639  1.00  0.00     0.057 A 
ATOM     66  C   UNL A   1      41.059  25.909  27.403  1.00  0.00     0.134 A 
ATOM     67  C   UNL A   1      42.436  27.729  26.684  1.00  0.00     0.134 A 
ATOM     68  F   UNL A   1      40.239  25.332  28.294  1.00  0.00    -0.206 F 
ATOM     69  C   UNL A   1      41.421  25.179  26.269  1.00  0.00     0.040 A 
ATOM     70  C   UNL A   1      42.788  27.020  25.536  1.00  0.00     0.040 A 
ATOM     71  F   UNL A   1      42.954  28.955  26.854  1.00  0.00    -0.206 F 
ATOM     72  C   UNL A   1      42.285  25.738  25.329  1.00  0.00     0.006 A 
ENDBRANCH  44  65
BRANCH  56  73
ATOM     73  C   UNL A   1      44.268  27.418  34.048  1.00  0.00     0.057 A 
ATOM     74  C   UNL A   1      45.557  27.964  34.086  1.00  0.00     0.134 A 
ATOM     75  C   UNL A   1      44.072  26.178  34.672  1.00  0.00     0.134 A 
ATOM     76  F   UNL A   1      45.813  29.142  33.496  1.00  0.00    -0.206 F 
ATOM     77  C   UNL A   1      46.614  27.294  34.703  1.00  0.00     0.040 A 
ATOM     78  C   UNL A   1      45.115  25.510  35.313  1.00  0.00     0.040 A 
ATOM     79  F   UNL A   1      42.859  25.604  34.678  1.00  0.00    -0.206 F 
ATOM     80  C   UNL A   1      46.393  26.067  35.325  1.00  0.00     0.006 A 
ENDBRANCH  56  73
ENDBRANCH  30  31
ENDBRANCH  23  25
ENDBRANCH  22  23
ENDBRANCH  21  22
ENDBRANCH  20  21
ENDBRANCH  19  20
ENDBRANCH   1  19
TORSDOF 17
ENDMDL
MODEL 2
REMARK VINA RESULT:     -10.2      5.649     10.612
REMARK SMILES C[C@@H](C(=O)OCCOCCOC(=O)c1ccc(-c2c3nc(c(-c4c(F)cccc4F)c4ccc([nH]4)c(-c4c(F)cccc4F)c4nc(c(-c5c(F)cccc5F)c5ccc2[nH]5)C=C4)C=C3)cc1)[C@@H](C)C(=O)c1cccc(Cl)c1
REMARK SMILES IDX 7 1 6 2 5 3 3 4 4 5 2 6 1 7 68 8 69 9 70 10 71 11 72 12
REMARK SMILES IDX 73 13 78 14 74 15 76 16 75 17 77 18 8 19 9 20 10 21 11 22
REMARK SMILES IDX 12 23 13 24 14 25 15 26 67 27 16 28 66 29 17 30 18 31 19 32
REMARK SMILES IDX 60 33 20 34 65 35 59 36 61 37 21 38 64 39 58 40 57 41 22 43
REMARK SMILES IDX 48 44 31 45 47 46 32 47 35 48 46 49 62 50 33 51 34 52 45 54
REMARK SMILES IDX 63 55 36 56 23 57 24 58 29 59 25 60 26 61 28 62 30 63 27 64
REMARK SMILES IDX 49 65 50 66 55 67 51 68 52 69 54 70 56 71 53 72 37 73 38 74
REMARK SMILES IDX 43 75 39 76 40 77 42 78 44 79 41 80
REMARK H PARENT 61 42 35 53
REMARK Flexibility Score: inf
ROOT
ATOM      1  C   UNL A   1      36.896  21.569  24.835  1.00  0.00     0.202 C 
ENDROOT
BRANCH   1   2
ATOM      2  C   UNL A   1      35.896  22.417  25.630  1.00  0.00     0.261 C 
BRANCH   2   3
ATOM      3  O   UNL A   1      35.206  23.395  24.837  1.00  0.00    -0.463 OA
BRANCH   3   4
ATOM      4  C   UNL A   1      35.172  23.117  23.508  1.00  0.00     0.309 C 
ATOM      5  O   UNL A   1      36.114  23.316  22.751  1.00  0.00    -0.252 OA
BRANCH   4   6
ATOM      6  C   UNL A   1      33.822  22.579  23.024  1.00  0.00     0.106 C 
ATOM      7  C   UNL A   1      33.223  23.374  21.851  1.00  0.00     0.021 C 
BRANCH   6   8
ATOM      8  C   UNL A   1      32.826  22.487  24.209  1.00  0.00     0.072 C 
ATOM      9  C   UNL A   1      31.598  23.388  24.057  1.00  0.00     0.017 C 
BRANCH   8  10
ATOM     10  C   UNL A   1      32.333  21.111  24.700  1.00  0.00     0.166 C 
ATOM     11  O   UNL A   1      31.392  21.077  25.501  1.00  0.00    -0.294 OA
BRANCH  10  12
ATOM     12  C   UNL A   1      32.808  19.798  24.141  1.00  0.00     0.019 A 
ATOM     13  C   UNL A   1      32.167  19.326  22.982  1.00  0.00     0.012 A 
ATOM     14  C   UNL A   1      33.786  18.990  24.726  1.00  0.00     0.032 A 
ATOM     15  C   UNL A   1      32.496  18.086  22.427  1.00  0.00     0.002 A 
ATOM     16  C   UNL A   1      34.103  17.745  24.178  1.00  0.00     0.041 A 
ATOM     17  C   UNL A   1      33.467  17.291  23.029  1.00  0.00     0.020 A 
ATOM     18  Cl  UNL A   1      35.276  16.754  24.958  1.00  0.00    -0.084 Cl
ENDBRANCH  10  12
ENDBRANCH   8  10
ENDBRANCH   6   8
ENDBRANCH   4   6
ENDBRANCH   3   4
ENDBRANCH   2   3
ENDBRANCH   1   2
BRANCH   1  19
ATOM     19  O   UNL A   1      37.060  20.204  25.193  1.00  0.00    -0.374 OA
BRANCH  19  20
ATOM     20  C   UNL A   1      38.260  19.533  24.810  1.00  0.00     0.202 C 
BRANCH  20  21
ATOM     21  C   UNL A   1      39.297  19.222  25.898  1.00  0.00     0.261 C 
BRANCH  21  22
ATOM     22  O   UNL A   1      40.653  19.363  25.429  1.00  0.00    -0.460 OA
BRANCH  22  23
ATOM     23  C   UNL A   1      41.564  19.591  26.405  1.00  0.00     0.338 C 
ATOM     24  O   UNL A   1      42.427  18.824  26.810  1.00  0.00    -0.246 OA
BRANCH  23  25
ATOM     25  C   UNL A   1      41.522  20.999  26.831  1.00  0.00     0.060 A 
ATOM     26  C   UNL A   1      41.262  21.967  25.852  1.00  0.00     0.016 A 
ATOM     27  C   UNL A   1      41.861  21.376  28.132  1.00  0.00     0.016 A 
ATOM     28  C   UNL A   1      41.388  23.319  26.157  1.00  0.00     0.010 A 
ATOM     29  C   UNL A   1      41.999  22.736  28.433  1.00  0.00     0.010 A 
ATOM     30  C   UNL A   1      41.802  23.709  27.436  1.00  0.00    -0.014 A 
BRANCH  30  31
ATOM     31  C   UNL A   1      42.186  25.122  27.672  1.00  0.00     0.031 A 
ATOM     32  C   UNL A   1      43.526  25.603  27.189  1.00  0.00     0.074 A 
ATOM     33  C   UNL A   1      41.335  25.977  28.267  1.00  0.00     0.049 A 
ATOM     34  N   UNL A   1      44.070  26.789  27.294  1.00  0.00    -0.248 NA
ATOM     35  C   UNL A   1      44.365  24.616  26.491  1.00  0.00     0.031 C 
ATOM     36  C   UNL A   1      39.993  25.642  28.737  1.00  0.00     0.029 A 
ATOM     37  N   UNL A   1      41.481  27.305  28.576  1.00  0.00    -0.354 N 
ATOM     38  C   UNL A   1      45.313  26.689  26.681  1.00  0.00     0.074 A 
ATOM     39  C   UNL A   1      45.455  25.323  26.230  1.00  0.00     0.031 C 
ATOM     40  C   UNL A   1      39.438  26.737  29.284  1.00  0.00     0.029 A 
ATOM     41  C   UNL A   1      40.397  27.840  29.225  1.00  0.00     0.049 A 
ATOM     42  H   UNL A   1      42.286  27.826  28.353  1.00  0.00     0.167 HD
ATOM     43  C   UNL A   1      46.248  27.653  26.502  1.00  0.00     0.037 A 
ATOM     44  C   UNL A   1      40.208  29.075  29.730  1.00  0.00     0.037 A 
ATOM     45  C   UNL A   1      46.105  29.013  26.947  1.00  0.00     0.049 A 
ATOM     46  C   UNL A   1      41.292  30.109  29.580  1.00  0.00     0.074 A 
ATOM     47  C   UNL A   1      46.989  30.067  26.795  1.00  0.00     0.029 A 
ATOM     48  N   UNL A   1      45.009  29.506  27.637  1.00  0.00    -0.354 N 
ATOM     49  N   UNL A   1      42.454  30.010  28.980  1.00  0.00    -0.248 NA
ATOM     50  C   UNL A   1      41.038  31.427  30.180  1.00  0.00     0.031 C 
ATOM     51  C   UNL A   1      46.446  31.189  27.432  1.00  0.00     0.029 A 
ATOM     52  C   UNL A   1      45.205  30.843  27.941  1.00  0.00     0.049 A 
ATOM     53  H   UNL A   1      44.209  28.983  27.875  1.00  0.00     0.167 HD
ATOM     54  C   UNL A   1      43.055  31.256  29.105  1.00  0.00     0.074 A 
ATOM     55  C   UNL A   1      42.126  32.098  29.830  1.00  0.00     0.031 C 
ATOM     56  C   UNL A   1      44.267  31.668  28.658  1.00  0.00     0.037 A 
BRANCH  43  57
ATOM     57  C   UNL A   1      47.521  27.259  25.814  1.00  0.00     0.057 A 
ATOM     58  C   UNL A   1      47.686  27.392  24.430  1.00  0.00     0.134 A 
ATOM     59  C   UNL A   1      48.606  26.767  26.551  1.00  0.00     0.134 A 
ATOM     60  F   UNL A   1      46.678  27.842  23.665  1.00  0.00    -0.206 F 
ATOM     61  C   UNL A   1      48.878  27.032  23.800  1.00  0.00     0.040 A 
ATOM     62  C   UNL A   1      49.811  26.427  25.936  1.00  0.00     0.040 A 
ATOM     63  F   UNL A   1      48.514  26.619  27.881  1.00  0.00    -0.206 F 
ATOM     64  C   UNL A   1      49.947  26.554  24.554  1.00  0.00     0.006 A 
ENDBRANCH  43  57
BRANCH  44  65
ATOM     65  C   UNL A   1      38.946  29.404  30.436  1.00  0.00     0.057 A 
ATOM     66  C   UNL A   1      37.845  29.929  29.750  1.00  0.00     0.134 A 
ATOM     67  C   UNL A   1      38.817  29.220  31.818  1.00  0.00     0.134 A 
ATOM     68  F   UNL A   1      37.917  30.151  28.430  1.00  0.00    -0.206 F 
ATOM     69  C   UNL A   1      36.667  30.275  30.415  1.00  0.00     0.040 A 
ATOM     70  C   UNL A   1      37.639  29.539  32.492  1.00  0.00     0.040 A 
ATOM     71  F   UNL A   1      39.838  28.720  32.533  1.00  0.00    -0.206 F 
ATOM     72  C   UNL A   1      36.561  30.075  31.791  1.00  0.00     0.006 A 
ENDBRANCH  44  65
BRANCH  56  73
ATOM     73  C   UNL A   1      44.644  33.098  28.910  1.00  0.00     0.057 A 
ATOM     74  C   UNL A   1      45.405  33.476  30.023  1.00  0.00     0.134 A 
ATOM     75  C   UNL A   1      44.276  34.103  28.005  1.00  0.00     0.134 A 
ATOM     76  F   UNL A   1      45.778  32.563  30.933  1.00  0.00    -0.206 F 
ATOM     77  C   UNL A   1      45.770  34.806  30.238  1.00  0.00     0.040 A 
ATOM     78  C   UNL A   1      44.655  35.432  28.196  1.00  0.00     0.040 A 
ATOM     79  F   UNL A   1      43.554  33.805  26.914  1.00  0.00    -0.206 F 
ATOM     80  C   UNL A   1      45.401  35.787  29.319  1.00  0.00     0.006 A 
ENDBRANCH  56  73
ENDBRANCH  30  31
ENDBRANCH  23  25
ENDBRANCH  22  23
ENDBRANCH  21  22
ENDBRANCH  20  21
ENDBRANCH  19  20
ENDBRANCH   1  19
TORSDOF 17
ENDMDL
MODEL 3
REMARK VINA RESULT:     -10.2      4.566      9.757
REMARK SMILES C[C@@H](C(=O)OCCOCCOC(=O)c1ccc(-c2c3nc(c(-c4c(F)cccc4F)c4ccc([nH]4)c(-c4c(F)cccc4F)c4nc(c(-c5c(F)cccc5F)c5ccc2[nH]5)C=C4)C=C3)cc1)[C@@H](C)C(=O)c1cccc(Cl)c1
REMARK SMILES IDX 7 1 6 2 5 3 3 4 4 5 2 6 1 7 68 8 69 9 70 10 71 11 72 12
REMARK SMILES IDX 73 13 78 14 74 15 76 16 75 17 77 18 8 19 9 20 10 21 11 22
REMARK SMILES IDX 12 23 13 24 14 25 15 26 67 27 16 28 66 29 17 30 18 31 19 32
REMARK SMILES IDX 60 33 20 34 65 35 59 36 61 37 21 38 64 39 58 40 57 41 22 43
REMARK SMILES IDX 48 44 31 45 47 46 32 47 35 48 46 49 62 50 33 51 34 52 45 54
REMARK SMILES IDX 63 55 36 56 23 57 24 58 29 59 25 60 26 61 28 62 30 63 27 64
REMARK SMILES IDX 49 65 50 66 55 67 51 68 52 69 54 70 56 71 53 72 37 73 38 74
REMARK SMILES IDX 43 75 39 76 40 77 42 78 44 79 41 80
REMARK H PARENT 61 42 35 53
REMARK Flexibility Score: inf
ROOT
ATOM      1  C   UNL A   1      37.507  22.197  25.301  1.00  0.00     0.202 C 
ENDROOT
BRANCH   1   2
ATOM      2  C   UNL A   1      36.434  23.191  25.759  1.00  0.00     0.261 C 
BRANCH   2   3
ATOM      3  O   UNL A   1      35.989  24.079  24.723  1.00  0.00    -0.463 OA
BRANCH   3   4
ATOM      4  C   UNL A   1      35.338  23.468  23.699  1.00  0.00     0.309 C 
ATOM      5  O   UNL A   1      35.875  23.167  22.641  1.00  0.00    -0.252 OA
BRANCH   4   6
ATOM      6  C   UNL A   1      33.848  23.236  23.966  1.00  0.00     0.106 C 
ATOM      7  C   UNL A   1      33.417  21.764  23.835  1.00  0.00     0.021 C 
BRANCH   6   8
ATOM      8  C   UNL A   1      32.991  24.156  23.059  1.00  0.00     0.072 C 
ATOM      9  C   UNL A   1      31.493  24.116  23.375  1.00  0.00     0.017 C 
BRANCH   8  10
ATOM     10  C   UNL A   1      33.383  25.635  22.867  1.00  0.00     0.166 C 
ATOM     11  O   UNL A   1      33.865  25.977  21.780  1.00  0.00    -0.294 OA
BRANCH  10  12
ATOM     12  C   UNL A   1      33.064  26.726  23.853  1.00  0.00     0.019 A 
ATOM     13  C   UNL A   1      33.734  26.687  25.088  1.00  0.00     0.012 A 
ATOM     14  C   UNL A   1      32.107  27.723  23.654  1.00  0.00     0.032 A 
ATOM     15  C   UNL A   1      33.455  27.620  26.091  1.00  0.00     0.002 A 
ATOM     16  C   UNL A   1      31.820  28.645  24.663  1.00  0.00     0.041 A 
ATOM     17  C   UNL A   1      32.492  28.603  25.879  1.00  0.00     0.020 A 
ATOM     18  Cl  UNL A   1      30.596  29.830  24.402  1.00  0.00    -0.084 Cl
ENDBRANCH  10  12
ENDBRANCH   8  10
ENDBRANCH   6   8
ENDBRANCH   4   6
ENDBRANCH   3   4
ENDBRANCH   2   3
ENDBRANCH   1   2
BRANCH   1  19
ATOM     19  O   UNL A   1      37.199  20.809  25.326  1.00  0.00    -0.374 OA
BRANCH  19  20
ATOM     20  C   UNL A   1      38.170  19.881  24.845  1.00  0.00     0.202 C 
BRANCH  20  21
ATOM     21  C   UNL A   1      39.164  19.284  25.849  1.00  0.00     0.261 C 
BRANCH  21  22
ATOM     22  O   UNL A   1      40.531  19.379  25.401  1.00  0.00    -0.460 OA
BRANCH  22  23
ATOM     23  C   UNL A   1      41.433  19.590  26.390  1.00  0.00     0.338 C 
ATOM     24  O   UNL A   1      42.281  18.810  26.801  1.00  0.00    -0.246 OA
BRANCH  23  25
ATOM     25  C   UNL A   1      41.403  20.996  26.823  1.00  0.00     0.060 A 
ATOM     26  C   UNL A   1      41.156  21.971  25.849  1.00  0.00     0.016 A 
ATOM     27  C   UNL A   1      41.742  21.362  28.127  1.00  0.00     0.016 A 
ATOM     28  C   UNL A   1      41.294  23.321  26.161  1.00  0.00     0.010 A 
ATOM     29  C   UNL A   1      41.893  22.719  28.436  1.00  0.00     0.010 A 
ATOM     30  C   UNL A   1      41.708  23.700  27.444  1.00  0.00    -0.014 A 
BRANCH  30  31
ATOM     31  C   UNL A   1      42.105  25.108  27.689  1.00  0.00     0.031 A 
ATOM     32  C   UNL A   1      43.459  25.573  27.230  1.00  0.00     0.074 A 
ATOM     33  C   UNL A   1      41.254  25.972  28.270  1.00  0.00     0.049 A 
ATOM     34  N   UNL A   1      44.016  26.752  27.347  1.00  0.00    -0.248 NA
ATOM     35  C   UNL A   1      44.298  24.576  26.546  1.00  0.00     0.031 C 
ATOM     36  C   UNL A   1      39.900  25.654  28.716  1.00  0.00     0.029 A 
ATOM     37  N   UNL A   1      41.411  27.298  28.583  1.00  0.00    -0.354 N 
ATOM     38  C   UNL A   1      45.268  26.638  26.756  1.00  0.00     0.074 A 
ATOM     39  C   UNL A   1      45.401  25.270  26.305  1.00  0.00     0.031 C 
ATOM     40  C   UNL A   1      39.349  26.755  29.255  1.00  0.00     0.029 A 
ATOM     41  C   UNL A   1      40.322  27.845  29.214  1.00  0.00     0.049 A 
ATOM     42  H   UNL A   1      42.227  27.809  28.376  1.00  0.00     0.167 HD
ATOM     43  C   UNL A   1      46.218  27.590  26.595  1.00  0.00     0.037 A 
ATOM     44  C   UNL A   1      40.140  29.082  29.718  1.00  0.00     0.037 A 
ATOM     45  C   UNL A   1      46.084  28.951  27.039  1.00  0.00     0.049 A 
ATOM     46  C   UNL A   1      41.239  30.102  29.589  1.00  0.00     0.074 A 
ATOM     47  C   UNL A   1      46.983  29.995  26.906  1.00  0.00     0.029 A 
ATOM     48  N   UNL A   1      44.982  29.457  27.711  1.00  0.00    -0.354 N 
ATOM     49  N   UNL A   1      42.410  29.991  29.010  1.00  0.00    -0.248 NA
ATOM     50  C   UNL A   1      40.990  31.423  30.186  1.00  0.00     0.031 C 
ATOM     51  C   UNL A   1      46.443  31.122  27.534  1.00  0.00     0.029 A 
ATOM     52  C   UNL A   1      45.189  30.790  28.021  1.00  0.00     0.049 A 
ATOM     53  H   UNL A   1      44.172  28.943  27.934  1.00  0.00     0.167 HD
ATOM     54  C   UNL A   1      43.024  31.229  29.147  1.00  0.00     0.074 A 
ATOM     55  C   UNL A   1      42.093  32.081  29.857  1.00  0.00     0.031 C 
ATOM     56  C   UNL A   1      44.249  31.627  28.722  1.00  0.00     0.037 A 
BRANCH  43  57
ATOM     57  C   UNL A   1      47.498  27.182  25.930  1.00  0.00     0.057 A 
ATOM     58  C   UNL A   1      47.681  27.293  24.546  1.00  0.00     0.134 A 
ATOM     59  C   UNL A   1      48.572  26.697  26.687  1.00  0.00     0.134 A 
ATOM     60  F   UNL A   1      46.685  27.735  23.762  1.00  0.00    -0.206 F 
ATOM     61  C   UNL A   1      48.879  26.920  23.936  1.00  0.00     0.040 A 
ATOM     62  C   UNL A   1      49.783  26.343  26.092  1.00  0.00     0.040 A 
ATOM     63  F   UNL A   1      48.463  26.569  28.018  1.00  0.00    -0.206 F 
ATOM     64  C   UNL A   1      49.937  26.450  24.711  1.00  0.00     0.006 A 
ENDBRANCH  43  57
BRANCH  44  65
ATOM     65  C   UNL A   1      38.869  29.425  30.402  1.00  0.00     0.057 A 
ATOM     66  C   UNL A   1      37.811  30.025  29.710  1.00  0.00     0.134 A 
ATOM     67  C   UNL A   1      38.691  29.181  31.769  1.00  0.00     0.134 A 
ATOM     68  F   UNL A   1      37.932  30.307  28.405  1.00  0.00    -0.206 F 
ATOM     69  C   UNL A   1      36.626  30.384  30.357  1.00  0.00     0.040 A 
ATOM     70  C   UNL A   1      37.504  29.513  32.423  1.00  0.00     0.040 A 
ATOM     71  F   UNL A   1      39.669  28.608  32.488  1.00  0.00    -0.206 F 
ATOM     72  C   UNL A   1      36.470  30.123  31.717  1.00  0.00     0.006 A 
ENDBRANCH  44  65
BRANCH  56  73
ATOM     73  C   UNL A   1      44.638  33.051  28.983  1.00  0.00     0.057 A 
ATOM     74  C   UNL A   1      45.310  33.431  30.152  1.00  0.00     0.134 A 
ATOM     75  C   UNL A   1      44.376  34.048  28.034  1.00  0.00     0.134 A 
ATOM     76  F   UNL A   1      45.580  32.526  31.105  1.00  0.00    -0.206 F 
ATOM     77  C   UNL A   1      45.688  34.756  30.376  1.00  0.00     0.040 A 
ATOM     78  C   UNL A   1      44.770  35.371  28.235  1.00  0.00     0.040 A 
ATOM     79  F   UNL A   1      43.743  33.748  26.889  1.00  0.00    -0.206 F 
ATOM     80  C   UNL A   1      45.425  35.728  29.413  1.00  0.00     0.006 A 
ENDBRANCH  56  73
ENDBRANCH  30  31
ENDBRANCH  23  25
ENDBRANCH  22  23
ENDBRANCH  21  22
ENDBRANCH  20  21
ENDBRANCH  19  20
ENDBRANCH   1  19
TORSDOF 17
ENDMDL
