MODEL 1
REMARK VINA RESULT:     -11.8      0.000      0.000
REMARK SMILES CCN(CC)c1ccc([C@@H]2c3[nH]c4ccccc4c3C[C@@H](C(=O)OCCOCCOC(=O)c3ccc(-c4c5nc(c(-c6c(F)cccc6F)c6ccc([nH]6)c(-c6c(F)cccc6F)c6nc(c(-c7c(F)cccc7F)c7ccc4[nH]7)C=C6)C=C5)cc3)N2C(C)=O)cc1
REMARK SMILES IDX 26 1 25 2 24 3 22 4 23 5 21 6 10 7 11 8 87 9 12 10 19 11
REMARK SMILES IDX 13 12 18 14 20 15 14 16 17 17 15 18 16 19 9 20 6 21 7 22
REMARK SMILES IDX 92 23 8 24 91 25 3 26 2 27 1 28 4 29 5 30 88 31 89 32 90 33
REMARK SMILES IDX 27 34 28 35 29 36 30 37 31 38 32 39 33 40 34 41 86 42 35 43
REMARK SMILES IDX 85 44 36 45 37 46 38 47 79 48 39 49 84 50 78 51 80 52 40 53
REMARK SMILES IDX 83 54 77 55 76 56 41 58 67 59 50 60 66 61 51 62 54 63 65 64
REMARK SMILES IDX 81 65 52 66 53 67 64 69 82 70 55 71 42 72 43 73 48 74 44 75
REMARK SMILES IDX 45 76 47 77 49 78 46 79 68 80 69 81 74 82 70 83 71 84 73 85
REMARK SMILES IDX 75 86 72 87 56 88 57 89 62 90 58 91 59 92 61 93 63 94 60 95
REMARK H PARENT 12 13 80 57 54 68
REMARK Flexibility Score: inf
ROOT
ATOM      1  C   UNL A   1      33.951  22.205  24.416  1.00  0.00     0.202 C 
ENDROOT
BRANCH   1   2
ATOM      2  C   UNL A   1      32.579  22.502  23.766  1.00  0.00     0.261 C 
BRANCH   2   3
ATOM      3  O   UNL A   1      32.042  23.812  24.109  1.00  0.00    -0.462 OA
BRANCH   3   4
ATOM      4  C   UNL A   1      32.491  24.656  25.097  1.00  0.00     0.329 C 
ATOM      5  O   UNL A   1      32.268  24.484  26.288  1.00  0.00    -0.250 OA
BRANCH   4   6
ATOM      6  C   UNL A   1      33.538  25.747  24.497  1.00  0.00     0.200 C 
ATOM      7  C   UNL A   1      31.676  27.301  24.380  1.00  0.00     0.163 C 
ATOM      8  C   UNL A   1      32.164  27.778  25.739  1.00  0.00     0.047 A 
ATOM      9  N   UNL A   1      32.912  26.912  23.727  1.00  0.00    -0.316 N 
ATOM     10  N   UNL A   1      31.687  28.821  26.472  1.00  0.00    -0.356 N 
ATOM     11  C   UNL A   1      33.400  27.424  26.303  1.00  0.00    -0.014 A 
ATOM     12  C   UNL A   1      32.784  29.471  27.000  1.00  0.00     0.046 A 
ATOM     13  H   UNL A   1      30.742  29.065  26.600  1.00  0.00     0.166 HD
ATOM     14  C   UNL A   1      33.832  28.553  27.031  1.00  0.00     0.003 A 
ATOM     15  C   UNL A   1      34.277  26.339  25.723  1.00  0.00     0.075 C 
ATOM     16  C   UNL A   1      32.962  30.815  27.313  1.00  0.00     0.026 A 
ATOM     17  C   UNL A   1      35.105  28.953  27.464  1.00  0.00     0.010 A 
ATOM     18  C   UNL A   1      34.267  31.225  27.597  1.00  0.00     0.002 A 
ATOM     19  C   UNL A   1      35.318  30.311  27.689  1.00  0.00     0.001 A 
BRANCH   7  20
ATOM     20  C   UNL A   1      30.711  28.059  23.493  1.00  0.00    -0.019 A 
ATOM     21  C   UNL A   1      28.873  29.818  22.211  1.00  0.00     0.037 A 
ATOM     22  C   UNL A   1      30.211  29.728  21.823  1.00  0.00     0.026 A 
ATOM     23  C   UNL A   1      28.431  28.858  23.126  1.00  0.00     0.026 A 
ATOM     24  C   UNL A   1      31.111  28.859  22.436  1.00  0.00     0.008 A 
ATOM     25  C   UNL A   1      29.330  27.985  23.756  1.00  0.00     0.008 A 
BRANCH  21  26
ATOM     26  N   UNL A   1      28.042  30.843  21.780  1.00  0.00    -0.372 N 
BRANCH  26  27
ATOM     27  C   UNL A   1      27.615  31.839  22.779  1.00  0.00     0.113 C 
ATOM     28  C   UNL A   1      28.785  32.494  23.501  1.00  0.00     0.027 C 
ENDBRANCH  26  27
BRANCH  26  29
ATOM     29  C   UNL A   1      27.941  31.220  20.363  1.00  0.00     0.113 C 
ATOM     30  C   UNL A   1      27.653  32.698  20.123  1.00  0.00     0.027 C 
ENDBRANCH  26  29
ENDBRANCH  21  26
ENDBRANCH   7  20
BRANCH   9  31
ATOM     31  C   UNL A   1      33.642  28.055  23.303  1.00  0.00     0.221 C 
ATOM     32  C   UNL A   1      34.403  28.054  22.023  1.00  0.00     0.114 C 
ATOM     33  O   UNL A   1      33.680  29.116  23.940  1.00  0.00    -0.275 OA
ENDBRANCH   9  31
ENDBRANCH   4   6
ENDBRANCH   3   4
ENDBRANCH   2   3
ENDBRANCH   1   2
BRANCH   1  34
ATOM     34  O   UNL A   1      34.069  20.871  24.925  1.00  0.00    -0.374 OA
BRANCH  34  35
ATOM     35  C   UNL A   1      35.404  20.384  24.999  1.00  0.00     0.202 C 
BRANCH  35  36
ATOM     36  C   UNL A   1      36.351  21.325  25.750  1.00  0.00     0.261 C 
BRANCH  36  37
ATOM     37  O   UNL A   1      37.586  21.546  25.040  1.00  0.00    -0.460 OA
BRANCH  37  38
ATOM     38  C   UNL A   1      38.693  21.237  25.747  1.00  0.00     0.338 C 
ATOM     39  O   UNL A   1      39.287  20.161  25.776  1.00  0.00    -0.246 OA
BRANCH  38  40
ATOM     40  C   UNL A   1      39.220  22.414  26.448  1.00  0.00     0.060 A 
ATOM     41  C   UNL A   1      38.670  23.656  26.121  1.00  0.00     0.016 A 
ATOM     42  C   UNL A   1      40.337  22.331  27.283  1.00  0.00     0.016 A 
ATOM     43  C   UNL A   1      39.272  24.828  26.581  1.00  0.00     0.010 A 
ATOM     44  C   UNL A   1      40.910  23.506  27.784  1.00  0.00     0.010 A 
ATOM     45  C   UNL A   1      40.416  24.764  27.390  1.00  0.00    -0.014 A 
BRANCH  45  46
ATOM     46  C   UNL A   1      41.201  26.000  27.659  1.00  0.00     0.031 A 
ATOM     47  C   UNL A   1      40.563  27.113  28.452  1.00  0.00     0.074 A 
ATOM     48  C   UNL A   1      42.478  26.122  27.251  1.00  0.00     0.049 A 
ATOM     49  N   UNL A   1      41.037  28.292  28.767  1.00  0.00    -0.248 NA
ATOM     50  C   UNL A   1      39.201  26.864  28.954  1.00  0.00     0.031 C 
ATOM     51  C   UNL A   1      43.230  25.110  26.511  1.00  0.00     0.029 A 
ATOM     52  N   UNL A   1      43.368  27.158  27.402  1.00  0.00    -0.354 N 
ATOM     53  C   UNL A   1      40.029  28.928  29.483  1.00  0.00     0.074 A 
ATOM     54  C   UNL A   1      38.904  28.021  29.524  1.00  0.00     0.031 C 
ATOM     55  C   UNL A   1      44.470  25.572  26.277  1.00  0.00     0.029 A 
ATOM     56  C   UNL A   1      44.585  26.930  26.808  1.00  0.00     0.049 A 
ATOM     57  H   UNL A   1      43.153  27.985  27.891  1.00  0.00     0.167 HD
ATOM     58  C   UNL A   1      40.041  30.150  30.069  1.00  0.00     0.037 A 
ATOM     59  C   UNL A   1      45.660  27.734  26.683  1.00  0.00     0.037 A 
ATOM     60  C   UNL A   1      41.167  31.046  30.045  1.00  0.00     0.049 A 
ATOM     61  C   UNL A   1      45.625  29.117  27.279  1.00  0.00     0.074 A 
ATOM     62  C   UNL A   1      41.283  32.297  30.625  1.00  0.00     0.029 A 
ATOM     63  N   UNL A   1      42.369  30.788  29.405  1.00  0.00    -0.354 N 
ATOM     64  N   UNL A   1      44.673  29.701  27.965  1.00  0.00    -0.248 NA
ATOM     65  C   UNL A   1      46.819  29.954  27.084  1.00  0.00     0.031 C 
ATOM     66  C   UNL A   1      42.535  32.821  30.287  1.00  0.00     0.029 A 
ATOM     67  C   UNL A   1      43.224  31.869  29.553  1.00  0.00     0.049 A 
ATOM     68  H   UNL A   1      42.585  29.960  28.918  1.00  0.00     0.167 HD
ATOM     69  C   UNL A   1      45.164  30.954  28.313  1.00  0.00     0.074 A 
ATOM     70  C   UNL A   1      46.503  31.044  27.771  1.00  0.00     0.031 C 
ATOM     71  C   UNL A   1      44.561  31.940  29.023  1.00  0.00     0.037 A 
BRANCH  58  72
ATOM     72  C   UNL A   1      38.787  30.601  30.761  1.00  0.00     0.057 A 
ATOM     73  C   UNL A   1      38.521  30.288  32.101  1.00  0.00     0.134 A 
ATOM     74  C   UNL A   1      37.846  31.388  30.084  1.00  0.00     0.134 A 
ATOM     75  F   UNL A   1      39.372  29.527  32.804  1.00  0.00    -0.206 F 
ATOM     76  C   UNL A   1      37.352  30.719  32.733  1.00  0.00     0.040 A 
ATOM     77  C   UNL A   1      36.690  31.851  30.715  1.00  0.00     0.040 A 
ATOM     78  F   UNL A   1      38.040  31.731  28.802  1.00  0.00    -0.206 F 
ATOM     79  C   UNL A   1      36.437  31.510  32.042  1.00  0.00     0.006 A 
ENDBRANCH  58  72
BRANCH  59  80
ATOM     80  C   UNL A   1      46.860  27.263  25.944  1.00  0.00     0.057 A 
ATOM     81  C   UNL A   1      46.994  27.465  24.565  1.00  0.00     0.134 A 
ATOM     82  C   UNL A   1      47.892  26.573  26.594  1.00  0.00     0.134 A 
ATOM     83  F   UNL A   1      46.028  28.096  23.878  1.00  0.00    -0.206 F 
ATOM     84  C   UNL A   1      48.096  26.983  23.856  1.00  0.00     0.040 A 
ATOM     85  C   UNL A   1      49.014  26.113  25.904  1.00  0.00     0.040 A 
ATOM     86  F   UNL A   1      47.826  26.343  27.913  1.00  0.00    -0.206 F 
ATOM     87  C   UNL A   1      49.114  26.310  24.528  1.00  0.00     0.006 A 
ENDBRANCH  59  80
BRANCH  71  88
ATOM     88  C   UNL A   1      45.360  33.180  29.308  1.00  0.00     0.057 A 
ATOM     89  C   UNL A   1      45.285  34.320  28.499  1.00  0.00     0.134 A 
ATOM     90  C   UNL A   1      46.177  33.250  30.445  1.00  0.00     0.134 A 
ATOM     91  F   UNL A   1      44.530  34.318  27.389  1.00  0.00    -0.206 F 
ATOM     92  C   UNL A   1      46.011  35.476  28.796  1.00  0.00     0.040 A 
ATOM     93  C   UNL A   1      46.882  34.409  30.770  1.00  0.00     0.040 A 
ATOM     94  F   UNL A   1      46.286  32.198  31.272  1.00  0.00    -0.206 F 
ATOM     95  C   UNL A   1      46.806  35.524  29.940  1.00  0.00     0.006 A 
ENDBRANCH  71  88
ENDBRANCH  45  46
ENDBRANCH  38  40
ENDBRANCH  37  38
ENDBRANCH  36  37
ENDBRANCH  35  36
ENDBRANCH  34  35
ENDBRANCH   1  34
TORSDOF 19
ENDMDL
MODEL 2
REMARK VINA RESULT:     -11.8      1.500      7.023
REMARK SMILES CCN(CC)c1ccc([C@@H]2c3[nH]c4ccccc4c3C[C@@H](C(=O)OCCOCCOC(=O)c3ccc(-c4c5nc(c(-c6c(F)cccc6F)c6ccc([nH]6)c(-c6c(F)cccc6F)c6nc(c(-c7c(F)cccc7F)c7ccc4[nH]7)C=C6)C=C5)cc3)N2C(C)=O)cc1
REMARK SMILES IDX 26 1 25 2 24 3 22 4 23 5 21 6 10 7 11 8 87 9 12 10 19 11
REMARK SMILES IDX 13 12 18 14 20 15 14 16 17 17 15 18 16 19 9 20 6 21 7 22
REMARK SMILES IDX 92 23 8 24 91 25 3 26 2 27 1 28 4 29 5 30 88 31 89 32 90 33
REMARK SMILES IDX 27 34 28 35 29 36 30 37 31 38 32 39 33 40 34 41 86 42 35 43
REMARK SMILES IDX 85 44 36 45 37 46 38 47 79 48 39 49 84 50 78 51 80 52 40 53
REMARK SMILES IDX 83 54 77 55 76 56 41 58 67 59 50 60 66 61 51 62 54 63 65 64
REMARK SMILES IDX 81 65 52 66 53 67 64 69 82 70 55 71 42 72 43 73 48 74 44 75
REMARK SMILES IDX 45 76 47 77 49 78 46 79 68 80 69 81 74 82 70 83 71 84 73 85
REMARK SMILES IDX 75 86 72 87 56 88 57 89 62 90 58 91 59 92 61 93 63 94 60 95
REMARK H PARENT 12 13 80 57 54 68
REMARK Flexibility Score: inf
ROOT
ATOM      1  C   UNL A   1      34.568  23.868  25.478  1.00  0.00     0.202 C 
ENDROOT
BRANCH   1   2
ATOM      2  C   UNL A   1      34.551  23.914  23.932  1.00  0.00     0.261 C 
BRANCH   2   3
ATOM      3  O   UNL A   1      34.422  25.259  23.390  1.00  0.00    -0.462 OA
BRANCH   3   4
ATOM      4  C   UNL A   1      33.305  25.813  22.810  1.00  0.00     0.329 C 
ATOM      5  O   UNL A   1      33.252  26.159  21.638  1.00  0.00    -0.250 OA
BRANCH   4   6
ATOM      6  C   UNL A   1      32.025  25.719  23.809  1.00  0.00     0.200 C 
ATOM      7  C   UNL A   1      32.680  27.893  24.670  1.00  0.00     0.163 C 
ATOM      8  C   UNL A   1      31.682  28.442  23.662  1.00  0.00     0.047 A 
ATOM      9  N   UNL A   1      32.076  26.626  25.041  1.00  0.00    -0.316 N 
ATOM     10  N   UNL A   1      31.301  29.737  23.494  1.00  0.00    -0.356 N 
ATOM     11  C   UNL A   1      30.751  27.657  22.963  1.00  0.00    -0.014 A 
ATOM     12  C   UNL A   1      29.937  29.727  23.287  1.00  0.00     0.046 A 
ATOM     13  H   UNL A   1      31.886  30.530  23.517  1.00  0.00     0.166 HD
ATOM     14  C   UNL A   1      29.601  28.460  22.813  1.00  0.00     0.003 A 
ATOM     15  C   UNL A   1      30.800  26.146  22.964  1.00  0.00     0.075 C 
ATOM     16  C   UNL A   1      28.975  30.679  23.611  1.00  0.00     0.026 A 
ATOM     17  C   UNL A   1      28.259  28.132  22.573  1.00  0.00     0.010 A 
ATOM     18  C   UNL A   1      27.640  30.282  23.507  1.00  0.00     0.002 A 
ATOM     19  C   UNL A   1      27.284  29.039  22.981  1.00  0.00     0.001 A 
BRANCH   7  20
ATOM     20  C   UNL A   1      33.255  28.676  25.831  1.00  0.00    -0.019 A 
ATOM     21  C   UNL A   1      34.697  30.291  27.682  1.00  0.00     0.037 A 
ATOM     22  C   UNL A   1      33.467  30.684  27.153  1.00  0.00     0.026 A 
ATOM     23  C   UNL A   1      35.092  28.977  27.414  1.00  0.00     0.026 A 
ATOM     24  C   UNL A   1      32.749  29.892  26.259  1.00  0.00     0.008 A 
ATOM     25  C   UNL A   1      34.382  28.175  26.509  1.00  0.00     0.008 A 
BRANCH  21  26
ATOM     26  N   UNL A   1      35.525  31.168  28.369  1.00  0.00    -0.372 N 
BRANCH  26  27
ATOM     27  C   UNL A   1      35.021  32.533  28.609  1.00  0.00     0.113 C 
ATOM     28  C   UNL A   1      36.136  33.565  28.715  1.00  0.00     0.027 C 
ENDBRANCH  26  27
BRANCH  26  29
ATOM     29  C   UNL A   1      36.627  30.695  29.219  1.00  0.00     0.113 C 
ATOM     30  C   UNL A   1      36.196  30.211  30.600  1.00  0.00     0.027 C 
ENDBRANCH  26  29
ENDBRANCH  21  26
ENDBRANCH   7  20
BRANCH   9  31
ATOM     31  C   UNL A   1      30.975  26.825  25.916  1.00  0.00     0.221 C 
ATOM     32  C   UNL A   1      29.707  26.063  25.749  1.00  0.00     0.114 C 
ATOM     33  O   UNL A   1      30.997  27.613  26.871  1.00  0.00    -0.275 OA
ENDBRANCH   9  31
ENDBRANCH   4   6
ENDBRANCH   3   4
ENDBRANCH   2   3
ENDBRANCH   1   2
BRANCH   1  34
ATOM     34  O   UNL A   1      35.716  23.206  26.021  1.00  0.00    -0.374 OA
BRANCH  34  35
ATOM     35  C   UNL A   1      35.723  21.794  25.843  1.00  0.00     0.202 C 
BRANCH  35  36
ATOM     36  C   UNL A   1      37.033  21.265  25.253  1.00  0.00     0.261 C 
BRANCH  36  37
ATOM     37  O   UNL A   1      38.092  22.242  25.297  1.00  0.00    -0.460 OA
BRANCH  37  38
ATOM     38  C   UNL A   1      39.124  21.904  26.097  1.00  0.00     0.338 C 
ATOM     39  O   UNL A   1      39.667  20.804  26.194  1.00  0.00    -0.246 OA
BRANCH  38  40
ATOM     40  C   UNL A   1      39.645  23.073  26.815  1.00  0.00     0.060 A 
ATOM     41  C   UNL A   1      39.093  24.318  26.501  1.00  0.00     0.016 A 
ATOM     42  C   UNL A   1      40.758  22.982  27.654  1.00  0.00     0.016 A 
ATOM     43  C   UNL A   1      39.690  25.484  26.979  1.00  0.00     0.010 A 
ATOM     44  C   UNL A   1      41.326  24.152  28.173  1.00  0.00     0.010 A 
ATOM     45  C   UNL A   1      40.831  25.414  27.792  1.00  0.00    -0.014 A 
BRANCH  45  46
ATOM     46  C   UNL A   1      41.611  26.648  28.081  1.00  0.00     0.031 A 
ATOM     47  C   UNL A   1      42.992  26.796  27.491  1.00  0.00     0.074 A 
ATOM     48  C   UNL A   1      41.091  27.650  28.814  1.00  0.00     0.049 A 
ATOM     49  N   UNL A   1      43.866  27.757  27.644  1.00  0.00    -0.248 NA
ATOM     50  C   UNL A   1      43.450  25.705  26.615  1.00  0.00     0.031 C 
ATOM     51  C   UNL A   1      39.755  27.658  29.409  1.00  0.00     0.029 A 
ATOM     52  N   UNL A   1      41.629  28.859  29.182  1.00  0.00    -0.354 N 
ATOM     53  C   UNL A   1      44.980  27.380  26.902  1.00  0.00     0.074 A 
ATOM     54  C   UNL A   1      44.687  26.084  26.331  1.00  0.00     0.031 C 
ATOM     55  C   UNL A   1      39.577  28.817  30.065  1.00  0.00     0.029 A 
ATOM     56  C   UNL A   1      40.801  29.613  29.977  1.00  0.00     0.049 A 
ATOM     57  H   UNL A   1      42.525  29.157  28.903  1.00  0.00     0.167 HD
ATOM     58  C   UNL A   1      46.136  28.055  26.699  1.00  0.00     0.037 A 
ATOM     59  C   UNL A   1      41.013  30.797  30.585  1.00  0.00     0.037 A 
ATOM     60  C   UNL A   1      46.422  29.353  27.251  1.00  0.00     0.049 A 
ATOM     61  C   UNL A   1      42.335  31.497  30.404  1.00  0.00     0.074 A 
ATOM     62  C   UNL A   1      47.558  30.127  27.088  1.00  0.00     0.029 A 
ATOM     63  N   UNL A   1      45.567  30.067  28.076  1.00  0.00    -0.354 N 
ATOM     64  N   UNL A   1      43.373  31.136  29.690  1.00  0.00    -0.248 NA
ATOM     65  C   UNL A   1      42.514  32.772  31.116  1.00  0.00     0.031 C 
ATOM     66  C   UNL A   1      47.414  31.283  27.860  1.00  0.00     0.029 A 
ATOM     67  C   UNL A   1      46.161  31.261  28.451  1.00  0.00     0.049 A 
ATOM     68  H   UNL A   1      44.670  29.770  28.353  1.00  0.00     0.167 HD
ATOM     69  C   UNL A   1      44.311  32.153  29.836  1.00  0.00     0.074 A 
ATOM     70  C   UNL A   1      43.715  33.150  30.701  1.00  0.00     0.031 C 
ATOM     71  C   UNL A   1      45.552  32.253  29.298  1.00  0.00     0.037 A 
BRANCH  58  72
ATOM     72  C   UNL A   1      47.193  27.387  25.867  1.00  0.00     0.057 A 
ATOM     73  C   UNL A   1      47.280  27.575  24.480  1.00  0.00     0.134 A 
ATOM     74  C   UNL A   1      48.159  26.569  26.466  1.00  0.00     0.134 A 
ATOM     75  F   UNL A   1      46.380  28.335  23.839  1.00  0.00    -0.206 F 
ATOM     76  C   UNL A   1      48.272  26.952  23.719  1.00  0.00     0.040 A 
ATOM     77  C   UNL A   1      49.173  25.966  25.721  1.00  0.00     0.040 A 
ATOM     78  F   UNL A   1      48.140  26.351  27.790  1.00  0.00    -0.206 F 
ATOM     79  C   UNL A   1      49.227  26.152  24.341  1.00  0.00     0.006 A 
ENDBRANCH  58  72
BRANCH  59  80
ATOM     80  C   UNL A   1      39.956  31.395  31.442  1.00  0.00     0.057 A 
ATOM     81  C   UNL A   1      39.160  32.453  30.988  1.00  0.00     0.134 A 
ATOM     82  C   UNL A   1      39.737  30.942  32.750  1.00  0.00     0.134 A 
ATOM     83  F   UNL A   1      39.339  32.950  29.754  1.00  0.00    -0.206 F 
ATOM     84  C   UNL A   1      38.199  33.051  31.805  1.00  0.00     0.040 A 
ATOM     85  C   UNL A   1      38.759  31.510  33.567  1.00  0.00     0.040 A 
ATOM     86  F   UNL A   1      40.467  29.934  33.249  1.00  0.00    -0.206 F 
ATOM     87  C   UNL A   1      37.992  32.575  33.098  1.00  0.00     0.006 A 
ENDBRANCH  59  80
BRANCH  71  88
ATOM     88  C   UNL A   1      46.331  33.508  29.577  1.00  0.00     0.057 A 
ATOM     89  C   UNL A   1      47.156  33.641  30.700  1.00  0.00     0.134 A 
ATOM     90  C   UNL A   1      46.296  34.578  28.673  1.00  0.00     0.134 A 
ATOM     91  F   UNL A   1      47.229  32.658  31.611  1.00  0.00    -0.206 F 
ATOM     92  C   UNL A   1      47.898  34.802  30.928  1.00  0.00     0.040 A 
ATOM     93  C   UNL A   1      47.056  35.731  28.872  1.00  0.00     0.040 A 
ATOM     94  F   UNL A   1      45.536  34.513  27.568  1.00  0.00    -0.206 F 
ATOM     95  C   UNL A   1      47.855  35.848  30.007  1.00  0.00     0.006 A 
ENDBRANCH  71  88
ENDBRANCH  45  46
ENDBRANCH  38  40
ENDBRANCH  37  38
ENDBRANCH  36  37
ENDBRANCH  35  36
ENDBRANCH  34  35
ENDBRANCH   1  34
TORSDOF 19
ENDMDL
MODEL 3
REMARK VINA RESULT:     -11.6      0.363      5.723
REMARK SMILES CCN(CC)c1ccc([C@@H]2c3[nH]c4ccccc4c3C[C@@H](C(=O)OCCOCCOC(=O)c3ccc(-c4c5nc(c(-c6c(F)cccc6F)c6ccc([nH]6)c(-c6c(F)cccc6F)c6nc(c(-c7c(F)cccc7F)c7ccc4[nH]7)C=C6)C=C5)cc3)N2C(C)=O)cc1
REMARK SMILES IDX 26 1 25 2 24 3 22 4 23 5 21 6 10 7 11 8 87 9 12 10 19 11
REMARK SMILES IDX 13 12 18 14 20 15 14 16 17 17 15 18 16 19 9 20 6 21 7 22
REMARK SMILES IDX 92 23 8 24 91 25 3 26 2 27 1 28 4 29 5 30 88 31 89 32 90 33
REMARK SMILES IDX 27 34 28 35 29 36 30 37 31 38 32 39 33 40 34 41 86 42 35 43
REMARK SMILES IDX 85 44 36 45 37 46 38 47 79 48 39 49 84 50 78 51 80 52 40 53
REMARK SMILES IDX 83 54 77 55 76 56 41 58 67 59 50 60 66 61 51 62 54 63 65 64
REMARK SMILES IDX 81 65 52 66 53 67 64 69 82 70 55 71 42 72 43 73 48 74 44 75
REMARK SMILES IDX 45 76 47 77 49 78 46 79 68 80 69 81 74 82 70 83 71 84 73 85
REMARK SMILES IDX 75 86 72 87 56 88 57 89 62 90 58 91 59 92 61 93 63 94 60 95
REMARK H PARENT 12 13 80 57 54 68
REMARK Flexibility Score: inf
ROOT
ATOM      1  C   UNL A   1      34.145  22.460  24.242  1.00  0.00     0.202 C 
ENDROOT
BRANCH   1   2
ATOM      2  C   UNL A   1      32.765  22.794  23.627  1.00  0.00     0.261 C 
BRANCH   2   3
ATOM      3  O   UNL A   1      31.974  23.713  24.434  1.00  0.00    -0.462 OA
BRANCH   3   4
ATOM      4  C   UNL A   1      32.440  24.593  25.381  1.00  0.00     0.329 C 
ATOM      5  O   UNL A   1      32.207  24.485  26.578  1.00  0.00    -0.250 OA
BRANCH   4   6
ATOM      6  C   UNL A   1      33.517  25.626  24.735  1.00  0.00     0.200 C 
ATOM      7  C   UNL A   1      31.693  27.214  24.518  1.00  0.00     0.163 C 
ATOM      8  C   UNL A   1      32.182  27.752  25.854  1.00  0.00     0.047 A 
ATOM      9  N   UNL A   1      32.925  26.763  23.898  1.00  0.00    -0.316 N 
ATOM     10  N   UNL A   1      31.725  28.842  26.527  1.00  0.00    -0.356 N 
ATOM     11  C   UNL A   1      33.405  27.399  26.448  1.00  0.00    -0.014 A 
ATOM     12  C   UNL A   1      32.832  29.494  27.030  1.00  0.00     0.046 A 
ATOM     13  H   UNL A   1      30.784  29.115  26.633  1.00  0.00     0.166 HD
ATOM     14  C   UNL A   1      33.857  28.554  27.120  1.00  0.00     0.003 A 
ATOM     15  C   UNL A   1      34.260  26.264  25.934  1.00  0.00     0.075 C 
ATOM     16  C   UNL A   1      33.039  30.848  27.273  1.00  0.00     0.026 A 
ATOM     17  C   UNL A   1      35.136  28.947  27.542  1.00  0.00     0.010 A 
ATOM     18  C   UNL A   1      34.352  31.242  27.547  1.00  0.00     0.002 A 
ATOM     19  C   UNL A   1      35.380  30.310  27.697  1.00  0.00     0.001 A 
BRANCH   7  20
ATOM     20  C   UNL A   1      30.754  27.946  23.583  1.00  0.00    -0.019 A 
ATOM     21  C   UNL A   1      28.885  29.618  22.231  1.00  0.00     0.037 A 
ATOM     22  C   UNL A   1      30.259  29.698  21.998  1.00  0.00     0.026 A 
ATOM     23  C   UNL A   1      28.454  28.541  23.011  1.00  0.00     0.026 A 
ATOM     24  C   UNL A   1      31.177  28.874  22.645  1.00  0.00     0.008 A 
ATOM     25  C   UNL A   1      29.369  27.711  23.674  1.00  0.00     0.008 A 
BRANCH  21  26
ATOM     26  N   UNL A   1      27.998  30.587  21.784  1.00  0.00    -0.372 N 
BRANCH  26  27
ATOM     27  C   UNL A   1      27.448  31.520  22.784  1.00  0.00     0.113 C 
ATOM     28  C   UNL A   1      28.496  32.018  23.770  1.00  0.00     0.027 C 
ENDBRANCH  26  27
BRANCH  26  29
ATOM     29  C   UNL A   1      27.935  30.995  20.373  1.00  0.00     0.113 C 
ATOM     30  C   UNL A   1      27.772  32.496  20.157  1.00  0.00     0.027 C 
ENDBRANCH  26  29
ENDBRANCH  21  26
ENDBRANCH   7  20
BRANCH   9  31
ATOM     31  C   UNL A   1      33.686  27.864  23.421  1.00  0.00     0.221 C 
ATOM     32  C   UNL A   1      34.181  27.911  22.017  1.00  0.00     0.114 C 
ATOM     33  O   UNL A   1      33.967  28.851  24.114  1.00  0.00    -0.275 OA
ENDBRANCH   9  31
ENDBRANCH   4   6
ENDBRANCH   3   4
ENDBRANCH   2   3
ENDBRANCH   1   2
BRANCH   1  34
ATOM     34  O   UNL A   1      34.188  21.188  24.899  1.00  0.00    -0.374 OA
BRANCH  34  35
ATOM     35  C   UNL A   1      35.475  20.581  24.924  1.00  0.00     0.202 C 
BRANCH  35  36
ATOM     36  C   UNL A   1      36.494  21.357  25.765  1.00  0.00     0.261 C 
BRANCH  36  37
ATOM     37  O   UNL A   1      37.730  21.585  25.060  1.00  0.00    -0.460 OA
BRANCH  37  38
ATOM     38  C   UNL A   1      38.837  21.359  25.797  1.00  0.00     0.338 C 
ATOM     39  O   UNL A   1      39.515  20.333  25.835  1.00  0.00    -0.246 OA
BRANCH  38  40
ATOM     40  C   UNL A   1      39.247  22.566  26.524  1.00  0.00     0.060 A 
ATOM     41  C   UNL A   1      38.649  23.773  26.153  1.00  0.00     0.016 A 
ATOM     42  C   UNL A   1      40.309  22.551  27.432  1.00  0.00     0.016 A 
ATOM     43  C   UNL A   1      39.150  24.979  26.644  1.00  0.00     0.010 A 
ATOM     44  C   UNL A   1      40.778  23.759  27.962  1.00  0.00     0.010 A 
ATOM     45  C   UNL A   1      40.239  24.985  27.527  1.00  0.00    -0.014 A 
BRANCH  45  46
ATOM     46  C   UNL A   1      40.931  26.266  27.839  1.00  0.00     0.031 A 
ATOM     47  C   UNL A   1      42.364  26.447  27.406  1.00  0.00     0.074 A 
ATOM     48  C   UNL A   1      40.290  27.276  28.455  1.00  0.00     0.049 A 
ATOM     49  N   UNL A   1      43.176  27.453  27.608  1.00  0.00    -0.248 NA
ATOM     50  C   UNL A   1      42.965  25.339  26.646  1.00  0.00     0.031 C 
ATOM     51  C   UNL A   1      38.894  27.251  28.891  1.00  0.00     0.029 A 
ATOM     52  N   UNL A   1      40.733  28.524  28.820  1.00  0.00    -0.354 N 
ATOM     53  C   UNL A   1      44.383  27.092  27.020  1.00  0.00     0.074 A 
ATOM     54  C   UNL A   1      44.210  25.759  26.487  1.00  0.00     0.031 C 
ATOM     55  C   UNL A   1      38.595  28.431  29.462  1.00  0.00     0.029 A 
ATOM     56  C   UNL A   1      39.788  29.276  29.474  1.00  0.00     0.049 A 
ATOM     57  H   UNL A   1      41.643  28.848  28.631  1.00  0.00     0.167 HD
ATOM     58  C   UNL A   1      45.528  27.809  26.917  1.00  0.00     0.037 A 
ATOM     59  C   UNL A   1      39.881  30.495  30.040  1.00  0.00     0.037 A 
ATOM     60  C   UNL A   1      45.696  29.142  27.430  1.00  0.00     0.049 A 
ATOM     61  C   UNL A   1      41.186  31.245  29.977  1.00  0.00     0.074 A 
ATOM     62  C   UNL A   1      46.812  29.958  27.359  1.00  0.00     0.029 A 
ATOM     63  N   UNL A   1      44.723  29.855  28.113  1.00  0.00    -0.354 N 
ATOM     64  N   UNL A   1      42.315  30.899  29.407  1.00  0.00    -0.248 NA
ATOM     65  C   UNL A   1      41.230  32.558  30.639  1.00  0.00     0.031 C 
ATOM     66  C   UNL A   1      46.533  31.142  28.050  1.00  0.00     0.029 A 
ATOM     67  C   UNL A   1      45.222  31.091  28.493  1.00  0.00     0.049 A 
ATOM     68  H   UNL A   1      43.812  29.532  28.301  1.00  0.00     0.167 HD
ATOM     69  C   UNL A   1      43.188  31.962  29.608  1.00  0.00     0.074 A 
ATOM     70  C   UNL A   1      42.456  32.971  30.345  1.00  0.00     0.031 C 
ATOM     71  C   UNL A   1      44.478  32.093  29.212  1.00  0.00     0.037 A 
BRANCH  58  72
ATOM     72  C   UNL A   1      46.701  27.152  26.247  1.00  0.00     0.057 A 
ATOM     73  C   UNL A   1      47.633  26.384  26.960  1.00  0.00     0.134 A 
ATOM     74  C   UNL A   1      46.884  27.263  24.863  1.00  0.00     0.134 A 
ATOM     75  F   UNL A   1      47.526  26.247  28.290  1.00  0.00    -0.206 F 
ATOM     76  C   UNL A   1      48.716  25.774  26.323  1.00  0.00     0.040 A 
ATOM     77  C   UNL A   1      47.945  26.632  24.211  1.00  0.00     0.040 A 
ATOM     78  F   UNL A   1      46.027  27.977  24.118  1.00  0.00    -0.206 F 
ATOM     79  C   UNL A   1      48.869  25.890  24.943  1.00  0.00     0.006 A 
ENDBRANCH  58  72
BRANCH  59  80
ATOM     80  C   UNL A   1      38.709  31.085  30.738  1.00  0.00     0.057 A 
ATOM     81  C   UNL A   1      37.785  31.890  30.061  1.00  0.00     0.134 A 
ATOM     82  C   UNL A   1      38.498  30.881  32.109  1.00  0.00     0.134 A 
ATOM     83  F   UNL A   1      37.945  32.146  28.753  1.00  0.00    -0.206 F 
ATOM     84  C   UNL A   1      36.709  32.486  30.721  1.00  0.00     0.040 A 
ATOM     85  C   UNL A   1      37.410  31.445  32.775  1.00  0.00     0.040 A 
ATOM     86  F   UNL A   1      39.347  30.122  32.818  1.00  0.00    -0.206 F 
ATOM     87  C   UNL A   1      36.516  32.258  32.082  1.00  0.00     0.006 A 
ENDBRANCH  59  80
BRANCH  71  88
ATOM     88  C   UNL A   1      45.170  33.393  29.513  1.00  0.00     0.057 A 
ATOM     89  C   UNL A   1      45.144  34.476  28.626  1.00  0.00     0.134 A 
ATOM     90  C   UNL A   1      45.826  33.578  30.737  1.00  0.00     0.134 A 
ATOM     91  F   UNL A   1      44.541  34.363  27.431  1.00  0.00    -0.206 F 
ATOM     92  C   UNL A   1      45.766  35.688  28.935  1.00  0.00     0.040 A 
ATOM     93  C   UNL A   1      46.424  34.794  31.071  1.00  0.00     0.040 A 
ATOM     94  F   UNL A   1      45.880  32.587  31.640  1.00  0.00    -0.206 F 
ATOM     95  C   UNL A   1      46.401  35.852  30.164  1.00  0.00     0.006 A 
ENDBRANCH  71  88
ENDBRANCH  45  46
ENDBRANCH  38  40
ENDBRANCH  37  38
ENDBRANCH  36  37
ENDBRANCH  35  36
ENDBRANCH  34  35
ENDBRANCH   1  34
TORSDOF 19
ENDMDL
