MODEL 1
REMARK VINA RESULT:     -11.7      0.000      0.000
REMARK SMILES Cc1ccc(NC(=O)C[N@H+]2CC[C@@H](C(=O)OCCOCCOC(=O)c3ccc(-c4c5nc(c(-c6c(F)cccc6F)c6ccc([nH]6)c(-c6c(F)cccc6F)c6nc(c(-c7c(F)cccc7F)c7ccc4[nH]7)C=C6)C=C5)cc3)[C@@H]2C)cc1
REMARK SMILES IDX 18 1 17 2 16 3 14 4 15 5 13 6 10 7 11 8 79 9 12 11 80 12
REMARK SMILES IDX 9 13 7 14 6 15 8 17 5 18 1 19 2 20 3 21 82 22 4 23 81 24
REMARK SMILES IDX 19 25 20 26 21 27 22 28 23 29 24 30 25 31 26 32 78 33 27 34
REMARK SMILES IDX 77 35 28 36 29 37 30 38 71 39 31 40 76 41 70 42 72 43 32 44
REMARK SMILES IDX 75 45 69 46 68 47 33 49 59 50 42 51 58 52 43 53 46 54 57 55
REMARK SMILES IDX 73 56 44 57 45 58 56 60 74 61 47 62 34 63 35 64 40 65 36 66
REMARK SMILES IDX 37 67 39 68 41 69 38 70 60 71 61 72 66 73 62 74 63 75 65 76
REMARK SMILES IDX 67 77 64 78 48 79 49 80 54 81 50 82 51 83 53 84 55 85 52 86
REMARK H PARENT 10 10 6 16 72 48 46 59
REMARK Flexibility Score: inf
ROOT
ATOM      1  C   UNL A   1      33.162  33.839  28.014  1.00  0.00     0.202 C 
ENDROOT
BRANCH   1   2
ATOM      2  C   UNL A   1      32.115  33.139  27.220  1.00  0.00     0.261 C 
BRANCH   2   3
ATOM      3  O   UNL A   1      32.300  31.730  27.378  1.00  0.00    -0.463 OA
BRANCH   3   4
ATOM      4  C   UNL A   1      31.837  30.801  26.512  1.00  0.00     0.315 C 
ATOM      5  O   UNL A   1      31.090  31.007  25.557  1.00  0.00    -0.252 OA
BRANCH   4   6
ATOM      6  C   UNL A   1      32.353  29.435  26.916  1.00  0.00     0.162 C 
ATOM      7  N   UNL A   1      33.346  28.039  25.180  1.00  0.00    -0.324 N 
ATOM      8  C   UNL A   1      34.370  28.264  26.191  1.00  0.00     0.264 C 
ATOM      9  C   UNL A   1      32.050  28.375  25.837  1.00  0.00     0.195 C 
ATOM     10  H   UNL A   1      33.394  27.066  24.882  1.00  0.00     0.348 HD
ATOM     11  C   UNL A   1      33.851  29.309  27.171  1.00  0.00     0.083 C 
ATOM     12  C   UNL A   1      31.361  27.206  26.544  1.00  0.00     0.076 C 
BRANCH   7  13
ATOM     13  C   UNL A   1      33.531  28.735  23.868  1.00  0.00     0.364 C 
BRANCH  13  14
ATOM     14  C   UNL A   1      33.315  27.941  22.549  1.00  0.00     0.279 C 
ATOM     15  N   UNL A   1      32.092  27.609  22.003  1.00  0.00    -0.321 N 
ATOM     16  H   UNL A   1      32.165  27.186  21.117  1.00  0.00     0.170 HD
ATOM     17  O   UNL A   1      34.309  27.537  21.927  1.00  0.00    -0.268 OA
BRANCH  15  18
ATOM     18  C   UNL A   1      30.763  27.748  22.444  1.00  0.00     0.041 A 
ATOM     19  C   UNL A   1      26.644  28.357  23.712  1.00  0.00     0.044 C 
ATOM     20  C   UNL A   1      28.051  28.055  23.282  1.00  0.00    -0.051 A 
ATOM     21  C   UNL A   1      28.719  29.049  22.597  1.00  0.00     0.005 A 
ATOM     22  C   UNL A   1      28.767  26.898  23.591  1.00  0.00     0.005 A 
ATOM     23  C   UNL A   1      30.060  28.908  22.236  1.00  0.00     0.026 A 
ATOM     24  C   UNL A   1      30.118  26.748  23.179  1.00  0.00     0.026 A 
ENDBRANCH  15  18
ENDBRANCH  13  14
ENDBRANCH   7  13
ENDBRANCH   4   6
ENDBRANCH   3   4
ENDBRANCH   2   3
ENDBRANCH   1   2
BRANCH   1  25
ATOM     25  O   UNL A   1      32.547  35.041  28.442  1.00  0.00    -0.374 OA
BRANCH  25  26
ATOM     26  C   UNL A   1      33.379  35.904  29.192  1.00  0.00     0.202 C 
BRANCH  26  27
ATOM     27  C   UNL A   1      32.774  36.234  30.559  1.00  0.00     0.261 C 
BRANCH  27  28
ATOM     28  O   UNL A   1      32.886  35.074  31.416  1.00  0.00    -0.460 OA
BRANCH  28  29
ATOM     29  C   UNL A   1      34.046  34.977  32.126  1.00  0.00     0.338 C 
ATOM     30  O   UNL A   1      34.552  35.881  32.773  1.00  0.00    -0.246 OA
BRANCH  29  31
ATOM     31  C   UNL A   1      34.806  33.752  31.718  1.00  0.00     0.060 A 
ATOM     32  C   UNL A   1      34.849  32.651  32.595  1.00  0.00     0.016 A 
ATOM     33  C   UNL A   1      35.786  33.881  30.736  1.00  0.00     0.016 A 
ATOM     34  C   UNL A   1      35.957  31.790  32.596  1.00  0.00     0.010 A 
ATOM     35  C   UNL A   1      36.935  33.118  30.841  1.00  0.00     0.010 A 
ATOM     36  C   UNL A   1      37.042  32.074  31.771  1.00  0.00    -0.014 A 
BRANCH  36  37
ATOM     37  C   UNL A   1      38.328  31.367  31.788  1.00  0.00     0.031 A 
ATOM     38  C   UNL A   1      38.513  30.209  30.865  1.00  0.00     0.074 A 
ATOM     39  C   UNL A   1      39.403  31.829  32.474  1.00  0.00     0.049 A 
ATOM     40  N   UNL A   1      39.550  29.449  30.860  1.00  0.00    -0.248 NA
ATOM     41  C   UNL A   1      37.556  29.823  29.833  1.00  0.00     0.031 C 
ATOM     42  C   UNL A   1      40.785  31.386  32.321  1.00  0.00     0.029 A 
ATOM     43  N   UNL A   1      39.492  32.790  33.486  1.00  0.00    -0.354 N 
ATOM     44  C   UNL A   1      39.545  28.681  29.727  1.00  0.00     0.074 A 
ATOM     45  C   UNL A   1      38.273  28.959  29.107  1.00  0.00     0.031 C 
ATOM     46  C   UNL A   1      41.557  31.896  33.285  1.00  0.00     0.029 A 
ATOM     47  C   UNL A   1      40.677  32.551  34.212  1.00  0.00     0.049 A 
ATOM     48  H   UNL A   1      38.841  33.509  33.660  1.00  0.00     0.167 HD
ATOM     49  C   UNL A   1      40.661  27.957  29.424  1.00  0.00     0.037 A 
ATOM     50  C   UNL A   1      40.677  32.282  35.543  1.00  0.00     0.037 A 
ATOM     51  C   UNL A   1      41.703  28.131  30.453  1.00  0.00     0.049 A 
ATOM     52  C   UNL A   1      41.212  30.885  35.724  1.00  0.00     0.074 A 
ATOM     53  C   UNL A   1      42.918  28.797  30.498  1.00  0.00     0.029 A 
ATOM     54  N   UNL A   1      41.399  27.820  31.786  1.00  0.00    -0.354 N 
ATOM     55  N   UNL A   1      40.974  29.916  34.866  1.00  0.00    -0.248 NA
ATOM     56  C   UNL A   1      42.300  30.578  36.650  1.00  0.00     0.031 C 
ATOM     57  C   UNL A   1      43.296  28.948  31.866  1.00  0.00     0.029 A 
ATOM     58  C   UNL A   1      42.334  28.341  32.663  1.00  0.00     0.049 A 
ATOM     59  H   UNL A   1      40.615  27.293  32.064  1.00  0.00     0.167 HD
ATOM     60  C   UNL A   1      41.963  28.979  34.998  1.00  0.00     0.074 A 
ATOM     61  C   UNL A   1      42.734  29.405  36.159  1.00  0.00     0.031 C 
ATOM     62  C   UNL A   1      42.300  28.019  34.085  1.00  0.00     0.037 A 
BRANCH  49  63
ATOM     63  C   UNL A   1      40.852  27.234  28.104  1.00  0.00     0.057 A 
ATOM     64  C   UNL A   1      40.243  25.992  27.839  1.00  0.00     0.134 A 
ATOM     65  C   UNL A   1      41.627  27.728  27.035  1.00  0.00     0.134 A 
ATOM     66  F   UNL A   1      39.424  25.407  28.722  1.00  0.00    -0.206 F 
ATOM     67  C   UNL A   1      40.443  25.277  26.645  1.00  0.00     0.040 A 
ATOM     68  C   UNL A   1      41.885  26.998  25.864  1.00  0.00     0.040 A 
ATOM     69  F   UNL A   1      42.120  28.973  27.044  1.00  0.00    -0.206 F 
ATOM     70  C   UNL A   1      41.289  25.765  25.663  1.00  0.00     0.006 A 
ENDBRANCH  49  63
BRANCH  50  71
ATOM     71  C   UNL A   1      39.658  33.098  36.254  1.00  0.00     0.057 A 
ATOM     72  C   UNL A   1      38.528  32.365  36.681  1.00  0.00     0.134 A 
ATOM     73  C   UNL A   1      40.044  34.178  37.056  1.00  0.00     0.134 A 
ATOM     74  F   UNL A   1      38.088  31.330  35.948  1.00  0.00    -0.206 F 
ATOM     75  C   UNL A   1      37.967  32.540  37.950  1.00  0.00     0.040 A 
ATOM     76  C   UNL A   1      39.480  34.365  38.329  1.00  0.00     0.040 A 
ATOM     77  F   UNL A   1      41.107  34.924  36.726  1.00  0.00    -0.206 F 
ATOM     78  C   UNL A   1      38.486  33.507  38.802  1.00  0.00     0.006 A 
ENDBRANCH  50  71
BRANCH  62  79
ATOM     79  C   UNL A   1      42.657  26.626  34.539  1.00  0.00     0.057 A 
ATOM     80  C   UNL A   1      41.729  25.753  35.130  1.00  0.00     0.134 A 
ATOM     81  C   UNL A   1      43.898  26.043  34.199  1.00  0.00     0.134 A 
ATOM     82  F   UNL A   1      40.483  26.140  35.435  1.00  0.00    -0.206 F 
ATOM     83  C   UNL A   1      42.020  24.414  35.391  1.00  0.00     0.040 A 
ATOM     84  C   UNL A   1      44.177  24.692  34.406  1.00  0.00     0.040 A 
ATOM     85  F   UNL A   1      44.879  26.739  33.606  1.00  0.00    -0.206 F 
ATOM     86  C   UNL A   1      43.240  23.873  35.013  1.00  0.00     0.006 A 
ENDBRANCH  62  79
ENDBRANCH  36  37
ENDBRANCH  29  31
ENDBRANCH  28  29
ENDBRANCH  27  28
ENDBRANCH  26  27
ENDBRANCH  25  26
ENDBRANCH   1  25
TORSDOF 17
ENDMDL
MODEL 2
REMARK VINA RESULT:     -11.6      1.504      2.143
REMARK SMILES Cc1ccc(NC(=O)C[N@H+]2CC[C@@H](C(=O)OCCOCCOC(=O)c3ccc(-c4c5nc(c(-c6c(F)cccc6F)c6ccc([nH]6)c(-c6c(F)cccc6F)c6nc(c(-c7c(F)cccc7F)c7ccc4[nH]7)C=C6)C=C5)cc3)[C@@H]2C)cc1
REMARK SMILES IDX 18 1 17 2 16 3 14 4 15 5 13 6 10 7 11 8 79 9 12 11 80 12
REMARK SMILES IDX 9 13 7 14 6 15 8 17 5 18 1 19 2 20 3 21 82 22 4 23 81 24
REMARK SMILES IDX 19 25 20 26 21 27 22 28 23 29 24 30 25 31 26 32 78 33 27 34
REMARK SMILES IDX 77 35 28 36 29 37 30 38 71 39 31 40 76 41 70 42 72 43 32 44
REMARK SMILES IDX 75 45 69 46 68 47 33 49 59 50 42 51 58 52 43 53 46 54 57 55
REMARK SMILES IDX 73 56 44 57 45 58 56 60 74 61 47 62 34 63 35 64 40 65 36 66
REMARK SMILES IDX 37 67 39 68 41 69 38 70 60 71 61 72 66 73 62 74 63 75 65 76
REMARK SMILES IDX 67 77 64 78 48 79 49 80 54 81 50 82 51 83 53 84 55 85 52 86
REMARK H PARENT 10 10 6 16 72 48 46 59
REMARK Flexibility Score: inf
ROOT
ATOM      1  C   UNL A   1      33.544  33.876  27.978  1.00  0.00     0.202 C 
ENDROOT
BRANCH   1   2
ATOM      2  C   UNL A   1      33.293  32.431  28.236  1.00  0.00     0.261 C 
BRANCH   2   3
ATOM      3  O   UNL A   1      34.038  31.670  27.284  1.00  0.00    -0.463 OA
BRANCH   3   4
ATOM      4  C   UNL A   1      34.029  30.320  27.216  1.00  0.00     0.315 C 
ATOM      5  O   UNL A   1      35.005  29.581  27.329  1.00  0.00    -0.252 OA
BRANCH   4   6
ATOM      6  C   UNL A   1      32.618  29.838  26.943  1.00  0.00     0.162 C 
ATOM      7  N   UNL A   1      32.302  28.207  25.158  1.00  0.00    -0.324 N 
ATOM      8  C   UNL A   1      31.826  27.595  26.391  1.00  0.00     0.264 C 
ATOM      9  C   UNL A   1      32.360  29.672  25.431  1.00  0.00     0.195 C 
ATOM     10  H   UNL A   1      31.651  27.974  24.409  1.00  0.00     0.348 HD
ATOM     11  C   UNL A   1      32.214  28.501  27.554  1.00  0.00     0.083 C 
ATOM     12  C   UNL A   1      31.077  30.442  25.112  1.00  0.00     0.076 C 
BRANCH   7  13
ATOM     13  C   UNL A   1      33.578  27.670  24.589  1.00  0.00     0.364 C 
BRANCH  13  14
ATOM     14  C   UNL A   1      33.703  27.480  23.051  1.00  0.00     0.279 C 
ATOM     15  N   UNL A   1      33.557  26.287  22.374  1.00  0.00    -0.321 N 
ATOM     16  H   UNL A   1      33.581  26.391  21.395  1.00  0.00     0.170 HD
ATOM     17  O   UNL A   1      33.981  28.465  22.350  1.00  0.00    -0.268 OA
BRANCH  15  18
ATOM     18  C   UNL A   1      33.381  24.953  22.787  1.00  0.00     0.041 A 
ATOM     19  C   UNL A   1      32.643  20.839  24.002  1.00  0.00     0.044 C 
ATOM     20  C   UNL A   1      32.988  22.236  23.573  1.00  0.00    -0.051 A 
ATOM     21  C   UNL A   1      31.951  23.018  23.105  1.00  0.00     0.005 A 
ATOM     22  C   UNL A   1      34.241  22.839  23.689  1.00  0.00     0.005 A 
ATOM     23  C   UNL A   1      32.145  24.359  22.771  1.00  0.00     0.026 A 
ATOM     24  C   UNL A   1      34.436  24.192  23.303  1.00  0.00     0.026 A 
ENDBRANCH  15  18
ENDBRANCH  13  14
ENDBRANCH   7  13
ENDBRANCH   4   6
ENDBRANCH   3   4
ENDBRANCH   2   3
ENDBRANCH   1   2
BRANCH   1  25
ATOM     25  O   UNL A   1      32.730  34.558  28.915  1.00  0.00    -0.374 OA
BRANCH  25  26
ATOM     26  C   UNL A   1      33.115  35.892  29.184  1.00  0.00     0.202 C 
BRANCH  26  27
ATOM     27  C   UNL A   1      32.768  36.308  30.616  1.00  0.00     0.261 C 
BRANCH  27  28
ATOM     28  O   UNL A   1      32.869  35.152  31.480  1.00  0.00    -0.460 OA
BRANCH  28  29
ATOM     29  C   UNL A   1      34.032  35.043  32.183  1.00  0.00     0.338 C 
ATOM     30  O   UNL A   1      34.545  35.938  32.838  1.00  0.00    -0.246 OA
BRANCH  29  31
ATOM     31  C   UNL A   1      34.785  33.819  31.759  1.00  0.00     0.060 A 
ATOM     32  C   UNL A   1      34.809  32.701  32.615  1.00  0.00     0.016 A 
ATOM     33  C   UNL A   1      35.776  33.958  30.790  1.00  0.00     0.016 A 
ATOM     34  C   UNL A   1      35.909  31.830  32.610  1.00  0.00     0.010 A 
ATOM     35  C   UNL A   1      36.917  33.183  30.891  1.00  0.00     0.010 A 
ATOM     36  C   UNL A   1      37.006  32.121  31.802  1.00  0.00    -0.014 A 
BRANCH  36  37
ATOM     37  C   UNL A   1      38.285  31.402  31.818  1.00  0.00     0.031 A 
ATOM     38  C   UNL A   1      38.454  30.233  30.904  1.00  0.00     0.074 A 
ATOM     39  C   UNL A   1      39.368  31.859  32.493  1.00  0.00     0.049 A 
ATOM     40  N   UNL A   1      39.484  29.464  30.899  1.00  0.00    -0.248 NA
ATOM     41  C   UNL A   1      37.487  29.847  29.881  1.00  0.00     0.031 C 
ATOM     42  C   UNL A   1      40.745  31.402  32.336  1.00  0.00     0.029 A 
ATOM     43  N   UNL A   1      39.471  32.828  33.496  1.00  0.00    -0.354 N 
ATOM     44  C   UNL A   1      39.465  28.686  29.773  1.00  0.00     0.074 A 
ATOM     45  C   UNL A   1      38.192  28.971  29.158  1.00  0.00     0.031 C 
ATOM     46  C   UNL A   1      41.527  31.913  33.292  1.00  0.00     0.029 A 
ATOM     47  C   UNL A   1      40.658  32.584  34.218  1.00  0.00     0.049 A 
ATOM     48  H   UNL A   1      38.828  33.554  33.667  1.00  0.00     0.167 HD
ATOM     49  C   UNL A   1      40.573  27.949  29.470  1.00  0.00     0.037 A 
ATOM     50  C   UNL A   1      40.664  32.327  35.552  1.00  0.00     0.037 A 
ATOM     51  C   UNL A   1      41.622  28.122  30.492  1.00  0.00     0.049 A 
ATOM     52  C   UNL A   1      41.187  30.926  35.742  1.00  0.00     0.074 A 
ATOM     53  C   UNL A   1      42.843  28.777  30.524  1.00  0.00     0.029 A 
ATOM     54  N   UNL A   1      41.322  27.825  31.829  1.00  0.00    -0.354 N 
ATOM     55  N   UNL A   1      40.934  29.952  34.893  1.00  0.00    -0.248 NA
ATOM     56  C   UNL A   1      42.277  30.617  36.664  1.00  0.00     0.031 C 
ATOM     57  C   UNL A   1      43.230  28.936  31.889  1.00  0.00     0.029 A 
ATOM     58  C   UNL A   1      42.267  28.346  32.696  1.00  0.00     0.049 A 
ATOM     59  H   UNL A   1      40.535  27.308  32.116  1.00  0.00     0.167 HD
ATOM     60  C   UNL A   1      41.916  29.007  35.027  1.00  0.00     0.074 A 
ATOM     61  C   UNL A   1      42.697  29.435  36.181  1.00  0.00     0.031 C 
ATOM     62  C   UNL A   1      42.239  28.036  34.121  1.00  0.00     0.037 A 
BRANCH  49  63
ATOM     63  C   UNL A   1      40.749  27.213  28.156  1.00  0.00     0.057 A 
ATOM     64  C   UNL A   1      40.139  25.967  27.911  1.00  0.00     0.134 A 
ATOM     65  C   UNL A   1      41.510  27.697  27.072  1.00  0.00     0.134 A 
ATOM     66  F   UNL A   1      39.332  25.390  28.809  1.00  0.00    -0.206 F 
ATOM     67  C   UNL A   1      40.327  25.240  26.722  1.00  0.00     0.040 A 
ATOM     68  C   UNL A   1      41.756  26.956  25.906  1.00  0.00     0.040 A 
ATOM     69  F   UNL A   1      42.001  28.943  27.062  1.00  0.00    -0.206 F 
ATOM     70  C   UNL A   1      41.160  25.720  25.725  1.00  0.00     0.006 A 
ENDBRANCH  49  63
BRANCH  50  71
ATOM     71  C   UNL A   1      39.656  33.158  36.261  1.00  0.00     0.057 A 
ATOM     72  C   UNL A   1      38.527  32.437  36.710  1.00  0.00     0.134 A 
ATOM     73  C   UNL A   1      40.057  34.247  37.044  1.00  0.00     0.134 A 
ATOM     74  F   UNL A   1      38.074  31.394  35.996  1.00  0.00    -0.206 F 
ATOM     75  C   UNL A   1      37.980  32.633  37.982  1.00  0.00     0.040 A 
ATOM     76  C   UNL A   1      39.506  34.456  38.319  1.00  0.00     0.040 A 
ATOM     77  F   UNL A   1      41.120  34.983  36.692  1.00  0.00    -0.206 F 
ATOM     78  C   UNL A   1      38.512  33.610  38.815  1.00  0.00     0.006 A 
ENDBRANCH  50  71
BRANCH  62  79
ATOM     79  C   UNL A   1      42.585  26.644  34.586  1.00  0.00     0.057 A 
ATOM     80  C   UNL A   1      41.649  25.781  35.181  1.00  0.00     0.134 A 
ATOM     81  C   UNL A   1      43.822  26.050  34.252  1.00  0.00     0.134 A 
ATOM     82  F   UNL A   1      40.406  26.178  35.481  1.00  0.00    -0.206 F 
ATOM     83  C   UNL A   1      41.930  24.442  35.452  1.00  0.00     0.040 A 
ATOM     84  C   UNL A   1      44.092  24.698  34.469  1.00  0.00     0.040 A 
ATOM     85  F   UNL A   1      44.809  26.735  33.656  1.00  0.00    -0.206 F 
ATOM     86  C   UNL A   1      43.148  23.890  35.079  1.00  0.00     0.006 A 
ENDBRANCH  62  79
ENDBRANCH  36  37
ENDBRANCH  29  31
ENDBRANCH  28  29
ENDBRANCH  27  28
ENDBRANCH  26  27
ENDBRANCH  25  26
ENDBRANCH   1  25
TORSDOF 17
ENDMDL
MODEL 3
REMARK VINA RESULT:     -11.3      3.163      5.116
REMARK SMILES Cc1ccc(NC(=O)C[N@H+]2CC[C@@H](C(=O)OCCOCCOC(=O)c3ccc(-c4c5nc(c(-c6c(F)cccc6F)c6ccc([nH]6)c(-c6c(F)cccc6F)c6nc(c(-c7c(F)cccc7F)c7ccc4[nH]7)C=C6)C=C5)cc3)[C@@H]2C)cc1
REMARK SMILES IDX 18 1 17 2 16 3 14 4 15 5 13 6 10 7 11 8 79 9 12 11 80 12
REMARK SMILES IDX 9 13 7 14 6 15 8 17 5 18 1 19 2 20 3 21 82 22 4 23 81 24
REMARK SMILES IDX 19 25 20 26 21 27 22 28 23 29 24 30 25 31 26 32 78 33 27 34
REMARK SMILES IDX 77 35 28 36 29 37 30 38 71 39 31 40 76 41 70 42 72 43 32 44
REMARK SMILES IDX 75 45 69 46 68 47 33 49 59 50 42 51 58 52 43 53 46 54 57 55
REMARK SMILES IDX 73 56 44 57 45 58 56 60 74 61 47 62 34 63 35 64 40 65 36 66
REMARK SMILES IDX 37 67 39 68 41 69 38 70 60 71 61 72 66 73 62 74 63 75 65 76
REMARK SMILES IDX 67 77 64 78 48 79 49 80 54 81 50 82 51 83 53 84 55 85 52 86
REMARK H PARENT 10 10 6 16 72 48 46 59
REMARK Flexibility Score: inf
ROOT
ATOM      1  C   UNL A   1      31.503  29.492  25.391  1.00  0.00     0.202 C 
ENDROOT
BRANCH   1   2
ATOM      2  C   UNL A   1      31.019  28.294  24.650  1.00  0.00     0.261 C 
BRANCH   2   3
ATOM      3  O   UNL A   1      31.953  28.004  23.607  1.00  0.00    -0.463 OA
BRANCH   3   4
ATOM      4  C   UNL A   1      33.029  27.199  23.754  1.00  0.00     0.315 C 
ATOM      5  O   UNL A   1      34.062  27.471  24.363  1.00  0.00    -0.252 OA
BRANCH   4   6
ATOM      6  C   UNL A   1      32.789  25.898  23.015  1.00  0.00     0.162 C 
ATOM      7  N   UNL A   1      31.753  24.067  24.247  1.00  0.00    -0.324 N 
ATOM      8  C   UNL A   1      30.878  24.382  23.126  1.00  0.00     0.264 C 
ATOM      9  C   UNL A   1      33.072  24.677  23.913  1.00  0.00     0.195 C 
ATOM     10  H   UNL A   1      31.803  23.054  24.345  1.00  0.00     0.348 HD
ATOM     11  C   UNL A   1      31.385  25.661  22.470  1.00  0.00     0.083 C 
ATOM     12  C   UNL A   1      34.028  23.767  23.138  1.00  0.00     0.076 C 
BRANCH   7  13
ATOM     13  C   UNL A   1      31.264  24.448  25.610  1.00  0.00     0.364 C 
BRANCH  13  14
ATOM     14  C   UNL A   1      31.018  23.335  26.667  1.00  0.00     0.279 C 
ATOM     15  N   UNL A   1      31.890  22.311  26.974  1.00  0.00    -0.321 N 
ATOM     16  H   UNL A   1      31.592  21.763  27.736  1.00  0.00     0.170 HD
ATOM     17  O   UNL A   1      29.942  23.328  27.285  1.00  0.00    -0.268 OA
BRANCH  15  18
ATOM     18  C   UNL A   1      33.115  21.885  26.429  1.00  0.00     0.041 A 
ATOM     19  C   UNL A   1      36.999  20.704  24.860  1.00  0.00     0.044 C 
ATOM     20  C   UNL A   1      35.628  21.025  25.380  1.00  0.00    -0.051 A 
ATOM     21  C   UNL A   1      35.526  22.097  26.244  1.00  0.00     0.005 A 
ATOM     22  C   UNL A   1      34.443  20.395  25.000  1.00  0.00     0.005 A 
ATOM     23  C   UNL A   1      34.287  22.539  26.711  1.00  0.00     0.026 A 
ATOM     24  C   UNL A   1      33.192  20.826  25.517  1.00  0.00     0.026 A 
ENDBRANCH  15  18
ENDBRANCH  13  14
ENDBRANCH   7  13
ENDBRANCH   4   6
ENDBRANCH   3   4
ENDBRANCH   2   3
ENDBRANCH   1   2
BRANCH   1  25
ATOM     25  O   UNL A   1      31.681  29.045  26.723  1.00  0.00    -0.374 OA
BRANCH  25  26
ATOM     26  C   UNL A   1      32.987  29.209  27.240  1.00  0.00     0.202 C 
BRANCH  26  27
ATOM     27  C   UNL A   1      33.535  30.613  26.971  1.00  0.00     0.261 C 
BRANCH  27  28
ATOM     28  O   UNL A   1      34.092  31.143  28.196  1.00  0.00    -0.460 OA
BRANCH  28  29
ATOM     29  C   UNL A   1      35.407  31.499  28.138  1.00  0.00     0.338 C 
ATOM     30  O   UNL A   1      35.830  32.564  27.714  1.00  0.00    -0.246 OA
BRANCH  29  31
ATOM     31  C   UNL A   1      36.282  30.294  28.311  1.00  0.00     0.060 A 
ATOM     32  C   UNL A   1      36.366  29.687  29.578  1.00  0.00     0.016 A 
ATOM     33  C   UNL A   1      37.297  30.079  27.382  1.00  0.00     0.016 A 
ATOM     34  C   UNL A   1      37.537  29.018  29.965  1.00  0.00     0.010 A 
ATOM     35  C   UNL A   1      38.496  29.546  27.820  1.00  0.00     0.010 A 
ATOM     36  C   UNL A   1      38.637  29.020  29.112  1.00  0.00    -0.014 A 
BRANCH  36  37
ATOM     37  C   UNL A   1      39.973  28.512  29.449  1.00  0.00     0.031 A 
ATOM     38  C   UNL A   1      40.421  27.230  28.831  1.00  0.00     0.074 A 
ATOM     39  C   UNL A   1      40.872  29.243  30.153  1.00  0.00     0.049 A 
ATOM     40  N   UNL A   1      41.522  26.633  29.125  1.00  0.00    -0.248 NA
ATOM     41  C   UNL A   1      39.683  26.520  27.790  1.00  0.00     0.031 C 
ATOM     42  C   UNL A   1      42.300  28.972  30.281  1.00  0.00     0.029 A 
ATOM     43  N   UNL A   1      40.699  30.389  30.936  1.00  0.00    -0.354 N 
ATOM     44  C   UNL A   1      41.774  25.662  28.194  1.00  0.00     0.074 A 
ATOM     45  C   UNL A   1      40.593  25.636  27.368  1.00  0.00     0.031 C 
ATOM     46  C   UNL A   1      42.853  29.763  31.205  1.00  0.00     0.029 A 
ATOM     47  C   UNL A   1      41.774  30.462  31.845  1.00  0.00     0.049 A 
ATOM     48  H   UNL A   1      39.956  31.032  30.864  1.00  0.00     0.167 HD
ATOM     49  C   UNL A   1      42.995  25.052  28.203  1.00  0.00     0.037 A 
ATOM     50  C   UNL A   1      41.595  30.466  33.192  1.00  0.00     0.037 A 
ATOM     51  C   UNL A   1      43.839  25.567  29.297  1.00  0.00     0.049 A 
ATOM     52  C   UNL A   1      42.241  29.218  33.739  1.00  0.00     0.074 A 
ATOM     53  C   UNL A   1      44.954  26.388  29.355  1.00  0.00     0.029 A 
ATOM     54  N   UNL A   1      43.365  25.487  30.614  1.00  0.00    -0.354 N 
ATOM     55  N   UNL A   1      42.244  28.075  33.086  1.00  0.00    -0.248 NA
ATOM     56  C   UNL A   1      43.197  29.253  34.843  1.00  0.00     0.031 C 
ATOM     57  C   UNL A   1      45.096  26.857  30.696  1.00  0.00     0.029 A 
ATOM     58  C   UNL A   1      44.091  26.296  31.472  1.00  0.00     0.049 A 
ATOM     59  H   UNL A   1      42.607  24.924  30.894  1.00  0.00     0.167 HD
ATOM     60  C   UNL A   1      43.295  27.326  33.545  1.00  0.00     0.074 A 
ATOM     61  C   UNL A   1      43.824  28.075  34.678  1.00  0.00     0.031 C 
ATOM     62  C   UNL A   1      43.870  26.260  32.913  1.00  0.00     0.037 A 
BRANCH  49  63
ATOM     63  C   UNL A   1      43.465  24.115  27.107  1.00  0.00     0.057 A 
ATOM     64  C   UNL A   1      44.303  24.550  26.061  1.00  0.00     0.134 A 
ATOM     65  C   UNL A   1      43.128  22.748  27.035  1.00  0.00     0.134 A 
ATOM     66  F   UNL A   1      44.768  25.803  26.008  1.00  0.00    -0.206 F 
ATOM     67  C   UNL A   1      44.711  23.715  25.006  1.00  0.00     0.040 A 
ATOM     68  C   UNL A   1      43.477  21.919  25.957  1.00  0.00     0.040 A 
ATOM     69  F   UNL A   1      42.498  22.128  28.041  1.00  0.00    -0.206 F 
ATOM     70  C   UNL A   1      44.276  22.402  24.934  1.00  0.00     0.006 A 
ENDBRANCH  49  63
BRANCH  50  71
ATOM     71  C   UNL A   1      40.397  31.259  33.570  1.00  0.00     0.057 A 
ATOM     72  C   UNL A   1      39.301  30.478  34.002  1.00  0.00     0.134 A 
ATOM     73  C   UNL A   1      40.536  32.522  34.157  1.00  0.00     0.134 A 
ATOM     74  F   UNL A   1      39.094  29.265  33.466  1.00  0.00    -0.206 F 
ATOM     75  C   UNL A   1      38.536  30.827  35.120  1.00  0.00     0.040 A 
ATOM     76  C   UNL A   1      39.766  32.884  35.275  1.00  0.00     0.040 A 
ATOM     77  F   UNL A   1      41.550  33.326  33.807  1.00  0.00    -0.206 F 
ATOM     78  C   UNL A   1      38.811  32.010  35.796  1.00  0.00     0.006 A 
ENDBRANCH  50  71
BRANCH  62  79
ATOM     79  C   UNL A   1      44.297  25.047  33.701  1.00  0.00     0.057 A 
ATOM     80  C   UNL A   1      43.404  24.278  34.466  1.00  0.00     0.134 A 
ATOM     81  C   UNL A   1      45.585  24.489  33.539  1.00  0.00     0.134 A 
ATOM     82  F   UNL A   1      42.125  24.637  34.641  1.00  0.00    -0.206 F 
ATOM     83  C   UNL A   1      43.770  23.066  35.051  1.00  0.00     0.040 A 
ATOM     84  C   UNL A   1      45.942  23.251  34.075  1.00  0.00     0.040 A 
ATOM     85  F   UNL A   1      46.541  25.089  32.817  1.00  0.00    -0.206 F 
ATOM     86  C   UNL A   1      45.036  22.538  34.843  1.00  0.00     0.006 A 
ENDBRANCH  62  79
ENDBRANCH  36  37
ENDBRANCH  29  31
ENDBRANCH  28  29
ENDBRANCH  27  28
ENDBRANCH  26  27
ENDBRANCH  25  26
ENDBRANCH   1  25
TORSDOF 17
ENDMDL
