MODEL 1
REMARK VINA RESULT:     -10.1      0.000      0.000
REMARK SMILES O=C(C[C@H](c1ccsc1)n1cccc1)OCCOCCOC(=O)c1ccc(-c2c3nc(c(-c4c(F)cccc4F)c4ccc([nH]4)c(-c4c(F)cccc4F)c4nc(c(-c5c(F)cccc5F)c5ccc2[nH]5)C=C4)C=C3)cc1
REMARK SMILES IDX 18 1 17 2 16 3 15 4 2 5 1 6 3 7 4 8 10 9 11 10 14 11 12 12
REMARK SMILES IDX 13 13 5 14 6 15 9 16 7 17 8 18 19 19 20 20 21 21 22 22 23 23
REMARK SMILES IDX 24 24 25 25 77 26 26 27 76 28 27 29 28 30 29 31 70 32 30 33
REMARK SMILES IDX 75 34 69 35 71 36 31 37 74 38 68 39 67 40 32 42 58 43 41 44
REMARK SMILES IDX 57 45 42 46 45 47 56 48 72 49 43 50 44 51 55 53 73 54 46 55
REMARK SMILES IDX 33 56 34 57 39 58 35 59 36 60 38 61 40 62 37 63 59 64 60 65
REMARK SMILES IDX 65 66 61 67 62 68 64 69 66 70 63 71 47 72 48 73 53 74 49 75
REMARK SMILES IDX 50 76 52 77 54 78 51 79
REMARK H PARENT 71 41 45 52
REMARK Flexibility Score: inf
ROOT
ATOM      1  O   UNL A   1      36.850  19.409  24.861  1.00  0.00    -0.374 OA
ENDROOT
BRANCH   1   2
ATOM      2  C   UNL A   1      35.622  20.124  24.978  1.00  0.00     0.202 C 
BRANCH   2   3
ATOM      3  C   UNL A   1      34.312  19.354  24.881  1.00  0.00     0.261 C 
BRANCH   3   4
ATOM      4  O   UNL A   1      33.311  19.937  24.036  1.00  0.00    -0.463 OA
BRANCH   4   5
ATOM      5  C   UNL A   1      32.529  20.989  24.363  1.00  0.00     0.308 C 
ATOM      6  O   UNL A   1      31.643  20.849  25.203  1.00  0.00    -0.252 OA
BRANCH   5   7
ATOM      7  C   UNL A   1      32.680  22.286  23.614  1.00  0.00     0.153 C 
BRANCH   7   8
ATOM      8  C   UNL A   1      33.036  23.453  24.508  1.00  0.00     0.128 C 
BRANCH   8   9
ATOM      9  N   UNL A   1      34.478  23.417  24.824  1.00  0.00    -0.346 N 
ATOM     10  C   UNL A   1      35.062  23.640  26.046  1.00  0.00     0.086 A 
ATOM     11  C   UNL A   1      35.461  23.475  23.855  1.00  0.00     0.086 A 
ATOM     12  C   UNL A   1      36.423  23.758  25.862  1.00  0.00     0.019 A 
ATOM     13  C   UNL A   1      36.675  23.661  24.476  1.00  0.00     0.019 A 
ENDBRANCH   8   9
BRANCH   8  14
ATOM     14  C   UNL A   1      32.497  24.736  23.946  1.00  0.00    -0.014 A 
ATOM     15  C   UNL A   1      32.493  26.010  24.601  1.00  0.00     0.017 A 
ATOM     16  C   UNL A   1      32.142  24.871  22.613  1.00  0.00     0.070 A 
ATOM     17  C   UNL A   1      32.186  27.041  23.743  1.00  0.00     0.065 A 
ATOM     18  S   UNL A   1      31.842  26.490  22.165  1.00  0.00    -0.152 S 
ENDBRANCH   8  14
ENDBRANCH   7   8
ENDBRANCH   5   7
ENDBRANCH   4   5
ENDBRANCH   3   4
ENDBRANCH   2   3
ENDBRANCH   1   2
BRANCH   1  19
ATOM     19  C   UNL A   1      38.089  20.063  25.156  1.00  0.00     0.202 C 
BRANCH  19  20
ATOM     20  C   UNL A   1      39.272  19.183  25.460  1.00  0.00     0.261 C 
BRANCH  20  21
ATOM     21  O   UNL A   1      40.206  19.928  26.208  1.00  0.00    -0.460 OA
BRANCH  21  22
ATOM     22  C   UNL A   1      41.450  19.424  26.089  1.00  0.00     0.338 C 
ATOM     23  O   UNL A   1      41.802  18.286  25.852  1.00  0.00    -0.246 OA
BRANCH  22  24
ATOM     24  C   UNL A   1      42.368  20.466  26.491  1.00  0.00     0.060 A 
ATOM     25  C   UNL A   1      42.217  20.914  27.802  1.00  0.00     0.016 A 
ATOM     26  C   UNL A   1      42.874  21.240  25.437  1.00  0.00     0.016 A 
ATOM     27  C   UNL A   1      42.388  22.251  28.020  1.00  0.00     0.010 A 
ATOM     28  C   UNL A   1      42.949  22.584  25.630  1.00  0.00     0.010 A 
ATOM     29  C   UNL A   1      42.698  23.061  26.918  1.00  0.00    -0.014 A 
BRANCH  29  30
ATOM     30  C   UNL A   1      43.035  24.440  27.195  1.00  0.00     0.031 A 
ATOM     31  C   UNL A   1      41.722  25.222  27.351  1.00  0.00     0.074 A 
ATOM     32  C   UNL A   1      44.375  24.703  27.192  1.00  0.00     0.049 A 
ATOM     33  N   UNL A   1      41.474  26.463  27.096  1.00  0.00    -0.248 NA
ATOM     34  C   UNL A   1      40.463  24.511  27.756  1.00  0.00     0.031 C 
ATOM     35  C   UNL A   1      45.454  23.693  27.037  1.00  0.00     0.029 A 
ATOM     36  N   UNL A   1      45.108  25.857  27.308  1.00  0.00    -0.354 N 
ATOM     37  C   UNL A   1      40.162  26.724  27.539  1.00  0.00     0.074 A 
ATOM     38  C   UNL A   1      39.539  25.466  27.777  1.00  0.00     0.031 C 
ATOM     39  C   UNL A   1      46.667  24.287  26.974  1.00  0.00     0.029 A 
ATOM     40  C   UNL A   1      46.507  25.722  27.107  1.00  0.00     0.049 A 
ATOM     41  H   UNL A   1      44.690  26.723  27.517  1.00  0.00     0.167 HD
ATOM     42  C   UNL A   1      39.746  27.977  27.864  1.00  0.00     0.037 A 
ATOM     43  C   UNL A   1      47.446  26.716  27.009  1.00  0.00     0.037 A 
ATOM     44  C   UNL A   1      40.794  28.905  27.601  1.00  0.00     0.049 A 
ATOM     45  C   UNL A   1      46.713  27.940  27.359  1.00  0.00     0.074 A 
ATOM     46  C   UNL A   1      41.336  29.333  26.417  1.00  0.00     0.029 A 
ATOM     47  N   UNL A   1      41.691  29.116  28.623  1.00  0.00    -0.354 N 
ATOM     48  N   UNL A   1      46.325  28.248  28.561  1.00  0.00    -0.248 NA
ATOM     49  C   UNL A   1      46.258  28.820  26.276  1.00  0.00     0.031 C 
ATOM     50  C   UNL A   1      42.718  29.333  26.688  1.00  0.00     0.029 A 
ATOM     51  C   UNL A   1      42.941  29.194  28.063  1.00  0.00     0.049 A 
ATOM     52  H   UNL A   1      41.474  29.195  29.581  1.00  0.00     0.167 HD
ATOM     53  C   UNL A   1      45.306  29.135  28.313  1.00  0.00     0.074 A 
ATOM     54  C   UNL A   1      45.548  29.684  26.995  1.00  0.00     0.031 C 
ATOM     55  C   UNL A   1      44.093  28.945  28.898  1.00  0.00     0.037 A 
BRANCH  42  56
ATOM     56  C   UNL A   1      38.580  28.452  28.670  1.00  0.00     0.057 A 
ATOM     57  C   UNL A   1      37.819  29.517  28.143  1.00  0.00     0.134 A 
ATOM     58  C   UNL A   1      38.411  28.187  30.033  1.00  0.00     0.134 A 
ATOM     59  F   UNL A   1      37.869  29.820  26.836  1.00  0.00    -0.206 F 
ATOM     60  C   UNL A   1      37.062  30.363  28.951  1.00  0.00     0.040 A 
ATOM     61  C   UNL A   1      37.610  28.999  30.844  1.00  0.00     0.040 A 
ATOM     62  F   UNL A   1      39.083  27.205  30.650  1.00  0.00    -0.206 F 
ATOM     63  C   UNL A   1      36.974  30.119  30.313  1.00  0.00     0.006 A 
ENDBRANCH  42  56
BRANCH  43  64
ATOM     64  C   UNL A   1      48.886  26.896  26.595  1.00  0.00     0.057 A 
ATOM     65  C   UNL A   1      49.920  27.409  27.382  1.00  0.00     0.134 A 
ATOM     66  C   UNL A   1      49.314  26.459  25.309  1.00  0.00     0.134 A 
ATOM     67  F   UNL A   1      49.678  27.974  28.569  1.00  0.00    -0.206 F 
ATOM     68  C   UNL A   1      51.270  27.380  26.967  1.00  0.00     0.040 A 
ATOM     69  C   UNL A   1      50.648  26.380  24.902  1.00  0.00     0.040 A 
ATOM     70  F   UNL A   1      48.447  26.075  24.362  1.00  0.00    -0.206 F 
ATOM     71  C   UNL A   1      51.642  26.828  25.744  1.00  0.00     0.006 A 
ENDBRANCH  43  64
BRANCH  55  72
ATOM     72  C   UNL A   1      44.135  28.149  30.191  1.00  0.00     0.057 A 
ATOM     73  C   UNL A   1      44.854  28.640  31.290  1.00  0.00     0.134 A 
ATOM     74  C   UNL A   1      43.605  26.859  30.355  1.00  0.00     0.134 A 
ATOM     75  F   UNL A   1      45.373  29.876  31.253  1.00  0.00    -0.206 F 
ATOM     76  C   UNL A   1      45.066  27.884  32.453  1.00  0.00     0.040 A 
ATOM     77  C   UNL A   1      43.808  26.086  31.509  1.00  0.00     0.040 A 
ATOM     78  F   UNL A   1      42.864  26.299  29.402  1.00  0.00    -0.206 F 
ATOM     79  C   UNL A   1      44.552  26.597  32.562  1.00  0.00     0.006 A 
ENDBRANCH  55  72
ENDBRANCH  29  30
ENDBRANCH  22  24
ENDBRANCH  21  22
ENDBRANCH  20  21
ENDBRANCH  19  20
ENDBRANCH   1  19
TORSDOF 17
ENDMDL
MODEL 2
REMARK VINA RESULT:      -9.8      1.625      2.556
REMARK SMILES O=C(C[C@H](c1ccsc1)n1cccc1)OCCOCCOC(=O)c1ccc(-c2c3nc(c(-c4c(F)cccc4F)c4ccc([nH]4)c(-c4c(F)cccc4F)c4nc(c(-c5c(F)cccc5F)c5ccc2[nH]5)C=C4)C=C3)cc1
REMARK SMILES IDX 18 1 17 2 16 3 15 4 2 5 1 6 3 7 4 8 10 9 11 10 14 11 12 12
REMARK SMILES IDX 13 13 5 14 6 15 9 16 7 17 8 18 19 19 20 20 21 21 22 22 23 23
REMARK SMILES IDX 24 24 25 25 77 26 26 27 76 28 27 29 28 30 29 31 70 32 30 33
REMARK SMILES IDX 75 34 69 35 71 36 31 37 74 38 68 39 67 40 32 42 58 43 41 44
REMARK SMILES IDX 57 45 42 46 45 47 56 48 72 49 43 50 44 51 55 53 73 54 46 55
REMARK SMILES IDX 33 56 34 57 39 58 35 59 36 60 38 61 40 62 37 63 59 64 60 65
REMARK SMILES IDX 65 66 61 67 62 68 64 69 66 70 63 71 47 72 48 73 53 74 49 75
REMARK SMILES IDX 50 76 52 77 54 78 51 79
REMARK H PARENT 71 41 45 52
REMARK Flexibility Score: inf
ROOT
ATOM      1  O   UNL A   1      36.976  21.825  23.879  1.00  0.00    -0.374 OA
ENDROOT
BRANCH   1   2
ATOM      2  C   UNL A   1      36.435  23.133  23.706  1.00  0.00     0.202 C 
BRANCH   2   3
ATOM      3  C   UNL A   1      34.934  23.284  23.500  1.00  0.00     0.261 C 
BRANCH   3   4
ATOM      4  O   UNL A   1      34.538  24.159  22.436  1.00  0.00    -0.463 OA
BRANCH   4   5
ATOM      5  C   UNL A   1      33.813  25.290  22.582  1.00  0.00     0.308 C 
ATOM      6  O   UNL A   1      33.619  26.016  21.610  1.00  0.00    -0.252 OA
BRANCH   5   7
ATOM      7  C   UNL A   1      33.347  25.700  23.952  1.00  0.00     0.153 C 
BRANCH   7   8
ATOM      8  C   UNL A   1      31.845  25.630  24.119  1.00  0.00     0.128 C 
BRANCH   8   9
ATOM      9  N   UNL A   1      31.508  24.705  25.219  1.00  0.00    -0.346 N 
ATOM     10  C   UNL A   1      32.029  23.454  25.437  1.00  0.00     0.086 A 
ATOM     11  C   UNL A   1      30.377  24.847  26.000  1.00  0.00     0.086 A 
ATOM     12  C   UNL A   1      31.277  22.834  26.412  1.00  0.00     0.019 A 
ATOM     13  C   UNL A   1      30.228  23.711  26.763  1.00  0.00     0.019 A 
ENDBRANCH   8   9
BRANCH   8  14
ATOM     14  C   UNL A   1      31.254  27.007  24.185  1.00  0.00    -0.014 A 
ATOM     15  C   UNL A   1      31.798  28.128  24.892  1.00  0.00     0.017 A 
ATOM     16  C   UNL A   1      30.212  27.407  23.362  1.00  0.00     0.070 A 
ATOM     17  C   UNL A   1      31.188  29.313  24.548  1.00  0.00     0.065 A 
ATOM     18  S   UNL A   1      29.923  29.088  23.424  1.00  0.00    -0.152 S 
ENDBRANCH   8  14
ENDBRANCH   7   8
ENDBRANCH   5   7
ENDBRANCH   4   5
ENDBRANCH   3   4
ENDBRANCH   2   3
ENDBRANCH   1   2
BRANCH   1  19
ATOM     19  C   UNL A   1      37.381  21.386  25.180  1.00  0.00     0.202 C 
BRANCH  19  20
ATOM     20  C   UNL A   1      38.429  20.308  25.243  1.00  0.00     0.261 C 
BRANCH  20  21
ATOM     21  O   UNL A   1      39.439  20.713  26.139  1.00  0.00    -0.460 OA
BRANCH  21  22
ATOM     22  C   UNL A   1      40.554  19.970  25.998  1.00  0.00     0.338 C 
ATOM     23  O   UNL A   1      40.666  18.787  25.743  1.00  0.00    -0.246 OA
BRANCH  22  24
ATOM     24  C   UNL A   1      41.667  20.799  26.400  1.00  0.00     0.060 A 
ATOM     25  C   UNL A   1      41.725  21.093  27.761  1.00  0.00     0.016 A 
ATOM     26  C   UNL A   1      42.188  21.614  25.385  1.00  0.00     0.016 A 
ATOM     27  C   UNL A   1      42.138  22.349  28.103  1.00  0.00     0.010 A 
ATOM     28  C   UNL A   1      42.504  22.895  25.715  1.00  0.00     0.010 A 
ATOM     29  C   UNL A   1      42.466  23.236  27.068  1.00  0.00    -0.014 A 
BRANCH  29  30
ATOM     30  C   UNL A   1      43.054  24.500  27.453  1.00  0.00     0.031 A 
ATOM     31  C   UNL A   1      41.909  25.494  27.703  1.00  0.00     0.074 A 
ATOM     32  C   UNL A   1      44.420  24.512  27.443  1.00  0.00     0.049 A 
ATOM     33  N   UNL A   1      41.893  26.776  27.559  1.00  0.00    -0.248 NA
ATOM     34  C   UNL A   1      40.543  24.993  28.074  1.00  0.00     0.031 C 
ATOM     35  C   UNL A   1      45.292  23.339  27.180  1.00  0.00     0.029 A 
ATOM     36  N   UNL A   1      45.353  25.497  27.640  1.00  0.00    -0.354 N 
ATOM     37  C   UNL A   1      40.655  27.234  28.051  1.00  0.00     0.074 A 
ATOM     38  C   UNL A   1      39.811  26.097  28.196  1.00  0.00     0.031 C 
ATOM     39  C   UNL A   1      46.593  23.703  27.140  1.00  0.00     0.029 A 
ATOM     40  C   UNL A   1      46.703  25.125  27.397  1.00  0.00     0.049 A 
ATOM     41  H   UNL A   1      45.104  26.404  27.930  1.00  0.00     0.167 HD
ATOM     42  C   UNL A   1      40.479  28.509  28.491  1.00  0.00     0.037 A 
ATOM     43  C   UNL A   1      47.808  25.934  27.363  1.00  0.00     0.037 A 
ATOM     44  C   UNL A   1      41.679  29.248  28.283  1.00  0.00     0.049 A 
ATOM     45  C   UNL A   1      47.317  27.237  27.831  1.00  0.00     0.074 A 
ATOM     46  C   UNL A   1      42.284  29.670  27.128  1.00  0.00     0.029 A 
ATOM     47  N   UNL A   1      42.606  29.201  29.299  1.00  0.00    -0.354 N 
ATOM     48  N   UNL A   1      46.999  27.506  29.063  1.00  0.00    -0.248 NA
ATOM     49  C   UNL A   1      47.025  28.276  26.836  1.00  0.00     0.031 C 
ATOM     50  C   UNL A   1      43.645  29.394  27.367  1.00  0.00     0.029 A 
ATOM     51  C   UNL A   1      43.846  29.097  28.722  1.00  0.00     0.049 A 
ATOM     52  H   UNL A   1      42.414  29.235  30.265  1.00  0.00     0.167 HD
ATOM     53  C   UNL A   1      46.161  28.583  28.913  1.00  0.00     0.074 A 
ATOM     54  C   UNL A   1      46.492  29.191  27.641  1.00  0.00     0.031 C 
ATOM     55  C   UNL A   1      44.937  28.569  29.507  1.00  0.00     0.037 A 
BRANCH  42  56
ATOM     56  C   UNL A   1      39.427  29.119  29.359  1.00  0.00     0.057 A 
ATOM     57  C   UNL A   1      39.363  28.685  30.700  1.00  0.00     0.134 A 
ATOM     58  C   UNL A   1      38.299  29.786  28.870  1.00  0.00     0.134 A 
ATOM     59  F   UNL A   1      40.412  28.081  31.281  1.00  0.00    -0.206 F 
ATOM     60  C   UNL A   1      38.194  28.767  31.455  1.00  0.00     0.040 A 
ATOM     61  C   UNL A   1      37.138  29.922  29.639  1.00  0.00     0.040 A 
ATOM     62  F   UNL A   1      38.238  30.240  27.612  1.00  0.00    -0.206 F 
ATOM     63  C   UNL A   1      37.067  29.368  30.915  1.00  0.00     0.006 A 
ENDBRANCH  42  56
BRANCH  43  64
ATOM     64  C   UNL A   1      49.255  25.883  26.935  1.00  0.00     0.057 A 
ATOM     65  C   UNL A   1      49.739  25.976  25.628  1.00  0.00     0.134 A 
ATOM     66  C   UNL A   1      50.282  25.798  27.918  1.00  0.00     0.134 A 
ATOM     67  F   UNL A   1      48.916  25.943  24.576  1.00  0.00    -0.206 F 
ATOM     68  C   UNL A   1      51.118  26.090  25.341  1.00  0.00     0.040 A 
ATOM     69  C   UNL A   1      51.645  25.956  27.655  1.00  0.00     0.040 A 
ATOM     70  F   UNL A   1      50.016  25.555  29.209  1.00  0.00    -0.206 F 
ATOM     71  C   UNL A   1      52.071  26.122  26.355  1.00  0.00     0.006 A 
ENDBRANCH  43  64
BRANCH  55  72
ATOM     72  C   UNL A   1      44.839  27.669  30.727  1.00  0.00     0.057 A 
ATOM     73  C   UNL A   1      45.636  27.927  31.850  1.00  0.00     0.134 A 
ATOM     74  C   UNL A   1      44.086  26.485  30.790  1.00  0.00     0.134 A 
ATOM     75  F   UNL A   1      46.369  29.050  31.909  1.00  0.00    -0.206 F 
ATOM     76  C   UNL A   1      45.712  27.048  32.941  1.00  0.00     0.040 A 
ATOM     77  C   UNL A   1      44.151  25.591  31.871  1.00  0.00     0.040 A 
ATOM     78  F   UNL A   1      43.255  26.151  29.806  1.00  0.00    -0.206 F 
ATOM     79  C   UNL A   1      44.977  25.868  32.950  1.00  0.00     0.006 A 
ENDBRANCH  55  72
ENDBRANCH  29  30
ENDBRANCH  22  24
ENDBRANCH  21  22
ENDBRANCH  20  21
ENDBRANCH  19  20
ENDBRANCH   1  19
TORSDOF 17
ENDMDL
MODEL 3
REMARK VINA RESULT:      -9.7      1.395      2.322
REMARK SMILES O=C(C[C@H](c1ccsc1)n1cccc1)OCCOCCOC(=O)c1ccc(-c2c3nc(c(-c4c(F)cccc4F)c4ccc([nH]4)c(-c4c(F)cccc4F)c4nc(c(-c5c(F)cccc5F)c5ccc2[nH]5)C=C4)C=C3)cc1
REMARK SMILES IDX 18 1 17 2 16 3 15 4 2 5 1 6 3 7 4 8 10 9 11 10 14 11 12 12
REMARK SMILES IDX 13 13 5 14 6 15 9 16 7 17 8 18 19 19 20 20 21 21 22 22 23 23
REMARK SMILES IDX 24 24 25 25 77 26 26 27 76 28 27 29 28 30 29 31 70 32 30 33
REMARK SMILES IDX 75 34 69 35 71 36 31 37 74 38 68 39 67 40 32 42 58 43 41 44
REMARK SMILES IDX 57 45 42 46 45 47 56 48 72 49 43 50 44 51 55 53 73 54 46 55
REMARK SMILES IDX 33 56 34 57 39 58 35 59 36 60 38 61 40 62 37 63 59 64 60 65
REMARK SMILES IDX 65 66 61 67 62 68 64 69 66 70 63 71 47 72 48 73 53 74 49 75
REMARK SMILES IDX 50 76 52 77 54 78 51 79
REMARK H PARENT 71 41 45 52
REMARK Flexibility Score: inf
ROOT
ATOM      1  O   UNL A   1      37.436  20.496  24.580  1.00  0.00    -0.374 OA
ENDROOT
BRANCH   1   2
ATOM      2  C   UNL A   1      36.385  21.085  25.342  1.00  0.00     0.202 C 
BRANCH   2   3
ATOM      3  C   UNL A   1      36.633  22.426  26.021  1.00  0.00     0.261 C 
BRANCH   3   4
ATOM      4  O   UNL A   1      35.473  23.243  26.223  1.00  0.00    -0.463 OA
BRANCH   4   5
ATOM      5  C   UNL A   1      35.008  24.169  25.355  1.00  0.00     0.308 C 
ATOM      6  O   UNL A   1      35.598  24.357  24.294  1.00  0.00    -0.252 OA
BRANCH   5   7
ATOM      7  C   UNL A   1      33.842  25.034  25.749  1.00  0.00     0.153 C 
BRANCH   7   8
ATOM      8  C   UNL A   1      33.714  26.285  24.907  1.00  0.00     0.128 C 
BRANCH   8   9
ATOM      9  N   UNL A   1      32.892  26.000  23.715  1.00  0.00    -0.346 N 
ATOM     10  C   UNL A   1      32.827  26.739  22.560  1.00  0.00     0.086 A 
ATOM     11  C   UNL A   1      31.824  25.123  23.730  1.00  0.00     0.086 A 
ATOM     12  C   UNL A   1      31.769  26.277  21.806  1.00  0.00     0.019 A 
ATOM     13  C   UNL A   1      31.130  25.260  22.549  1.00  0.00     0.019 A 
ENDBRANCH   8   9
BRANCH   8  14
ATOM     14  C   UNL A   1      33.302  27.454  25.752  1.00  0.00    -0.014 A 
ATOM     15  C   UNL A   1      32.261  27.462  26.737  1.00  0.00     0.017 A 
ATOM     16  C   UNL A   1      34.056  28.616  25.830  1.00  0.00     0.070 A 
ATOM     17  C   UNL A   1      32.297  28.584  27.532  1.00  0.00     0.065 A 
ATOM     18  S   UNL A   1      33.536  29.664  27.071  1.00  0.00    -0.152 S 
ENDBRANCH   8  14
ENDBRANCH   7   8
ENDBRANCH   5   7
ENDBRANCH   4   5
ENDBRANCH   3   4
ENDBRANCH   2   3
ENDBRANCH   1   2
BRANCH   1  19
ATOM     19  C   UNL A   1      38.465  19.750  25.240  1.00  0.00     0.202 C 
BRANCH  19  20
ATOM     20  C   UNL A   1      39.664  20.519  25.725  1.00  0.00     0.261 C 
BRANCH  20  21
ATOM     21  O   UNL A   1      40.368  19.720  26.648  1.00  0.00    -0.460 OA
BRANCH  21  22
ATOM     22  C   UNL A   1      41.584  19.375  26.178  1.00  0.00     0.338 C 
ATOM     23  O   UNL A   1      41.952  18.327  25.686  1.00  0.00    -0.246 OA
BRANCH  22  24
ATOM     24  C   UNL A   1      42.492  20.441  26.536  1.00  0.00     0.060 A 
ATOM     25  C   UNL A   1      42.386  20.893  27.850  1.00  0.00     0.016 A 
ATOM     26  C   UNL A   1      42.934  21.221  25.458  1.00  0.00     0.016 A 
ATOM     27  C   UNL A   1      42.534  22.235  28.054  1.00  0.00     0.010 A 
ATOM     28  C   UNL A   1      42.984  22.567  25.641  1.00  0.00     0.010 A 
ATOM     29  C   UNL A   1      42.777  23.046  26.936  1.00  0.00    -0.014 A 
BRANCH  29  30
ATOM     30  C   UNL A   1      43.092  24.433  27.191  1.00  0.00     0.031 A 
ATOM     31  C   UNL A   1      41.766  25.193  27.360  1.00  0.00     0.074 A 
ATOM     32  C   UNL A   1      44.427  24.722  27.164  1.00  0.00     0.049 A 
ATOM     33  N   UNL A   1      41.491  26.425  27.095  1.00  0.00    -0.248 NA
ATOM     34  C   UNL A   1      40.529  24.462  27.793  1.00  0.00     0.031 C 
ATOM     35  C   UNL A   1      45.521  23.731  27.003  1.00  0.00     0.029 A 
ATOM     36  N   UNL A   1      45.139  25.891  27.254  1.00  0.00    -0.354 N 
ATOM     37  C   UNL A   1      40.181  26.667  27.556  1.00  0.00     0.074 A 
ATOM     38  C   UNL A   1      39.586  25.400  27.819  1.00  0.00     0.031 C 
ATOM     39  C   UNL A   1      46.722  24.347  26.913  1.00  0.00     0.029 A 
ATOM     40  C   UNL A   1      46.537  25.780  27.032  1.00  0.00     0.049 A 
ATOM     41  H   UNL A   1      44.708  26.752  27.460  1.00  0.00     0.167 HD
ATOM     42  C   UNL A   1      39.747  27.915  27.874  1.00  0.00     0.037 A 
ATOM     43  C   UNL A   1      47.455  26.791  26.908  1.00  0.00     0.037 A 
ATOM     44  C   UNL A   1      40.772  28.860  27.582  1.00  0.00     0.049 A 
ATOM     45  C   UNL A   1      46.704  28.004  27.255  1.00  0.00     0.074 A 
ATOM     46  C   UNL A   1      41.287  29.284  26.385  1.00  0.00     0.029 A 
ATOM     47  N   UNL A   1      41.681  29.100  28.587  1.00  0.00    -0.354 N 
ATOM     48  N   UNL A   1      46.330  28.319  28.460  1.00  0.00    -0.248 NA
ATOM     49  C   UNL A   1      46.215  28.862  26.170  1.00  0.00     0.031 C 
ATOM     50  C   UNL A   1      42.674  29.314  26.633  1.00  0.00     0.029 A 
ATOM     51  C   UNL A   1      42.921  29.196  28.007  1.00  0.00     0.049 A 
ATOM     52  H   UNL A   1      41.479  29.186  29.547  1.00  0.00     0.167 HD
ATOM     53  C   UNL A   1      45.291  29.184  28.218  1.00  0.00     0.074 A 
ATOM     54  C   UNL A   1      45.501  29.722  26.890  1.00  0.00     0.031 C 
ATOM     55  C   UNL A   1      44.091  28.978  28.825  1.00  0.00     0.037 A 
BRANCH  42  56
ATOM     56  C   UNL A   1      38.586  28.378  28.693  1.00  0.00     0.057 A 
ATOM     57  C   UNL A   1      37.806  29.433  28.174  1.00  0.00     0.134 A 
ATOM     58  C   UNL A   1      38.435  28.111  30.058  1.00  0.00     0.134 A 
ATOM     59  F   UNL A   1      37.837  29.736  26.866  1.00  0.00    -0.206 F 
ATOM     60  C   UNL A   1      37.049  30.272  28.990  1.00  0.00     0.040 A 
ATOM     61  C   UNL A   1      37.635  28.915  30.877  1.00  0.00     0.040 A 
ATOM     62  F   UNL A   1      39.125  27.138  30.667  1.00  0.00    -0.206 F 
ATOM     63  C   UNL A   1      36.980  30.027  30.353  1.00  0.00     0.006 A 
ENDBRANCH  42  56
BRANCH  43  64
ATOM     64  C   UNL A   1      48.885  26.994  26.468  1.00  0.00     0.057 A 
ATOM     65  C   UNL A   1      49.408  26.743  25.198  1.00  0.00     0.134 A 
ATOM     66  C   UNL A   1      49.830  27.557  27.372  1.00  0.00     0.134 A 
ATOM     67  F   UNL A   1      48.696  26.105  24.264  1.00  0.00    -0.206 F 
ATOM     68  C   UNL A   1      50.719  27.125  24.833  1.00  0.00     0.040 A 
ATOM     69  C   UNL A   1      51.111  27.984  27.014  1.00  0.00     0.040 A 
ATOM     70  F   UNL A   1      49.558  27.730  28.673  1.00  0.00    -0.206 F 
ATOM     71  C   UNL A   1      51.559  27.783  25.727  1.00  0.00     0.006 A 
ENDBRANCH  43  64
BRANCH  55  72
ATOM     72  C   UNL A   1      44.169  28.198  30.127  1.00  0.00     0.057 A 
ATOM     73  C   UNL A   1      44.910  28.707  31.202  1.00  0.00     0.134 A 
ATOM     74  C   UNL A   1      43.651  26.907  30.319  1.00  0.00     0.134 A 
ATOM     75  F   UNL A   1      45.420  29.947  31.137  1.00  0.00    -0.206 F 
ATOM     76  C   UNL A   1      45.154  27.967  32.368  1.00  0.00     0.040 A 
ATOM     77  C   UNL A   1      43.888  26.150  31.476  1.00  0.00     0.040 A 
ATOM     78  F   UNL A   1      42.892  26.331  29.390  1.00  0.00    -0.206 F 
ATOM     79  C   UNL A   1      44.653  26.678  32.505  1.00  0.00     0.006 A 
ENDBRANCH  55  72
ENDBRANCH  29  30
ENDBRANCH  22  24
ENDBRANCH  21  22
ENDBRANCH  20  21
ENDBRANCH  19  20
ENDBRANCH   1  19
TORSDOF 17
ENDMDL
