MODEL 1
REMARK VINA RESULT:     -11.6      0.000      0.000
REMARK SMILES O=C(C[C@H]1C[C@H]2CC[C@@H](C1)N2C(=O)c1c[nH]c(=O)[nH]1)OCCOCCOC(=O)c1ccc(-c2c3nc(c(-c4c(F)cccc4F)c4ccc([nH]4)c(-c4c(F)cccc4F)c4nc(c(-c5c(F)cccc5F)c5ccc2[nH]5)C=C4)C=C3)cc1
REMARK SMILES IDX 22 1 21 2 20 3 2 4 1 5 3 6 4 7 5 8 10 9 6 10 9 11 7 12 11 13
REMARK SMILES IDX 8 14 12 15 13 16 14 17 15 18 19 19 16 20 17 21 18 24 23 25
REMARK SMILES IDX 24 26 25 27 26 28 27 29 28 30 29 31 30 32 82 33 31 34 81 35
REMARK SMILES IDX 32 36 33 37 34 38 75 39 35 40 80 41 74 42 76 43 36 44 79 45
REMARK SMILES IDX 73 46 72 47 37 49 63 50 46 51 62 52 47 53 50 54 61 55 77 56
REMARK SMILES IDX 48 57 49 58 60 60 78 61 51 62 38 63 39 64 44 65 40 66 41 67
REMARK SMILES IDX 43 68 45 69 42 70 64 71 65 72 70 73 66 74 67 75 69 76 71 77
REMARK SMILES IDX 68 78 52 79 53 80 58 81 54 82 55 83 57 84 59 85 56 86
REMARK H PARENT 19 22 16 23 76 48 50 59
REMARK Flexibility Score: inf
ROOT
ATOM      1  C   UNL A   1      40.540  19.721  26.125  1.00  0.00     0.202 C 
ENDROOT
BRANCH   1   2
ATOM      2  C   UNL A   1      40.040  21.120  26.467  1.00  0.00     0.261 C 
BRANCH   2   3
ATOM      3  O   UNL A   1      38.859  21.470  25.731  1.00  0.00    -0.463 OA
BRANCH   3   4
ATOM      4  C   UNL A   1      38.220  22.654  25.716  1.00  0.00     0.306 C 
ATOM      5  O   UNL A   1      38.410  23.430  26.654  1.00  0.00    -0.252 OA
BRANCH   4   6
ATOM      6  C   UNL A   1      37.186  23.011  24.663  1.00  0.00     0.126 C 
BRANCH   6   7
ATOM      7  C   UNL A   1      36.083  22.004  24.270  1.00  0.00     0.004 C 
ATOM      8  C   UNL A   1      35.586  21.142  25.468  1.00  0.00     0.029 C 
ATOM      9  C   UNL A   1      34.854  22.687  23.590  1.00  0.00     0.029 C 
ATOM     10  C   UNL A   1      34.471  21.775  26.314  1.00  0.00     0.086 C 
ATOM     11  C   UNL A   1      33.741  23.124  24.572  1.00  0.00     0.086 C 
ATOM     12  C   UNL A   1      34.723  23.204  26.799  1.00  0.00     0.027 C 
ATOM     13  N   UNL A   1      33.382  21.975  25.393  1.00  0.00    -0.331 N 
ATOM     14  C   UNL A   1      34.271  24.102  25.630  1.00  0.00     0.027 C 
BRANCH  13  15
ATOM     15  C   UNL A   1      32.282  21.162  25.398  1.00  0.00     0.272 C 
ATOM     16  O   UNL A   1      31.144  21.557  25.643  1.00  0.00    -0.267 OA
BRANCH  15  17
ATOM     17  C   UNL A   1      32.504  19.752  25.059  1.00  0.00     0.125 A 
ATOM     18  C   UNL A   1      32.508  19.200  23.839  1.00  0.00     0.119 A 
ATOM     19  N   UNL A   1      32.820  18.796  25.990  1.00  0.00    -0.302 N 
ATOM     20  N   UNL A   1      32.805  17.867  23.977  1.00  0.00    -0.312 N 
ATOM     21  C   UNL A   1      33.013  17.578  25.336  1.00  0.00     0.323 A 
ATOM     22  H   UNL A   1      32.898  18.945  26.960  1.00  0.00     0.172 HD
ATOM     23  H   UNL A   1      32.864  17.218  23.241  1.00  0.00     0.171 HD
ATOM     24  O   UNL A   1      33.295  16.503  25.829  1.00  0.00    -0.248 OA
ENDBRANCH  15  17
ENDBRANCH  13  15
ENDBRANCH   6   7
ENDBRANCH   4   6
ENDBRANCH   3   4
ENDBRANCH   2   3
ENDBRANCH   1   2
BRANCH   1  25
ATOM     25  O   UNL A   1      41.880  19.718  25.634  1.00  0.00    -0.374 OA
BRANCH  25  26
ATOM     26  C   UNL A   1      42.784  20.597  26.308  1.00  0.00     0.202 C 
BRANCH  26  27
ATOM     27  C   UNL A   1      43.604  21.460  25.348  1.00  0.00     0.261 C 
BRANCH  27  28
ATOM     28  O   UNL A   1      42.898  22.677  25.065  1.00  0.00    -0.460 OA
BRANCH  28  29
ATOM     29  C   UNL A   1      43.650  23.803  25.061  1.00  0.00     0.338 C 
ATOM     30  O   UNL A   1      44.551  24.090  24.290  1.00  0.00    -0.246 OA
BRANCH  29  31
ATOM     31  C   UNL A   1      43.050  24.761  26.015  1.00  0.00     0.060 A 
ATOM     32  C   UNL A   1      43.524  26.081  26.009  1.00  0.00     0.016 A 
ATOM     33  C   UNL A   1      41.996  24.392  26.856  1.00  0.00     0.016 A 
ATOM     34  C   UNL A   1      42.966  27.027  26.865  1.00  0.00     0.010 A 
ATOM     35  C   UNL A   1      41.442  25.336  27.717  1.00  0.00     0.010 A 
ATOM     36  C   UNL A   1      41.948  26.646  27.746  1.00  0.00    -0.014 A 
BRANCH  36  37
ATOM     37  C   UNL A   1      41.557  27.539  28.855  1.00  0.00     0.031 A 
ATOM     38  C   UNL A   1      42.340  27.445  30.133  1.00  0.00     0.074 A 
ATOM     39  C   UNL A   1      40.529  28.395  28.734  1.00  0.00     0.049 A 
ATOM     40  N   UNL A   1      42.141  28.044  31.278  1.00  0.00    -0.248 NA
ATOM     41  C   UNL A   1      43.502  26.538  30.120  1.00  0.00     0.031 C 
ATOM     42  C   UNL A   1      39.725  28.588  27.528  1.00  0.00     0.029 A 
ATOM     43  N   UNL A   1      39.978  29.252  29.649  1.00  0.00    -0.354 N 
ATOM     44  C   UNL A   1      43.145  27.583  32.119  1.00  0.00     0.074 A 
ATOM     45  C   UNL A   1      43.929  26.628  31.368  1.00  0.00     0.031 C 
ATOM     46  C   UNL A   1      38.772  29.502  27.785  1.00  0.00     0.029 A 
ATOM     47  C   UNL A   1      38.881  29.927  29.178  1.00  0.00     0.049 A 
ATOM     48  H   UNL A   1      40.336  29.371  30.559  1.00  0.00     0.167 HD
ATOM     49  C   UNL A   1      43.395  27.933  33.401  1.00  0.00     0.037 A 
ATOM     50  C   UNL A   1      38.052  30.777  29.816  1.00  0.00     0.037 A 
ATOM     51  C   UNL A   1      42.604  28.878  34.138  1.00  0.00     0.049 A 
ATOM     52  C   UNL A   1      38.308  31.098  31.265  1.00  0.00     0.074 A 
ATOM     53  C   UNL A   1      42.766  29.311  35.441  1.00  0.00     0.029 A 
ATOM     54  N   UNL A   1      41.489  29.532  33.632  1.00  0.00    -0.354 N 
ATOM     55  N   UNL A   1      39.269  30.673  32.051  1.00  0.00    -0.248 NA
ATOM     56  C   UNL A   1      37.366  32.018  31.916  1.00  0.00     0.031 C 
ATOM     57  C   UNL A   1      41.725  30.196  35.738  1.00  0.00     0.029 A 
ATOM     58  C   UNL A   1      40.943  30.352  34.604  1.00  0.00     0.049 A 
ATOM     59  H   UNL A   1      41.138  29.427  32.719  1.00  0.00     0.167 HD
ATOM     60  C   UNL A   1      39.066  31.294  33.276  1.00  0.00     0.074 A 
ATOM     61  C   UNL A   1      37.895  32.135  33.126  1.00  0.00     0.031 C 
ATOM     62  C   UNL A   1      39.782  31.186  34.423  1.00  0.00     0.037 A 
BRANCH  49  63
ATOM     63  C   UNL A   1      44.557  27.270  34.080  1.00  0.00     0.057 A 
ATOM     64  C   UNL A   1      45.839  27.833  34.069  1.00  0.00     0.134 A 
ATOM     65  C   UNL A   1      44.390  26.055  34.755  1.00  0.00     0.134 A 
ATOM     66  F   UNL A   1      46.071  28.984  33.419  1.00  0.00    -0.206 F 
ATOM     67  C   UNL A   1      46.920  27.201  34.686  1.00  0.00     0.040 A 
ATOM     68  C   UNL A   1      45.456  25.426  35.399  1.00  0.00     0.040 A 
ATOM     69  F   UNL A   1      43.189  25.459  34.800  1.00  0.00    -0.206 F 
ATOM     70  C   UNL A   1      46.727  25.996  35.359  1.00  0.00     0.006 A 
ENDBRANCH  49  63
BRANCH  50  71
ATOM     71  C   UNL A   1      36.902  31.381  29.096  1.00  0.00     0.057 A 
ATOM     72  C   UNL A   1      35.760  30.628  28.797  1.00  0.00     0.134 A 
ATOM     73  C   UNL A   1      36.922  32.715  28.673  1.00  0.00     0.134 A 
ATOM     74  F   UNL A   1      35.689  29.337  29.157  1.00  0.00    -0.206 F 
ATOM     75  C   UNL A   1      34.687  31.175  28.091  1.00  0.00     0.040 A 
ATOM     76  C   UNL A   1      35.846  33.281  27.987  1.00  0.00     0.040 A 
ATOM     77  F   UNL A   1      37.986  33.490  28.929  1.00  0.00    -0.206 F 
ATOM     78  C   UNL A   1      34.727  32.507  27.688  1.00  0.00     0.006 A 
ENDBRANCH  50  71
BRANCH  62  79
ATOM     79  C   UNL A   1      39.346  32.026  35.587  1.00  0.00     0.057 A 
ATOM     80  C   UNL A   1      38.453  31.547  36.553  1.00  0.00     0.134 A 
ATOM     81  C   UNL A   1      39.870  33.312  35.769  1.00  0.00     0.134 A 
ATOM     82  F   UNL A   1      37.909  30.327  36.430  1.00  0.00    -0.206 F 
ATOM     83  C   UNL A   1      38.079  32.327  37.648  1.00  0.00     0.040 A 
ATOM     84  C   UNL A   1      39.525  34.091  36.874  1.00  0.00     0.040 A 
ATOM     85  F   UNL A   1      40.740  33.825  34.885  1.00  0.00    -0.206 F 
ATOM     86  C   UNL A   1      38.621  33.601  37.814  1.00  0.00     0.006 A 
ENDBRANCH  62  79
ENDBRANCH  36  37
ENDBRANCH  29  31
ENDBRANCH  28  29
ENDBRANCH  27  28
ENDBRANCH  26  27
ENDBRANCH  25  26
ENDBRANCH   1  25
TORSDOF 17
ENDMDL
MODEL 2
REMARK VINA RESULT:     -11.2      1.650      2.441
REMARK SMILES O=C(C[C@H]1C[C@H]2CC[C@@H](C1)N2C(=O)c1c[nH]c(=O)[nH]1)OCCOCCOC(=O)c1ccc(-c2c3nc(c(-c4c(F)cccc4F)c4ccc([nH]4)c(-c4c(F)cccc4F)c4nc(c(-c5c(F)cccc5F)c5ccc2[nH]5)C=C4)C=C3)cc1
REMARK SMILES IDX 22 1 21 2 20 3 2 4 1 5 3 6 4 7 5 8 10 9 6 10 9 11 7 12 11 13
REMARK SMILES IDX 8 14 12 15 13 16 14 17 15 18 19 19 16 20 17 21 18 24 23 25
REMARK SMILES IDX 24 26 25 27 26 28 27 29 28 30 29 31 30 32 82 33 31 34 81 35
REMARK SMILES IDX 32 36 33 37 34 38 75 39 35 40 80 41 74 42 76 43 36 44 79 45
REMARK SMILES IDX 73 46 72 47 37 49 63 50 46 51 62 52 47 53 50 54 61 55 77 56
REMARK SMILES IDX 48 57 49 58 60 60 78 61 51 62 38 63 39 64 44 65 40 66 41 67
REMARK SMILES IDX 43 68 45 69 42 70 64 71 65 72 70 73 66 74 67 75 69 76 71 77
REMARK SMILES IDX 68 78 52 79 53 80 58 81 54 82 55 83 57 84 59 85 56 86
REMARK H PARENT 19 22 16 23 76 48 50 59
REMARK Flexibility Score: inf
ROOT
ATOM      1  C   UNL A   1      42.398  19.371  26.179  1.00  0.00     0.202 C 
ENDROOT
BRANCH   1   2
ATOM      2  C   UNL A   1      41.478  20.379  26.858  1.00  0.00     0.261 C 
BRANCH   2   3
ATOM      3  O   UNL A   1      40.243  20.552  26.149  1.00  0.00    -0.463 OA
BRANCH   3   4
ATOM      4  C   UNL A   1      39.458  21.644  26.117  1.00  0.00     0.306 C 
ATOM      5  O   UNL A   1      39.863  22.668  26.671  1.00  0.00    -0.252 OA
BRANCH   4   6
ATOM      6  C   UNL A   1      38.053  21.624  25.542  1.00  0.00     0.126 C 
BRANCH   6   7
ATOM      7  C   UNL A   1      37.461  22.880  24.867  1.00  0.00     0.004 C 
ATOM      8  C   UNL A   1      36.574  22.551  23.630  1.00  0.00     0.029 C 
ATOM      9  C   UNL A   1      36.644  23.771  25.856  1.00  0.00     0.029 C 
ATOM     10  C   UNL A   1      35.104  22.233  23.943  1.00  0.00     0.086 C 
ATOM     11  C   UNL A   1      35.138  23.424  25.935  1.00  0.00     0.086 C 
ATOM     12  C   UNL A   1      34.859  21.182  25.027  1.00  0.00     0.027 C 
ATOM     13  N   UNL A   1      34.601  23.422  24.580  1.00  0.00    -0.331 N 
ATOM     14  C   UNL A   1      34.914  21.964  26.354  1.00  0.00     0.027 C 
BRANCH  13  15
ATOM     15  C   UNL A   1      33.784  24.298  23.919  1.00  0.00     0.272 C 
ATOM     16  O   UNL A   1      34.127  24.934  22.925  1.00  0.00    -0.267 OA
BRANCH  15  17
ATOM     17  C   UNL A   1      32.417  24.440  24.435  1.00  0.00     0.125 A 
ATOM     18  C   UNL A   1      31.366  23.652  24.179  1.00  0.00     0.119 A 
ATOM     19  N   UNL A   1      32.053  25.401  25.343  1.00  0.00    -0.302 N 
ATOM     20  N   UNL A   1      30.299  24.118  24.906  1.00  0.00    -0.312 N 
ATOM     21  C   UNL A   1      30.704  25.230  25.662  1.00  0.00     0.323 A 
ATOM     22  H   UNL A   1      32.645  26.096  25.710  1.00  0.00     0.172 HD
ATOM     23  H   UNL A   1      29.393  23.732  24.900  1.00  0.00     0.171 HD
ATOM     24  O   UNL A   1      30.028  25.896  26.421  1.00  0.00    -0.248 OA
ENDBRANCH  15  17
ENDBRANCH  13  15
ENDBRANCH   6   7
ENDBRANCH   4   6
ENDBRANCH   3   4
ENDBRANCH   2   3
ENDBRANCH   1   2
BRANCH   1  25
ATOM     25  O   UNL A   1      43.136  19.936  25.097  1.00  0.00    -0.374 OA
BRANCH  25  26
ATOM     26  C   UNL A   1      44.133  20.892  25.466  1.00  0.00     0.202 C 
BRANCH  26  27
ATOM     27  C   UNL A   1      44.206  22.079  24.503  1.00  0.00     0.261 C 
BRANCH  27  28
ATOM     28  O   UNL A   1      43.514  23.203  25.065  1.00  0.00    -0.460 OA
BRANCH  28  29
ATOM     29  C   UNL A   1      44.259  24.319  25.244  1.00  0.00     0.338 C 
ATOM     30  O   UNL A   1      45.243  24.664  24.612  1.00  0.00    -0.246 OA
BRANCH  29  31
ATOM     31  C   UNL A   1      43.548  25.198  26.199  1.00  0.00     0.060 A 
ATOM     32  C   UNL A   1      43.762  26.581  26.106  1.00  0.00     0.016 A 
ATOM     33  C   UNL A   1      42.637  24.684  27.127  1.00  0.00     0.016 A 
ATOM     34  C   UNL A   1      43.089  27.451  26.960  1.00  0.00     0.010 A 
ATOM     35  C   UNL A   1      41.969  25.552  27.987  1.00  0.00     0.010 A 
ATOM     36  C   UNL A   1      42.218  26.933  27.926  1.00  0.00    -0.014 A 
BRANCH  36  37
ATOM     37  C   UNL A   1      41.735  27.796  29.024  1.00  0.00     0.031 A 
ATOM     38  C   UNL A   1      42.469  27.734  30.332  1.00  0.00     0.074 A 
ATOM     39  C   UNL A   1      40.668  28.596  28.865  1.00  0.00     0.049 A 
ATOM     40  N   UNL A   1      42.192  28.313  31.470  1.00  0.00    -0.248 NA
ATOM     41  C   UNL A   1      43.678  26.891  30.361  1.00  0.00     0.031 C 
ATOM     42  C   UNL A   1      39.904  28.755  27.629  1.00  0.00     0.029 A 
ATOM     43  N   UNL A   1      40.035  29.415  29.762  1.00  0.00    -0.354 N 
ATOM     44  C   UNL A   1      43.184  27.900  32.349  1.00  0.00     0.074 A 
ATOM     45  C   UNL A   1      44.049  26.995  31.627  1.00  0.00     0.031 C 
ATOM     46  C   UNL A   1      38.894  29.614  27.850  1.00  0.00     0.029 A 
ATOM     47  C   UNL A   1      38.923  30.034  29.250  1.00  0.00     0.049 A 
ATOM     48  H   UNL A   1      40.348  29.546  30.686  1.00  0.00     0.167 HD
ATOM     49  C   UNL A   1      43.363  28.254  33.642  1.00  0.00     0.037 A 
ATOM     50  C   UNL A   1      38.023  30.832  29.858  1.00  0.00     0.037 A 
ATOM     51  C   UNL A   1      42.492  29.149  34.352  1.00  0.00     0.049 A 
ATOM     52  C   UNL A   1      38.203  31.155  31.318  1.00  0.00     0.074 A 
ATOM     53  C   UNL A   1      42.578  29.580  35.663  1.00  0.00     0.029 A 
ATOM     54  N   UNL A   1      41.365  29.745  33.805  1.00  0.00    -0.354 N 
ATOM     55  N   UNL A   1      39.152  30.777  32.140  1.00  0.00    -0.248 NA
ATOM     56  C   UNL A   1      37.186  32.019  31.935  1.00  0.00     0.031 C 
ATOM     57  C   UNL A   1      41.479  30.405  35.922  1.00  0.00     0.029 A 
ATOM     58  C   UNL A   1      40.736  30.528  34.757  1.00  0.00     0.049 A 
ATOM     59  H   UNL A   1      41.058  29.629  32.877  1.00  0.00     0.167 HD
ATOM     60  C   UNL A   1      38.866  31.378  33.359  1.00  0.00     0.074 A 
ATOM     61  C   UNL A   1      37.658  32.155  33.166  1.00  0.00     0.031 C 
ATOM     62  C   UNL A   1      39.540  31.299  34.534  1.00  0.00     0.037 A 
BRANCH  49  63
ATOM     63  C   UNL A   1      44.530  27.649  34.365  1.00  0.00     0.057 A 
ATOM     64  C   UNL A   1      45.779  28.281  34.409  1.00  0.00     0.134 A 
ATOM     65  C   UNL A   1      44.402  26.422  35.027  1.00  0.00     0.134 A 
ATOM     66  F   UNL A   1      45.975  29.447  33.776  1.00  0.00    -0.206 F 
ATOM     67  C   UNL A   1      46.867  27.703  35.067  1.00  0.00     0.040 A 
ATOM     68  C   UNL A   1      45.474  25.847  35.710  1.00  0.00     0.040 A 
ATOM     69  F   UNL A   1      43.234  25.761  35.019  1.00  0.00    -0.206 F 
ATOM     70  C   UNL A   1      46.713  26.484  35.725  1.00  0.00     0.006 A 
ENDBRANCH  49  63
BRANCH  50  71
ATOM     71  C   UNL A   1      36.872  31.379  29.094  1.00  0.00     0.057 A 
ATOM     72  C   UNL A   1      36.851  32.714  28.675  1.00  0.00     0.134 A 
ATOM     73  C   UNL A   1      35.760  30.589  28.782  1.00  0.00     0.134 A 
ATOM     74  F   UNL A   1      37.878  33.528  28.963  1.00  0.00    -0.206 F 
ATOM     75  C   UNL A   1      35.760  33.248  27.987  1.00  0.00     0.040 A 
ATOM     76  C   UNL A   1      34.672  31.103  28.073  1.00  0.00     0.040 A 
ATOM     77  F   UNL A   1      35.718  29.300  29.154  1.00  0.00    -0.206 F 
ATOM     78  C   UNL A   1      34.668  32.440  27.680  1.00  0.00     0.006 A 
ENDBRANCH  50  71
BRANCH  62  79
ATOM     79  C   UNL A   1      39.013  32.105  35.683  1.00  0.00     0.057 A 
ATOM     80  C   UNL A   1      38.203  31.539  36.676  1.00  0.00     0.134 A 
ATOM     81  C   UNL A   1      39.364  33.454  35.824  1.00  0.00     0.134 A 
ATOM     82  F   UNL A   1      37.823  30.255  36.592  1.00  0.00    -0.206 F 
ATOM     83  C   UNL A   1      37.743  32.292  37.757  1.00  0.00     0.040 A 
ATOM     84  C   UNL A   1      38.934  34.210  36.915  1.00  0.00     0.040 A 
ATOM     85  F   UNL A   1      40.147  34.053  34.914  1.00  0.00    -0.206 F 
ATOM     86  C   UNL A   1      38.115  33.630  37.882  1.00  0.00     0.006 A 
ENDBRANCH  62  79
ENDBRANCH  36  37
ENDBRANCH  29  31
ENDBRANCH  28  29
ENDBRANCH  27  28
ENDBRANCH  26  27
ENDBRANCH  25  26
ENDBRANCH   1  25
TORSDOF 17
ENDMDL
MODEL 3
REMARK VINA RESULT:     -11.2      5.343     10.302
REMARK SMILES O=C(C[C@H]1C[C@H]2CC[C@@H](C1)N2C(=O)c1c[nH]c(=O)[nH]1)OCCOCCOC(=O)c1ccc(-c2c3nc(c(-c4c(F)cccc4F)c4ccc([nH]4)c(-c4c(F)cccc4F)c4nc(c(-c5c(F)cccc5F)c5ccc2[nH]5)C=C4)C=C3)cc1
REMARK SMILES IDX 22 1 21 2 20 3 2 4 1 5 3 6 4 7 5 8 10 9 6 10 9 11 7 12 11 13
REMARK SMILES IDX 8 14 12 15 13 16 14 17 15 18 19 19 16 20 17 21 18 24 23 25
REMARK SMILES IDX 24 26 25 27 26 28 27 29 28 30 29 31 30 32 82 33 31 34 81 35
REMARK SMILES IDX 32 36 33 37 34 38 75 39 35 40 80 41 74 42 76 43 36 44 79 45
REMARK SMILES IDX 73 46 72 47 37 49 63 50 46 51 62 52 47 53 50 54 61 55 77 56
REMARK SMILES IDX 48 57 49 58 60 60 78 61 51 62 38 63 39 64 44 65 40 66 41 67
REMARK SMILES IDX 43 68 45 69 42 70 64 71 65 72 70 73 66 74 67 75 69 76 71 77
REMARK SMILES IDX 68 78 52 79 53 80 58 81 54 82 55 83 57 84 59 85 56 86
REMARK H PARENT 19 22 16 23 76 48 50 59
REMARK Flexibility Score: inf
ROOT
ATOM      1  C   UNL A   1      34.052  33.495  28.455  1.00  0.00     0.202 C 
ENDROOT
BRANCH   1   2
ATOM      2  C   UNL A   1      34.980  32.379  27.990  1.00  0.00     0.261 C 
BRANCH   2   3
ATOM      3  O   UNL A   1      34.259  31.211  27.573  1.00  0.00    -0.463 OA
BRANCH   3   4
ATOM      4  C   UNL A   1      34.703  29.942  27.528  1.00  0.00     0.306 C 
ATOM      5  O   UNL A   1      35.628  29.622  28.277  1.00  0.00    -0.252 OA
BRANCH   4   6
ATOM      6  C   UNL A   1      34.199  28.935  26.508  1.00  0.00     0.126 C 
BRANCH   6   7
ATOM      7  C   UNL A   1      33.073  29.311  25.522  1.00  0.00     0.004 C 
ATOM      8  C   UNL A   1      33.475  29.117  24.029  1.00  0.00     0.029 C 
ATOM      9  C   UNL A   1      31.744  28.536  25.795  1.00  0.00     0.029 C 
ATOM     10  C   UNL A   1      33.262  27.702  23.471  1.00  0.00     0.086 C 
ATOM     11  C   UNL A   1      31.614  27.199  25.027  1.00  0.00     0.086 C 
ATOM     12  C   UNL A   1      33.848  26.556  24.298  1.00  0.00     0.027 C 
ATOM     13  N   UNL A   1      31.849  27.463  23.612  1.00  0.00    -0.331 N 
ATOM     14  C   UNL A   1      32.770  26.242  25.354  1.00  0.00     0.027 C 
BRANCH  13  15
ATOM     15  C   UNL A   1      31.004  27.508  22.538  1.00  0.00     0.272 C 
ATOM     16  O   UNL A   1      31.059  26.723  21.594  1.00  0.00    -0.267 OA
BRANCH  15  17
ATOM     17  C   UNL A   1      29.967  28.546  22.560  1.00  0.00     0.125 A 
ATOM     18  C   UNL A   1      30.035  29.775  22.034  1.00  0.00     0.119 A 
ATOM     19  N   UNL A   1      28.716  28.347  23.086  1.00  0.00    -0.302 N 
ATOM     20  N   UNL A   1      28.826  30.392  22.239  1.00  0.00    -0.312 N 
ATOM     21  C   UNL A   1      27.962  29.508  22.905  1.00  0.00     0.323 A 
ATOM     22  H   UNL A   1      28.401  27.521  23.519  1.00  0.00     0.172 HD
ATOM     23  H   UNL A   1      28.601  31.310  21.963  1.00  0.00     0.171 HD
ATOM     24  O   UNL A   1      26.814  29.713  23.248  1.00  0.00    -0.248 OA
ENDBRANCH  15  17
ENDBRANCH  13  15
ENDBRANCH   6   7
ENDBRANCH   4   6
ENDBRANCH   3   4
ENDBRANCH   2   3
ENDBRANCH   1   2
BRANCH   1  25
ATOM     25  O   UNL A   1      34.682  34.393  29.368  1.00  0.00    -0.374 OA
BRANCH  25  26
ATOM     26  C   UNL A   1      33.956  34.658  30.570  1.00  0.00     0.202 C 
BRANCH  26  27
ATOM     27  C   UNL A   1      34.713  34.233  31.829  1.00  0.00     0.261 C 
BRANCH  27  28
ATOM     28  O   UNL A   1      35.142  32.870  31.702  1.00  0.00    -0.460 OA
BRANCH  28  29
ATOM     29  C   UNL A   1      36.064  32.459  32.604  1.00  0.00     0.338 C 
ATOM     30  O   UNL A   1      35.979  32.496  33.820  1.00  0.00    -0.246 OA
BRANCH  29  31
ATOM     31  C   UNL A   1      37.125  31.728  31.877  1.00  0.00     0.060 A 
ATOM     32  C   UNL A   1      37.983  30.904  32.620  1.00  0.00     0.016 A 
ATOM     33  C   UNL A   1      37.238  31.795  30.486  1.00  0.00     0.016 A 
ATOM     34  C   UNL A   1      38.975  30.169  31.976  1.00  0.00     0.010 A 
ATOM     35  C   UNL A   1      38.235  31.066  29.841  1.00  0.00     0.010 A 
ATOM     36  C   UNL A   1      39.125  30.277  30.588  1.00  0.00    -0.014 A 
BRANCH  36  37
ATOM     37  C   UNL A   1      40.340  29.755  29.933  1.00  0.00     0.031 A 
ATOM     38  C   UNL A   1      41.485  30.705  29.729  1.00  0.00     0.074 A 
ATOM     39  C   UNL A   1      40.416  28.480  29.518  1.00  0.00     0.049 A 
ATOM     40  N   UNL A   1      42.616  30.524  29.100  1.00  0.00    -0.248 NA
ATOM     41  C   UNL A   1      41.323  32.052  30.306  1.00  0.00     0.031 C 
ATOM     42  C   UNL A   1      39.377  27.467  29.694  1.00  0.00     0.029 A 
ATOM     43  N   UNL A   1      41.415  27.826  28.845  1.00  0.00    -0.354 N 
ATOM     44  C   UNL A   1      43.295  31.731  29.200  1.00  0.00     0.074 A 
ATOM     45  C   UNL A   1      42.438  32.648  29.916  1.00  0.00     0.031 C 
ATOM     46  C   UNL A   1      39.790  26.318  29.131  1.00  0.00     0.029 A 
ATOM     47  C   UNL A   1      41.104  26.528  28.527  1.00  0.00     0.049 A 
ATOM     48  H   UNL A   1      42.273  28.248  28.612  1.00  0.00     0.167 HD
ATOM     49  C   UNL A   1      44.529  32.042  28.742  1.00  0.00     0.037 A 
ATOM     50  C   UNL A   1      41.801  25.625  27.810  1.00  0.00     0.037 A 
ATOM     51  C   UNL A   1      45.369  31.123  28.025  1.00  0.00     0.049 A 
ATOM     52  C   UNL A   1      43.143  26.017  27.249  1.00  0.00     0.074 A 
ATOM     53  C   UNL A   1      46.638  31.329  27.517  1.00  0.00     0.029 A 
ATOM     54  N   UNL A   1      45.013  29.820  27.707  1.00  0.00    -0.354 N 
ATOM     55  N   UNL A   1      43.788  27.154  27.361  1.00  0.00    -0.248 NA
ATOM     56  C   UNL A   1      43.855  25.000  26.463  1.00  0.00     0.031 C 
ATOM     57  C   UNL A   1      47.035  30.163  26.854  1.00  0.00     0.029 A 
ATOM     58  C   UNL A   1      46.033  29.215  26.994  1.00  0.00     0.049 A 
ATOM     59  H   UNL A   1      44.163  29.390  27.952  1.00  0.00     0.167 HD
ATOM     60  C   UNL A   1      44.991  26.980  26.688  1.00  0.00     0.074 A 
ATOM     61  C   UNL A   1      44.990  25.623  26.179  1.00  0.00     0.031 C 
ATOM     62  C   UNL A   1      46.009  27.859  26.508  1.00  0.00     0.037 A 
BRANCH  49  63
ATOM     63  C   UNL A   1      45.022  33.437  28.989  1.00  0.00     0.057 A 
ATOM     64  C   UNL A   1      45.759  33.769  30.133  1.00  0.00     0.134 A 
ATOM     65  C   UNL A   1      44.758  34.460  28.071  1.00  0.00     0.134 A 
ATOM     66  F   UNL A   1      46.025  32.839  31.064  1.00  0.00    -0.206 F 
ATOM     67  C   UNL A   1      46.197  35.074  30.367  1.00  0.00     0.040 A 
ATOM     68  C   UNL A   1      45.214  35.763  28.280  1.00  0.00     0.040 A 
ATOM     69  F   UNL A   1      44.053  34.212  26.957  1.00  0.00    -0.206 F 
ATOM     70  C   UNL A   1      45.929  36.073  29.434  1.00  0.00     0.006 A 
ENDBRANCH  49  63
BRANCH  50  71
ATOM     71  C   UNL A   1      41.247  24.267  27.576  1.00  0.00     0.057 A 
ATOM     72  C   UNL A   1      40.228  24.053  26.641  1.00  0.00     0.134 A 
ATOM     73  C   UNL A   1      41.707  23.156  28.292  1.00  0.00     0.134 A 
ATOM     74  F   UNL A   1      39.730  25.082  25.938  1.00  0.00    -0.206 F 
ATOM     75  C   UNL A   1      39.675  22.787  26.437  1.00  0.00     0.040 A 
ATOM     76  C   UNL A   1      41.180  21.880  28.081  1.00  0.00     0.040 A 
ATOM     77  F   UNL A   1      42.683  23.293  29.202  1.00  0.00    -0.206 F 
ATOM     78  C   UNL A   1      40.155  21.695  27.155  1.00  0.00     0.006 A 
ENDBRANCH  50  71
BRANCH  62  79
ATOM     79  C   UNL A   1      47.218  27.367  25.769  1.00  0.00     0.057 A 
ATOM     80  C   UNL A   1      47.377  27.566  24.392  1.00  0.00     0.134 A 
ATOM     81  C   UNL A   1      48.260  26.732  26.457  1.00  0.00     0.134 A 
ATOM     82  F   UNL A   1      46.410  28.159  23.676  1.00  0.00    -0.206 F 
ATOM     83  C   UNL A   1      48.521  27.131  23.722  1.00  0.00     0.040 A 
ATOM     84  C   UNL A   1      49.421  26.317  25.803  1.00  0.00     0.040 A 
ATOM     85  F   UNL A   1      48.175  26.522  27.779  1.00  0.00    -0.206 F 
ATOM     86  C   UNL A   1      49.550  26.511  24.429  1.00  0.00     0.006 A 
ENDBRANCH  62  79
ENDBRANCH  36  37
ENDBRANCH  29  31
ENDBRANCH  28  29
ENDBRANCH  27  28
ENDBRANCH  26  27
ENDBRANCH  25  26
ENDBRANCH   1  25
TORSDOF 17
ENDMDL
