MODEL 1
REMARK VINA RESULT:     -11.4      0.000      0.000
REMARK SMILES CCn1ncc(NC(=O)[C@@H]2CCCC[C@@H]2C(=O)OCCOCCOC(=O)c2ccc(-c3c4nc(c(-c5c(F)cccc5F)c5ccc([nH]5)c(-c5c(F)cccc5F)c5nc(c(-c6c(F)cccc6F)c6ccc3[nH]6)C=C5)C=C4)cc2)c1C(=O)Nc1cnn(C)c1C
REMARK SMILES IDX 20 1 19 2 18 3 16 4 17 5 15 6 10 7 11 8 12 9 14 10 13 11
REMARK SMILES IDX 8 12 7 13 9 15 6 16 3 17 4 18 81 19 5 20 2 21 1 22 82 23
REMARK SMILES IDX 83 24 84 25 85 27 86 28 90 29 87 30 88 31 91 32 89 33 21 34
REMARK SMILES IDX 22 35 23 36 24 37 25 38 26 39 27 40 28 41 80 42 29 43 79 44
REMARK SMILES IDX 30 45 31 46 32 47 73 48 33 49 78 50 72 51 74 52 34 53 77 54
REMARK SMILES IDX 71 55 70 56 35 58 61 59 44 60 60 61 45 62 48 63 59 64 75 65
REMARK SMILES IDX 46 66 47 67 58 69 76 70 49 71 36 72 37 73 42 74 38 75 39 76
REMARK SMILES IDX 41 77 43 78 40 79 62 80 63 81 68 82 64 83 65 84 67 85 69 86
REMARK SMILES IDX 66 87 50 88 51 89 56 90 52 91 53 92 55 93 57 94 54 95
REMARK H PARENT 7 14 84 26 74 57 48 68
REMARK Flexibility Score: inf
ROOT
ATOM      1  C   UNL A   1      32.179  30.601  27.061  1.00  0.00     0.202 C 
ENDROOT
BRANCH   1   2
ATOM      2  C   UNL A   1      31.860  30.008  25.683  1.00  0.00     0.261 C 
BRANCH   2   3
ATOM      3  O   UNL A   1      31.591  28.604  25.661  1.00  0.00    -0.463 OA
BRANCH   3   4
ATOM      4  C   UNL A   1      32.386  27.946  24.780  1.00  0.00     0.309 C 
ATOM      5  O   UNL A   1      33.480  28.369  24.425  1.00  0.00    -0.252 OA
BRANCH   4   6
ATOM      6  C   UNL A   1      31.777  26.634  24.298  1.00  0.00     0.111 C 
ATOM      7  C   UNL A   1      31.815  26.584  22.744  1.00  0.00     0.093 C 
ATOM      8  C   UNL A   1      31.066  27.816  22.202  1.00  0.00     0.014 C 
ATOM      9  C   UNL A   1      29.634  27.892  22.730  1.00  0.00     0.001 C 
ATOM     10  C   UNL A   1      30.317  26.496  24.746  1.00  0.00     0.016 C 
ATOM     11  C   UNL A   1      29.459  27.645  24.224  1.00  0.00     0.001 C 
BRANCH   7  12
ATOM     12  C   UNL A   1      33.248  26.306  22.257  1.00  0.00     0.228 C 
ATOM     13  N   UNL A   1      33.899  25.122  22.412  1.00  0.00    -0.322 N 
ATOM     14  H   UNL A   1      34.795  25.108  22.002  1.00  0.00     0.170 HD
ATOM     15  O   UNL A   1      33.895  27.204  21.700  1.00  0.00    -0.274 OA
BRANCH  13  16
ATOM     16  C   UNL A   1      33.557  23.934  23.028  1.00  0.00     0.092 A 
ATOM     17  N   UNL A   1      32.749  22.457  24.380  1.00  0.00    -0.258 N 
ATOM     18  N   UNL A   1      32.575  21.900  23.157  1.00  0.00    -0.178 NA
ATOM     19  C   UNL A   1      33.669  23.495  24.354  1.00  0.00     0.150 A 
ATOM     20  C   UNL A   1      33.027  22.833  22.328  1.00  0.00     0.162 A 
BRANCH  17  21
ATOM     21  C   UNL A   1      31.826  21.996  25.399  1.00  0.00     0.142 C 
ATOM     22  C   UNL A   1      30.913  23.073  25.965  1.00  0.00     0.029 C 
ENDBRANCH  17  21
BRANCH  19  23
ATOM     23  C   UNL A   1      34.544  24.077  25.367  1.00  0.00     0.276 C 
ATOM     24  O   UNL A   1      34.416  25.252  25.722  1.00  0.00    -0.267 OA
ATOM     25  N   UNL A   1      35.325  23.281  26.168  1.00  0.00    -0.318 N 
ATOM     26  H   UNL A   1      35.073  23.241  27.119  1.00  0.00     0.170 HD
BRANCH  25  27
ATOM     27  C   UNL A   1      36.416  22.535  25.797  1.00  0.00     0.082 A 
ATOM     28  C   UNL A   1      36.482  21.278  25.171  1.00  0.00     0.161 A 
ATOM     29  C   UNL A   1      37.729  22.930  25.966  1.00  0.00     0.059 A 
ATOM     30  N   UNL A   1      37.735  20.826  25.105  1.00  0.00    -0.179 NA
ATOM     31  N   UNL A   1      38.464  21.808  25.671  1.00  0.00    -0.271 N 
ATOM     32  C   UNL A   1      38.334  24.174  26.512  1.00  0.00     0.068 C 
ATOM     33  C   UNL A   1      39.826  21.516  26.056  1.00  0.00     0.174 C 
ENDBRANCH  25  27
ENDBRANCH  19  23
ENDBRANCH  13  16
ENDBRANCH   7  12
ENDBRANCH   4   6
ENDBRANCH   3   4
ENDBRANCH   2   3
ENDBRANCH   1   2
BRANCH   1  34
ATOM     34  O   UNL A   1      33.304  31.434  27.319  1.00  0.00    -0.374 OA
BRANCH  34  35
ATOM     35  C   UNL A   1      34.627  30.968  27.554  1.00  0.00     0.202 C 
BRANCH  35  36
ATOM     36  C   UNL A   1      35.499  31.533  28.670  1.00  0.00     0.261 C 
BRANCH  36  37
ATOM     37  O   UNL A   1      36.868  31.248  28.489  1.00  0.00    -0.460 OA
BRANCH  37  38
ATOM     38  C   UNL A   1      37.306  30.329  29.377  1.00  0.00     0.338 C 
ATOM     39  O   UNL A   1      37.290  30.406  30.592  1.00  0.00    -0.246 OA
BRANCH  38  40
ATOM     40  C   UNL A   1      37.913  29.204  28.655  1.00  0.00     0.060 A 
ATOM     41  C   UNL A   1      38.312  28.163  29.492  1.00  0.00     0.016 A 
ATOM     42  C   UNL A   1      38.535  29.484  27.434  1.00  0.00     0.016 A 
ATOM     43  C   UNL A   1      39.575  27.670  29.309  1.00  0.00     0.010 A 
ATOM     44  C   UNL A   1      39.805  29.004  27.260  1.00  0.00     0.010 A 
ATOM     45  C   UNL A   1      40.340  28.205  28.269  1.00  0.00    -0.014 A 
BRANCH  45  46
ATOM     46  C   UNL A   1      41.744  27.892  28.267  1.00  0.00     0.031 A 
ATOM     47  C   UNL A   1      42.031  26.602  27.624  1.00  0.00     0.074 A 
ATOM     48  C   UNL A   1      42.667  28.749  28.734  1.00  0.00     0.049 A 
ATOM     49  N   UNL A   1      42.419  25.505  28.178  1.00  0.00    -0.248 NA
ATOM     50  C   UNL A   1      41.635  26.472  26.214  1.00  0.00     0.031 C 
ATOM     51  C   UNL A   1      42.498  30.157  29.103  1.00  0.00     0.029 A 
ATOM     52  N   UNL A   1      44.001  28.547  28.877  1.00  0.00    -0.354 N 
ATOM     53  C   UNL A   1      42.510  24.592  27.133  1.00  0.00     0.074 A 
ATOM     54  C   UNL A   1      41.796  25.165  26.027  1.00  0.00     0.031 C 
ATOM     55  C   UNL A   1      43.719  30.732  29.210  1.00  0.00     0.029 A 
ATOM     56  C   UNL A   1      44.737  29.708  29.039  1.00  0.00     0.049 A 
ATOM     57  H   UNL A   1      44.410  27.652  28.868  1.00  0.00     0.167 HD
ATOM     58  C   UNL A   1      43.414  23.580  27.166  1.00  0.00     0.037 A 
ATOM     59  C   UNL A   1      46.084  29.805  28.937  1.00  0.00     0.037 A 
ATOM     60  C   UNL A   1      43.882  23.345  28.511  1.00  0.00     0.049 A 
ATOM     61  C   UNL A   1      46.648  28.434  29.049  1.00  0.00     0.074 A 
ATOM     62  C   UNL A   1      43.295  22.956  29.698  1.00  0.00     0.029 A 
ATOM     63  N   UNL A   1      45.110  23.861  28.845  1.00  0.00    -0.354 N 
ATOM     64  N   UNL A   1      46.647  27.730  30.146  1.00  0.00    -0.248 NA
ATOM     65  C   UNL A   1      46.832  27.667  27.825  1.00  0.00     0.031 C 
ATOM     66  C   UNL A   1      44.022  23.631  30.721  1.00  0.00     0.029 A 
ATOM     67  C   UNL A   1      45.029  24.381  30.109  1.00  0.00     0.049 A 
ATOM     68  H   UNL A   1      45.912  23.857  28.274  1.00  0.00     0.167 HD
ATOM     69  C   UNL A   1      46.415  26.424  29.736  1.00  0.00     0.074 A 
ATOM     70  C   UNL A   1      46.654  26.430  28.298  1.00  0.00     0.031 C 
ATOM     71  C   UNL A   1      45.772  25.538  30.554  1.00  0.00     0.037 A 
BRANCH  58  72
ATOM     72  C   UNL A   1      44.176  23.105  25.949  1.00  0.00     0.057 A 
ATOM     73  C   UNL A   1      44.154  21.734  25.641  1.00  0.00     0.134 A 
ATOM     74  C   UNL A   1      45.148  23.855  25.250  1.00  0.00     0.134 A 
ATOM     75  F   UNL A   1      43.274  20.910  26.229  1.00  0.00    -0.206 F 
ATOM     76  C   UNL A   1      45.091  21.142  24.788  1.00  0.00     0.040 A 
ATOM     77  C   UNL A   1      46.052  23.281  24.356  1.00  0.00     0.040 A 
ATOM     78  F   UNL A   1      45.354  25.160  25.453  1.00  0.00    -0.206 F 
ATOM     79  C   UNL A   1      46.054  21.914  24.152  1.00  0.00     0.006 A 
ENDBRANCH  58  72
BRANCH  59  80
ATOM     80  C   UNL A   1      46.873  30.955  28.448  1.00  0.00     0.057 A 
ATOM     81  C   UNL A   1      46.844  31.339  27.102  1.00  0.00     0.134 A 
ATOM     82  C   UNL A   1      47.484  31.856  29.338  1.00  0.00     0.134 A 
ATOM     83  F   UNL A   1      46.239  30.568  26.187  1.00  0.00    -0.206 F 
ATOM     84  C   UNL A   1      47.387  32.554  26.666  1.00  0.00     0.040 A 
ATOM     85  C   UNL A   1      48.038  33.067  28.915  1.00  0.00     0.040 A 
ATOM     86  F   UNL A   1      47.487  31.631  30.660  1.00  0.00    -0.206 F 
ATOM     87  C   UNL A   1      47.981  33.426  27.575  1.00  0.00     0.006 A 
ENDBRANCH  59  80
BRANCH  71  88
ATOM     88  C   UNL A   1      45.604  25.935  31.994  1.00  0.00     0.057 A 
ATOM     89  C   UNL A   1      46.590  25.740  32.972  1.00  0.00     0.134 A 
ATOM     90  C   UNL A   1      44.467  26.655  32.372  1.00  0.00     0.134 A 
ATOM     91  F   UNL A   1      47.755  25.151  32.672  1.00  0.00    -0.206 F 
ATOM     92  C   UNL A   1      46.429  26.199  34.282  1.00  0.00     0.040 A 
ATOM     93  C   UNL A   1      44.307  27.149  33.669  1.00  0.00     0.040 A 
ATOM     94  F   UNL A   1      43.510  26.930  31.472  1.00  0.00    -0.206 F 
ATOM     95  C   UNL A   1      45.286  26.911  34.633  1.00  0.00     0.006 A 
ENDBRANCH  71  88
ENDBRANCH  45  46
ENDBRANCH  38  40
ENDBRANCH  37  38
ENDBRANCH  36  37
ENDBRANCH  35  36
ENDBRANCH  34  35
ENDBRANCH   1  34
TORSDOF 19
ENDMDL
MODEL 2
REMARK VINA RESULT:     -11.3      3.958      8.991
REMARK SMILES CCn1ncc(NC(=O)[C@@H]2CCCC[C@@H]2C(=O)OCCOCCOC(=O)c2ccc(-c3c4nc(c(-c5c(F)cccc5F)c5ccc([nH]5)c(-c5c(F)cccc5F)c5nc(c(-c6c(F)cccc6F)c6ccc3[nH]6)C=C5)C=C4)cc2)c1C(=O)Nc1cnn(C)c1C
REMARK SMILES IDX 20 1 19 2 18 3 16 4 17 5 15 6 10 7 11 8 12 9 14 10 13 11
REMARK SMILES IDX 8 12 7 13 9 15 6 16 3 17 4 18 81 19 5 20 2 21 1 22 82 23
REMARK SMILES IDX 83 24 84 25 85 27 86 28 90 29 87 30 88 31 91 32 89 33 21 34
REMARK SMILES IDX 22 35 23 36 24 37 25 38 26 39 27 40 28 41 80 42 29 43 79 44
REMARK SMILES IDX 30 45 31 46 32 47 73 48 33 49 78 50 72 51 74 52 34 53 77 54
REMARK SMILES IDX 71 55 70 56 35 58 61 59 44 60 60 61 45 62 48 63 59 64 75 65
REMARK SMILES IDX 46 66 47 67 58 69 76 70 49 71 36 72 37 73 42 74 38 75 39 76
REMARK SMILES IDX 41 77 43 78 40 79 62 80 63 81 68 82 64 83 65 84 67 85 69 86
REMARK SMILES IDX 66 87 50 88 51 89 56 90 52 91 53 92 55 93 57 94 54 95
REMARK H PARENT 7 14 84 26 74 57 48 68
REMARK Flexibility Score: inf
ROOT
ATOM      1  C   UNL A   1      37.833  22.861  25.416  1.00  0.00     0.202 C 
ENDROOT
BRANCH   1   2
ATOM      2  C   UNL A   1      36.698  22.438  24.476  1.00  0.00     0.261 C 
BRANCH   2   3
ATOM      3  O   UNL A   1      35.553  23.294  24.464  1.00  0.00    -0.463 OA
BRANCH   3   4
ATOM      4  C   UNL A   1      34.491  22.734  25.095  1.00  0.00     0.309 C 
ATOM      5  O   UNL A   1      34.607  21.977  26.051  1.00  0.00    -0.252 OA
BRANCH   4   6
ATOM      6  C   UNL A   1      33.154  23.158  24.494  1.00  0.00     0.111 C 
ATOM      7  C   UNL A   1      31.994  22.647  25.396  1.00  0.00     0.093 C 
ATOM      8  C   UNL A   1      32.123  21.118  25.528  1.00  0.00     0.014 C 
ATOM      9  C   UNL A   1      32.127  20.425  24.165  1.00  0.00     0.001 C 
ATOM     10  C   UNL A   1      32.961  22.576  23.090  1.00  0.00     0.016 C 
ATOM     11  C   UNL A   1      33.021  21.052  23.101  1.00  0.00     0.001 C 
BRANCH   7  12
ATOM     12  C   UNL A   1      31.897  23.503  26.672  1.00  0.00     0.228 C 
ATOM     13  N   UNL A   1      31.472  24.794  26.703  1.00  0.00    -0.322 N 
ATOM     14  H   UNL A   1      31.434  25.173  27.612  1.00  0.00     0.170 HD
ATOM     15  O   UNL A   1      32.241  23.024  27.762  1.00  0.00    -0.274 OA
BRANCH  13  16
ATOM     16  C   UNL A   1      31.083  25.681  25.719  1.00  0.00     0.092 A 
ATOM     17  N   UNL A   1      30.895  26.764  23.861  1.00  0.00    -0.258 N 
ATOM     18  N   UNL A   1      29.616  26.645  24.292  1.00  0.00    -0.178 NA
ATOM     19  C   UNL A   1      31.811  26.531  24.877  1.00  0.00     0.150 A 
ATOM     20  C   UNL A   1      29.733  25.935  25.407  1.00  0.00     0.162 A 
BRANCH  17  21
ATOM     21  C   UNL A   1      31.046  26.920  22.427  1.00  0.00     0.142 C 
ATOM     22  C   UNL A   1      31.944  25.887  21.766  1.00  0.00     0.029 C 
ENDBRANCH  17  21
BRANCH  19  23
ATOM     23  C   UNL A   1      33.186  26.967  25.099  1.00  0.00     0.276 C 
ATOM     24  O   UNL A   1      34.116  26.157  25.125  1.00  0.00    -0.267 OA
ATOM     25  N   UNL A   1      33.534  28.291  24.983  1.00  0.00    -0.318 N 
ATOM     26  H   UNL A   1      34.107  28.525  24.218  1.00  0.00     0.170 HD
BRANCH  25  27
ATOM     27  C   UNL A   1      33.177  29.325  25.813  1.00  0.00     0.082 A 
ATOM     28  C   UNL A   1      32.018  30.121  25.819  1.00  0.00     0.161 A 
ATOM     29  C   UNL A   1      33.939  29.777  26.873  1.00  0.00     0.059 A 
ATOM     30  N   UNL A   1      32.110  31.117  26.700  1.00  0.00    -0.179 NA
ATOM     31  N   UNL A   1      33.320  30.939  27.266  1.00  0.00    -0.271 N 
ATOM     32  C   UNL A   1      35.239  29.324  27.433  1.00  0.00     0.068 C 
ATOM     33  C   UNL A   1      33.881  32.023  28.040  1.00  0.00     0.174 C 
ENDBRANCH  25  27
ENDBRANCH  19  23
ENDBRANCH  13  16
ENDBRANCH   7  12
ENDBRANCH   4   6
ENDBRANCH   3   4
ENDBRANCH   2   3
ENDBRANCH   1   2
BRANCH   1  34
ATOM     34  O   UNL A   1      38.854  21.978  25.866  1.00  0.00    -0.374 OA
BRANCH  34  35
ATOM     35  C   UNL A   1      39.811  22.283  26.874  1.00  0.00     0.202 C 
BRANCH  35  36
ATOM     36  C   UNL A   1      41.042  23.138  26.591  1.00  0.00     0.261 C 
BRANCH  36  37
ATOM     37  O   UNL A   1      41.079  24.313  27.370  1.00  0.00    -0.460 OA
BRANCH  37  38
ATOM     38  C   UNL A   1      41.125  25.420  26.598  1.00  0.00     0.338 C 
ATOM     39  O   UNL A   1      41.921  25.672  25.712  1.00  0.00    -0.246 OA
BRANCH  38  40
ATOM     40  C   UNL A   1      40.095  26.367  27.041  1.00  0.00     0.060 A 
ATOM     41  C   UNL A   1      40.361  27.685  26.673  1.00  0.00     0.016 A 
ATOM     42  C   UNL A   1      39.354  26.026  28.177  1.00  0.00     0.016 A 
ATOM     43  C   UNL A   1      40.246  28.636  27.649  1.00  0.00     0.010 A 
ATOM     44  C   UNL A   1      39.253  26.974  29.159  1.00  0.00     0.010 A 
ATOM     45  C   UNL A   1      39.816  28.225  28.913  1.00  0.00    -0.014 A 
BRANCH  45  46
ATOM     46  C   UNL A   1      39.972  29.166  29.991  1.00  0.00     0.031 A 
ATOM     47  C   UNL A   1      38.808  30.049  30.139  1.00  0.00     0.074 A 
ATOM     48  C   UNL A   1      41.043  29.149  30.803  1.00  0.00     0.049 A 
ATOM     49  N   UNL A   1      38.725  31.308  29.875  1.00  0.00    -0.248 NA
ATOM     50  C   UNL A   1      37.523  29.395  30.421  1.00  0.00     0.031 C 
ATOM     51  C   UNL A   1      42.084  28.123  30.916  1.00  0.00     0.029 A 
ATOM     52  N   UNL A   1      41.360  30.026  31.788  1.00  0.00    -0.354 N 
ATOM     53  C   UNL A   1      37.407  31.645  30.159  1.00  0.00     0.074 A 
ATOM     54  C   UNL A   1      36.680  30.409  30.248  1.00  0.00     0.031 C 
ATOM     55  C   UNL A   1      42.781  28.330  32.058  1.00  0.00     0.029 A 
ATOM     56  C   UNL A   1      42.313  29.560  32.677  1.00  0.00     0.049 A 
ATOM     57  H   UNL A   1      40.949  30.916  31.864  1.00  0.00     0.167 HD
ATOM     58  C   UNL A   1      37.081  32.889  30.592  1.00  0.00     0.037 A 
ATOM     59  C   UNL A   1      42.607  30.116  33.877  1.00  0.00     0.037 A 
ATOM     60  C   UNL A   1      38.128  33.836  30.290  1.00  0.00     0.049 A 
ATOM     61  C   UNL A   1      42.062  31.499  33.882  1.00  0.00     0.074 A 
ATOM     62  C   UNL A   1      38.712  34.313  29.134  1.00  0.00     0.029 A 
ATOM     63  N   UNL A   1      38.974  34.181  31.315  1.00  0.00    -0.354 N 
ATOM     64  N   UNL A   1      42.538  32.476  33.162  1.00  0.00    -0.248 NA
ATOM     65  C   UNL A   1      40.704  31.699  34.370  1.00  0.00     0.031 C 
ATOM     66  C   UNL A   1      40.076  34.558  29.471  1.00  0.00     0.029 A 
ATOM     67  C   UNL A   1      40.249  34.240  30.820  1.00  0.00     0.049 A 
ATOM     68  H   UNL A   1      38.709  34.358  32.247  1.00  0.00     0.167 HD
ATOM     69  C   UNL A   1      41.426  33.206  32.764  1.00  0.00     0.074 A 
ATOM     70  C   UNL A   1      40.345  32.752  33.630  1.00  0.00     0.031 C 
ATOM     71  C   UNL A   1      41.427  33.893  31.583  1.00  0.00     0.037 A 
BRANCH  58  72
ATOM     72  C   UNL A   1      36.030  33.155  31.647  1.00  0.00     0.057 A 
ATOM     73  C   UNL A   1      35.032  34.105  31.372  1.00  0.00     0.134 A 
ATOM     74  C   UNL A   1      36.112  32.756  33.000  1.00  0.00     0.134 A 
ATOM     75  F   UNL A   1      34.843  34.563  30.125  1.00  0.00    -0.206 F 
ATOM     76  C   UNL A   1      34.253  34.688  32.377  1.00  0.00     0.040 A 
ATOM     77  C   UNL A   1      35.301  33.292  34.001  1.00  0.00     0.040 A 
ATOM     78  F   UNL A   1      37.034  31.904  33.460  1.00  0.00    -0.206 F 
ATOM     79  C   UNL A   1      34.395  34.291  33.700  1.00  0.00     0.006 A 
ENDBRANCH  58  72
BRANCH  59  80
ATOM     80  C   UNL A   1      43.050  29.428  35.107  1.00  0.00     0.057 A 
ATOM     81  C   UNL A   1      42.418  28.264  35.560  1.00  0.00     0.134 A 
ATOM     82  C   UNL A   1      44.263  29.761  35.736  1.00  0.00     0.134 A 
ATOM     83  F   UNL A   1      41.283  27.840  34.987  1.00  0.00    -0.206 F 
ATOM     84  C   UNL A   1      42.965  27.470  36.577  1.00  0.00     0.040 A 
ATOM     85  C   UNL A   1      44.815  28.984  36.758  1.00  0.00     0.040 A 
ATOM     86  F   UNL A   1      44.997  30.804  35.321  1.00  0.00    -0.206 F 
ATOM     87  C   UNL A   1      44.171  27.826  37.175  1.00  0.00     0.006 A 
ENDBRANCH  59  80
BRANCH  71  88
ATOM     88  C   UNL A   1      42.752  34.072  30.897  1.00  0.00     0.057 A 
ATOM     89  C   UNL A   1      43.250  33.188  29.929  1.00  0.00     0.134 A 
ATOM     90  C   UNL A   1      43.484  35.241  31.127  1.00  0.00     0.134 A 
ATOM     91  F   UNL A   1      42.562  32.095  29.573  1.00  0.00    -0.206 F 
ATOM     92  C   UNL A   1      44.448  33.434  29.253  1.00  0.00     0.040 A 
ATOM     93  C   UNL A   1      44.666  35.516  30.435  1.00  0.00     0.040 A 
ATOM     94  F   UNL A   1      43.036  36.159  31.997  1.00  0.00    -0.206 F 
ATOM     95  C   UNL A   1      45.158  34.605  29.502  1.00  0.00     0.006 A 
ENDBRANCH  71  88
ENDBRANCH  45  46
ENDBRANCH  38  40
ENDBRANCH  37  38
ENDBRANCH  36  37
ENDBRANCH  35  36
ENDBRANCH  34  35
ENDBRANCH   1  34
TORSDOF 19
ENDMDL
MODEL 3
REMARK VINA RESULT:     -10.7      3.296      7.184
REMARK SMILES CCn1ncc(NC(=O)[C@@H]2CCCC[C@@H]2C(=O)OCCOCCOC(=O)c2ccc(-c3c4nc(c(-c5c(F)cccc5F)c5ccc([nH]5)c(-c5c(F)cccc5F)c5nc(c(-c6c(F)cccc6F)c6ccc3[nH]6)C=C5)C=C4)cc2)c1C(=O)Nc1cnn(C)c1C
REMARK SMILES IDX 20 1 19 2 18 3 16 4 17 5 15 6 10 7 11 8 12 9 14 10 13 11
REMARK SMILES IDX 8 12 7 13 9 15 6 16 3 17 4 18 81 19 5 20 2 21 1 22 82 23
REMARK SMILES IDX 83 24 84 25 85 27 86 28 90 29 87 30 88 31 91 32 89 33 21 34
REMARK SMILES IDX 22 35 23 36 24 37 25 38 26 39 27 40 28 41 80 42 29 43 79 44
REMARK SMILES IDX 30 45 31 46 32 47 73 48 33 49 78 50 72 51 74 52 34 53 77 54
REMARK SMILES IDX 71 55 70 56 35 58 61 59 44 60 60 61 45 62 48 63 59 64 75 65
REMARK SMILES IDX 46 66 47 67 58 69 76 70 49 71 36 72 37 73 42 74 38 75 39 76
REMARK SMILES IDX 41 77 43 78 40 79 62 80 63 81 68 82 64 83 65 84 67 85 69 86
REMARK SMILES IDX 66 87 50 88 51 89 56 90 52 91 53 92 55 93 57 94 54 95
REMARK H PARENT 7 14 84 26 74 57 48 68
REMARK Flexibility Score: inf
ROOT
ATOM      1  C   UNL A   1      36.027  23.708  24.531  1.00  0.00     0.202 C 
ENDROOT
BRANCH   1   2
ATOM      2  C   UNL A   1      34.767  24.173  23.790  1.00  0.00     0.261 C 
BRANCH   2   3
ATOM      3  O   UNL A   1      34.664  25.582  23.570  1.00  0.00    -0.463 OA
BRANCH   3   4
ATOM      4  C   UNL A   1      33.378  26.013  23.622  1.00  0.00     0.309 C 
ATOM      5  O   UNL A   1      32.784  26.457  22.647  1.00  0.00    -0.252 OA
BRANCH   4   6
ATOM      6  C   UNL A   1      32.764  25.875  25.011  1.00  0.00     0.111 C 
ATOM      7  C   UNL A   1      31.326  26.469  25.004  1.00  0.00     0.093 C 
ATOM      8  C   UNL A   1      31.413  27.935  24.541  1.00  0.00     0.014 C 
ATOM      9  C   UNL A   1      32.360  28.756  25.417  1.00  0.00     0.001 C 
ATOM     10  C   UNL A   1      33.586  26.622  26.066  1.00  0.00     0.016 C 
ATOM     11  C   UNL A   1      33.701  28.108  25.737  1.00  0.00     0.001 C 
BRANCH   7  12
ATOM     12  C   UNL A   1      30.360  25.513  24.283  1.00  0.00     0.228 C 
ATOM     13  N   UNL A   1      30.222  24.192  24.573  1.00  0.00    -0.322 N 
ATOM     14  H   UNL A   1      29.527  23.741  24.040  1.00  0.00     0.170 HD
ATOM     15  O   UNL A   1      29.655  25.934  23.354  1.00  0.00    -0.274 OA
BRANCH  13  16
ATOM     16  C   UNL A   1      30.862  23.353  25.465  1.00  0.00     0.092 A 
ATOM     17  N   UNL A   1      32.354  22.247  26.565  1.00  0.00    -0.258 N 
ATOM     18  N   UNL A   1      31.468  22.624  27.518  1.00  0.00    -0.178 NA
ATOM     19  C   UNL A   1      31.819  22.346  25.289  1.00  0.00     0.150 A 
ATOM     20  C   UNL A   1      30.582  23.345  26.845  1.00  0.00     0.162 A 
BRANCH  17  21
ATOM     21  C   UNL A   1      33.702  22.004  27.043  1.00  0.00     0.142 C 
ATOM     22  C   UNL A   1      34.436  23.243  27.531  1.00  0.00     0.029 C 
ENDBRANCH  17  21
BRANCH  19  23
ATOM     23  C   UNL A   1      32.112  21.667  24.029  1.00  0.00     0.276 C 
ATOM     24  O   UNL A   1      31.798  22.168  22.946  1.00  0.00    -0.267 OA
ATOM     25  N   UNL A   1      32.999  20.620  23.981  1.00  0.00    -0.318 N 
ATOM     26  H   UNL A   1      33.849  20.790  23.515  1.00  0.00     0.170 HD
BRANCH  25  27
ATOM     27  C   UNL A   1      32.837  19.362  24.507  1.00  0.00     0.082 A 
ATOM     28  C   UNL A   1      32.821  18.936  25.846  1.00  0.00     0.161 A 
ATOM     29  C   UNL A   1      32.623  18.222  23.757  1.00  0.00     0.059 A 
ATOM     30  N   UNL A   1      32.778  17.607  25.940  1.00  0.00    -0.179 NA
ATOM     31  N   UNL A   1      32.745  17.192  24.658  1.00  0.00    -0.271 N 
ATOM     32  C   UNL A   1      32.477  18.002  22.293  1.00  0.00     0.068 C 
ATOM     33  C   UNL A   1      33.016  15.800  24.381  1.00  0.00     0.174 C 
ENDBRANCH  25  27
ENDBRANCH  19  23
ENDBRANCH  13  16
ENDBRANCH   7  12
ENDBRANCH   4   6
ENDBRANCH   3   4
ENDBRANCH   2   3
ENDBRANCH   1   2
BRANCH   1  34
ATOM     34  O   UNL A   1      36.548  22.387  24.445  1.00  0.00    -0.374 OA
BRANCH  34  35
ATOM     35  C   UNL A   1      37.208  21.700  25.502  1.00  0.00     0.202 C 
BRANCH  35  36
ATOM     36  C   UNL A   1      38.699  21.873  25.774  1.00  0.00     0.261 C 
BRANCH  36  37
ATOM     37  O   UNL A   1      38.984  23.036  26.520  1.00  0.00    -0.460 OA
BRANCH  37  38
ATOM     38  C   UNL A   1      40.130  22.907  27.223  1.00  0.00     0.338 C 
ATOM     39  O   UNL A   1      40.415  22.032  28.019  1.00  0.00    -0.246 OA
BRANCH  38  40
ATOM     40  C   UNL A   1      40.998  24.060  26.956  1.00  0.00     0.060 A 
ATOM     41  C   UNL A   1      41.984  24.244  27.925  1.00  0.00     0.016 A 
ATOM     42  C   UNL A   1      40.461  25.109  26.204  1.00  0.00     0.016 A 
ATOM     43  C   UNL A   1      42.132  25.508  28.426  1.00  0.00     0.010 A 
ATOM     44  C   UNL A   1      40.596  26.371  26.715  1.00  0.00     0.010 A 
ATOM     45  C   UNL A   1      41.331  26.520  27.890  1.00  0.00    -0.014 A 
BRANCH  45  46
ATOM     46  C   UNL A   1      41.288  27.766  28.610  1.00  0.00     0.031 A 
ATOM     47  C   UNL A   1      42.443  28.623  28.317  1.00  0.00     0.074 A 
ATOM     48  C   UNL A   1      40.246  28.104  29.388  1.00  0.00     0.049 A 
ATOM     49  N   UNL A   1      43.430  28.922  29.091  1.00  0.00    -0.248 NA
ATOM     50  C   UNL A   1      42.618  29.029  26.915  1.00  0.00     0.031 C 
ATOM     51  C   UNL A   1      38.936  27.454  29.490  1.00  0.00     0.029 A 
ATOM     52  N   UNL A   1      40.118  29.192  30.188  1.00  0.00    -0.354 N 
ATOM     53  C   UNL A   1      44.256  29.731  28.319  1.00  0.00     0.074 A 
ATOM     54  C   UNL A   1      43.838  29.557  26.956  1.00  0.00     0.031 C 
ATOM     55  C   UNL A   1      38.082  28.287  30.130  1.00  0.00     0.029 A 
ATOM     56  C   UNL A   1      38.818  29.458  30.580  1.00  0.00     0.049 A 
ATOM     57  H   UNL A   1      40.884  29.745  30.466  1.00  0.00     0.167 HD
ATOM     58  C   UNL A   1      45.014  30.702  28.889  1.00  0.00     0.037 A 
ATOM     59  C   UNL A   1      38.388  30.611  31.147  1.00  0.00     0.037 A 
ATOM     60  C   UNL A   1      45.173  30.474  30.304  1.00  0.00     0.049 A 
ATOM     61  C   UNL A   1      39.580  31.341  31.651  1.00  0.00     0.074 A 
ATOM     62  C   UNL A   1      45.736  29.479  31.078  1.00  0.00     0.029 A 
ATOM     63  N   UNL A   1      44.382  31.212  31.150  1.00  0.00    -0.354 N 
ATOM     64  N   UNL A   1      40.300  30.954  32.667  1.00  0.00    -0.248 NA
ATOM     65  C   UNL A   1      40.237  32.284  30.756  1.00  0.00     0.031 C 
ATOM     66  C   UNL A   1      44.937  29.418  32.258  1.00  0.00     0.029 A 
ATOM     67  C   UNL A   1      43.942  30.392  32.154  1.00  0.00     0.049 A 
ATOM     68  H   UNL A   1      44.168  32.168  31.052  1.00  0.00     0.167 HD
ATOM     69  C   UNL A   1      41.609  31.265  32.321  1.00  0.00     0.074 A 
ATOM     70  C   UNL A   1      41.495  32.183  31.195  1.00  0.00     0.031 C 
ATOM     71  C   UNL A   1      42.653  30.524  32.796  1.00  0.00     0.037 A 
BRANCH  58  72
ATOM     72  C   UNL A   1      45.245  32.057  28.256  1.00  0.00     0.057 A 
ATOM     73  C   UNL A   1      46.558  32.419  27.913  1.00  0.00     0.134 A 
ATOM     74  C   UNL A   1      44.313  33.118  28.237  1.00  0.00     0.134 A 
ATOM     75  F   UNL A   1      47.539  31.504  27.885  1.00  0.00    -0.206 F 
ATOM     76  C   UNL A   1      46.933  33.745  27.675  1.00  0.00     0.040 A 
ATOM     77  C   UNL A   1      44.667  34.437  27.947  1.00  0.00     0.040 A 
ATOM     78  F   UNL A   1      43.031  32.976  28.589  1.00  0.00    -0.206 F 
ATOM     79  C   UNL A   1      45.988  34.762  27.705  1.00  0.00     0.006 A 
ENDBRANCH  58  72
BRANCH  59  80
ATOM     80  C   UNL A   1      37.063  31.250  31.004  1.00  0.00     0.057 A 
ATOM     81  C   UNL A   1      36.279  31.560  32.122  1.00  0.00     0.134 A 
ATOM     82  C   UNL A   1      36.641  31.795  29.779  1.00  0.00     0.134 A 
ATOM     83  F   UNL A   1      36.631  31.126  33.341  1.00  0.00    -0.206 F 
ATOM     84  C   UNL A   1      35.142  32.372  32.028  1.00  0.00     0.040 A 
ATOM     85  C   UNL A   1      35.503  32.599  29.669  1.00  0.00     0.040 A 
ATOM     86  F   UNL A   1      37.366  31.637  28.662  1.00  0.00    -0.206 F 
ATOM     87  C   UNL A   1      34.754  32.901  30.799  1.00  0.00     0.006 A 
ENDBRANCH  59  80
BRANCH  71  88
ATOM     88  C   UNL A   1      42.360  29.572  33.921  1.00  0.00     0.057 A 
ATOM     89  C   UNL A   1      41.928  28.251  33.727  1.00  0.00     0.134 A 
ATOM     90  C   UNL A   1      42.649  29.959  35.232  1.00  0.00     0.134 A 
ATOM     91  F   UNL A   1      41.725  27.765  32.495  1.00  0.00    -0.206 F 
ATOM     92  C   UNL A   1      41.746  27.371  34.796  1.00  0.00     0.040 A 
ATOM     93  C   UNL A   1      42.504  29.080  36.308  1.00  0.00     0.040 A 
ATOM     94  F   UNL A   1      43.123  31.189  35.485  1.00  0.00    -0.206 F 
ATOM     95  C   UNL A   1      42.039  27.783  36.093  1.00  0.00     0.006 A 
ENDBRANCH  71  88
ENDBRANCH  45  46
ENDBRANCH  38  40
ENDBRANCH  37  38
ENDBRANCH  36  37
ENDBRANCH  35  36
ENDBRANCH  34  35
ENDBRANCH   1  34
TORSDOF 19
ENDMDL
