MODEL 1
REMARK VINA RESULT:      -9.4      0.000      0.000
REMARK SMILES O=C(OCCOCCOC(=O)[C@H]1C=C[C@H](NS(=O)(=O)c2ccc3c(c2)CCO3)C1)c1ccc(-c2c3nc(c(-c4c(F)cccc4F)c4ccc([nH]4)c(-c4c(F)cccc4F)c4nc(c(-c5c(F)cccc5F)c5ccc2[nH]5)C=C4)C=C3)cc1
REMARK SMILES IDX 7 1 6 2 5 3 4 4 3 5 2 6 1 7 30 8 31 9 83 10 32 11 82 12
REMARK SMILES IDX 33 13 34 14 35 15 76 16 36 17 81 18 75 19 77 20 37 21 80 22
REMARK SMILES IDX 74 23 73 24 38 26 64 27 47 28 63 29 48 30 51 31 62 32 78 33
REMARK SMILES IDX 49 34 50 35 61 37 79 38 52 39 39 40 40 41 45 42 41 43 42 44
REMARK SMILES IDX 44 45 46 46 43 47 65 48 66 49 71 50 67 51 68 52 70 53 72 54
REMARK SMILES IDX 69 55 53 56 54 57 59 58 55 59 56 60 58 61 60 62 57 63 8 64
REMARK SMILES IDX 9 65 10 66 11 67 12 68 13 69 29 70 14 71 15 72 16 73 17 75
REMARK SMILES IDX 18 76 19 77 20 78 21 79 25 80 22 81 24 82 23 83 26 84 28 85
REMARK SMILES IDX 27 86
REMARK H PARENT 77 25 51 36 16 74
REMARK Flexibility Score: inf
ROOT
ATOM      1  C   UNL A   1      34.731  33.865  33.836  1.00  0.00     0.202 C 
ENDROOT
BRANCH   1   2
ATOM      2  O   UNL A   1      34.584  35.028  33.012  1.00  0.00    -0.374 OA
BRANCH   2   3
ATOM      3  C   UNL A   1      33.266  35.308  32.543  1.00  0.00     0.202 C 
BRANCH   3   4
ATOM      4  C   UNL A   1      33.195  36.044  31.205  1.00  0.00     0.261 C 
BRANCH   4   5
ATOM      5  O   UNL A   1      32.606  35.192  30.208  1.00  0.00    -0.460 OA
BRANCH   5   6
ATOM      6  C   UNL A   1      33.230  34.562  29.186  1.00  0.00     0.338 C 
ATOM      7  O   UNL A   1      32.699  34.555  28.078  1.00  0.00    -0.246 OA
BRANCH   6   8
ATOM      8  C   UNL A   1      34.534  33.857  29.344  1.00  0.00     0.060 A 
ATOM      9  C   UNL A   1      35.714  34.243  28.709  1.00  0.00     0.016 A 
ATOM     10  C   UNL A   1      34.599  32.818  30.288  1.00  0.00     0.016 A 
ATOM     11  C   UNL A   1      36.916  33.606  28.955  1.00  0.00     0.010 A 
ATOM     12  C   UNL A   1      35.819  32.205  30.588  1.00  0.00     0.010 A 
ATOM     13  C   UNL A   1      36.981  32.611  29.924  1.00  0.00    -0.014 A 
BRANCH  13  14
ATOM     14  C   UNL A   1      38.301  32.034  30.219  1.00  0.00     0.031 A 
ATOM     15  C   UNL A   1      39.215  32.755  31.150  1.00  0.00     0.074 A 
ATOM     16  C   UNL A   1      38.592  30.815  29.728  1.00  0.00     0.049 A 
ATOM     17  N   UNL A   1      40.438  32.461  31.491  1.00  0.00    -0.248 NA
ATOM     18  C   UNL A   1      38.676  33.964  31.798  1.00  0.00     0.031 C 
ATOM     19  C   UNL A   1      37.691  29.999  28.907  1.00  0.00     0.029 A 
ATOM     20  N   UNL A   1      39.710  30.039  29.863  1.00  0.00    -0.354 N 
ATOM     21  C   UNL A   1      40.832  33.464  32.363  1.00  0.00     0.074 A 
ATOM     22  C   UNL A   1      39.713  34.367  32.517  1.00  0.00     0.031 C 
ATOM     23  C   UNL A   1      38.289  28.831  28.625  1.00  0.00     0.029 A 
ATOM     24  C   UNL A   1      39.638  28.852  29.172  1.00  0.00     0.049 A 
ATOM     25  H   UNL A   1      40.490  30.303  30.402  1.00  0.00     0.167 HD
ATOM     26  C   UNL A   1      42.035  33.613  32.960  1.00  0.00     0.037 A 
ATOM     27  C   UNL A   1      40.585  27.919  28.966  1.00  0.00     0.037 A 
ATOM     28  C   UNL A   1      43.120  32.686  32.786  1.00  0.00     0.049 A 
ATOM     29  C   UNL A   1      41.942  28.162  29.567  1.00  0.00     0.074 A 
ATOM     30  C   UNL A   1      44.399  32.741  33.306  1.00  0.00     0.029 A 
ATOM     31  N   UNL A   1      43.042  31.529  32.022  1.00  0.00    -0.354 N 
ATOM     32  N   UNL A   1      42.331  29.139  30.353  1.00  0.00    -0.248 NA
ATOM     33  C   UNL A   1      42.996  27.199  29.232  1.00  0.00     0.031 C 
ATOM     34  C   UNL A   1      45.109  31.639  32.817  1.00  0.00     0.029 A 
ATOM     35  C   UNL A   1      44.261  30.876  32.027  1.00  0.00     0.049 A 
ATOM     36  H   UNL A   1      42.237  31.219  31.546  1.00  0.00     0.167 HD
ATOM     37  C   UNL A   1      43.676  28.912  30.604  1.00  0.00     0.074 A 
ATOM     38  C   UNL A   1      44.024  27.684  29.914  1.00  0.00     0.031 C 
ATOM     39  C   UNL A   1      44.554  29.654  31.322  1.00  0.00     0.037 A 
BRANCH  26  40
ATOM     40  C   UNL A   1      42.252  34.851  33.772  1.00  0.00     0.057 A 
ATOM     41  C   UNL A   1      41.960  34.912  35.140  1.00  0.00     0.134 A 
ATOM     42  C   UNL A   1      42.760  36.007  33.166  1.00  0.00     0.134 A 
ATOM     43  F   UNL A   1      41.444  33.848  35.773  1.00  0.00    -0.206 F 
ATOM     44  C   UNL A   1      42.155  36.085  35.875  1.00  0.00     0.040 A 
ATOM     45  C   UNL A   1      42.975  37.179  33.893  1.00  0.00     0.040 A 
ATOM     46  F   UNL A   1      43.050  36.018  31.857  1.00  0.00    -0.206 F 
ATOM     47  C   UNL A   1      42.669  37.220  35.251  1.00  0.00     0.006 A 
ENDBRANCH  26  40
BRANCH  27  48
ATOM     48  C   UNL A   1      40.322  26.747  28.090  1.00  0.00     0.057 A 
ATOM     49  C   UNL A   1      40.839  26.669  26.793  1.00  0.00     0.134 A 
ATOM     50  C   UNL A   1      39.511  25.687  28.519  1.00  0.00     0.134 A 
ATOM     51  F   UNL A   1      41.605  27.659  26.310  1.00  0.00    -0.206 F 
ATOM     52  C   UNL A   1      40.544  25.595  25.949  1.00  0.00     0.040 A 
ATOM     53  C   UNL A   1      39.232  24.592  27.699  1.00  0.00     0.040 A 
ATOM     54  F   UNL A   1      38.979  25.695  29.751  1.00  0.00    -0.206 F 
ATOM     55  C   UNL A   1      39.741  24.550  26.404  1.00  0.00     0.006 A 
ENDBRANCH  27  48
BRANCH  39  56
ATOM     56  C   UNL A   1      45.960  29.146  31.390  1.00  0.00     0.057 A 
ATOM     57  C   UNL A   1      46.414  28.407  32.489  1.00  0.00     0.134 A 
ATOM     58  C   UNL A   1      46.846  29.352  30.327  1.00  0.00     0.134 A 
ATOM     59  F   UNL A   1      45.613  28.193  33.544  1.00  0.00    -0.206 F 
ATOM     60  C   UNL A   1      47.712  27.900  32.533  1.00  0.00     0.040 A 
ATOM     61  C   UNL A   1      48.137  28.830  30.349  1.00  0.00     0.040 A 
ATOM     62  F   UNL A   1      46.462  30.047  29.245  1.00  0.00    -0.206 F 
ATOM     63  C   UNL A   1      48.574  28.104  31.457  1.00  0.00     0.006 A 
ENDBRANCH  39  56
ENDBRANCH  13  14
ENDBRANCH   6   8
ENDBRANCH   5   6
ENDBRANCH   4   5
ENDBRANCH   3   4
ENDBRANCH   2   3
ENDBRANCH   1   2
BRANCH   1  64
ATOM     64  C   UNL A   1      36.099  33.917  34.527  1.00  0.00     0.261 C 
BRANCH  64  65
ATOM     65  O   UNL A   1      36.630  32.580  34.578  1.00  0.00    -0.463 OA
BRANCH  65  66
ATOM     66  C   UNL A   1      37.856  32.466  35.158  1.00  0.00     0.312 C 
ATOM     67  O   UNL A   1      38.458  33.382  35.706  1.00  0.00    -0.252 OA
BRANCH  66  68
ATOM     68  C   UNL A   1      38.383  31.036  35.076  1.00  0.00     0.123 C 
ATOM     69  C   UNL A   1      37.903  30.394  33.805  1.00  0.00    -0.015 C 
ATOM     70  C   UNL A   1      39.915  30.892  34.957  1.00  0.00     0.043 C 
ATOM     71  C   UNL A   1      38.886  29.774  33.148  1.00  0.00    -0.011 C 
ATOM     72  C   UNL A   1      40.187  29.849  33.863  1.00  0.00     0.093 C 
BRANCH  72  73
ATOM     73  N   UNL A   1      40.474  28.566  34.479  1.00  0.00    -0.204 NA
ATOM     74  H   UNL A   1      40.472  27.873  33.730  1.00  0.00     0.142 HD
BRANCH  73  75
ATOM     75  S   UNL A   1      41.893  28.343  35.339  1.00  0.00     0.241 S 
ATOM     76  O   UNL A   1      42.861  29.239  34.757  1.00  0.00    -0.207 OA
ATOM     77  O   UNL A   1      41.569  28.377  36.752  1.00  0.00    -0.207 OA
BRANCH  75  78
ATOM     78  C   UNL A   1      42.410  26.691  34.949  1.00  0.00     0.083 A 
ATOM     79  C   UNL A   1      41.978  25.592  35.716  1.00  0.00     0.025 A 
ATOM     80  C   UNL A   1      43.313  26.530  33.889  1.00  0.00     0.029 A 
ATOM     81  C   UNL A   1      42.450  24.310  35.422  1.00  0.00     0.048 A 
ATOM     82  C   UNL A   1      43.742  25.249  33.599  1.00  0.00    -0.001 A 
ATOM     83  C   UNL A   1      43.318  24.168  34.357  1.00  0.00     0.122 A 
ATOM     84  C   UNL A   1      44.706  24.784  32.578  1.00  0.00     0.081 C 
ATOM     85  O   UNL A   1      43.854  22.973  33.950  1.00  0.00    -0.493 OA
ATOM     86  C   UNL A   1      44.417  23.284  32.652  1.00  0.00     0.234 C 
ENDBRANCH  75  78
ENDBRANCH  73  75
ENDBRANCH  72  73
ENDBRANCH  66  68
ENDBRANCH  65  66
ENDBRANCH  64  65
ENDBRANCH   1  64
TORSDOF 17
ENDMDL
MODEL 2
REMARK VINA RESULT:      -9.1      5.083     11.275
REMARK SMILES O=C(OCCOCCOC(=O)[C@H]1C=C[C@H](NS(=O)(=O)c2ccc3c(c2)CCO3)C1)c1ccc(-c2c3nc(c(-c4c(F)cccc4F)c4ccc([nH]4)c(-c4c(F)cccc4F)c4nc(c(-c5c(F)cccc5F)c5ccc2[nH]5)C=C4)C=C3)cc1
REMARK SMILES IDX 7 1 6 2 5 3 4 4 3 5 2 6 1 7 30 8 31 9 83 10 32 11 82 12
REMARK SMILES IDX 33 13 34 14 35 15 76 16 36 17 81 18 75 19 77 20 37 21 80 22
REMARK SMILES IDX 74 23 73 24 38 26 64 27 47 28 63 29 48 30 51 31 62 32 78 33
REMARK SMILES IDX 49 34 50 35 61 37 79 38 52 39 39 40 40 41 45 42 41 43 42 44
REMARK SMILES IDX 44 45 46 46 43 47 65 48 66 49 71 50 67 51 68 52 70 53 72 54
REMARK SMILES IDX 69 55 53 56 54 57 59 58 55 59 56 60 58 61 60 62 57 63 8 64
REMARK SMILES IDX 9 65 10 66 11 67 12 68 13 69 29 70 14 71 15 72 16 73 17 75
REMARK SMILES IDX 18 76 19 77 20 78 21 79 25 80 22 81 24 82 23 83 26 84 28 85
REMARK SMILES IDX 27 86
REMARK H PARENT 77 25 51 36 16 74
REMARK Flexibility Score: inf
ROOT
ATOM      1  C   UNL A   1      38.567  21.476  25.347  1.00  0.00     0.202 C 
ENDROOT
BRANCH   1   2
ATOM      2  O   UNL A   1      39.610  21.652  26.313  1.00  0.00    -0.374 OA
BRANCH   2   3
ATOM      3  C   UNL A   1      40.633  20.658  26.326  1.00  0.00     0.202 C 
BRANCH   3   4
ATOM      4  C   UNL A   1      42.063  21.197  26.270  1.00  0.00     0.261 C 
BRANCH   4   5
ATOM      5  O   UNL A   1      42.155  22.240  25.286  1.00  0.00    -0.460 OA
BRANCH   5   6
ATOM      6  C   UNL A   1      42.773  23.437  25.405  1.00  0.00     0.338 C 
ATOM      7  O   UNL A   1      43.748  23.678  24.696  1.00  0.00    -0.246 OA
BRANCH   6   8
ATOM      8  C   UNL A   1      42.335  24.483  26.373  1.00  0.00     0.060 A 
ATOM      9  C   UNL A   1      41.347  24.291  27.338  1.00  0.00     0.016 A 
ATOM     10  C   UNL A   1      43.051  25.692  26.389  1.00  0.00     0.016 A 
ATOM     11  C   UNL A   1      41.038  25.266  28.268  1.00  0.00     0.010 A 
ATOM     12  C   UNL A   1      42.787  26.663  27.360  1.00  0.00     0.010 A 
ATOM     13  C   UNL A   1      41.782  26.440  28.308  1.00  0.00    -0.014 A 
BRANCH  13  14
ATOM     14  C   UNL A   1      41.479  27.402  29.377  1.00  0.00     0.031 A 
ATOM     15  C   UNL A   1      42.343  27.431  30.592  1.00  0.00     0.074 A 
ATOM     16  C   UNL A   1      40.500  28.303  29.172  1.00  0.00     0.049 A 
ATOM     17  N   UNL A   1      42.215  28.147  31.673  1.00  0.00    -0.248 NA
ATOM     18  C   UNL A   1      43.522  26.546  30.583  1.00  0.00     0.031 C 
ATOM     19  C   UNL A   1      39.693  28.407  27.950  1.00  0.00     0.029 A 
ATOM     20  N   UNL A   1      40.031  29.313  29.965  1.00  0.00    -0.354 N 
ATOM     21  C   UNL A   1      43.271  27.775  32.492  1.00  0.00     0.074 A 
ATOM     22  C   UNL A   1      44.044  26.785  31.777  1.00  0.00     0.031 C 
ATOM     23  C   UNL A   1      38.840  29.435  28.074  1.00  0.00     0.029 A 
ATOM     24  C   UNL A   1      38.982  30.005  29.406  1.00  0.00     0.049 A 
ATOM     25  H   UNL A   1      40.408  29.525  30.849  1.00  0.00     0.167 HD
ATOM     26  C   UNL A   1      43.544  28.219  33.738  1.00  0.00     0.037 A 
ATOM     27  C   UNL A   1      38.196  30.953  29.945  1.00  0.00     0.037 A 
ATOM     28  C   UNL A   1      42.752  29.212  34.411  1.00  0.00     0.049 A 
ATOM     29  C   UNL A   1      38.469  31.358  31.367  1.00  0.00     0.074 A 
ATOM     30  C   UNL A   1      42.901  29.723  35.686  1.00  0.00     0.029 A 
ATOM     31  N   UNL A   1      41.650  29.845  33.848  1.00  0.00    -0.354 N 
ATOM     32  N   UNL A   1      39.439  30.970  32.161  1.00  0.00    -0.248 NA
ATOM     33  C   UNL A   1      37.528  32.303  31.979  1.00  0.00     0.031 C 
ATOM     34  C   UNL A   1      41.861  30.631  35.911  1.00  0.00     0.029 A 
ATOM     35  C   UNL A   1      41.088  30.717  34.762  1.00  0.00     0.049 A 
ATOM     36  H   UNL A   1      41.319  29.694  32.933  1.00  0.00     0.167 HD
ATOM     37  C   UNL A   1      39.225  31.619  33.369  1.00  0.00     0.074 A 
ATOM     38  C   UNL A   1      38.052  32.452  33.188  1.00  0.00     0.031 C 
ATOM     39  C   UNL A   1      39.919  31.525  34.529  1.00  0.00     0.037 A 
BRANCH  26  40
ATOM     40  C   UNL A   1      44.683  27.575  34.465  1.00  0.00     0.057 A 
ATOM     41  C   UNL A   1      45.975  28.115  34.465  1.00  0.00     0.134 A 
ATOM     42  C   UNL A   1      44.478  26.385  35.174  1.00  0.00     0.134 A 
ATOM     43  F   UNL A   1      46.243  29.236  33.780  1.00  0.00    -0.206 F 
ATOM     44  C   UNL A   1      47.026  27.486  35.136  1.00  0.00     0.040 A 
ATOM     45  C   UNL A   1      45.516  25.756  35.863  1.00  0.00     0.040 A 
ATOM     46  F   UNL A   1      43.266  25.810  35.204  1.00  0.00    -0.206 F 
ATOM     47  C   UNL A   1      46.796  26.306  35.842  1.00  0.00     0.006 A 
ENDBRANCH  26  40
BRANCH  27  48
ATOM     48  C   UNL A   1      37.037  31.501  29.190  1.00  0.00     0.057 A 
ATOM     49  C   UNL A   1      37.054  32.792  28.654  1.00  0.00     0.134 A 
ATOM     50  C   UNL A   1      35.865  30.752  29.016  1.00  0.00     0.134 A 
ATOM     51  F   UNL A   1      38.135  33.572  28.803  1.00  0.00    -0.206 F 
ATOM     52  C   UNL A   1      35.944  33.327  27.995  1.00  0.00     0.040 A 
ATOM     53  C   UNL A   1      34.759  31.261  28.332  1.00  0.00     0.040 A 
ATOM     54  F   UNL A   1      35.776  29.505  29.504  1.00  0.00    -0.206 F 
ATOM     55  C   UNL A   1      34.793  32.558  27.829  1.00  0.00     0.006 A 
ENDBRANCH  27  48
BRANCH  39  56
ATOM     56  C   UNL A   1      39.418  32.349  35.674  1.00  0.00     0.057 A 
ATOM     57  C   UNL A   1      39.846  33.668  35.863  1.00  0.00     0.134 A 
ATOM     58  C   UNL A   1      38.464  31.836  36.560  1.00  0.00     0.134 A 
ATOM     59  F   UNL A   1      40.771  34.207  35.054  1.00  0.00    -0.206 F 
ATOM     60  C   UNL A   1      39.349  34.448  36.906  1.00  0.00     0.040 A 
ATOM     61  C   UNL A   1      37.942  32.613  37.592  1.00  0.00     0.040 A 
ATOM     62  F   UNL A   1      38.012  30.580  36.423  1.00  0.00    -0.206 F 
ATOM     63  C   UNL A   1      38.388  33.923  37.768  1.00  0.00     0.006 A 
ENDBRANCH  39  56
ENDBRANCH  13  14
ENDBRANCH   6   8
ENDBRANCH   5   6
ENDBRANCH   4   5
ENDBRANCH   3   4
ENDBRANCH   2   3
ENDBRANCH   1   2
BRANCH   1  64
ATOM     64  C   UNL A   1      37.341  22.283  25.789  1.00  0.00     0.261 C 
BRANCH  64  65
ATOM     65  O   UNL A   1      37.213  23.423  24.920  1.00  0.00    -0.463 OA
BRANCH  65  66
ATOM     66  C   UNL A   1      36.413  23.236  23.834  1.00  0.00     0.312 C 
ATOM     67  O   UNL A   1      36.775  22.732  22.778  1.00  0.00    -0.252 OA
BRANCH  66  68
ATOM     68  C   UNL A   1      34.984  23.702  24.105  1.00  0.00     0.123 C 
ATOM     69  C   UNL A   1      34.212  22.596  24.768  1.00  0.00    -0.015 C 
ATOM     70  C   UNL A   1      34.838  24.857  25.119  1.00  0.00     0.043 C 
ATOM     71  C   UNL A   1      33.533  23.023  25.836  1.00  0.00    -0.011 C 
ATOM     72  C   UNL A   1      33.689  24.483  26.067  1.00  0.00     0.093 C 
BRANCH  72  73
ATOM     73  N   UNL A   1      32.479  25.170  25.653  1.00  0.00    -0.204 NA
ATOM     74  H   UNL A   1      31.695  24.642  26.038  1.00  0.00     0.142 HD
BRANCH  73  75
ATOM     75  S   UNL A   1      32.233  26.772  26.072  1.00  0.00     0.241 S 
ATOM     76  O   UNL A   1      31.260  26.763  27.136  1.00  0.00    -0.207 OA
ATOM     77  O   UNL A   1      33.530  27.398  26.225  1.00  0.00    -0.207 OA
BRANCH  75  78
ATOM     78  C   UNL A   1      31.450  27.501  24.657  1.00  0.00     0.083 A 
ATOM     79  C   UNL A   1      31.500  26.878  23.395  1.00  0.00     0.025 A 
ATOM     80  C   UNL A   1      30.835  28.749  24.829  1.00  0.00     0.029 A 
ATOM     81  C   UNL A   1      30.927  27.505  22.286  1.00  0.00     0.048 A 
ATOM     82  C   UNL A   1      30.250  29.335  23.724  1.00  0.00    -0.001 A 
ATOM     83  C   UNL A   1      30.302  28.722  22.481  1.00  0.00     0.122 A 
ATOM     84  C   UNL A   1      29.571  30.643  23.597  1.00  0.00     0.081 C 
ATOM     85  O   UNL A   1      29.692  29.447  21.490  1.00  0.00    -0.493 OA
ATOM     86  C   UNL A   1      28.935  30.443  22.220  1.00  0.00     0.234 C 
ENDBRANCH  75  78
ENDBRANCH  73  75
ENDBRANCH  72  73
ENDBRANCH  66  68
ENDBRANCH  65  66
ENDBRANCH  64  65
ENDBRANCH   1  64
TORSDOF 17
ENDMDL
MODEL 3
REMARK VINA RESULT:      -9.1      6.001     11.815
REMARK SMILES O=C(OCCOCCOC(=O)[C@H]1C=C[C@H](NS(=O)(=O)c2ccc3c(c2)CCO3)C1)c1ccc(-c2c3nc(c(-c4c(F)cccc4F)c4ccc([nH]4)c(-c4c(F)cccc4F)c4nc(c(-c5c(F)cccc5F)c5ccc2[nH]5)C=C4)C=C3)cc1
REMARK SMILES IDX 7 1 6 2 5 3 4 4 3 5 2 6 1 7 30 8 31 9 83 10 32 11 82 12
REMARK SMILES IDX 33 13 34 14 35 15 76 16 36 17 81 18 75 19 77 20 37 21 80 22
REMARK SMILES IDX 74 23 73 24 38 26 64 27 47 28 63 29 48 30 51 31 62 32 78 33
REMARK SMILES IDX 49 34 50 35 61 37 79 38 52 39 39 40 40 41 45 42 41 43 42 44
REMARK SMILES IDX 44 45 46 46 43 47 65 48 66 49 71 50 67 51 68 52 70 53 72 54
REMARK SMILES IDX 69 55 53 56 54 57 59 58 55 59 56 60 58 61 60 62 57 63 8 64
REMARK SMILES IDX 9 65 10 66 11 67 12 68 13 69 29 70 14 71 15 72 16 73 17 75
REMARK SMILES IDX 18 76 19 77 20 78 21 79 25 80 22 81 24 82 23 83 26 84 28 85
REMARK SMILES IDX 27 86
REMARK H PARENT 77 25 51 36 16 74
REMARK Flexibility Score: inf
ROOT
ATOM      1  C   UNL A   1      36.017  21.102  25.307  1.00  0.00     0.202 C 
ENDROOT
BRANCH   1   2
ATOM      2  O   UNL A   1      37.203  20.879  24.534  1.00  0.00    -0.374 OA
BRANCH   2   3
ATOM      3  C   UNL A   1      38.045  19.810  24.963  1.00  0.00     0.202 C 
BRANCH   3   4
ATOM      4  C   UNL A   1      39.249  20.232  25.807  1.00  0.00     0.261 C 
BRANCH   4   5
ATOM      5  O   UNL A   1      40.274  19.226  25.734  1.00  0.00    -0.460 OA
BRANCH   5   6
ATOM      6  C   UNL A   1      41.594  19.372  25.988  1.00  0.00     0.338 C 
ATOM      7  O   UNL A   1      42.328  18.389  25.916  1.00  0.00    -0.246 OA
BRANCH   6   8
ATOM      8  C   UNL A   1      42.207  20.677  26.370  1.00  0.00     0.060 A 
ATOM      9  C   UNL A   1      42.640  21.636  25.454  1.00  0.00     0.016 A 
ATOM     10  C   UNL A   1      42.231  21.007  27.735  1.00  0.00     0.016 A 
ATOM     11  C   UNL A   1      43.122  22.866  25.860  1.00  0.00     0.010 A 
ATOM     12  C   UNL A   1      42.663  22.269  28.155  1.00  0.00     0.010 A 
ATOM     13  C   UNL A   1      43.100  23.203  27.209  1.00  0.00    -0.014 A 
BRANCH  13  14
ATOM     14  C   UNL A   1      43.531  24.558  27.580  1.00  0.00     0.031 A 
ATOM     15  C   UNL A   1      42.507  25.549  28.021  1.00  0.00     0.074 A 
ATOM     16  C   UNL A   1      44.849  24.824  27.618  1.00  0.00     0.049 A 
ATOM     17  N   UNL A   1      42.659  26.806  28.325  1.00  0.00    -0.248 NA
ATOM     18  C   UNL A   1      41.126  25.053  28.155  1.00  0.00     0.031 C 
ATOM     19  C   UNL A   1      45.913  23.861  27.314  1.00  0.00     0.029 A 
ATOM     20  N   UNL A   1      45.524  25.967  27.949  1.00  0.00    -0.354 N 
ATOM     21  C   UNL A   1      41.392  27.267  28.649  1.00  0.00     0.074 A 
ATOM     22  C   UNL A   1      40.482  26.150  28.526  1.00  0.00     0.031 C 
ATOM     23  C   UNL A   1      47.105  24.452  27.487  1.00  0.00     0.029 A 
ATOM     24  C   UNL A   1      46.889  25.850  27.831  1.00  0.00     0.049 A 
ATOM     25  H   UNL A   1      45.076  26.793  28.242  1.00  0.00     0.167 HD
ATOM     26  C   UNL A   1      41.035  28.522  28.999  1.00  0.00     0.037 A 
ATOM     27  C   UNL A   1      47.843  26.792  27.938  1.00  0.00     0.037 A 
ATOM     28  C   UNL A   1      41.975  29.603  29.118  1.00  0.00     0.049 A 
ATOM     29  C   UNL A   1      47.403  28.198  28.237  1.00  0.00     0.074 A 
ATOM     30  C   UNL A   1      41.737  30.928  29.430  1.00  0.00     0.029 A 
ATOM     31  N   UNL A   1      43.344  29.472  28.923  1.00  0.00    -0.354 N 
ATOM     32  N   UNL A   1      46.196  28.645  28.495  1.00  0.00    -0.248 NA
ATOM     33  C   UNL A   1      48.442  29.233  28.228  1.00  0.00     0.031 C 
ATOM     34  C   UNL A   1      42.959  31.608  29.378  1.00  0.00     0.029 A 
ATOM     35  C   UNL A   1      43.962  30.699  29.074  1.00  0.00     0.049 A 
ATOM     36  H   UNL A   1      43.806  28.629  28.708  1.00  0.00     0.167 HD
ATOM     37  C   UNL A   1      46.328  30.014  28.676  1.00  0.00     0.074 A 
ATOM     38  C   UNL A   1      47.740  30.315  28.533  1.00  0.00     0.031 C 
ATOM     39  C   UNL A   1      45.374  30.944  28.921  1.00  0.00     0.037 A 
BRANCH  26  40
ATOM     40  C   UNL A   1      39.576  28.795  29.189  1.00  0.00     0.057 A 
ATOM     41  C   UNL A   1      38.745  29.197  28.137  1.00  0.00     0.134 A 
ATOM     42  C   UNL A   1      38.996  28.655  30.456  1.00  0.00     0.134 A 
ATOM     43  F   UNL A   1      39.245  29.377  26.906  1.00  0.00    -0.206 F 
ATOM     44  C   UNL A   1      37.388  29.463  28.342  1.00  0.00     0.040 A 
ATOM     45  C   UNL A   1      37.638  28.901  30.670  1.00  0.00     0.040 A 
ATOM     46  F   UNL A   1      39.740  28.284  31.508  1.00  0.00    -0.206 F 
ATOM     47  C   UNL A   1      36.832  29.310  29.610  1.00  0.00     0.006 A 
ENDBRANCH  26  40
BRANCH  27  48
ATOM     48  C   UNL A   1      49.268  26.464  27.667  1.00  0.00     0.057 A 
ATOM     49  C   UNL A   1      50.171  26.202  28.702  1.00  0.00     0.134 A 
ATOM     50  C   UNL A   1      49.772  26.442  26.358  1.00  0.00     0.134 A 
ATOM     51  F   UNL A   1      49.762  26.228  29.979  1.00  0.00    -0.206 F 
ATOM     52  C   UNL A   1      51.523  25.951  28.450  1.00  0.00     0.040 A 
ATOM     53  C   UNL A   1      51.113  26.163  26.089  1.00  0.00     0.040 A 
ATOM     54  F   UNL A   1      48.964  26.686  25.315  1.00  0.00    -0.206 F 
ATOM     55  C   UNL A   1      51.996  25.927  27.139  1.00  0.00     0.006 A 
ENDBRANCH  27  48
BRANCH  39  56
ATOM     56  C   UNL A   1      45.840  32.361  29.049  1.00  0.00     0.057 A 
ATOM     57  C   UNL A   1      45.872  33.218  27.942  1.00  0.00     0.134 A 
ATOM     58  C   UNL A   1      46.208  32.882  30.294  1.00  0.00     0.134 A 
ATOM     59  F   UNL A   1      45.546  32.768  26.722  1.00  0.00    -0.206 F 
ATOM     60  C   UNL A   1      46.269  34.549  28.070  1.00  0.00     0.040 A 
ATOM     61  C   UNL A   1      46.582  34.216  30.438  1.00  0.00     0.040 A 
ATOM     62  F   UNL A   1      46.188  32.108  31.390  1.00  0.00    -0.206 F 
ATOM     63  C   UNL A   1      46.617  35.053  29.322  1.00  0.00     0.006 A 
ENDBRANCH  39  56
ENDBRANCH  13  14
ENDBRANCH   6   8
ENDBRANCH   5   6
ENDBRANCH   4   5
ENDBRANCH   3   4
ENDBRANCH   2   3
ENDBRANCH   1   2
BRANCH   1  64
ATOM     64  C   UNL A   1      34.992  20.015  24.967  1.00  0.00     0.261 C 
BRANCH  64  65
ATOM     65  O   UNL A   1      33.735  20.376  25.566  1.00  0.00    -0.463 OA
BRANCH  65  66
ATOM     66  C   UNL A   1      32.647  20.243  24.757  1.00  0.00     0.312 C 
ATOM     67  O   UNL A   1      32.090  19.181  24.505  1.00  0.00    -0.252 OA
BRANCH  66  68
ATOM     68  C   UNL A   1      32.177  21.594  24.225  1.00  0.00     0.123 C 
ATOM     69  C   UNL A   1      32.711  22.693  25.100  1.00  0.00    -0.015 C 
ATOM     70  C   UNL A   1      32.717  21.991  22.835  1.00  0.00     0.043 C 
ATOM     71  C   UNL A   1      33.258  23.684  24.391  1.00  0.00    -0.011 C 
ATOM     72  C   UNL A   1      33.163  23.458  22.925  1.00  0.00     0.093 C 
BRANCH  72  73
ATOM     73  N   UNL A   1      32.128  24.312  22.371  1.00  0.00    -0.204 NA
ATOM     74  H   UNL A   1      31.334  24.265  23.011  1.00  0.00     0.142 HD
BRANCH  73  75
ATOM     75  S   UNL A   1      32.431  25.936  22.097  1.00  0.00     0.241 S 
ATOM     76  O   UNL A   1      33.812  26.023  21.692  1.00  0.00    -0.207 OA
ATOM     77  O   UNL A   1      31.357  26.459  21.277  1.00  0.00    -0.207 OA
BRANCH  75  78
ATOM     78  C   UNL A   1      32.307  26.701  23.692  1.00  0.00     0.083 A 
ATOM     79  C   UNL A   1      31.096  26.696  24.411  1.00  0.00     0.025 A 
ATOM     80  C   UNL A   1      33.441  27.364  24.183  1.00  0.00     0.029 A 
ATOM     81  C   UNL A   1      31.011  27.359  25.637  1.00  0.00     0.048 A 
ATOM     82  C   UNL A   1      33.341  27.987  25.411  1.00  0.00    -0.001 A 
ATOM     83  C   UNL A   1      32.147  27.983  26.116  1.00  0.00     0.122 A 
ATOM     84  C   UNL A   1      34.345  28.782  26.151  1.00  0.00     0.081 C 
ATOM     85  O   UNL A   1      32.214  28.665  27.304  1.00  0.00    -0.493 OA
ATOM     86  C   UNL A   1      33.636  28.850  27.505  1.00  0.00     0.234 C 
ENDBRANCH  75  78
ENDBRANCH  73  75
ENDBRANCH  72  73
ENDBRANCH  66  68
ENDBRANCH  65  66
ENDBRANCH  64  65
ENDBRANCH   1  64
TORSDOF 17
ENDMDL
