MODEL 1
REMARK VINA RESULT:     -11.2      0.000      0.000
REMARK SMILES O=C(N[C@@H](Cc1ccc(O)cc1)C(=O)N[C@@H](Cc1c[nH]c2ccccc12)C(=O)N[C@@H](CO)C(=O)OCCOCCOC(=O)c1ccc(-c2c3nc(c(-c4c(F)cccc4F)c4ccc([nH]4)c(-c4c(F)cccc4F)c4nc(c(-c5c(F)cccc5F)c5ccc2[nH]5)C=C4)C=C3)cc1)c1ccc(F)cc1
REMARK SMILES IDX 36 1 35 2 33 3 34 4 30 5 29 6 27 7 28 8 16 10 15 11 13 12
REMARK SMILES IDX 14 13 4 15 3 16 1 17 2 18 98 20 99 21 104 22 100 23 103 24
REMARK SMILES IDX 101 25 102 26 5 27 6 28 7 29 12 30 8 31 11 32 9 33 10 34
REMARK SMILES IDX 17 36 18 37 19 38 26 39 20 40 21 41 25 42 22 44 24 45 23 46
REMARK SMILES IDX 31 47 32 48 37 50 38 51 39 52 40 53 41 54 42 55 43 56 44 57
REMARK SMILES IDX 45 58 97 59 46 60 96 61 47 62 48 63 49 64 90 65 50 66 95 67
REMARK SMILES IDX 89 68 91 69 51 70 94 71 88 72 87 73 52 75 78 76 61 77 77 78
REMARK SMILES IDX 62 79 65 80 76 81 92 82 63 83 64 84 75 86 93 87 66 88 53 89
REMARK SMILES IDX 54 90 59 91 55 92 56 93 58 94 60 95 57 96 79 97 80 98 85 99
REMARK SMILES IDX 81 100 82 101 84 102 86 103 83 104 67 105 68 106 73 107
REMARK SMILES IDX 69 108 70 109 72 110 74 111 71 112
REMARK H PARENT 29 9 15 14 3 19 10 35 20 43 32 49 91 74 65 85
REMARK Flexibility Score: inf
ROOT
ATOM      1  C   UNL A   1      38.155  22.938  26.282  1.00  0.00     0.261 C 
ENDROOT
BRANCH   1   2
ATOM      2  O   UNL A   1      37.042  23.760  25.849  1.00  0.00    -0.462 OA
BRANCH   2   3
ATOM      3  C   UNL A   1      35.805  23.230  26.115  1.00  0.00     0.331 C 
ATOM      4  O   UNL A   1      35.251  23.344  27.204  1.00  0.00    -0.250 OA
BRANCH   3   5
ATOM      5  C   UNL A   1      35.114  22.578  24.884  1.00  0.00     0.218 C 
BRANCH   5   6
ATOM      6  N   UNL A   1      35.099  23.383  23.650  1.00  0.00    -0.339 N 
ATOM      7  C   UNL A   1      34.142  23.387  22.687  1.00  0.00     0.243 C 
ATOM      8  O   UNL A   1      34.569  23.045  21.573  1.00  0.00    -0.273 OA
ATOM      9  H   UNL A   1      35.866  23.984  23.510  1.00  0.00     0.164 HD
BRANCH   7  10
ATOM     10  C   UNL A   1      32.597  23.647  22.869  1.00  0.00     0.175 C 
BRANCH  10  11
ATOM     11  N   UNL A   1      32.095  24.549  21.846  1.00  0.00    -0.342 N 
ATOM     12  C   UNL A   1      31.608  25.816  22.002  1.00  0.00     0.243 C 
ATOM     13  O   UNL A   1      31.423  26.459  20.961  1.00  0.00    -0.273 OA
ATOM     14  H   UNL A   1      32.106  24.203  20.924  1.00  0.00     0.164 HD
BRANCH  12  15
ATOM     15  C   UNL A   1      31.210  26.442  23.383  1.00  0.00     0.176 C 
BRANCH  15  16
ATOM     16  N   UNL A   1      29.830  26.121  23.763  1.00  0.00    -0.340 N 
ATOM     17  O   UNL A   1      27.680  26.512  24.280  1.00  0.00    -0.269 OA
ATOM     18  C   UNL A   1      28.710  26.912  23.745  1.00  0.00     0.251 C 
ATOM     19  H   UNL A   1      29.687  25.199  24.077  1.00  0.00     0.164 HD
BRANCH  18  20
ATOM     20  C   UNL A   1      28.733  28.244  23.105  1.00  0.00     0.040 A 
ATOM     21  C   UNL A   1      29.923  28.768  22.586  1.00  0.00     0.017 A 
ATOM     22  C   UNL A   1      27.532  28.952  22.975  1.00  0.00     0.017 A 
ATOM     23  C   UNL A   1      29.924  30.034  21.998  1.00  0.00     0.040 A 
ATOM     24  C   UNL A   1      27.536  30.214  22.375  1.00  0.00     0.040 A 
ATOM     25  C   UNL A   1      28.733  30.746  21.903  1.00  0.00     0.123 A 
ATOM     26  F   UNL A   1      28.737  31.962  21.342  1.00  0.00    -0.207 F 
ENDBRANCH  18  20
ENDBRANCH  15  16
BRANCH  15  27
ATOM     27  C   UNL A   1      32.231  26.457  24.556  1.00  0.00     0.070 C 
BRANCH  27  28
ATOM     28  C   UNL A   1      32.625  27.689  25.350  1.00  0.00    -0.045 A 
ATOM     29  C   UNL A   1      33.899  27.705  25.946  1.00  0.00     0.007 A 
ATOM     30  C   UNL A   1      31.821  28.824  25.519  1.00  0.00     0.007 A 
ATOM     31  C   UNL A   1      34.274  28.715  26.836  1.00  0.00     0.046 A 
ATOM     32  C   UNL A   1      32.167  29.810  26.450  1.00  0.00     0.046 A 
ATOM     33  C   UNL A   1      33.373  29.725  27.130  1.00  0.00     0.115 A 
BRANCH  33  34
ATOM     34  O   UNL A   1      33.633  30.653  28.094  1.00  0.00    -0.508 OA
ATOM     35  H   UNL A   1      34.062  30.397  28.887  1.00  0.00     0.293 HD
ENDBRANCH  33  34
ENDBRANCH  27  28
ENDBRANCH  15  27
ENDBRANCH  12  15
ENDBRANCH  10  11
BRANCH  10  36
ATOM     36  C   UNL A   1      31.522  22.694  23.436  1.00  0.00     0.072 C 
BRANCH  36  37
ATOM     37  C   UNL A   1      31.967  21.425  24.056  1.00  0.00    -0.020 A 
ATOM     38  C   UNL A   1      32.118  21.324  25.406  1.00  0.00     0.087 A 
ATOM     39  C   UNL A   1      32.227  20.115  23.555  1.00  0.00     0.003 A 
ATOM     40  N   UNL A   1      32.553  20.100  25.763  1.00  0.00    -0.361 N 
ATOM     41  C   UNL A   1      32.686  19.345  24.633  1.00  0.00     0.046 A 
ATOM     42  C   UNL A   1      32.135  19.490  22.300  1.00  0.00     0.010 A 
ATOM     43  H   UNL A   1      32.743  19.800  26.682  1.00  0.00     0.166 HD
ATOM     44  C   UNL A   1      33.161  18.041  24.514  1.00  0.00     0.026 A 
ATOM     45  C   UNL A   1      32.565  18.160  22.170  1.00  0.00     0.001 A 
ATOM     46  C   UNL A   1      33.095  17.460  23.253  1.00  0.00     0.002 A 
ENDBRANCH  36  37
ENDBRANCH  10  36
ENDBRANCH   7  10
ENDBRANCH   5   6
BRANCH   5  47
ATOM     47  C   UNL A   1      35.785  21.220  24.636  1.00  0.00     0.193 C 
BRANCH  47  48
ATOM     48  O   UNL A   1      35.714  20.398  25.801  1.00  0.00    -0.394 OA
ATOM     49  H   UNL A   1      34.959  20.673  26.344  1.00  0.00     0.210 HD
ENDBRANCH  47  48
ENDBRANCH   5  47
ENDBRANCH   3   5
ENDBRANCH   2   3
ENDBRANCH   1   2
BRANCH   1  50
ATOM     50  C   UNL A   1      39.414  23.726  26.707  1.00  0.00     0.202 C 
BRANCH  50  51
ATOM     51  O   UNL A   1      40.667  23.050  26.853  1.00  0.00    -0.374 OA
BRANCH  51  52
ATOM     52  C   UNL A   1      40.650  21.849  27.609  1.00  0.00     0.202 C 
BRANCH  52  53
ATOM     53  C   UNL A   1      41.078  20.515  27.008  1.00  0.00     0.261 C 
BRANCH  53  54
ATOM     54  O   UNL A   1      41.657  20.727  25.719  1.00  0.00    -0.460 OA
BRANCH  54  55
ATOM     55  C   UNL A   1      42.960  20.392  25.670  1.00  0.00     0.338 C 
ATOM     56  O   UNL A   1      43.440  19.285  25.468  1.00  0.00    -0.246 OA
BRANCH  55  57
ATOM     57  C   UNL A   1      43.763  21.618  25.650  1.00  0.00     0.060 A 
ATOM     58  C   UNL A   1      44.419  21.940  26.845  1.00  0.00     0.016 A 
ATOM     59  C   UNL A   1      43.855  22.438  24.523  1.00  0.00     0.016 A 
ATOM     60  C   UNL A   1      45.099  23.136  26.950  1.00  0.00     0.010 A 
ATOM     61  C   UNL A   1      44.514  23.661  24.638  1.00  0.00     0.010 A 
ATOM     62  C   UNL A   1      45.074  24.031  25.874  1.00  0.00    -0.014 A 
BRANCH  62  63
ATOM     63  C   UNL A   1      45.363  25.442  26.188  1.00  0.00     0.031 A 
ATOM     64  C   UNL A   1      44.244  26.270  26.757  1.00  0.00     0.074 A 
ATOM     65  C   UNL A   1      46.618  25.910  26.117  1.00  0.00     0.049 A 
ATOM     66  N   UNL A   1      44.260  27.497  27.202  1.00  0.00    -0.248 NA
ATOM     67  C   UNL A   1      42.925  25.615  26.850  1.00  0.00     0.031 C 
ATOM     68  C   UNL A   1      47.779  25.150  25.656  1.00  0.00     0.029 A 
ATOM     69  N   UNL A   1      47.125  27.132  26.463  1.00  0.00    -0.354 N 
ATOM     70  C   UNL A   1      42.963  27.757  27.629  1.00  0.00     0.074 A 
ATOM     71  C   UNL A   1      42.173  26.580  27.350  1.00  0.00     0.031 C 
ATOM     72  C   UNL A   1      48.871  25.927  25.754  1.00  0.00     0.029 A 
ATOM     73  C   UNL A   1      48.477  27.240  26.258  1.00  0.00     0.049 A 
ATOM     74  H   UNL A   1      46.574  27.864  26.824  1.00  0.00     0.167 HD
ATOM     75  C   UNL A   1      42.480  28.875  28.218  1.00  0.00     0.037 A 
ATOM     76  C   UNL A   1      49.292  28.293  26.452  1.00  0.00     0.037 A 
ATOM     77  C   UNL A   1      43.281  30.039  28.481  1.00  0.00     0.049 A 
ATOM     78  C   UNL A   1      48.707  29.558  27.023  1.00  0.00     0.074 A 
ATOM     79  C   UNL A   1      42.898  31.243  29.042  1.00  0.00     0.029 A 
ATOM     80  N   UNL A   1      44.636  30.139  28.196  1.00  0.00    -0.354 N 
ATOM     81  N   UNL A   1      47.477  29.805  27.412  1.00  0.00    -0.248 NA
ATOM     82  C   UNL A   1      49.629  30.688  27.195  1.00  0.00     0.031 C 
ATOM     83  C   UNL A   1      44.011  32.091  29.047  1.00  0.00     0.029 A 
ATOM     84  C   UNL A   1      45.103  31.392  28.554  1.00  0.00     0.049 A 
ATOM     85  H   UNL A   1      45.183  29.425  27.797  1.00  0.00     0.167 HD
ATOM     86  C   UNL A   1      47.487  31.101  27.912  1.00  0.00     0.074 A 
ATOM     87  C   UNL A   1      48.850  31.579  27.790  1.00  0.00     0.031 C 
ATOM     88  C   UNL A   1      46.468  31.834  28.429  1.00  0.00     0.037 A 
BRANCH  75  89
ATOM     89  C   UNL A   1      41.021  28.893  28.573  1.00  0.00     0.057 A 
ATOM     90  C   UNL A   1      40.024  29.137  27.618  1.00  0.00     0.134 A 
ATOM     91  C   UNL A   1      40.607  28.662  29.889  1.00  0.00     0.134 A 
ATOM     92  F   UNL A   1      40.352  29.391  26.342  1.00  0.00    -0.206 F 
ATOM     93  C   UNL A   1      38.672  29.175  27.965  1.00  0.00     0.040 A 
ATOM     94  C   UNL A   1      39.257  28.667  30.244  1.00  0.00     0.040 A 
ATOM     95  F   UNL A   1      41.507  28.428  30.857  1.00  0.00    -0.206 F 
ATOM     96  C   UNL A   1      38.284  28.931  29.281  1.00  0.00     0.006 A 
ENDBRANCH  75  89
BRANCH  76  97
ATOM     97  C   UNL A   1      50.731  28.203  26.105  1.00  0.00     0.057 A 
ATOM     98  C   UNL A   1      51.170  28.258  24.777  1.00  0.00     0.134 A 
ATOM     99  C   UNL A   1      51.706  28.025  27.096  1.00  0.00     0.134 A 
ATOM    100  F   UNL A   1      50.284  28.410  23.780  1.00  0.00    -0.206 F 
ATOM    101  C   UNL A   1      52.516  28.108  24.443  1.00  0.00     0.040 A 
ATOM    102  C   UNL A   1      53.060  27.904  26.779  1.00  0.00     0.040 A 
ATOM    103  F   UNL A   1      51.355  27.970  28.390  1.00  0.00    -0.206 F 
ATOM    104  C   UNL A   1      53.467  27.933  25.447  1.00  0.00     0.006 A 
ENDBRANCH  76  97
BRANCH  88 105
ATOM    105  C   UNL A   1      46.812  33.198  28.954  1.00  0.00     0.057 A 
ATOM    106  C   UNL A   1      47.223  33.408  30.278  1.00  0.00     0.134 A 
ATOM    107  C   UNL A   1      46.737  34.318  28.116  1.00  0.00     0.134 A 
ATOM    108  F   UNL A   1      47.309  32.379  31.135  1.00  0.00    -0.206 F 
ATOM    109  C   UNL A   1      47.497  34.688  30.761  1.00  0.00     0.040 A 
ATOM    110  C   UNL A   1      47.044  35.598  28.578  1.00  0.00     0.040 A 
ATOM    111  F   UNL A   1      46.367  34.187  26.833  1.00  0.00    -0.206 F 
ATOM    112  C   UNL A   1      47.412  35.787  29.908  1.00  0.00     0.006 A 
ENDBRANCH  88 105
ENDBRANCH  62  63
ENDBRANCH  55  57
ENDBRANCH  54  55
ENDBRANCH  53  54
ENDBRANCH  52  53
ENDBRANCH  51  52
ENDBRANCH  50  51
ENDBRANCH   1  50
TORSDOF 27
ENDMDL
MODEL 2
REMARK VINA RESULT:     -10.2      3.624      4.267
REMARK SMILES O=C(N[C@@H](Cc1ccc(O)cc1)C(=O)N[C@@H](Cc1c[nH]c2ccccc12)C(=O)N[C@@H](CO)C(=O)OCCOCCOC(=O)c1ccc(-c2c3nc(c(-c4c(F)cccc4F)c4ccc([nH]4)c(-c4c(F)cccc4F)c4nc(c(-c5c(F)cccc5F)c5ccc2[nH]5)C=C4)C=C3)cc1)c1ccc(F)cc1
REMARK SMILES IDX 36 1 35 2 33 3 34 4 30 5 29 6 27 7 28 8 16 10 15 11 13 12
REMARK SMILES IDX 14 13 4 15 3 16 1 17 2 18 98 20 99 21 104 22 100 23 103 24
REMARK SMILES IDX 101 25 102 26 5 27 6 28 7 29 12 30 8 31 11 32 9 33 10 34
REMARK SMILES IDX 17 36 18 37 19 38 26 39 20 40 21 41 25 42 22 44 24 45 23 46
REMARK SMILES IDX 31 47 32 48 37 50 38 51 39 52 40 53 41 54 42 55 43 56 44 57
REMARK SMILES IDX 45 58 97 59 46 60 96 61 47 62 48 63 49 64 90 65 50 66 95 67
REMARK SMILES IDX 89 68 91 69 51 70 94 71 88 72 87 73 52 75 78 76 61 77 77 78
REMARK SMILES IDX 62 79 65 80 76 81 92 82 63 83 64 84 75 86 93 87 66 88 53 89
REMARK SMILES IDX 54 90 59 91 55 92 56 93 58 94 60 95 57 96 79 97 80 98 85 99
REMARK SMILES IDX 81 100 82 101 84 102 86 103 83 104 67 105 68 106 73 107
REMARK SMILES IDX 69 108 70 109 72 110 74 111 71 112
REMARK H PARENT 29 9 15 14 3 19 10 35 20 43 32 49 91 74 65 85
REMARK Flexibility Score: inf
ROOT
ATOM      1  C   UNL A   1      38.558  23.005  26.329  1.00  0.00     0.261 C 
ENDROOT
BRANCH   1   2
ATOM      2  O   UNL A   1      37.475  23.630  25.595  1.00  0.00    -0.462 OA
BRANCH   2   3
ATOM      3  C   UNL A   1      36.221  23.317  26.054  1.00  0.00     0.331 C 
ATOM      4  O   UNL A   1      35.825  23.625  27.173  1.00  0.00    -0.250 OA
BRANCH   3   5
ATOM      5  C   UNL A   1      35.305  22.646  24.992  1.00  0.00     0.218 C 
BRANCH   5   6
ATOM      6  N   UNL A   1      35.204  23.338  23.695  1.00  0.00    -0.339 N 
ATOM      7  C   UNL A   1      34.191  23.250  22.796  1.00  0.00     0.243 C 
ATOM      8  O   UNL A   1      34.553  22.813  21.692  1.00  0.00    -0.273 OA
ATOM      9  H   UNL A   1      35.955  23.929  23.455  1.00  0.00     0.164 HD
BRANCH   7  10
ATOM     10  C   UNL A   1      32.657  23.515  23.049  1.00  0.00     0.175 C 
BRANCH  10  11
ATOM     11  N   UNL A   1      32.121  24.455  22.079  1.00  0.00    -0.342 N 
ATOM     12  C   UNL A   1      31.528  25.663  22.312  1.00  0.00     0.243 C 
ATOM     13  O   UNL A   1      31.330  26.373  21.317  1.00  0.00    -0.273 OA
ATOM     14  H   UNL A   1      32.196  24.187  21.133  1.00  0.00     0.164 HD
BRANCH  12  15
ATOM     15  C   UNL A   1      31.028  26.142  23.718  1.00  0.00     0.176 C 
BRANCH  15  16
ATOM     16  N   UNL A   1      29.604  25.864  23.928  1.00  0.00    -0.340 N 
ATOM     17  O   UNL A   1      27.432  26.324  24.268  1.00  0.00    -0.269 OA
ATOM     18  C   UNL A   1      28.529  26.714  23.879  1.00  0.00     0.251 C 
ATOM     19  H   UNL A   1      29.387  24.927  24.134  1.00  0.00     0.164 HD
BRANCH  18  20
ATOM     20  C   UNL A   1      28.678  28.097  23.378  1.00  0.00     0.040 A 
ATOM     21  C   UNL A   1      27.576  28.799  22.874  1.00  0.00     0.017 A 
ATOM     22  C   UNL A   1      29.930  28.717  23.467  1.00  0.00     0.017 A 
ATOM     23  C   UNL A   1      27.743  30.099  22.395  1.00  0.00     0.040 A 
ATOM     24  C   UNL A   1      30.090  30.022  22.996  1.00  0.00     0.040 A 
ATOM     25  C   UNL A   1      28.998  30.696  22.455  1.00  0.00     0.123 A 
ATOM     26  F   UNL A   1      29.156  31.941  21.990  1.00  0.00    -0.207 F 
ENDBRANCH  18  20
ENDBRANCH  15  16
BRANCH  15  27
ATOM     27  C   UNL A   1      31.929  25.951  24.972  1.00  0.00     0.070 C 
BRANCH  27  28
ATOM     28  C   UNL A   1      32.404  27.071  25.880  1.00  0.00    -0.045 A 
ATOM     29  C   UNL A   1      31.434  27.766  26.626  1.00  0.00     0.007 A 
ATOM     30  C   UNL A   1      33.741  27.453  26.048  1.00  0.00     0.007 A 
ATOM     31  C   UNL A   1      31.758  28.918  27.347  1.00  0.00     0.046 A 
ATOM     32  C   UNL A   1      34.064  28.637  26.723  1.00  0.00     0.046 A 
ATOM     33  C   UNL A   1      33.064  29.380  27.331  1.00  0.00     0.115 A 
BRANCH  33  34
ATOM     34  O   UNL A   1      33.404  30.572  27.898  1.00  0.00    -0.508 OA
ATOM     35  H   UNL A   1      33.856  31.219  27.394  1.00  0.00     0.293 HD
ENDBRANCH  33  34
ENDBRANCH  27  28
ENDBRANCH  15  27
ENDBRANCH  12  15
ENDBRANCH  10  11
BRANCH  10  36
ATOM     36  C   UNL A   1      31.597  22.550  23.627  1.00  0.00     0.072 C 
BRANCH  36  37
ATOM     37  C   UNL A   1      32.063  21.304  24.276  1.00  0.00    -0.020 A 
ATOM     38  C   UNL A   1      32.238  21.245  25.625  1.00  0.00     0.087 A 
ATOM     39  C   UNL A   1      32.326  19.982  23.808  1.00  0.00     0.003 A 
ATOM     40  N   UNL A   1      32.690  20.035  26.011  1.00  0.00    -0.361 N 
ATOM     41  C   UNL A   1      32.810  19.248  24.901  1.00  0.00     0.046 A 
ATOM     42  C   UNL A   1      32.218  19.320  22.575  1.00  0.00     0.010 A 
ATOM     43  H   UNL A   1      32.898  19.763  26.934  1.00  0.00     0.166 HD
ATOM     44  C   UNL A   1      33.294  17.945  24.812  1.00  0.00     0.026 A 
ATOM     45  C   UNL A   1      32.656  17.990  22.476  1.00  0.00     0.001 A 
ATOM     46  C   UNL A   1      33.211  17.326  23.570  1.00  0.00     0.002 A 
ENDBRANCH  36  37
ENDBRANCH  10  36
ENDBRANCH   7  10
ENDBRANCH   5   6
BRANCH   5  47
ATOM     47  C   UNL A   1      35.790  21.203  24.800  1.00  0.00     0.193 C 
BRANCH  47  48
ATOM     48  O   UNL A   1      37.009  21.172  24.058  1.00  0.00    -0.394 OA
ATOM     49  H   UNL A   1      36.845  21.482  23.154  1.00  0.00     0.210 HD
ENDBRANCH  47  48
ENDBRANCH   5  47
ENDBRANCH   3   5
ENDBRANCH   2   3
ENDBRANCH   1   2
BRANCH   1  50
ATOM     50  C   UNL A   1      39.373  23.967  27.223  1.00  0.00     0.202 C 
BRANCH  50  51
ATOM     51  O   UNL A   1      40.770  23.739  27.433  1.00  0.00    -0.374 OA
BRANCH  51  52
ATOM     52  C   UNL A   1      41.148  22.412  27.769  1.00  0.00     0.202 C 
BRANCH  52  53
ATOM     53  C   UNL A   1      41.784  21.474  26.749  1.00  0.00     0.261 C 
BRANCH  53  54
ATOM     54  O   UNL A   1      42.167  22.210  25.586  1.00  0.00    -0.460 OA
BRANCH  54  55
ATOM     55  C   UNL A   1      43.441  21.980  25.218  1.00  0.00     0.338 C 
ATOM     56  O   UNL A   1      43.850  21.152  24.416  1.00  0.00    -0.246 OA
BRANCH  55  57
ATOM     57  C   UNL A   1      44.288  23.053  25.746  1.00  0.00     0.060 A 
ATOM     58  C   UNL A   1      45.518  22.656  26.283  1.00  0.00     0.016 A 
ATOM     59  C   UNL A   1      43.891  24.393  25.744  1.00  0.00     0.016 A 
ATOM     60  C   UNL A   1      46.324  23.586  26.907  1.00  0.00     0.010 A 
ATOM     61  C   UNL A   1      44.688  25.327  26.403  1.00  0.00     0.010 A 
ATOM     62  C   UNL A   1      45.869  24.903  27.039  1.00  0.00    -0.014 A 
BRANCH  62  63
ATOM     63  C   UNL A   1      46.493  25.709  28.104  1.00  0.00     0.031 A 
ATOM     64  C   UNL A   1      45.961  25.543  29.501  1.00  0.00     0.074 A 
ATOM     65  C   UNL A   1      47.594  26.433  27.852  1.00  0.00     0.049 A 
ATOM     66  N   UNL A   1      46.392  26.059  30.622  1.00  0.00    -0.248 NA
ATOM     67  C   UNL A   1      44.789  24.662  29.657  1.00  0.00     0.031 C 
ATOM     68  C   UNL A   1      48.225  26.582  26.542  1.00  0.00     0.029 A 
ATOM     69  N   UNL A   1      48.388  27.155  28.698  1.00  0.00    -0.354 N 
ATOM     70  C   UNL A   1      45.550  25.561  31.609  1.00  0.00     0.074 A 
ATOM     71  C   UNL A   1      44.556  24.741  30.957  1.00  0.00     0.031 C 
ATOM     72  C   UNL A   1      49.321  27.348  26.674  1.00  0.00     0.029 A 
ATOM     73  C   UNL A   1      49.447  27.759  28.070  1.00  0.00     0.049 A 
ATOM     74  H   UNL A   1      48.218  27.233  29.665  1.00  0.00     0.167 HD
ATOM     75  C   UNL A   1      45.614  25.759  32.945  1.00  0.00     0.037 A 
ATOM     76  C   UNL A   1      50.400  28.561  28.577  1.00  0.00     0.037 A 
ATOM     77  C   UNL A   1      46.607  26.584  33.577  1.00  0.00     0.049 A 
ATOM     78  C   UNL A   1      50.391  28.840  30.057  1.00  0.00     0.074 A 
ATOM     79  C   UNL A   1      46.754  26.888  34.917  1.00  0.00     0.029 A 
ATOM     80  N   UNL A   1      47.626  27.239  32.900  1.00  0.00    -0.354 N 
ATOM     81  N   UNL A   1      49.585  28.381  30.986  1.00  0.00    -0.248 NA
ATOM     82  C   UNL A   1      51.436  29.741  30.562  1.00  0.00     0.031 C 
ATOM     83  C   UNL A   1      47.832  27.770  35.045  1.00  0.00     0.029 A 
ATOM     84  C   UNL A   1      48.398  27.962  33.793  1.00  0.00     0.049 A 
ATOM     85  H   UNL A   1      47.776  27.198  31.929  1.00  0.00     0.167 HD
ATOM     86  C   UNL A   1      50.049  28.901  32.187  1.00  0.00     0.074 A 
ATOM     87  C   UNL A   1      51.216  29.699  31.867  1.00  0.00     0.031 C 
ATOM     88  C   UNL A   1      49.561  28.738  33.444  1.00  0.00     0.037 A 
BRANCH  75  89
ATOM     89  C   UNL A   1      44.559  25.104  33.791  1.00  0.00     0.057 A 
ATOM     90  C   UNL A   1      43.408  25.785  34.209  1.00  0.00     0.134 A 
ATOM     91  C   UNL A   1      44.698  23.770  34.193  1.00  0.00     0.134 A 
ATOM     92  F   UNL A   1      43.224  27.073  33.881  1.00  0.00    -0.206 F 
ATOM     93  C   UNL A   1      42.447  25.172  35.016  1.00  0.00     0.040 A 
ATOM     94  C   UNL A   1      43.730  23.136  34.974  1.00  0.00     0.040 A 
ATOM     95  F   UNL A   1      45.778  23.058  33.835  1.00  0.00    -0.206 F 
ATOM     96  C   UNL A   1      42.603  23.840  35.394  1.00  0.00     0.006 A 
ENDBRANCH  75  89
BRANCH  76  97
ATOM     97  C   UNL A   1      51.430  29.158  27.691  1.00  0.00     0.057 A 
ATOM     98  C   UNL A   1      51.203  30.358  27.008  1.00  0.00     0.134 A 
ATOM     99  C   UNL A   1      52.660  28.521  27.480  1.00  0.00     0.134 A 
ATOM    100  F   UNL A   1      50.038  31.008  27.155  1.00  0.00    -0.206 F 
ATOM    101  C   UNL A   1      52.144  30.887  26.124  1.00  0.00     0.040 A 
ATOM    102  C   UNL A   1      53.623  29.055  26.622  1.00  0.00     0.040 A 
ATOM    103  F   UNL A   1      52.946  27.372  28.109  1.00  0.00    -0.206 F 
ATOM    104  C   UNL A   1      53.361  30.236  25.932  1.00  0.00     0.006 A 
ENDBRANCH  76  97
BRANCH  88 105
ATOM    105  C   UNL A   1      50.332  29.382  34.560  1.00  0.00     0.057 A 
ATOM    106  C   UNL A   1      50.059  30.683  35.004  1.00  0.00     0.134 A 
ATOM    107  C   UNL A   1      51.361  28.683  35.204  1.00  0.00     0.134 A 
ATOM    108  F   UNL A   1      49.092  31.410  34.424  1.00  0.00    -0.206 F 
ATOM    109  C   UNL A   1      50.815  31.282  36.013  1.00  0.00     0.040 A 
ATOM    110  C   UNL A   1      52.099  29.257  36.239  1.00  0.00     0.040 A 
ATOM    111  F   UNL A   1      51.665  27.427  34.840  1.00  0.00    -0.206 F 
ATOM    112  C   UNL A   1      51.835  30.566  36.636  1.00  0.00     0.006 A 
ENDBRANCH  88 105
ENDBRANCH  62  63
ENDBRANCH  55  57
ENDBRANCH  54  55
ENDBRANCH  53  54
ENDBRANCH  52  53
ENDBRANCH  51  52
ENDBRANCH  50  51
ENDBRANCH   1  50
TORSDOF 27
ENDMDL
MODEL 3
REMARK VINA RESULT:     -10.2      4.451      9.589
REMARK SMILES O=C(N[C@@H](Cc1ccc(O)cc1)C(=O)N[C@@H](Cc1c[nH]c2ccccc12)C(=O)N[C@@H](CO)C(=O)OCCOCCOC(=O)c1ccc(-c2c3nc(c(-c4c(F)cccc4F)c4ccc([nH]4)c(-c4c(F)cccc4F)c4nc(c(-c5c(F)cccc5F)c5ccc2[nH]5)C=C4)C=C3)cc1)c1ccc(F)cc1
REMARK SMILES IDX 36 1 35 2 33 3 34 4 30 5 29 6 27 7 28 8 16 10 15 11 13 12
REMARK SMILES IDX 14 13 4 15 3 16 1 17 2 18 98 20 99 21 104 22 100 23 103 24
REMARK SMILES IDX 101 25 102 26 5 27 6 28 7 29 12 30 8 31 11 32 9 33 10 34
REMARK SMILES IDX 17 36 18 37 19 38 26 39 20 40 21 41 25 42 22 44 24 45 23 46
REMARK SMILES IDX 31 47 32 48 37 50 38 51 39 52 40 53 41 54 42 55 43 56 44 57
REMARK SMILES IDX 45 58 97 59 46 60 96 61 47 62 48 63 49 64 90 65 50 66 95 67
REMARK SMILES IDX 89 68 91 69 51 70 94 71 88 72 87 73 52 75 78 76 61 77 77 78
REMARK SMILES IDX 62 79 65 80 76 81 92 82 63 83 64 84 75 86 93 87 66 88 53 89
REMARK SMILES IDX 54 90 59 91 55 92 56 93 58 94 60 95 57 96 79 97 80 98 85 99
REMARK SMILES IDX 81 100 82 101 84 102 86 103 83 104 67 105 68 106 73 107
REMARK SMILES IDX 69 108 70 109 72 110 74 111 71 112
REMARK H PARENT 29 9 15 14 3 19 10 35 20 43 32 49 91 74 65 85
REMARK Flexibility Score: inf
ROOT
ATOM      1  C   UNL A   1      33.673  25.807  25.398  1.00  0.00     0.261 C 
ENDROOT
BRANCH   1   2
ATOM      2  O   UNL A   1      34.245  26.787  26.300  1.00  0.00    -0.462 OA
BRANCH   2   3
ATOM      3  C   UNL A   1      33.960  28.090  25.982  1.00  0.00     0.331 C 
ATOM      4  O   UNL A   1      33.534  28.430  24.882  1.00  0.00    -0.250 OA
BRANCH   3   5
ATOM      5  C   UNL A   1      34.106  29.082  27.170  1.00  0.00     0.218 C 
BRANCH   5   6
ATOM      6  N   UNL A   1      35.479  29.513  27.486  1.00  0.00    -0.339 N 
ATOM      7  C   UNL A   1      35.849  30.576  28.246  1.00  0.00     0.243 C 
ATOM      8  O   UNL A   1      36.526  31.410  27.624  1.00  0.00    -0.273 OA
ATOM      9  H   UNL A   1      36.207  28.971  27.105  1.00  0.00     0.164 HD
BRANCH   7  10
ATOM     10  C   UNL A   1      35.414  30.895  29.728  1.00  0.00     0.175 C 
BRANCH  10  11
ATOM     11  N   UNL A   1      35.934  29.901  30.651  1.00  0.00    -0.342 N 
ATOM     12  C   UNL A   1      37.193  29.373  30.703  1.00  0.00     0.243 C 
ATOM     13  O   UNL A   1      37.455  28.689  31.700  1.00  0.00    -0.273 OA
ATOM     14  H   UNL A   1      35.299  29.566  31.326  1.00  0.00     0.164 HD
BRANCH  12  15
ATOM     15  C   UNL A   1      38.256  29.519  29.560  1.00  0.00     0.176 C 
BRANCH  15  16
ATOM     16  N   UNL A   1      38.985  30.790  29.636  1.00  0.00    -0.340 N 
ATOM     17  O   UNL A   1      40.266  32.391  30.552  1.00  0.00    -0.269 OA
ATOM     18  C   UNL A   1      39.907  31.217  30.558  1.00  0.00     0.251 C 
ATOM     19  H   UNL A   1      38.783  31.431  28.918  1.00  0.00     0.164 HD
BRANCH  18  20
ATOM     20  C   UNL A   1      40.459  30.287  31.565  1.00  0.00     0.040 A 
ATOM     21  C   UNL A   1      41.527  29.439  31.246  1.00  0.00     0.017 A 
ATOM     22  C   UNL A   1      39.934  30.306  32.863  1.00  0.00     0.017 A 
ATOM     23  C   UNL A   1      42.024  28.560  32.209  1.00  0.00     0.040 A 
ATOM     24  C   UNL A   1      40.443  29.431  33.826  1.00  0.00     0.040 A 
ATOM     25  C   UNL A   1      41.474  28.560  33.487  1.00  0.00     0.123 A 
ATOM     26  F   UNL A   1      41.950  27.713  34.408  1.00  0.00    -0.207 F 
ENDBRANCH  18  20
ENDBRANCH  15  16
BRANCH  15  27
ATOM     27  C   UNL A   1      39.110  28.293  29.128  1.00  0.00     0.070 C 
BRANCH  27  28
ATOM     28  C   UNL A   1      40.157  28.307  28.030  1.00  0.00    -0.045 A 
ATOM     29  C   UNL A   1      39.879  29.051  26.868  1.00  0.00     0.007 A 
ATOM     30  C   UNL A   1      41.394  27.651  28.093  1.00  0.00     0.007 A 
ATOM     31  C   UNL A   1      40.703  28.977  25.741  1.00  0.00     0.046 A 
ATOM     32  C   UNL A   1      42.195  27.528  26.951  1.00  0.00     0.046 A 
ATOM     33  C   UNL A   1      41.821  28.158  25.774  1.00  0.00     0.115 A 
BRANCH  33  34
ATOM     34  O   UNL A   1      42.576  27.941  24.660  1.00  0.00    -0.508 OA
ATOM     35  H   UNL A   1      42.160  27.799  23.833  1.00  0.00     0.293 HD
ENDBRANCH  33  34
ENDBRANCH  27  28
ENDBRANCH  15  27
ENDBRANCH  12  15
ENDBRANCH  10  11
BRANCH  10  36
ATOM     36  C   UNL A   1      35.160  32.273  30.380  1.00  0.00     0.072 C 
BRANCH  36  37
ATOM     37  C   UNL A   1      36.301  32.967  31.019  1.00  0.00    -0.020 A 
ATOM     38  C   UNL A   1      36.998  33.926  30.347  1.00  0.00     0.087 A 
ATOM     39  C   UNL A   1      36.866  32.945  32.328  1.00  0.00     0.003 A 
ATOM     40  N   UNL A   1      38.009  34.413  31.093  1.00  0.00    -0.361 N 
ATOM     41  C   UNL A   1      37.990  33.785  32.305  1.00  0.00     0.046 A 
ATOM     42  C   UNL A   1      36.560  32.299  33.537  1.00  0.00     0.010 A 
ATOM     43  H   UNL A   1      38.652  35.104  30.813  1.00  0.00     0.166 HD
ATOM     44  C   UNL A   1      38.879  33.926  33.368  1.00  0.00     0.026 A 
ATOM     45  C   UNL A   1      37.419  32.468  34.635  1.00  0.00     0.001 A 
ATOM     46  C   UNL A   1      38.573  33.244  34.540  1.00  0.00     0.002 A 
ENDBRANCH  36  37
ENDBRANCH  10  36
ENDBRANCH   7  10
ENDBRANCH   5   6
BRANCH   5  47
ATOM     47  C   UNL A   1      33.210  30.294  26.881  1.00  0.00     0.193 C 
BRANCH  47  48
ATOM     48  O   UNL A   1      31.838  29.908  26.820  1.00  0.00    -0.394 OA
ATOM     49  H   UNL A   1      31.641  29.300  27.549  1.00  0.00     0.210 HD
ENDBRANCH  47  48
ENDBRANCH   5  47
ENDBRANCH   3   5
ENDBRANCH   2   3
ENDBRANCH   1   2
BRANCH   1  50
ATOM     50  C   UNL A   1      34.626  24.658  25.002  1.00  0.00     0.202 C 
BRANCH  50  51
ATOM     51  O   UNL A   1      35.806  24.407  25.772  1.00  0.00    -0.374 OA
BRANCH  51  52
ATOM     52  C   UNL A   1      36.228  23.054  25.855  1.00  0.00     0.202 C 
BRANCH  52  53
ATOM     53  C   UNL A   1      37.531  22.579  25.221  1.00  0.00     0.261 C 
BRANCH  53  54
ATOM     54  O   UNL A   1      38.635  22.931  26.056  1.00  0.00    -0.460 OA
BRANCH  54  55
ATOM     55  C   UNL A   1      39.437  21.886  26.332  1.00  0.00     0.338 C 
ATOM     56  O   UNL A   1      39.409  20.770  25.831  1.00  0.00    -0.246 OA
BRANCH  55  57
ATOM     57  C   UNL A   1      40.545  22.348  27.172  1.00  0.00     0.060 A 
ATOM     58  C   UNL A   1      40.394  23.619  27.739  1.00  0.00     0.016 A 
ATOM     59  C   UNL A   1      41.698  21.587  27.382  1.00  0.00     0.016 A 
ATOM     60  C   UNL A   1      41.438  24.180  28.447  1.00  0.00     0.010 A 
ATOM     61  C   UNL A   1      42.765  22.165  28.068  1.00  0.00     0.010 A 
ATOM     62  C   UNL A   1      42.651  23.486  28.538  1.00  0.00    -0.014 A 
BRANCH  62  63
ATOM     63  C   UNL A   1      43.846  24.291  28.845  1.00  0.00     0.031 A 
ATOM     64  C   UNL A   1      44.305  24.335  30.277  1.00  0.00     0.074 A 
ATOM     65  C   UNL A   1      44.579  24.823  27.855  1.00  0.00     0.049 A 
ATOM     66  N   UNL A   1      45.371  24.885  30.793  1.00  0.00    -0.248 NA
ATOM     67  C   UNL A   1      43.447  23.648  31.261  1.00  0.00     0.031 C 
ATOM     68  C   UNL A   1      44.253  24.757  26.432  1.00  0.00     0.029 A 
ATOM     69  N   UNL A   1      45.766  25.500  27.903  1.00  0.00    -0.354 N 
ATOM     70  C   UNL A   1      45.313  24.608  32.153  1.00  0.00     0.074 A 
ATOM     71  C   UNL A   1      44.088  23.881  32.394  1.00  0.00     0.031 C 
ATOM     72  C   UNL A   1      45.227  25.367  25.736  1.00  0.00     0.029 A 
ATOM     73  C   UNL A   1      46.224  25.886  26.668  1.00  0.00     0.049 A 
ATOM     74  H   UNL A   1      46.247  25.692  28.740  1.00  0.00     0.167 HD
ATOM     75  C   UNL A   1      46.214  24.919  33.113  1.00  0.00     0.037 A 
ATOM     76  C   UNL A   1      47.325  26.587  26.343  1.00  0.00     0.037 A 
ATOM     77  C   UNL A   1      47.425  25.649  32.855  1.00  0.00     0.049 A 
ATOM     78  C   UNL A   1      48.264  27.002  27.445  1.00  0.00     0.074 A 
ATOM     79  C   UNL A   1      48.398  26.053  33.749  1.00  0.00     0.029 A 
ATOM     80  N   UNL A   1      47.824  26.086  31.599  1.00  0.00    -0.354 N 
ATOM     81  N   UNL A   1      48.199  26.751  28.733  1.00  0.00    -0.248 NA
ATOM     82  C   UNL A   1      49.439  27.787  27.046  1.00  0.00     0.031 C 
ATOM     83  C   UNL A   1      49.361  26.780  33.041  1.00  0.00     0.029 A 
ATOM     84  C   UNL A   1      49.022  26.771  31.696  1.00  0.00     0.049 A 
ATOM     85  H   UNL A   1      47.327  25.932  30.764  1.00  0.00     0.167 HD
ATOM     86  C   UNL A   1      49.341  27.310  29.290  1.00  0.00     0.074 A 
ATOM     87  C   UNL A   1      50.088  27.899  28.195  1.00  0.00     0.031 C 
ATOM     88  C   UNL A   1      49.745  27.336  30.585  1.00  0.00     0.037 A 
BRANCH  75  89
ATOM     89  C   UNL A   1      45.894  24.503  34.521  1.00  0.00     0.057 A 
ATOM     90  C   UNL A   1      46.307  23.272  35.047  1.00  0.00     0.134 A 
ATOM     91  C   UNL A   1      45.161  25.348  35.362  1.00  0.00     0.134 A 
ATOM     92  F   UNL A   1      46.991  22.402  34.287  1.00  0.00    -0.206 F 
ATOM     93  C   UNL A   1      45.983  22.886  36.349  1.00  0.00     0.040 A 
ATOM     94  C   UNL A   1      44.856  24.989  36.676  1.00  0.00     0.040 A 
ATOM     95  F   UNL A   1      44.727  26.540  34.922  1.00  0.00    -0.206 F 
ATOM     96  C   UNL A   1      45.261  23.750  37.171  1.00  0.00     0.006 A 
ENDBRANCH  75  89
BRANCH  76  97
ATOM     97  C   UNL A   1      47.597  26.945  24.929  1.00  0.00     0.057 A 
ATOM     98  C   UNL A   1      48.609  26.316  24.196  1.00  0.00     0.134 A 
ATOM     99  C   UNL A   1      46.870  27.955  24.285  1.00  0.00     0.134 A 
ATOM    100  F   UNL A   1      49.352  25.352  24.761  1.00  0.00    -0.206 F 
ATOM    101  C   UNL A   1      48.911  26.696  22.887  1.00  0.00     0.040 A 
ATOM    102  C   UNL A   1      47.140  28.325  22.966  1.00  0.00     0.040 A 
ATOM    103  F   UNL A   1      45.882  28.595  24.928  1.00  0.00    -0.206 F 
ATOM    104  C   UNL A   1      48.172  27.702  22.268  1.00  0.00     0.006 A 
ENDBRANCH  76  97
BRANCH  88 105
ATOM    105  C   UNL A   1      51.079  27.966  30.868  1.00  0.00     0.057 A 
ATOM    106  C   UNL A   1      52.271  27.229  30.860  1.00  0.00     0.134 A 
ATOM    107  C   UNL A   1      51.170  29.336  31.145  1.00  0.00     0.134 A 
ATOM    108  F   UNL A   1      52.254  25.911  30.610  1.00  0.00    -0.206 F 
ATOM    109  C   UNL A   1      53.496  27.822  31.168  1.00  0.00     0.040 A 
ATOM    110  C   UNL A   1      52.393  29.948  31.417  1.00  0.00     0.040 A 
ATOM    111  F   UNL A   1      50.070  30.105  31.152  1.00  0.00    -0.206 F 
ATOM    112  C   UNL A   1      53.559  29.187  31.443  1.00  0.00     0.006 A 
ENDBRANCH  88 105
ENDBRANCH  62  63
ENDBRANCH  55  57
ENDBRANCH  54  55
ENDBRANCH  53  54
ENDBRANCH  52  53
ENDBRANCH  51  52
ENDBRANCH  50  51
ENDBRANCH   1  50
TORSDOF 27
ENDMDL
