MODEL 1
REMARK VINA RESULT:     -12.0      0.000      0.000
REMARK SMILES NS(=O)(=O)c1ccc(-n2nc(C(=O)OCCOCCOC(=O)c3ccc(-c4c5nc(c(-c6c(F)cccc6F)c6ccc([nH]6)c(-c6c(F)cccc6F)c6nc(c(-c7c(F)cccc7F)c7ccc4[nH]7)C=C6)C=C5)cc3)c(Cl)c2-c2ccc(Cl)cc2)cc1
REMARK SMILES IDX 16 1 15 2 14 3 12 4 13 5 11 6 9 7 10 8 79 9 77 10 78 11 8 12
REMARK SMILES IDX 5 13 6 14 88 15 7 16 87 17 2 18 3 19 4 20 1 21 80 24 81 25
REMARK SMILES IDX 86 26 82 27 85 28 83 29 84 30 17 31 18 32 19 33 20 34 21 35
REMARK SMILES IDX 22 36 23 37 24 38 76 39 25 40 75 41 26 42 27 43 28 44 69 45
REMARK SMILES IDX 29 46 74 47 68 48 70 49 30 50 73 51 67 52 66 53 31 55 57 56
REMARK SMILES IDX 40 57 56 58 41 59 44 60 55 61 71 62 42 63 43 64 54 66 72 67
REMARK SMILES IDX 45 68 32 69 33 70 38 71 34 72 35 73 37 74 39 75 36 76 58 77
REMARK SMILES IDX 59 78 64 79 60 80 61 81 63 82 65 83 62 84 46 85 47 86 52 87
REMARK SMILES IDX 48 88 49 89 51 90 53 91 50 92
REMARK H PARENT 1 22 1 23 70 54 44 65
REMARK Flexibility Score: inf
ROOT
ATOM      1  C   UNL A   1      31.402  28.678  25.441  1.00  0.00     0.202 C 
ENDROOT
BRANCH   1   2
ATOM      2  C   UNL A   1      30.854  27.253  25.387  1.00  0.00     0.261 C 
BRANCH   2   3
ATOM      3  O   UNL A   1      30.091  27.030  24.192  1.00  0.00    -0.458 OA
BRANCH   3   4
ATOM      4  C   UNL A   1      30.790  26.769  23.047  1.00  0.00     0.360 C 
ATOM      5  O   UNL A   1      30.653  27.394  22.001  1.00  0.00    -0.244 OA
BRANCH   4   6
ATOM      6  C   UNL A   1      31.764  25.684  23.225  1.00  0.00     0.190 A 
ATOM      7  N   UNL A   1      32.497  23.701  23.584  1.00  0.00    -0.231 N 
ATOM      8  N   UNL A   1      31.422  24.382  23.117  1.00  0.00    -0.159 NA
ATOM      9  C   UNL A   1      33.573  24.537  23.850  1.00  0.00     0.094 A 
ATOM     10  C   UNL A   1      33.138  25.808  23.525  1.00  0.00     0.102 A 
ATOM     11  Cl  UNL A   1      34.064  27.239  23.577  1.00  0.00    -0.079 Cl
BRANCH   7  12
ATOM     12  C   UNL A   1      32.427  22.298  23.782  1.00  0.00     0.065 A 
ATOM     13  C   UNL A   1      32.601  19.539  24.124  1.00  0.00     0.082 A 
ATOM     14  C   UNL A   1      32.268  20.064  22.867  1.00  0.00     0.024 A 
ATOM     15  C   UNL A   1      32.778  20.383  25.223  1.00  0.00     0.024 A 
ATOM     16  C   UNL A   1      32.155  21.450  22.698  1.00  0.00     0.030 A 
ATOM     17  C   UNL A   1      32.702  21.764  25.047  1.00  0.00     0.030 A 
BRANCH  13  18
ATOM     18  S   UNL A   1      32.838  17.792  24.286  1.00  0.00     0.238 S 
ATOM     19  O   UNL A   1      31.778  17.279  25.131  1.00  0.00    -0.207 OA
ATOM     20  O   UNL A   1      34.230  17.532  24.531  1.00  0.00    -0.207 OA
BRANCH  18  21
ATOM     21  N   UNL A   1      32.528  17.178  22.751  1.00  0.00    -0.225 NA
ATOM     22  H   UNL A   1      32.408  16.167  22.806  1.00  0.00     0.137 HD
ATOM     23  H   UNL A   1      33.310  17.394  22.133  1.00  0.00     0.137 HD
ENDBRANCH  18  21
ENDBRANCH  13  18
ENDBRANCH   7  12
BRANCH   9  24
ATOM     24  C   UNL A   1      34.890  24.140  24.344  1.00  0.00     0.002 A 
ATOM     25  C   UNL A   1      35.721  23.388  23.502  1.00  0.00     0.012 A 
ATOM     26  C   UNL A   1      35.313  24.430  25.647  1.00  0.00     0.012 A 
ATOM     27  C   UNL A   1      36.942  22.898  23.961  1.00  0.00     0.021 A 
ATOM     28  C   UNL A   1      36.545  23.949  26.103  1.00  0.00     0.021 A 
ATOM     29  C   UNL A   1      37.346  23.175  25.263  1.00  0.00     0.041 A 
ATOM     30  Cl  UNL A   1      38.836  22.543  25.840  1.00  0.00    -0.084 Cl
ENDBRANCH   9  24
ENDBRANCH   4   6
ENDBRANCH   3   4
ENDBRANCH   2   3
ENDBRANCH   1   2
BRANCH   1  31
ATOM     31  O   UNL A   1      31.790  29.174  26.722  1.00  0.00    -0.374 OA
BRANCH  31  32
ATOM     32  C   UNL A   1      33.163  29.429  26.993  1.00  0.00     0.202 C 
BRANCH  32  33
ATOM     33  C   UNL A   1      33.613  30.876  27.098  1.00  0.00     0.261 C 
BRANCH  33  34
ATOM     34  O   UNL A   1      34.133  31.201  28.377  1.00  0.00    -0.460 OA
BRANCH  34  35
ATOM     35  C   UNL A   1      35.252  31.963  28.324  1.00  0.00     0.338 C 
ATOM     36  O   UNL A   1      35.449  32.942  27.626  1.00  0.00    -0.246 OA
BRANCH  35  37
ATOM     37  C   UNL A   1      36.306  31.280  29.079  1.00  0.00     0.060 A 
ATOM     38  C   UNL A   1      37.456  32.026  29.344  1.00  0.00     0.016 A 
ATOM     39  C   UNL A   1      36.279  29.883  29.198  1.00  0.00     0.016 A 
ATOM     40  C   UNL A   1      38.643  31.352  29.510  1.00  0.00     0.010 A 
ATOM     41  C   UNL A   1      37.467  29.212  29.334  1.00  0.00     0.010 A 
ATOM     42  C   UNL A   1      38.641  29.956  29.408  1.00  0.00    -0.014 A 
BRANCH  42  43
ATOM     43  C   UNL A   1      39.899  29.263  29.556  1.00  0.00     0.031 A 
ATOM     44  C   UNL A   1      40.302  29.194  30.976  1.00  0.00     0.074 A 
ATOM     45  C   UNL A   1      40.530  28.676  28.520  1.00  0.00     0.049 A 
ATOM     46  N   UNL A   1      41.251  29.852  31.551  1.00  0.00    -0.248 NA
ATOM     47  C   UNL A   1      39.395  28.508  31.914  1.00  0.00     0.031 C 
ATOM     48  C   UNL A   1      40.030  28.492  27.155  1.00  0.00     0.029 A 
ATOM     49  N   UNL A   1      41.728  28.030  28.498  1.00  0.00    -0.354 N 
ATOM     50  C   UNL A   1      41.211  29.452  32.884  1.00  0.00     0.074 A 
ATOM     51  C   UNL A   1      39.926  28.848  33.088  1.00  0.00     0.031 C 
ATOM     52  C   UNL A   1      40.812  27.596  26.508  1.00  0.00     0.029 A 
ATOM     53  C   UNL A   1      41.933  27.250  27.363  1.00  0.00     0.049 A 
ATOM     54  H   UNL A   1      42.392  28.108  29.221  1.00  0.00     0.167 HD
ATOM     55  C   UNL A   1      42.366  29.332  33.590  1.00  0.00     0.037 A 
ATOM     56  C   UNL A   1      42.930  26.346  27.188  1.00  0.00     0.037 A 
ATOM     57  C   UNL A   1      43.430  30.050  32.931  1.00  0.00     0.049 A 
ATOM     58  C   UNL A   1      43.992  26.670  28.169  1.00  0.00     0.074 A 
ATOM     59  C   UNL A   1      43.721  31.370  32.662  1.00  0.00     0.029 A 
ATOM     60  N   UNL A   1      44.181  29.288  32.074  1.00  0.00    -0.354 N 
ATOM     61  N   UNL A   1      44.727  27.744  28.107  1.00  0.00    -0.248 NA
ATOM     62  C   UNL A   1      43.971  26.005  29.464  1.00  0.00     0.031 C 
ATOM     63  C   UNL A   1      44.442  31.362  31.430  1.00  0.00     0.029 A 
ATOM     64  C   UNL A   1      44.619  30.040  31.020  1.00  0.00     0.049 A 
ATOM     65  H   UNL A   1      44.377  28.331  32.200  1.00  0.00     0.167 HD
ATOM     66  C   UNL A   1      44.890  28.133  29.426  1.00  0.00     0.074 A 
ATOM     67  C   UNL A   1      44.545  26.951  30.212  1.00  0.00     0.031 C 
ATOM     68  C   UNL A   1      44.986  29.457  29.747  1.00  0.00     0.037 A 
BRANCH  55  69
ATOM     69  C   UNL A   1      42.659  28.171  34.524  1.00  0.00     0.057 A 
ATOM     70  C   UNL A   1      42.752  26.879  33.973  1.00  0.00     0.134 A 
ATOM     71  C   UNL A   1      42.537  28.204  35.931  1.00  0.00     0.134 A 
ATOM     72  F   UNL A   1      42.862  26.702  32.647  1.00  0.00    -0.206 F 
ATOM     73  C   UNL A   1      42.644  25.718  34.750  1.00  0.00     0.040 A 
ATOM     74  C   UNL A   1      42.478  27.051  36.719  1.00  0.00     0.040 A 
ATOM     75  F   UNL A   1      42.370  29.333  36.625  1.00  0.00    -0.206 F 
ATOM     76  C   UNL A   1      42.496  25.803  36.128  1.00  0.00     0.006 A 
ENDBRANCH  55  69
BRANCH  56  77
ATOM     77  C   UNL A   1      42.913  25.061  26.452  1.00  0.00     0.057 A 
ATOM     78  C   UNL A   1      43.818  24.799  25.413  1.00  0.00     0.134 A 
ATOM     79  C   UNL A   1      42.203  23.951  26.943  1.00  0.00     0.134 A 
ATOM     80  F   UNL A   1      44.576  25.784  24.907  1.00  0.00    -0.206 F 
ATOM     81  C   UNL A   1      44.023  23.508  24.907  1.00  0.00     0.040 A 
ATOM     82  C   UNL A   1      42.396  22.657  26.446  1.00  0.00     0.040 A 
ATOM     83  F   UNL A   1      41.370  24.071  27.987  1.00  0.00    -0.206 F 
ATOM     84  C   UNL A   1      43.320  22.429  25.433  1.00  0.00     0.006 A 
ENDBRANCH  56  77
BRANCH  68  85
ATOM     85  C   UNL A   1      45.334  30.409  28.636  1.00  0.00     0.057 A 
ATOM     86  C   UNL A   1      46.630  30.638  28.155  1.00  0.00     0.134 A 
ATOM     87  C   UNL A   1      44.283  31.035  27.958  1.00  0.00     0.134 A 
ATOM     88  F   UNL A   1      47.691  30.018  28.688  1.00  0.00    -0.206 F 
ATOM     89  C   UNL A   1      46.869  31.487  27.067  1.00  0.00     0.040 A 
ATOM     90  C   UNL A   1      44.505  31.854  26.850  1.00  0.00     0.040 A 
ATOM     91  F   UNL A   1      43.012  30.824  28.337  1.00  0.00    -0.206 F 
ATOM     92  C   UNL A   1      45.802  32.091  26.408  1.00  0.00     0.006 A 
ENDBRANCH  68  85
ENDBRANCH  42  43
ENDBRANCH  35  37
ENDBRANCH  34  35
ENDBRANCH  33  34
ENDBRANCH  32  33
ENDBRANCH  31  32
ENDBRANCH   1  31
TORSDOF 18
ENDMDL
MODEL 2
REMARK VINA RESULT:     -12.0      3.161      8.216
REMARK SMILES NS(=O)(=O)c1ccc(-n2nc(C(=O)OCCOCCOC(=O)c3ccc(-c4c5nc(c(-c6c(F)cccc6F)c6ccc([nH]6)c(-c6c(F)cccc6F)c6nc(c(-c7c(F)cccc7F)c7ccc4[nH]7)C=C6)C=C5)cc3)c(Cl)c2-c2ccc(Cl)cc2)cc1
REMARK SMILES IDX 16 1 15 2 14 3 12 4 13 5 11 6 9 7 10 8 79 9 77 10 78 11 8 12
REMARK SMILES IDX 5 13 6 14 88 15 7 16 87 17 2 18 3 19 4 20 1 21 80 24 81 25
REMARK SMILES IDX 86 26 82 27 85 28 83 29 84 30 17 31 18 32 19 33 20 34 21 35
REMARK SMILES IDX 22 36 23 37 24 38 76 39 25 40 75 41 26 42 27 43 28 44 69 45
REMARK SMILES IDX 29 46 74 47 68 48 70 49 30 50 73 51 67 52 66 53 31 55 57 56
REMARK SMILES IDX 40 57 56 58 41 59 44 60 55 61 71 62 42 63 43 64 54 66 72 67
REMARK SMILES IDX 45 68 32 69 33 70 38 71 34 72 35 73 37 74 39 75 36 76 58 77
REMARK SMILES IDX 59 78 64 79 60 80 61 81 63 82 65 83 62 84 46 85 47 86 52 87
REMARK SMILES IDX 48 88 49 89 51 90 53 91 50 92
REMARK H PARENT 1 22 1 23 70 54 44 65
REMARK Flexibility Score: inf
ROOT
ATOM      1  C   UNL A   1      35.925  22.579  23.494  1.00  0.00     0.202 C 
ENDROOT
BRANCH   1   2
ATOM      2  C   UNL A   1      34.581  23.249  23.215  1.00  0.00     0.261 C 
BRANCH   2   3
ATOM      3  O   UNL A   1      33.518  22.287  23.147  1.00  0.00    -0.458 OA
BRANCH   3   4
ATOM      4  C   UNL A   1      32.558  22.352  24.117  1.00  0.00     0.360 C 
ATOM      5  O   UNL A   1      32.074  21.372  24.671  1.00  0.00    -0.244 OA
BRANCH   4   6
ATOM      6  C   UNL A   1      32.204  23.737  24.457  1.00  0.00     0.190 A 
ATOM      7  N   UNL A   1      31.377  25.701  24.217  1.00  0.00    -0.231 N 
ATOM      8  N   UNL A   1      31.239  24.418  23.802  1.00  0.00    -0.159 NA
ATOM      9  C   UNL A   1      32.314  25.826  25.234  1.00  0.00     0.094 A 
ATOM     10  C   UNL A   1      32.779  24.545  25.462  1.00  0.00     0.102 A 
ATOM     11  Cl  UNL A   1      33.898  24.072  26.659  1.00  0.00    -0.079 Cl
BRANCH   7  12
ATOM     12  C   UNL A   1      30.632  26.738  23.599  1.00  0.00     0.065 A 
ATOM     13  C   UNL A   1      29.215  28.941  22.650  1.00  0.00     0.082 A 
ATOM     14  C   UNL A   1      28.526  27.874  23.245  1.00  0.00     0.024 A 
ATOM     15  C   UNL A   1      30.598  28.879  22.465  1.00  0.00     0.024 A 
ATOM     16  C   UNL A   1      29.234  26.754  23.700  1.00  0.00     0.030 A 
ATOM     17  C   UNL A   1      31.308  27.781  22.952  1.00  0.00     0.030 A 
BRANCH  13  18
ATOM     18  S   UNL A   1      28.310  30.387  22.178  1.00  0.00     0.238 S 
ATOM     19  O   UNL A   1      27.434  30.738  23.278  1.00  0.00    -0.207 OA
ATOM     20  O   UNL A   1      27.846  30.226  20.827  1.00  0.00    -0.207 OA
BRANCH  18  21
ATOM     21  N   UNL A   1      29.465  31.608  22.115  1.00  0.00    -0.225 NA
ATOM     22  H   UNL A   1      29.891  31.723  23.036  1.00  0.00     0.137 HD
ATOM     23  H   UNL A   1      29.021  32.483  21.836  1.00  0.00     0.137 HD
ENDBRANCH  18  21
ENDBRANCH  13  18
ENDBRANCH   7  12
BRANCH   9  24
ATOM     24  C   UNL A   1      32.698  27.055  25.926  1.00  0.00     0.002 A 
ATOM     25  C   UNL A   1      31.741  27.699  26.724  1.00  0.00     0.012 A 
ATOM     26  C   UNL A   1      33.960  27.637  25.761  1.00  0.00     0.012 A 
ATOM     27  C   UNL A   1      32.024  28.926  27.321  1.00  0.00     0.021 A 
ATOM     28  C   UNL A   1      34.248  28.862  26.371  1.00  0.00     0.021 A 
ATOM     29  C   UNL A   1      33.275  29.506  27.137  1.00  0.00     0.041 A 
ATOM     30  Cl  UNL A   1      33.613  31.035  27.845  1.00  0.00    -0.084 Cl
ENDBRANCH   9  24
ENDBRANCH   4   6
ENDBRANCH   3   4
ENDBRANCH   2   3
ENDBRANCH   1   2
BRANCH   1  31
ATOM     31  O   UNL A   1      36.950  23.393  24.062  1.00  0.00    -0.374 OA
BRANCH  31  32
ATOM     32  C   UNL A   1      37.235  23.300  25.452  1.00  0.00     0.202 C 
BRANCH  32  33
ATOM     33  C   UNL A   1      38.386  22.407  25.886  1.00  0.00     0.261 C 
BRANCH  33  34
ATOM     34  O   UNL A   1      39.200  23.003  26.884  1.00  0.00    -0.460 OA
BRANCH  34  35
ATOM     35  C   UNL A   1      40.515  23.032  26.557  1.00  0.00     0.338 C 
ATOM     36  O   UNL A   1      41.229  22.084  26.280  1.00  0.00    -0.246 OA
BRANCH  35  37
ATOM     37  C   UNL A   1      41.023  24.380  26.822  1.00  0.00     0.060 A 
ATOM     38  C   UNL A   1      41.850  24.519  27.938  1.00  0.00     0.016 A 
ATOM     39  C   UNL A   1      40.421  25.482  26.197  1.00  0.00     0.016 A 
ATOM     40  C   UNL A   1      41.893  25.742  28.565  1.00  0.00     0.010 A 
ATOM     41  C   UNL A   1      40.440  26.693  26.841  1.00  0.00     0.010 A 
ATOM     42  C   UNL A   1      41.110  26.784  28.057  1.00  0.00    -0.014 A 
BRANCH  42  43
ATOM     43  C   UNL A   1      41.143  28.055  28.743  1.00  0.00     0.031 A 
ATOM     44  C   UNL A   1      42.349  28.824  28.374  1.00  0.00     0.074 A 
ATOM     45  C   UNL A   1      40.130  28.485  29.520  1.00  0.00     0.049 A 
ATOM     46  N   UNL A   1      43.386  29.050  29.108  1.00  0.00    -0.248 NA
ATOM     47  C   UNL A   1      42.533  29.173  26.953  1.00  0.00     0.031 C 
ATOM     48  C   UNL A   1      38.810  27.871  29.692  1.00  0.00     0.029 A 
ATOM     49  N   UNL A   1      40.036  29.627  30.255  1.00  0.00    -0.354 N 
ATOM     50  C   UNL A   1      44.242  29.796  28.303  1.00  0.00     0.074 A 
ATOM     51  C   UNL A   1      43.789  29.617  26.954  1.00  0.00     0.031 C 
ATOM     52  C   UNL A   1      37.980  28.756  30.294  1.00  0.00     0.029 A 
ATOM     53  C   UNL A   1      38.742  29.935  30.666  1.00  0.00     0.049 A 
ATOM     54  H   UNL A   1      40.815  30.187  30.478  1.00  0.00     0.167 HD
ATOM     55  C   UNL A   1      45.012  30.770  28.855  1.00  0.00     0.037 A 
ATOM     56  C   UNL A   1      38.339  31.108  31.216  1.00  0.00     0.037 A 
ATOM     57  C   UNL A   1      45.107  30.582  30.282  1.00  0.00     0.049 A 
ATOM     58  C   UNL A   1      39.551  31.790  31.728  1.00  0.00     0.074 A 
ATOM     59  C   UNL A   1      45.667  29.649  31.127  1.00  0.00     0.029 A 
ATOM     60  N   UNL A   1      44.172  31.274  31.008  1.00  0.00    -0.354 N 
ATOM     61  N   UNL A   1      40.247  31.360  32.741  1.00  0.00    -0.248 NA
ATOM     62  C   UNL A   1      40.238  32.736  30.859  1.00  0.00     0.031 C 
ATOM     63  C   UNL A   1      44.828  29.622  32.281  1.00  0.00     0.029 A 
ATOM     64  C   UNL A   1      43.823  30.578  32.131  1.00  0.00     0.049 A 
ATOM     65  H   UNL A   1      43.803  32.151  30.755  1.00  0.00     0.167 HD
ATOM     66  C   UNL A   1      41.564  31.616  32.395  1.00  0.00     0.074 A 
ATOM     67  C   UNL A   1      41.485  32.596  31.316  1.00  0.00     0.031 C 
ATOM     68  C   UNL A   1      42.559  30.777  32.809  1.00  0.00     0.037 A 
BRANCH  55  69
ATOM     69  C   UNL A   1      45.210  32.138  28.225  1.00  0.00     0.057 A 
ATOM     70  C   UNL A   1      44.074  32.933  27.986  1.00  0.00     0.134 A 
ATOM     71  C   UNL A   1      46.382  32.571  27.566  1.00  0.00     0.134 A 
ATOM     72  F   UNL A   1      42.891  32.629  28.542  1.00  0.00    -0.206 F 
ATOM     73  C   UNL A   1      44.084  34.014  27.094  1.00  0.00     0.040 A 
ATOM     74  C   UNL A   1      46.413  33.678  26.713  1.00  0.00     0.040 A 
ATOM     75  F   UNL A   1      47.540  31.908  27.619  1.00  0.00    -0.206 F 
ATOM     76  C   UNL A   1      45.255  34.384  26.447  1.00  0.00     0.006 A 
ENDBRANCH  55  69
BRANCH  56  77
ATOM     77  C   UNL A   1      37.046  31.816  31.076  1.00  0.00     0.057 A 
ATOM     78  C   UNL A   1      36.186  31.994  32.170  1.00  0.00     0.134 A 
ATOM     79  C   UNL A   1      36.757  32.585  29.935  1.00  0.00     0.134 A 
ATOM     80  F   UNL A   1      36.404  31.341  33.321  1.00  0.00    -0.206 F 
ATOM     81  C   UNL A   1      35.117  32.901  32.140  1.00  0.00     0.040 A 
ATOM     82  C   UNL A   1      35.692  33.491  29.891  1.00  0.00     0.040 A 
ATOM     83  F   UNL A   1      37.558  32.551  28.860  1.00  0.00    -0.206 F 
ATOM     84  C   UNL A   1      34.875  33.663  31.001  1.00  0.00     0.006 A 
ENDBRANCH  56  77
BRANCH  68  85
ATOM     85  C   UNL A   1      42.251  29.860  33.959  1.00  0.00     0.057 A 
ATOM     86  C   UNL A   1      41.759  28.553  33.831  1.00  0.00     0.134 A 
ATOM     87  C   UNL A   1      42.574  30.295  35.248  1.00  0.00     0.134 A 
ATOM     88  F   UNL A   1      41.500  28.021  32.630  1.00  0.00    -0.206 F 
ATOM     89  C   UNL A   1      41.564  27.730  34.947  1.00  0.00     0.040 A 
ATOM     90  C   UNL A   1      42.419  29.471  36.364  1.00  0.00     0.040 A 
ATOM     91  F   UNL A   1      43.092  31.518  35.439  1.00  0.00    -0.206 F 
ATOM     92  C   UNL A   1      41.902  28.189  36.217  1.00  0.00     0.006 A 
ENDBRANCH  68  85
ENDBRANCH  42  43
ENDBRANCH  35  37
ENDBRANCH  34  35
ENDBRANCH  33  34
ENDBRANCH  32  33
ENDBRANCH  31  32
ENDBRANCH   1  31
TORSDOF 18
ENDMDL
MODEL 3
REMARK VINA RESULT:     -11.8      2.006      5.936
REMARK SMILES NS(=O)(=O)c1ccc(-n2nc(C(=O)OCCOCCOC(=O)c3ccc(-c4c5nc(c(-c6c(F)cccc6F)c6ccc([nH]6)c(-c6c(F)cccc6F)c6nc(c(-c7c(F)cccc7F)c7ccc4[nH]7)C=C6)C=C5)cc3)c(Cl)c2-c2ccc(Cl)cc2)cc1
REMARK SMILES IDX 16 1 15 2 14 3 12 4 13 5 11 6 9 7 10 8 79 9 77 10 78 11 8 12
REMARK SMILES IDX 5 13 6 14 88 15 7 16 87 17 2 18 3 19 4 20 1 21 80 24 81 25
REMARK SMILES IDX 86 26 82 27 85 28 83 29 84 30 17 31 18 32 19 33 20 34 21 35
REMARK SMILES IDX 22 36 23 37 24 38 76 39 25 40 75 41 26 42 27 43 28 44 69 45
REMARK SMILES IDX 29 46 74 47 68 48 70 49 30 50 73 51 67 52 66 53 31 55 57 56
REMARK SMILES IDX 40 57 56 58 41 59 44 60 55 61 71 62 42 63 43 64 54 66 72 67
REMARK SMILES IDX 45 68 32 69 33 70 38 71 34 72 35 73 37 74 39 75 36 76 58 77
REMARK SMILES IDX 59 78 64 79 60 80 61 81 63 82 65 83 62 84 46 85 47 86 52 87
REMARK SMILES IDX 48 88 49 89 51 90 53 91 50 92
REMARK H PARENT 1 22 1 23 70 54 44 65
REMARK Flexibility Score: inf
ROOT
ATOM      1  C   UNL A   1      31.699  29.423  25.117  1.00  0.00     0.202 C 
ENDROOT
BRANCH   1   2
ATOM      2  C   UNL A   1      30.854  28.352  24.431  1.00  0.00     0.261 C 
BRANCH   2   3
ATOM      3  O   UNL A   1      31.159  27.042  24.931  1.00  0.00    -0.458 OA
BRANCH   3   4
ATOM      4  C   UNL A   1      30.777  25.978  24.162  1.00  0.00     0.360 C 
ATOM      5  O   UNL A   1      29.727  25.928  23.532  1.00  0.00    -0.244 OA
BRANCH   4   6
ATOM      6  C   UNL A   1      31.793  24.917  24.136  1.00  0.00     0.190 A 
ATOM      7  N   UNL A   1      32.615  22.939  24.247  1.00  0.00    -0.231 N 
ATOM      8  N   UNL A   1      31.474  23.616  23.967  1.00  0.00    -0.159 NA
ATOM      9  C   UNL A   1      33.693  23.790  24.449  1.00  0.00     0.094 A 
ATOM     10  C   UNL A   1      33.189  25.066  24.280  1.00  0.00     0.102 A 
ATOM     11  Cl  UNL A   1      34.077  26.521  24.336  1.00  0.00    -0.079 Cl
BRANCH   7  12
ATOM     12  C   UNL A   1      32.604  21.524  24.338  1.00  0.00     0.065 A 
ATOM     13  C   UNL A   1      32.896  18.757  24.472  1.00  0.00     0.082 A 
ATOM     14  C   UNL A   1      32.531  19.360  23.259  1.00  0.00     0.024 A 
ATOM     15  C   UNL A   1      33.047  19.523  25.630  1.00  0.00     0.024 A 
ATOM     16  C   UNL A   1      32.359  20.749  23.196  1.00  0.00     0.030 A 
ATOM     17  C   UNL A   1      32.912  20.909  25.559  1.00  0.00     0.030 A 
BRANCH  13  18
ATOM     18  S   UNL A   1      33.208  17.015  24.500  1.00  0.00     0.238 S 
ATOM     19  O   UNL A   1      33.472  16.590  23.139  1.00  0.00    -0.207 OA
ATOM     20  O   UNL A   1      32.232  16.380  25.343  1.00  0.00    -0.207 OA
BRANCH  18  21
ATOM     21  N   UNL A   1      34.673  16.860  25.312  1.00  0.00    -0.225 NA
ATOM     22  H   UNL A   1      34.500  16.769  26.313  1.00  0.00     0.137 HD
ATOM     23  H   UNL A   1      35.247  17.685  25.141  1.00  0.00     0.137 HD
ENDBRANCH  18  21
ENDBRANCH  13  18
ENDBRANCH   7  12
BRANCH   9  24
ATOM     24  C   UNL A   1      35.069  23.403  24.750  1.00  0.00     0.002 A 
ATOM     25  C   UNL A   1      35.724  22.525  23.874  1.00  0.00     0.012 A 
ATOM     26  C   UNL A   1      35.723  23.827  25.914  1.00  0.00     0.012 A 
ATOM     27  C   UNL A   1      36.998  22.046  24.169  1.00  0.00     0.021 A 
ATOM     28  C   UNL A   1      37.007  23.355  26.203  1.00  0.00     0.021 A 
ATOM     29  C   UNL A   1      37.632  22.457  25.337  1.00  0.00     0.041 A 
ATOM     30  Cl  UNL A   1      39.190  21.840  25.718  1.00  0.00    -0.084 Cl
ENDBRANCH   9  24
ENDBRANCH   4   6
ENDBRANCH   3   4
ENDBRANCH   2   3
ENDBRANCH   1   2
BRANCH   1  31
ATOM     31  O   UNL A   1      32.563  28.991  26.168  1.00  0.00    -0.374 OA
BRANCH  31  32
ATOM     32  C   UNL A   1      33.858  29.565  26.296  1.00  0.00     0.202 C 
BRANCH  32  33
ATOM     33  C   UNL A   1      34.633  29.298  27.575  1.00  0.00     0.261 C 
BRANCH  33  34
ATOM     34  O   UNL A   1      35.768  30.137  27.718  1.00  0.00    -0.460 OA
BRANCH  34  35
ATOM     35  C   UNL A   1      36.496  29.872  28.829  1.00  0.00     0.338 C 
ATOM     36  O   UNL A   1      36.378  30.381  29.930  1.00  0.00    -0.246 OA
BRANCH  35  37
ATOM     37  C   UNL A   1      37.632  29.030  28.443  1.00  0.00     0.060 A 
ATOM     38  C   UNL A   1      38.115  28.160  29.421  1.00  0.00     0.016 A 
ATOM     39  C   UNL A   1      38.374  29.352  27.297  1.00  0.00     0.016 A 
ATOM     40  C   UNL A   1      39.437  27.788  29.363  1.00  0.00     0.010 A 
ATOM     41  C   UNL A   1      39.700  29.006  27.256  1.00  0.00     0.010 A 
ATOM     42  C   UNL A   1      40.231  28.296  28.328  1.00  0.00    -0.014 A 
BRANCH  42  43
ATOM     43  C   UNL A   1      41.626  27.921  28.296  1.00  0.00     0.031 A 
ATOM     44  C   UNL A   1      41.804  26.608  27.642  1.00  0.00     0.074 A 
ATOM     45  C   UNL A   1      42.607  28.741  28.718  1.00  0.00     0.049 A 
ATOM     46  N   UNL A   1      42.107  25.489  28.208  1.00  0.00    -0.248 NA
ATOM     47  C   UNL A   1      41.357  26.471  26.244  1.00  0.00     0.031 C 
ATOM     48  C   UNL A   1      42.490  30.147  29.118  1.00  0.00     0.029 A 
ATOM     49  N   UNL A   1      43.948  28.513  28.786  1.00  0.00    -0.354 N 
ATOM     50  C   UNL A   1      42.136  24.558  27.174  1.00  0.00     0.074 A 
ATOM     51  C   UNL A   1      41.433  25.151  26.073  1.00  0.00     0.031 C 
ATOM     52  C   UNL A   1      43.724  30.702  29.170  1.00  0.00     0.029 A 
ATOM     53  C   UNL A   1      44.714  29.666  28.939  1.00  0.00     0.049 A 
ATOM     54  H   UNL A   1      44.341  27.612  28.732  1.00  0.00     0.167 HD
ATOM     55  C   UNL A   1      43.041  23.544  27.200  1.00  0.00     0.037 A 
ATOM     56  C   UNL A   1      46.064  29.746  28.819  1.00  0.00     0.037 A 
ATOM     57  C   UNL A   1      43.560  23.374  28.536  1.00  0.00     0.049 A 
ATOM     58  C   UNL A   1      46.599  28.373  28.973  1.00  0.00     0.074 A 
ATOM     59  C   UNL A   1      43.058  22.969  29.754  1.00  0.00     0.029 A 
ATOM     60  N   UNL A   1      44.717  24.065  28.786  1.00  0.00    -0.354 N 
ATOM     61  N   UNL A   1      46.569  27.709  30.093  1.00  0.00    -0.248 NA
ATOM     62  C   UNL A   1      46.804  27.567  27.777  1.00  0.00     0.031 C 
ATOM     63  C   UNL A   1      43.799  23.692  30.735  1.00  0.00     0.029 A 
ATOM     64  C   UNL A   1      44.766  24.466  30.091  1.00  0.00     0.049 A 
ATOM     65  H   UNL A   1      45.417  24.247  28.117  1.00  0.00     0.167 HD
ATOM     66  C   UNL A   1      46.302  26.402  29.718  1.00  0.00     0.074 A 
ATOM     67  C   UNL A   1      46.614  26.349  28.292  1.00  0.00     0.031 C 
ATOM     68  C   UNL A   1      45.565  25.590  30.531  1.00  0.00     0.037 A 
BRANCH  55  69
ATOM     69  C   UNL A   1      43.833  23.097  25.984  1.00  0.00     0.057 A 
ATOM     70  C   UNL A   1      43.900  21.720  25.702  1.00  0.00     0.134 A 
ATOM     71  C   UNL A   1      44.771  23.888  25.284  1.00  0.00     0.134 A 
ATOM     72  F   UNL A   1      43.073  20.852  26.305  1.00  0.00    -0.206 F 
ATOM     73  C   UNL A   1      44.877  21.169  24.861  1.00  0.00     0.040 A 
ATOM     74  C   UNL A   1      45.717  23.353  24.406  1.00  0.00     0.040 A 
ATOM     75  F   UNL A   1      44.903  25.204  25.471  1.00  0.00    -0.206 F 
ATOM     76  C   UNL A   1      45.797  21.986  24.218  1.00  0.00     0.006 A 
ENDBRANCH  55  69
BRANCH  56  77
ATOM     77  C   UNL A   1      46.895  30.854  28.296  1.00  0.00     0.057 A 
ATOM     78  C   UNL A   1      46.735  31.336  26.988  1.00  0.00     0.134 A 
ATOM     79  C   UNL A   1      47.662  31.658  29.157  1.00  0.00     0.134 A 
ATOM     80  F   UNL A   1      45.982  30.664  26.103  1.00  0.00    -0.206 F 
ATOM     81  C   UNL A   1      47.284  32.555  26.568  1.00  0.00     0.040 A 
ATOM     82  C   UNL A   1      48.218  32.876  28.751  1.00  0.00     0.040 A 
ATOM     83  F   UNL A   1      47.815  31.334  30.450  1.00  0.00    -0.206 F 
ATOM     84  C   UNL A   1      48.018  33.336  27.454  1.00  0.00     0.006 A 
ENDBRANCH  56  77
BRANCH  68  85
ATOM     85  C   UNL A   1      45.431  25.999  31.972  1.00  0.00     0.057 A 
ATOM     86  C   UNL A   1      44.329  26.674  32.514  1.00  0.00     0.134 A 
ATOM     87  C   UNL A   1      46.426  25.586  32.864  1.00  0.00     0.134 A 
ATOM     88  F   UNL A   1      43.290  27.034  31.750  1.00  0.00    -0.206 F 
ATOM     89  C   UNL A   1      44.243  26.958  33.882  1.00  0.00     0.040 A 
ATOM     90  C   UNL A   1      46.334  25.831  34.235  1.00  0.00     0.040 A 
ATOM     91  F   UNL A   1      47.488  24.895  32.421  1.00  0.00    -0.206 F 
ATOM     92  C   UNL A   1      45.245  26.528  34.747  1.00  0.00     0.006 A 
ENDBRANCH  68  85
ENDBRANCH  42  43
ENDBRANCH  35  37
ENDBRANCH  34  35
ENDBRANCH  33  34
ENDBRANCH  32  33
ENDBRANCH  31  32
ENDBRANCH   1  31
TORSDOF 18
ENDMDL
