MODEL 1
REMARK VINA RESULT:      -9.0      0.000      0.000
REMARK SMILES Cc1cccc(Cl)c1Nc1ccccc1CC(=O)OCCOCCOC(=O)c1ccc(-c2c3nc(c(-c4c(F)cccc4F)c4ccc([nH]4)c(-c4c(F)cccc4F)c4nc(c(-c5c(F)cccc5F)c5ccc2[nH]5)C=C4)C=C3)cc1
REMARK SMILES IDX 21 1 20 2 19 3 17 4 18 5 16 6 15 7 10 8 11 9 12 10 14 11
REMARK SMILES IDX 13 12 9 13 8 15 1 16 2 17 3 18 4 19 6 20 5 21 7 22 22 23
REMARK SMILES IDX 23 24 24 25 25 26 26 27 27 28 28 29 29 30 81 31 30 32 80 33
REMARK SMILES IDX 31 34 32 35 33 36 74 37 34 38 79 39 73 40 75 41 35 42 78 43
REMARK SMILES IDX 72 44 71 45 36 47 62 48 45 49 61 50 46 51 49 52 60 53 76 54
REMARK SMILES IDX 47 55 48 56 59 58 77 59 50 60 37 61 38 62 43 63 39 64 40 65
REMARK SMILES IDX 42 66 44 67 41 68 63 69 64 70 69 71 65 72 66 73 68 74 70 75
REMARK SMILES IDX 67 76 51 77 52 78 57 79 53 80 54 81 56 82 58 83 55 84
REMARK H PARENT 9 14 75 46 49 57
REMARK Flexibility Score: inf
ROOT
ATOM      1  C   UNL A   1      35.085  34.808  33.806  1.00  0.00     0.202 C 
ENDROOT
BRANCH   1   2
ATOM      2  C   UNL A   1      36.415  34.097  34.077  1.00  0.00     0.261 C 
BRANCH   2   3
ATOM      3  O   UNL A   1      36.257  32.700  34.394  1.00  0.00    -0.463 OA
BRANCH   3   4
ATOM      4  C   UNL A   1      37.265  31.896  33.965  1.00  0.00     0.310 C 
ATOM      5  O   UNL A   1      37.091  30.858  33.329  1.00  0.00    -0.252 OA
BRANCH   4   6
ATOM      6  C   UNL A   1      38.656  32.341  34.339  1.00  0.00     0.160 C 
BRANCH   6   7
ATOM      7  C   UNL A   1      39.743  31.316  34.600  1.00  0.00    -0.013 A 
ATOM      8  C   UNL A   1      40.366  31.134  35.855  1.00  0.00     0.042 A 
ATOM      9  C   UNL A   1      41.406  30.189  35.968  1.00  0.00     0.026 A 
ATOM     10  C   UNL A   1      41.784  29.385  34.893  1.00  0.00     0.002 A 
ATOM     11  C   UNL A   1      40.108  30.457  33.544  1.00  0.00     0.006 A 
ATOM     12  C   UNL A   1      41.117  29.504  33.685  1.00  0.00     0.000 A 
BRANCH   8  13
ATOM     13  N   UNL A   1      39.916  31.719  37.057  1.00  0.00    -0.354 N 
ATOM     14  H   UNL A   1      39.385  31.120  37.630  1.00  0.00     0.167 HD
BRANCH  13  15
ATOM     15  C   UNL A   1      40.099  33.023  37.584  1.00  0.00     0.060 A 
ATOM     16  C   UNL A   1      37.560  33.247  37.682  1.00  0.00     0.046 C 
ATOM     17  C   UNL A   1      38.948  33.742  37.989  1.00  0.00    -0.026 A 
ATOM     18  C   UNL A   1      39.088  34.920  38.745  1.00  0.00     0.005 A 
ATOM     19  C   UNL A   1      40.347  35.412  39.078  1.00  0.00     0.002 A 
ATOM     20  C   UNL A   1      41.368  33.591  37.860  1.00  0.00     0.064 A 
ATOM     21  C   UNL A   1      41.484  34.762  38.617  1.00  0.00     0.023 A 
ATOM     22  Cl  UNL A   1      42.853  32.937  37.247  1.00  0.00    -0.082 Cl
ENDBRANCH  13  15
ENDBRANCH   8  13
ENDBRANCH   6   7
ENDBRANCH   4   6
ENDBRANCH   3   4
ENDBRANCH   2   3
ENDBRANCH   1   2
BRANCH   1  23
ATOM     23  O   UNL A   1      35.084  35.845  32.827  1.00  0.00    -0.374 OA
BRANCH  23  24
ATOM     24  C   UNL A   1      33.925  36.674  32.764  1.00  0.00     0.202 C 
BRANCH  24  25
ATOM     25  C   UNL A   1      33.084  36.587  31.484  1.00  0.00     0.261 C 
BRANCH  25  26
ATOM     26  O   UNL A   1      32.895  35.227  31.054  1.00  0.00    -0.460 OA
BRANCH  26  27
ATOM     27  C   UNL A   1      33.178  35.004  29.751  1.00  0.00     0.338 C 
ATOM     28  O   UNL A   1      32.643  35.521  28.777  1.00  0.00    -0.246 OA
BRANCH  27  29
ATOM     29  C   UNL A   1      34.380  34.162  29.618  1.00  0.00     0.060 A 
ATOM     30  C   UNL A   1      34.578  33.176  30.593  1.00  0.00     0.016 A 
ATOM     31  C   UNL A   1      35.339  34.385  28.627  1.00  0.00     0.016 A 
ATOM     32  C   UNL A   1      35.768  32.457  30.626  1.00  0.00     0.010 A 
ATOM     33  C   UNL A   1      36.540  33.667  28.668  1.00  0.00     0.010 A 
ATOM     34  C   UNL A   1      36.778  32.734  29.694  1.00  0.00    -0.014 A 
BRANCH  34  35
ATOM     35  C   UNL A   1      38.129  32.163  29.914  1.00  0.00     0.031 A 
ATOM     36  C   UNL A   1      39.125  32.947  30.725  1.00  0.00     0.074 A 
ATOM     37  C   UNL A   1      38.444  30.939  29.457  1.00  0.00     0.049 A 
ATOM     38  N   UNL A   1      40.351  32.635  31.064  1.00  0.00    -0.248 NA
ATOM     39  C   UNL A   1      38.678  34.257  31.225  1.00  0.00     0.031 C 
ATOM     40  C   UNL A   1      37.552  30.066  28.698  1.00  0.00     0.029 A 
ATOM     41  N   UNL A   1      39.605  30.218  29.573  1.00  0.00    -0.354 N 
ATOM     42  C   UNL A   1      40.819  33.706  31.814  1.00  0.00     0.074 A 
ATOM     43  C   UNL A   1      39.759  34.691  31.854  1.00  0.00     0.031 C 
ATOM     44  C   UNL A   1      38.200  28.924  28.411  1.00  0.00     0.029 A 
ATOM     45  C   UNL A   1      39.559  28.997  28.946  1.00  0.00     0.049 A 
ATOM     46  H   UNL A   1      40.397  30.544  30.059  1.00  0.00     0.167 HD
ATOM     47  C   UNL A   1      42.019  33.852  32.424  1.00  0.00     0.037 A 
ATOM     48  C   UNL A   1      40.511  28.053  28.810  1.00  0.00     0.037 A 
ATOM     49  C   UNL A   1      43.070  32.872  32.387  1.00  0.00     0.049 A 
ATOM     50  C   UNL A   1      41.860  28.266  29.442  1.00  0.00     0.074 A 
ATOM     51  C   UNL A   1      44.318  32.920  32.985  1.00  0.00     0.029 A 
ATOM     52  N   UNL A   1      42.999  31.665  31.708  1.00  0.00    -0.354 N 
ATOM     53  N   UNL A   1      42.284  29.274  30.167  1.00  0.00    -0.248 NA
ATOM     54  C   UNL A   1      42.863  27.210  29.239  1.00  0.00     0.031 C 
ATOM     55  C   UNL A   1      45.018  31.762  32.630  1.00  0.00     0.029 A 
ATOM     56  C   UNL A   1      44.190  30.971  31.851  1.00  0.00     0.049 A 
ATOM     57  H   UNL A   1      42.219  31.348  31.199  1.00  0.00     0.167 HD
ATOM     58  C   UNL A   1      43.589  28.961  30.530  1.00  0.00     0.074 A 
ATOM     59  C   UNL A   1      43.883  27.665  29.952  1.00  0.00     0.031 C 
ATOM     60  C   UNL A   1      44.464  29.680  31.275  1.00  0.00     0.037 A 
BRANCH  47  61
ATOM     61  C   UNL A   1      42.263  35.132  33.168  1.00  0.00     0.057 A 
ATOM     62  C   UNL A   1      41.692  35.380  34.423  1.00  0.00     0.134 A 
ATOM     63  C   UNL A   1      43.102  36.117  32.634  1.00  0.00     0.134 A 
ATOM     64  F   UNL A   1      40.867  34.482  34.983  1.00  0.00    -0.206 F 
ATOM     65  C   UNL A   1      41.931  36.571  35.110  1.00  0.00     0.040 A 
ATOM     66  C   UNL A   1      43.367  37.303  33.322  1.00  0.00     0.040 A 
ATOM     67  F   UNL A   1      43.684  35.941  31.438  1.00  0.00    -0.206 F 
ATOM     68  C   UNL A   1      42.775  37.534  34.562  1.00  0.00     0.006 A 
ENDBRANCH  47  61
BRANCH  48  69
ATOM     69  C   UNL A   1      40.225  26.819  28.036  1.00  0.00     0.057 A 
ATOM     70  C   UNL A   1      40.705  26.651  26.732  1.00  0.00     0.134 A 
ATOM     71  C   UNL A   1      39.452  25.786  28.577  1.00  0.00     0.134 A 
ATOM     72  F   UNL A   1      41.431  27.616  26.150  1.00  0.00    -0.206 F 
ATOM     73  C   UNL A   1      40.413  25.506  25.988  1.00  0.00     0.040 A 
ATOM     74  C   UNL A   1      39.172  24.626  27.855  1.00  0.00     0.040 A 
ATOM     75  F   UNL A   1      38.962  25.886  29.822  1.00  0.00    -0.206 F 
ATOM     76  C   UNL A   1      39.648  24.486  26.552  1.00  0.00     0.006 A 
ENDBRANCH  48  69
BRANCH  60  77
ATOM     77  C   UNL A   1      45.809  29.070  31.536  1.00  0.00     0.057 A 
ATOM     78  C   UNL A   1      46.030  28.198  32.609  1.00  0.00     0.134 A 
ATOM     79  C   UNL A   1      46.886  29.327  30.678  1.00  0.00     0.134 A 
ATOM     80  F   UNL A   1      45.044  27.921  33.474  1.00  0.00    -0.206 F 
ATOM     81  C   UNL A   1      47.280  27.616  32.829  1.00  0.00     0.040 A 
ATOM     82  C   UNL A   1      48.133  28.733  30.873  1.00  0.00     0.040 A 
ATOM     83  F   UNL A   1      46.738  30.146  29.626  1.00  0.00    -0.206 F 
ATOM     84  C   UNL A   1      48.334  27.878  31.956  1.00  0.00     0.006 A 
ENDBRANCH  60  77
ENDBRANCH  34  35
ENDBRANCH  27  29
ENDBRANCH  26  27
ENDBRANCH  25  26
ENDBRANCH  24  25
ENDBRANCH  23  24
ENDBRANCH   1  23
TORSDOF 17
ENDMDL
MODEL 2
REMARK VINA RESULT:      -8.7      4.668     10.044
REMARK SMILES Cc1cccc(Cl)c1Nc1ccccc1CC(=O)OCCOCCOC(=O)c1ccc(-c2c3nc(c(-c4c(F)cccc4F)c4ccc([nH]4)c(-c4c(F)cccc4F)c4nc(c(-c5c(F)cccc5F)c5ccc2[nH]5)C=C4)C=C3)cc1
REMARK SMILES IDX 21 1 20 2 19 3 17 4 18 5 16 6 15 7 10 8 11 9 12 10 14 11
REMARK SMILES IDX 13 12 9 13 8 15 1 16 2 17 3 18 4 19 6 20 5 21 7 22 22 23
REMARK SMILES IDX 23 24 24 25 25 26 26 27 27 28 28 29 29 30 81 31 30 32 80 33
REMARK SMILES IDX 31 34 32 35 33 36 74 37 34 38 79 39 73 40 75 41 35 42 78 43
REMARK SMILES IDX 72 44 71 45 36 47 62 48 45 49 61 50 46 51 49 52 60 53 76 54
REMARK SMILES IDX 47 55 48 56 59 58 77 59 50 60 37 61 38 62 43 63 39 64 40 65
REMARK SMILES IDX 42 66 44 67 41 68 63 69 64 70 69 71 65 72 66 73 68 74 70 75
REMARK SMILES IDX 67 76 51 77 52 78 57 79 53 80 54 81 56 82 58 83 55 84
REMARK H PARENT 9 14 75 46 49 57
REMARK Flexibility Score: inf
ROOT
ATOM      1  C   UNL A   1      33.172  30.311  26.291  1.00  0.00     0.202 C 
ENDROOT
BRANCH   1   2
ATOM      2  C   UNL A   1      33.383  28.793  26.274  1.00  0.00     0.261 C 
BRANCH   2   3
ATOM      3  O   UNL A   1      32.182  28.051  26.564  1.00  0.00    -0.463 OA
BRANCH   3   4
ATOM      4  C   UNL A   1      32.300  26.702  26.453  1.00  0.00     0.310 C 
ATOM      5  O   UNL A   1      31.406  25.909  26.745  1.00  0.00    -0.252 OA
BRANCH   4   6
ATOM      6  C   UNL A   1      33.634  26.204  25.959  1.00  0.00     0.160 C 
BRANCH   6   7
ATOM      7  C   UNL A   1      33.749  24.837  25.311  1.00  0.00    -0.013 A 
ATOM      8  C   UNL A   1      33.416  24.577  23.963  1.00  0.00     0.042 A 
ATOM      9  C   UNL A   1      33.507  23.254  23.482  1.00  0.00     0.026 A 
ATOM     10  C   UNL A   1      33.983  22.216  24.283  1.00  0.00     0.002 A 
ATOM     11  C   UNL A   1      34.275  23.782  26.084  1.00  0.00     0.006 A 
ATOM     12  C   UNL A   1      34.389  22.486  25.580  1.00  0.00     0.000 A 
BRANCH   8  13
ATOM     13  N   UNL A   1      33.147  25.575  23.004  1.00  0.00    -0.354 N 
ATOM     14  H   UNL A   1      33.740  25.558  22.218  1.00  0.00     0.167 HD
BRANCH  13  15
ATOM     15  C   UNL A   1      32.167  26.600  22.976  1.00  0.00     0.060 A 
ATOM     16  C   UNL A   1      30.391  24.793  23.279  1.00  0.00     0.046 C 
ATOM     17  C   UNL A   1      30.819  26.235  23.213  1.00  0.00    -0.026 A 
ATOM     18  C   UNL A   1      29.855  27.231  23.449  1.00  0.00     0.005 A 
ATOM     19  C   UNL A   1      30.198  28.580  23.423  1.00  0.00     0.002 A 
ATOM     20  C   UNL A   1      32.473  27.980  22.868  1.00  0.00     0.064 A 
ATOM     21  C   UNL A   1      31.499  28.954  23.111  1.00  0.00     0.023 A 
ATOM     22  Cl  UNL A   1      34.027  28.571  22.376  1.00  0.00    -0.082 Cl
ENDBRANCH  13  15
ENDBRANCH   8  13
ENDBRANCH   6   7
ENDBRANCH   4   6
ENDBRANCH   3   4
ENDBRANCH   2   3
ENDBRANCH   1   2
BRANCH   1  23
ATOM     23  O   UNL A   1      32.097  30.813  27.081  1.00  0.00    -0.374 OA
BRANCH  23  24
ATOM     24  C   UNL A   1      31.401  31.953  26.579  1.00  0.00     0.202 C 
BRANCH  24  25
ATOM     25  C   UNL A   1      32.110  33.307  26.710  1.00  0.00     0.261 C 
BRANCH  25  26
ATOM     26  O   UNL A   1      32.153  33.764  28.075  1.00  0.00    -0.460 OA
BRANCH  26  27
ATOM     27  C   UNL A   1      33.213  34.548  28.373  1.00  0.00     0.338 C 
ATOM     28  O   UNL A   1      33.217  35.765  28.518  1.00  0.00    -0.246 OA
BRANCH  27  29
ATOM     29  C   UNL A   1      34.393  33.726  28.694  1.00  0.00     0.060 A 
ATOM     30  C   UNL A   1      34.159  32.483  29.295  1.00  0.00     0.016 A 
ATOM     31  C   UNL A   1      35.697  34.190  28.506  1.00  0.00     0.016 A 
ATOM     32  C   UNL A   1      35.224  31.728  29.776  1.00  0.00     0.010 A 
ATOM     33  C   UNL A   1      36.767  33.434  29.001  1.00  0.00     0.010 A 
ATOM     34  C   UNL A   1      36.531  32.223  29.677  1.00  0.00    -0.014 A 
BRANCH  34  35
ATOM     35  C   UNL A   1      37.611  31.546  30.435  1.00  0.00     0.031 A 
ATOM     36  C   UNL A   1      38.467  30.529  29.730  1.00  0.00     0.074 A 
ATOM     37  C   UNL A   1      37.872  31.879  31.711  1.00  0.00     0.049 A 
ATOM     38  N   UNL A   1      39.478  29.834  30.184  1.00  0.00    -0.248 NA
ATOM     39  C   UNL A   1      38.139  30.262  28.319  1.00  0.00     0.031 C 
ATOM     40  C   UNL A   1      37.143  32.878  32.489  1.00  0.00     0.029 A 
ATOM     41  N   UNL A   1      38.828  31.410  32.575  1.00  0.00    -0.354 N 
ATOM     42  C   UNL A   1      39.907  29.051  29.120  1.00  0.00     0.074 A 
ATOM     43  C   UNL A   1      39.027  29.331  28.006  1.00  0.00     0.031 C 
ATOM     44  C   UNL A   1      37.677  32.946  33.720  1.00  0.00     0.029 A 
ATOM     45  C   UNL A   1      38.769  31.979  33.823  1.00  0.00     0.049 A 
ATOM     46  H   UNL A   1      39.495  30.729  32.325  1.00  0.00     0.167 HD
ATOM     47  C   UNL A   1      40.947  28.186  29.071  1.00  0.00     0.037 A 
ATOM     48  C   UNL A   1      39.504  31.735  34.926  1.00  0.00     0.037 A 
ATOM     49  C   UNL A   1      41.824  27.910  30.177  1.00  0.00     0.049 A 
ATOM     50  C   UNL A   1      40.613  30.720  34.866  1.00  0.00     0.074 A 
ATOM     51  C   UNL A   1      42.916  27.059  30.223  1.00  0.00     0.029 A 
ATOM     52  N   UNL A   1      41.706  28.478  31.436  1.00  0.00    -0.354 N 
ATOM     53  N   UNL A   1      41.024  30.002  33.848  1.00  0.00    -0.248 NA
ATOM     54  C   UNL A   1      41.366  30.483  36.107  1.00  0.00     0.031 C 
ATOM     55  C   UNL A   1      43.430  27.079  31.524  1.00  0.00     0.029 A 
ATOM     56  C   UNL A   1      42.689  27.977  32.274  1.00  0.00     0.049 A 
ATOM     57  H   UNL A   1      41.024  29.138  31.697  1.00  0.00     0.167 HD
ATOM     58  C   UNL A   1      42.095  29.251  34.317  1.00  0.00     0.074 A 
ATOM     59  C   UNL A   1      42.278  29.609  35.709  1.00  0.00     0.031 C 
ATOM     60  C   UNL A   1      42.861  28.349  33.655  1.00  0.00     0.037 A 
BRANCH  47  61
ATOM     61  C   UNL A   1      41.178  27.457  27.780  1.00  0.00     0.057 A 
ATOM     62  C   UNL A   1      42.013  27.971  26.779  1.00  0.00     0.134 A 
ATOM     63  C   UNL A   1      40.579  26.214  27.546  1.00  0.00     0.134 A 
ATOM     64  F   UNL A   1      42.605  29.165  26.935  1.00  0.00    -0.206 F 
ATOM     65  C   UNL A   1      42.227  27.284  25.583  1.00  0.00     0.040 A 
ATOM     66  C   UNL A   1      40.804  25.505  26.364  1.00  0.00     0.040 A 
ATOM     67  F   UNL A   1      39.772  25.663  28.465  1.00  0.00    -0.206 F 
ATOM     68  C   UNL A   1      41.626  26.043  25.376  1.00  0.00     0.006 A 
ENDBRANCH  47  61
BRANCH  48  69
ATOM     69  C   UNL A   1      39.212  32.462  36.187  1.00  0.00     0.057 A 
ATOM     70  C   UNL A   1      39.832  33.680  36.485  1.00  0.00     0.134 A 
ATOM     71  C   UNL A   1      38.318  31.944  37.131  1.00  0.00     0.134 A 
ATOM     72  F   UNL A   1      40.716  34.214  35.631  1.00  0.00    -0.206 F 
ATOM     73  C   UNL A   1      39.585  34.351  37.684  1.00  0.00     0.040 A 
ATOM     74  C   UNL A   1      38.042  32.616  38.323  1.00  0.00     0.040 A 
ATOM     75  F   UNL A   1      37.691  30.780  36.905  1.00  0.00    -0.206 F 
ATOM     76  C   UNL A   1      38.682  33.822  38.605  1.00  0.00     0.006 A 
ENDBRANCH  48  69
BRANCH  60  77
ATOM     77  C   UNL A   1      43.984  27.709  34.416  1.00  0.00     0.057 A 
ATOM     78  C   UNL A   1      43.839  26.465  35.041  1.00  0.00     0.134 A 
ATOM     79  C   UNL A   1      45.239  28.328  34.487  1.00  0.00     0.134 A 
ATOM     80  F   UNL A   1      42.660  25.826  35.019  1.00  0.00    -0.206 F 
ATOM     81  C   UNL A   1      44.899  25.866  35.726  1.00  0.00     0.040 A 
ATOM     82  C   UNL A   1      46.312  27.728  35.148  1.00  0.00     0.040 A 
ATOM     83  F   UNL A   1      45.447  29.517  33.902  1.00  0.00    -0.206 F 
ATOM     84  C   UNL A   1      46.141  26.495  35.775  1.00  0.00     0.006 A 
ENDBRANCH  60  77
ENDBRANCH  34  35
ENDBRANCH  27  29
ENDBRANCH  26  27
ENDBRANCH  25  26
ENDBRANCH  24  25
ENDBRANCH  23  24
ENDBRANCH   1  23
TORSDOF 17
ENDMDL
MODEL 3
REMARK VINA RESULT:      -8.7      5.021      8.753
REMARK SMILES Cc1cccc(Cl)c1Nc1ccccc1CC(=O)OCCOCCOC(=O)c1ccc(-c2c3nc(c(-c4c(F)cccc4F)c4ccc([nH]4)c(-c4c(F)cccc4F)c4nc(c(-c5c(F)cccc5F)c5ccc2[nH]5)C=C4)C=C3)cc1
REMARK SMILES IDX 21 1 20 2 19 3 17 4 18 5 16 6 15 7 10 8 11 9 12 10 14 11
REMARK SMILES IDX 13 12 9 13 8 15 1 16 2 17 3 18 4 19 6 20 5 21 7 22 22 23
REMARK SMILES IDX 23 24 24 25 25 26 26 27 27 28 28 29 29 30 81 31 30 32 80 33
REMARK SMILES IDX 31 34 32 35 33 36 74 37 34 38 79 39 73 40 75 41 35 42 78 43
REMARK SMILES IDX 72 44 71 45 36 47 62 48 45 49 61 50 46 51 49 52 60 53 76 54
REMARK SMILES IDX 47 55 48 56 59 58 77 59 50 60 37 61 38 62 43 63 39 64 40 65
REMARK SMILES IDX 42 66 44 67 41 68 63 69 64 70 69 71 65 72 66 73 68 74 70 75
REMARK SMILES IDX 67 76 51 77 52 78 57 79 53 80 54 81 56 82 58 83 55 84
REMARK H PARENT 9 14 75 46 49 57
REMARK Flexibility Score: inf
ROOT
ATOM      1  C   UNL A   1      32.970  29.787  26.418  1.00  0.00     0.202 C 
ENDROOT
BRANCH   1   2
ATOM      2  C   UNL A   1      32.637  28.305  26.211  1.00  0.00     0.261 C 
BRANCH   2   3
ATOM      3  O   UNL A   1      33.776  27.439  26.379  1.00  0.00    -0.463 OA
BRANCH   3   4
ATOM      4  C   UNL A   1      33.661  26.217  25.796  1.00  0.00     0.310 C 
ATOM      5  O   UNL A   1      34.278  25.876  24.788  1.00  0.00    -0.252 OA
BRANCH   4   6
ATOM      6  C   UNL A   1      32.687  25.273  26.454  1.00  0.00     0.160 C 
BRANCH   6   7
ATOM      7  C   UNL A   1      32.813  23.775  26.244  1.00  0.00    -0.013 A 
ATOM      8  C   UNL A   1      31.998  23.035  25.359  1.00  0.00     0.042 A 
ATOM      9  C   UNL A   1      32.166  21.637  25.286  1.00  0.00     0.026 A 
ATOM     10  C   UNL A   1      33.161  20.982  26.012  1.00  0.00     0.002 A 
ATOM     11  C   UNL A   1      33.844  23.097  26.926  1.00  0.00     0.006 A 
ATOM     12  C   UNL A   1      34.017  21.717  26.816  1.00  0.00     0.000 A 
BRANCH   8  13
ATOM     13  N   UNL A   1      31.124  23.611  24.413  1.00  0.00    -0.354 N 
ATOM     14  H   UNL A   1      30.189  23.309  24.483  1.00  0.00     0.167 HD
BRANCH  13  15
ATOM     15  C   UNL A   1      31.360  24.552  23.379  1.00  0.00     0.060 A 
ATOM     16  C   UNL A   1      29.569  26.033  24.431  1.00  0.00     0.046 C 
ATOM     17  C   UNL A   1      30.674  25.789  23.437  1.00  0.00    -0.026 A 
ATOM     18  C   UNL A   1      31.058  26.844  22.591  1.00  0.00     0.005 A 
ATOM     19  C   UNL A   1      32.088  26.683  21.668  1.00  0.00     0.002 A 
ATOM     20  C   UNL A   1      32.345  24.385  22.372  1.00  0.00     0.064 A 
ATOM     21  C   UNL A   1      32.714  25.450  21.543  1.00  0.00     0.023 A 
ATOM     22  Cl  UNL A   1      33.117  22.868  22.043  1.00  0.00    -0.082 Cl
ENDBRANCH  13  15
ENDBRANCH   8  13
ENDBRANCH   6   7
ENDBRANCH   4   6
ENDBRANCH   3   4
ENDBRANCH   2   3
ENDBRANCH   1   2
BRANCH   1  23
ATOM     23  O   UNL A   1      32.003  30.586  27.096  1.00  0.00    -0.374 OA
BRANCH  23  24
ATOM     24  C   UNL A   1      31.385  31.630  26.346  1.00  0.00     0.202 C 
BRANCH  24  25
ATOM     25  C   UNL A   1      31.833  33.063  26.659  1.00  0.00     0.261 C 
BRANCH  25  26
ATOM     26  O   UNL A   1      32.273  33.205  28.023  1.00  0.00    -0.460 OA
BRANCH  26  27
ATOM     27  C   UNL A   1      33.333  34.027  28.189  1.00  0.00     0.338 C 
ATOM     28  O   UNL A   1      33.315  35.248  28.296  1.00  0.00    -0.246 OA
BRANCH  27  29
ATOM     29  C   UNL A   1      34.563  33.249  28.416  1.00  0.00     0.060 A 
ATOM     30  C   UNL A   1      34.415  31.968  28.963  1.00  0.00     0.016 A 
ATOM     31  C   UNL A   1      35.835  33.783  28.193  1.00  0.00     0.016 A 
ATOM     32  C   UNL A   1      35.535  31.243  29.357  1.00  0.00     0.010 A 
ATOM     33  C   UNL A   1      36.960  33.057  28.600  1.00  0.00     0.010 A 
ATOM     34  C   UNL A   1      36.812  31.805  29.225  1.00  0.00    -0.014 A 
BRANCH  34  35
ATOM     35  C   UNL A   1      37.956  31.145  29.898  1.00  0.00     0.031 A 
ATOM     36  C   UNL A   1      38.224  31.454  31.347  1.00  0.00     0.074 A 
ATOM     37  C   UNL A   1      38.704  30.233  29.254  1.00  0.00     0.049 A 
ATOM     38  N   UNL A   1      39.149  30.979  32.142  1.00  0.00    -0.248 NA
ATOM     39  C   UNL A   1      37.325  32.430  31.986  1.00  0.00     0.031 C 
ATOM     40  C   UNL A   1      38.517  29.816  27.866  1.00  0.00     0.029 A 
ATOM     41  N   UNL A   1      39.772  29.490  29.689  1.00  0.00    -0.354 N 
ATOM     42  C   UNL A   1      38.944  31.594  33.370  1.00  0.00     0.074 A 
ATOM     43  C   UNL A   1      37.828  32.502  33.208  1.00  0.00     0.031 C 
ATOM     44  C   UNL A   1      39.443  28.892  27.560  1.00  0.00     0.029 A 
ATOM     45  C   UNL A   1      40.302  28.670  28.723  1.00  0.00     0.049 A 
ATOM     46  H   UNL A   1      40.126  29.540  30.607  1.00  0.00     0.167 HD
ATOM     47  C   UNL A   1      39.616  31.412  34.531  1.00  0.00     0.037 A 
ATOM     48  C   UNL A   1      41.367  27.846  28.770  1.00  0.00     0.037 A 
ATOM     49  C   UNL A   1      40.722  30.507  34.692  1.00  0.00     0.049 A 
ATOM     50  C   UNL A   1      42.139  27.709  30.054  1.00  0.00     0.074 A 
ATOM     51  C   UNL A   1      41.461  30.241  35.833  1.00  0.00     0.029 A 
ATOM     52  N   UNL A   1      41.254  29.724  33.679  1.00  0.00    -0.354 N 
ATOM     53  N   UNL A   1      41.923  28.279  31.216  1.00  0.00    -0.248 NA
ATOM     54  C   UNL A   1      43.304  26.811  30.037  1.00  0.00     0.031 C 
ATOM     55  C   UNL A   1      42.468  29.330  35.498  1.00  0.00     0.029 A 
ATOM     56  C   UNL A   1      42.327  28.993  34.161  1.00  0.00     0.049 A 
ATOM     57  H   UNL A   1      40.919  29.693  32.754  1.00  0.00     0.167 HD
ATOM     58  C   UNL A   1      42.902  27.789  32.071  1.00  0.00     0.074 A 
ATOM     59  C   UNL A   1      43.709  26.867  31.297  1.00  0.00     0.031 C 
ATOM     60  C   UNL A   1      43.115  28.075  33.379  1.00  0.00     0.037 A 
BRANCH  47  61
ATOM     61  C   UNL A   1      39.183  32.226  35.714  1.00  0.00     0.057 A 
ATOM     62  C   UNL A   1      39.640  33.535  35.920  1.00  0.00     0.134 A 
ATOM     63  C   UNL A   1      38.276  31.705  36.644  1.00  0.00     0.134 A 
ATOM     64  F   UNL A   1      40.522  34.086  35.074  1.00  0.00    -0.206 F 
ATOM     65  C   UNL A   1      39.227  34.286  37.021  1.00  0.00     0.040 A 
ATOM     66  C   UNL A   1      37.837  32.455  37.737  1.00  0.00     0.040 A 
ATOM     67  F   UNL A   1      37.796  30.460  36.504  1.00  0.00    -0.206 F 
ATOM     68  C   UNL A   1      38.318  33.749  37.930  1.00  0.00     0.006 A 
ENDBRANCH  47  61
BRANCH  48  69
ATOM     69  C   UNL A   1      41.772  27.088  27.560  1.00  0.00     0.057 A 
ATOM     70  C   UNL A   1      42.597  27.660  26.586  1.00  0.00     0.134 A 
ATOM     71  C   UNL A   1      41.327  25.779  27.342  1.00  0.00     0.134 A 
ATOM     72  F   UNL A   1      43.036  28.919  26.727  1.00  0.00    -0.206 F 
ATOM     73  C   UNL A   1      42.955  26.962  25.431  1.00  0.00     0.040 A 
ATOM     74  C   UNL A   1      41.696  25.061  26.204  1.00  0.00     0.040 A 
ATOM     75  F   UNL A   1      40.533  25.174  28.238  1.00  0.00    -0.206 F 
ATOM     76  C   UNL A   1      42.508  25.655  25.240  1.00  0.00     0.006 A 
ENDBRANCH  48  69
BRANCH  60  77
ATOM     77  C   UNL A   1      44.242  27.361  34.066  1.00  0.00     0.057 A 
ATOM     78  C   UNL A   1      45.525  27.915  34.149  1.00  0.00     0.134 A 
ATOM     79  C   UNL A   1      44.028  26.124  34.687  1.00  0.00     0.134 A 
ATOM     80  F   UNL A   1      45.798  29.091  33.565  1.00  0.00    -0.206 F 
ATOM     81  C   UNL A   1      46.561  27.254  34.812  1.00  0.00     0.040 A 
ATOM     82  C   UNL A   1      45.049  25.466  35.373  1.00  0.00     0.040 A 
ATOM     83  F   UNL A   1      42.819  25.544  34.652  1.00  0.00    -0.206 F 
ATOM     84  C   UNL A   1      46.323  26.029  35.432  1.00  0.00     0.006 A 
ENDBRANCH  60  77
ENDBRANCH  34  35
ENDBRANCH  27  29
ENDBRANCH  26  27
ENDBRANCH  25  26
ENDBRANCH  24  25
ENDBRANCH  23  24
ENDBRANCH   1  23
TORSDOF 17
ENDMDL
