MODEL 1
REMARK VINA RESULT:     -10.9      0.000      0.000
REMARK SMILES O=C(COc1ccc(N2C[C@@H](C(=O)OCCOCCOC(=O)c3ccc(-c4c5nc(c(-c6c(F)cccc6F)c6ccc([nH]6)c(-c6c(F)cccc6F)c6nc(c(-c7c(F)cccc7F)c7ccc4[nH]7)C=C6)C=C5)cc3)CC2=O)cc1)Nc1ccc(Cl)cc1Cl
REMARK SMILES IDX 15 1 14 2 12 3 13 4 11 5 9 6 10 7 78 8 77 9 79 10 8 11 5 12
REMARK SMILES IDX 6 13 81 14 7 15 80 16 4 17 3 18 2 19 1 20 82 21 83 23 84 24
REMARK SMILES IDX 89 25 85 26 88 27 90 28 86 29 87 30 16 31 17 32 18 33 19 34
REMARK SMILES IDX 20 35 21 36 22 37 23 38 24 39 76 40 25 41 75 42 26 43 27 44
REMARK SMILES IDX 28 45 69 46 29 47 74 48 68 49 70 50 30 51 73 52 67 53 66 54
REMARK SMILES IDX 31 56 57 57 40 58 56 59 41 60 44 61 55 62 71 63 42 64 43 65
REMARK SMILES IDX 54 67 72 68 45 69 32 70 33 71 38 72 34 73 35 74 37 75 39 76
REMARK SMILES IDX 36 77 58 78 59 79 64 80 60 81 61 82 63 83 65 84 62 85 46 86
REMARK SMILES IDX 47 87 52 88 48 89 49 90 51 91 53 92 50 93
REMARK H PARENT 82 22 70 55 44 66
REMARK Flexibility Score: inf
ROOT
ATOM      1  C   UNL A   1      34.848  32.332  28.356  1.00  0.00     0.261 C 
ENDROOT
BRANCH   1   2
ATOM      2  O   UNL A   1      34.709  31.391  27.282  1.00  0.00    -0.463 OA
BRANCH   2   3
ATOM      3  C   UNL A   1      34.710  30.082  27.625  1.00  0.00     0.311 C 
ATOM      4  O   UNL A   1      35.588  29.519  28.268  1.00  0.00    -0.252 OA
BRANCH   3   5
ATOM      5  C   UNL A   1      33.486  29.352  27.136  1.00  0.00     0.128 C 
ATOM      6  N   UNL A   1      33.041  27.580  25.671  1.00  0.00    -0.312 N 
ATOM      7  C   UNL A   1      33.898  27.944  26.767  1.00  0.00     0.141 C 
ATOM      8  C   UNL A   1      32.368  28.678  25.137  1.00  0.00     0.227 C 
ATOM      9  C   UNL A   1      32.791  29.901  25.894  1.00  0.00     0.117 C 
ATOM     10  O   UNL A   1      31.573  28.713  24.209  1.00  0.00    -0.274 OA
BRANCH   6  11
ATOM     11  C   UNL A   1      33.103  26.300  25.080  1.00  0.00     0.044 A 
ATOM     12  C   UNL A   1      33.103  23.785  23.837  1.00  0.00     0.120 A 
ATOM     13  C   UNL A   1      34.037  24.744  23.459  1.00  0.00     0.048 A 
ATOM     14  C   UNL A   1      32.197  24.068  24.854  1.00  0.00     0.048 A 
ATOM     15  C   UNL A   1      34.018  26.009  24.060  1.00  0.00     0.030 A 
ATOM     16  C   UNL A   1      32.203  25.312  25.476  1.00  0.00     0.030 A 
BRANCH  12  17
ATOM     17  O   UNL A   1      33.168  22.542  23.266  1.00  0.00    -0.484 OA
BRANCH  17  18
ATOM     18  C   UNL A   1      33.255  21.498  24.244  1.00  0.00     0.329 C 
BRANCH  18  19
ATOM     19  C   UNL A   1      34.455  21.621  25.189  1.00  0.00     0.262 C 
ATOM     20  O   UNL A   1      34.304  21.641  26.405  1.00  0.00    -0.271 OA
ATOM     21  N   UNL A   1      35.649  21.809  24.497  1.00  0.00    -0.322 N 
ATOM     22  H   UNL A   1      35.642  21.659  23.525  1.00  0.00     0.170 HD
BRANCH  21  23
ATOM     23  C   UNL A   1      36.869  22.199  25.094  1.00  0.00     0.060 A 
ATOM     24  C   UNL A   1      36.973  23.563  25.416  1.00  0.00     0.029 A 
ATOM     25  C   UNL A   1      37.939  21.346  25.415  1.00  0.00     0.066 A 
ATOM     26  C   UNL A   1      38.071  24.048  26.129  1.00  0.00     0.023 A 
ATOM     27  C   UNL A   1      39.041  21.836  26.128  1.00  0.00     0.043 A 
ATOM     28  Cl  UNL A   1      38.076  19.731  24.807  1.00  0.00    -0.082 Cl
ATOM     29  C   UNL A   1      39.093  23.178  26.495  1.00  0.00     0.042 A 
ATOM     30  Cl  UNL A   1      40.442  23.773  27.381  1.00  0.00    -0.084 Cl
ENDBRANCH  21  23
ENDBRANCH  18  19
ENDBRANCH  17  18
ENDBRANCH  12  17
ENDBRANCH   6  11
ENDBRANCH   3   5
ENDBRANCH   2   3
ENDBRANCH   1   2
BRANCH   1  31
ATOM     31  C   UNL A   1      34.061  33.610  28.052  1.00  0.00     0.202 C 
BRANCH  31  32
ATOM     32  O   UNL A   1      34.516  34.795  28.702  1.00  0.00    -0.374 OA
BRANCH  32  33
ATOM     33  C   UNL A   1      33.744  35.985  28.539  1.00  0.00     0.202 C 
BRANCH  33  34
ATOM     34  C   UNL A   1      32.922  36.454  29.744  1.00  0.00     0.261 C 
BRANCH  34  35
ATOM     35  O   UNL A   1      32.606  35.377  30.644  1.00  0.00    -0.460 OA
BRANCH  35  36
ATOM     36  C   UNL A   1      32.672  35.704  31.957  1.00  0.00     0.338 C 
ATOM     37  O   UNL A   1      31.858  36.350  32.601  1.00  0.00    -0.246 OA
BRANCH  36  38
ATOM     38  C   UNL A   1      33.806  35.020  32.603  1.00  0.00     0.060 A 
ATOM     39  C   UNL A   1      35.058  35.644  32.527  1.00  0.00     0.016 A 
ATOM     40  C   UNL A   1      33.676  33.753  33.174  1.00  0.00     0.016 A 
ATOM     41  C   UNL A   1      36.197  34.979  32.974  1.00  0.00     0.010 A 
ATOM     42  C   UNL A   1      34.823  33.082  33.613  1.00  0.00     0.010 A 
ATOM     43  C   UNL A   1      36.091  33.676  33.480  1.00  0.00    -0.014 A 
BRANCH  43  44
ATOM     44  C   UNL A   1      37.325  32.892  33.721  1.00  0.00     0.031 A 
ATOM     45  C   UNL A   1      38.120  33.144  34.972  1.00  0.00     0.074 A 
ATOM     46  C   UNL A   1      37.716  31.942  32.853  1.00  0.00     0.049 A 
ATOM     47  N   UNL A   1      39.228  32.580  35.379  1.00  0.00    -0.248 NA
ATOM     48  C   UNL A   1      37.593  34.170  35.886  1.00  0.00     0.031 C 
ATOM     49  C   UNL A   1      37.018  31.585  31.620  1.00  0.00     0.029 A 
ATOM     50  N   UNL A   1      38.807  31.109  32.879  1.00  0.00    -0.354 N 
ATOM     51  C   UNL A   1      39.536  33.185  36.591  1.00  0.00     0.074 A 
ATOM     52  C   UNL A   1      38.513  34.178  36.840  1.00  0.00     0.031 C 
ATOM     53  C   UNL A   1      37.709  30.617  30.994  1.00  0.00     0.029 A 
ATOM     54  C   UNL A   1      38.906  30.304  31.772  1.00  0.00     0.049 A 
ATOM     55  H   UNL A   1      39.455  31.091  33.620  1.00  0.00     0.167 HD
ATOM     56  C   UNL A   1      40.572  32.931  37.425  1.00  0.00     0.037 A 
ATOM     57  C   UNL A   1      39.866  29.428  31.418  1.00  0.00     0.037 A 
ATOM     58  C   UNL A   1      41.589  31.943  37.179  1.00  0.00     0.049 A 
ATOM     59  C   UNL A   1      41.037  29.199  32.336  1.00  0.00     0.074 A 
ATOM     60  C   UNL A   1      42.659  31.588  37.981  1.00  0.00     0.029 A 
ATOM     61  N   UNL A   1      41.666  31.160  36.037  1.00  0.00    -0.354 N 
ATOM     62  N   UNL A   1      41.294  29.745  33.499  1.00  0.00    -0.248 NA
ATOM     63  C   UNL A   1      42.046  28.225  31.893  1.00  0.00     0.031 C 
ATOM     64  C   UNL A   1      43.411  30.622  37.303  1.00  0.00     0.029 A 
ATOM     65  C   UNL A   1      42.784  30.343  36.100  1.00  0.00     0.049 A 
ATOM     66  H   UNL A   1      41.023  31.182  35.292  1.00  0.00     0.167 HD
ATOM     67  C   UNL A   1      42.482  29.170  33.936  1.00  0.00     0.074 A 
ATOM     68  C   UNL A   1      42.887  28.222  32.918  1.00  0.00     0.031 C 
ATOM     69  C   UNL A   1      43.174  29.405  35.078  1.00  0.00     0.037 A 
BRANCH  56  70
ATOM     70  C   UNL A   1      40.668  33.760  38.672  1.00  0.00     0.057 A 
ATOM     71  C   UNL A   1      39.975  33.421  39.841  1.00  0.00     0.134 A 
ATOM     72  C   UNL A   1      41.476  34.903  38.707  1.00  0.00     0.134 A 
ATOM     73  F   UNL A   1      39.172  32.347  39.869  1.00  0.00    -0.206 F 
ATOM     74  C   UNL A   1      40.062  34.205  40.994  1.00  0.00     0.040 A 
ATOM     75  C   UNL A   1      41.591  35.681  39.860  1.00  0.00     0.040 A 
ATOM     76  F   UNL A   1      42.169  35.280  37.623  1.00  0.00    -0.206 F 
ATOM     77  C   UNL A   1      40.876  35.336  41.006  1.00  0.00     0.006 A 
ENDBRANCH  56  70
BRANCH  57  78
ATOM     78  C   UNL A   1      39.768  28.715  30.121  1.00  0.00     0.057 A 
ATOM     79  C   UNL A   1      40.344  29.236  28.957  1.00  0.00     0.134 A 
ATOM     80  C   UNL A   1      39.093  27.493  30.018  1.00  0.00     0.134 A 
ATOM     81  F   UNL A   1      40.984  30.414  28.990  1.00  0.00    -0.206 F 
ATOM     82  C   UNL A   1      40.243  28.572  27.733  1.00  0.00     0.040 A 
ATOM     83  C   UNL A   1      39.003  26.808  28.805  1.00  0.00     0.040 A 
ATOM     84  F   UNL A   1      38.520  26.943  31.098  1.00  0.00    -0.206 F 
ATOM     85  C   UNL A   1      39.576  27.350  27.658  1.00  0.00     0.006 A 
ENDBRANCH  57  78
BRANCH  69  86
ATOM     86  C   UNL A   1      44.427  28.611  35.298  1.00  0.00     0.057 A 
ATOM     87  C   UNL A   1      44.404  27.348  35.902  1.00  0.00     0.134 A 
ATOM     88  C   UNL A   1      45.667  29.098  34.864  1.00  0.00     0.134 A 
ATOM     89  F   UNL A   1      43.250  26.832  36.351  1.00  0.00    -0.206 F 
ATOM     90  C   UNL A   1      45.571  26.605  36.083  1.00  0.00     0.040 A 
ATOM     91  C   UNL A   1      46.838  28.353  35.018  1.00  0.00     0.040 A 
ATOM     92  F   UNL A   1      45.759  30.297  34.270  1.00  0.00    -0.206 F 
ATOM     93  C   UNL A   1      46.792  27.105  35.633  1.00  0.00     0.006 A 
ENDBRANCH  69  86
ENDBRANCH  43  44
ENDBRANCH  36  38
ENDBRANCH  35  36
ENDBRANCH  34  35
ENDBRANCH  33  34
ENDBRANCH  32  33
ENDBRANCH  31  32
ENDBRANCH   1  31
TORSDOF 19
ENDMDL
MODEL 2
REMARK VINA RESULT:     -10.9      4.592      8.553
REMARK SMILES O=C(COc1ccc(N2C[C@@H](C(=O)OCCOCCOC(=O)c3ccc(-c4c5nc(c(-c6c(F)cccc6F)c6ccc([nH]6)c(-c6c(F)cccc6F)c6nc(c(-c7c(F)cccc7F)c7ccc4[nH]7)C=C6)C=C5)cc3)CC2=O)cc1)Nc1ccc(Cl)cc1Cl
REMARK SMILES IDX 15 1 14 2 12 3 13 4 11 5 9 6 10 7 78 8 77 9 79 10 8 11 5 12
REMARK SMILES IDX 6 13 81 14 7 15 80 16 4 17 3 18 2 19 1 20 82 21 83 23 84 24
REMARK SMILES IDX 89 25 85 26 88 27 90 28 86 29 87 30 16 31 17 32 18 33 19 34
REMARK SMILES IDX 20 35 21 36 22 37 23 38 24 39 76 40 25 41 75 42 26 43 27 44
REMARK SMILES IDX 28 45 69 46 29 47 74 48 68 49 70 50 30 51 73 52 67 53 66 54
REMARK SMILES IDX 31 56 57 57 40 58 56 59 41 60 44 61 55 62 71 63 42 64 43 65
REMARK SMILES IDX 54 67 72 68 45 69 32 70 33 71 38 72 34 73 35 74 37 75 39 76
REMARK SMILES IDX 36 77 58 78 59 79 64 80 60 81 61 82 63 83 65 84 62 85 46 86
REMARK SMILES IDX 47 87 52 88 48 89 49 90 51 91 53 92 50 93
REMARK H PARENT 82 22 70 55 44 66
REMARK Flexibility Score: inf
ROOT
ATOM      1  C   UNL A   1      34.002  35.768  31.384  1.00  0.00     0.261 C 
ENDROOT
BRANCH   1   2
ATOM      2  O   UNL A   1      33.725  35.052  32.597  1.00  0.00    -0.463 OA
BRANCH   2   3
ATOM      3  C   UNL A   1      34.311  33.838  32.726  1.00  0.00     0.311 C 
ATOM      4  O   UNL A   1      33.799  32.769  32.418  1.00  0.00    -0.252 OA
BRANCH   3   5
ATOM      5  C   UNL A   1      35.703  33.923  33.295  1.00  0.00     0.128 C 
ATOM      6  N   UNL A   1      37.416  32.413  33.819  1.00  0.00    -0.312 N 
ATOM      7  C   UNL A   1      36.497  32.750  32.764  1.00  0.00     0.141 C 
ATOM      8  C   UNL A   1      37.090  33.034  35.023  1.00  0.00     0.227 C 
ATOM      9  C   UNL A   1      35.848  33.848  34.811  1.00  0.00     0.117 C 
ATOM     10  O   UNL A   1      37.660  32.961  36.103  1.00  0.00    -0.274 OA
BRANCH   6  11
ATOM     11  C   UNL A   1      38.363  31.379  33.669  1.00  0.00     0.044 A 
ATOM     12  C   UNL A   1      40.252  29.310  33.514  1.00  0.00     0.120 A 
ATOM     13  C   UNL A   1      38.940  29.081  33.114  1.00  0.00     0.048 A 
ATOM     14  C   UNL A   1      40.627  30.575  33.955  1.00  0.00     0.048 A 
ATOM     15  C   UNL A   1      37.991  30.106  33.218  1.00  0.00     0.030 A 
ATOM     16  C   UNL A   1      39.692  31.602  34.023  1.00  0.00     0.030 A 
BRANCH  12  17
ATOM     17  O   UNL A   1      41.171  28.306  33.364  1.00  0.00    -0.484 OA
BRANCH  17  18
ATOM     18  C   UNL A   1      41.629  27.794  34.622  1.00  0.00     0.329 C 
BRANCH  18  19
ATOM     19  C   UNL A   1      42.754  26.760  34.507  1.00  0.00     0.262 C 
ATOM     20  O   UNL A   1      43.543  26.785  33.570  1.00  0.00    -0.271 OA
ATOM     21  N   UNL A   1      42.675  25.787  35.500  1.00  0.00    -0.322 N 
ATOM     22  H   UNL A   1      42.062  25.951  36.253  1.00  0.00     0.170 HD
BRANCH  21  23
ATOM     23  C   UNL A   1      43.413  24.583  35.504  1.00  0.00     0.060 A 
ATOM     24  C   UNL A   1      43.097  23.680  34.474  1.00  0.00     0.029 A 
ATOM     25  C   UNL A   1      44.434  24.245  36.409  1.00  0.00     0.066 A 
ATOM     26  C   UNL A   1      43.845  22.516  34.289  1.00  0.00     0.023 A 
ATOM     27  C   UNL A   1      45.181  23.075  36.222  1.00  0.00     0.043 A 
ATOM     28  Cl  UNL A   1      44.713  25.105  37.884  1.00  0.00    -0.082 Cl
ATOM     29  C   UNL A   1      44.894  22.227  35.156  1.00  0.00     0.042 A 
ATOM     30  Cl  UNL A   1      45.822  20.797  34.924  1.00  0.00    -0.084 Cl
ENDBRANCH  21  23
ENDBRANCH  18  19
ENDBRANCH  17  18
ENDBRANCH  12  17
ENDBRANCH   6  11
ENDBRANCH   3   5
ENDBRANCH   2   3
ENDBRANCH   1   2
BRANCH   1  31
ATOM     31  C   UNL A   1      32.898  35.518  30.354  1.00  0.00     0.202 C 
BRANCH  31  32
ATOM     32  O   UNL A   1      33.146  34.477  29.410  1.00  0.00    -0.374 OA
BRANCH  32  33
ATOM     33  C   UNL A   1      34.304  34.587  28.583  1.00  0.00     0.202 C 
BRANCH  33  34
ATOM     34  C   UNL A   1      35.251  33.382  28.545  1.00  0.00     0.261 C 
BRANCH  34  35
ATOM     35  O   UNL A   1      34.694  32.227  29.198  1.00  0.00    -0.460 OA
BRANCH  35  36
ATOM     36  C   UNL A   1      34.625  31.121  28.420  1.00  0.00     0.338 C 
ATOM     37  O   UNL A   1      33.726  30.810  27.651  1.00  0.00    -0.246 OA
BRANCH  36  38
ATOM     38  C   UNL A   1      35.893  30.372  28.474  1.00  0.00     0.060 A 
ATOM     39  C   UNL A   1      36.261  29.823  29.709  1.00  0.00     0.016 A 
ATOM     40  C   UNL A   1      36.753  30.297  27.377  1.00  0.00     0.016 A 
ATOM     41  C   UNL A   1      37.517  29.244  29.869  1.00  0.00     0.010 A 
ATOM     42  C   UNL A   1      38.019  29.723  27.543  1.00  0.00     0.010 A 
ATOM     43  C   UNL A   1      38.420  29.230  28.797  1.00  0.00    -0.014 A 
BRANCH  43  44
ATOM     44  C   UNL A   1      39.828  28.838  29.044  1.00  0.00     0.031 A 
ATOM     45  C   UNL A   1      40.752  29.815  29.717  1.00  0.00     0.074 A 
ATOM     46  C   UNL A   1      40.270  27.615  28.704  1.00  0.00     0.049 A 
ATOM     47  N   UNL A   1      42.017  29.684  30.024  1.00  0.00    -0.248 NA
ATOM     48  C   UNL A   1      40.171  31.112  30.095  1.00  0.00     0.031 C 
ATOM     49  C   UNL A   1      39.466  26.572  28.072  1.00  0.00     0.029 A 
ATOM     50  N   UNL A   1      41.513  27.050  28.840  1.00  0.00    -0.354 N 
ATOM     51  C   UNL A   1      42.386  30.881  30.623  1.00  0.00     0.074 A 
ATOM     52  C   UNL A   1      41.219  31.737  30.613  1.00  0.00     0.031 C 
ATOM     53  C   UNL A   1      40.243  25.496  27.855  1.00  0.00     0.029 A 
ATOM     54  C   UNL A   1      41.600  25.785  28.314  1.00  0.00     0.049 A 
ATOM     55  H   UNL A   1      42.270  27.508  29.273  1.00  0.00     0.167 HD
ATOM     56  C   UNL A   1      43.586  31.234  31.143  1.00  0.00     0.037 A 
ATOM     57  C   UNL A   1      42.661  24.963  28.197  1.00  0.00     0.037 A 
ATOM     58  C   UNL A   1      44.746  30.384  31.156  1.00  0.00     0.049 A 
ATOM     59  C   UNL A   1      43.998  25.396  28.735  1.00  0.00     0.074 A 
ATOM     60  C   UNL A   1      45.997  30.638  31.690  1.00  0.00     0.029 A 
ATOM     61  N   UNL A   1      44.801  29.116  30.595  1.00  0.00    -0.354 N 
ATOM     62  N   UNL A   1      44.323  26.513  29.339  1.00  0.00    -0.248 NA
ATOM     63  C   UNL A   1      45.113  24.449  28.581  1.00  0.00     0.031 C 
ATOM     64  C   UNL A   1      46.822  29.543  31.413  1.00  0.00     0.029 A 
ATOM     65  C   UNL A   1      46.072  28.587  30.746  1.00  0.00     0.049 A 
ATOM     66  H   UNL A   1      44.047  28.660  30.155  1.00  0.00     0.167 HD
ATOM     67  C   UNL A   1      45.673  26.397  29.652  1.00  0.00     0.074 A 
ATOM     68  C   UNL A   1      46.100  25.095  29.185  1.00  0.00     0.031 C 
ATOM     69  C   UNL A   1      46.483  27.289  30.273  1.00  0.00     0.037 A 
BRANCH  56  70
ATOM     70  C   UNL A   1      43.705  32.614  31.718  1.00  0.00     0.057 A 
ATOM     71  C   UNL A   1      43.931  33.736  30.910  1.00  0.00     0.134 A 
ATOM     72  C   UNL A   1      43.577  32.825  33.096  1.00  0.00     0.134 A 
ATOM     73  F   UNL A   1      44.078  33.601  29.584  1.00  0.00    -0.206 F 
ATOM     74  C   UNL A   1      44.050  35.017  31.456  1.00  0.00     0.040 A 
ATOM     75  C   UNL A   1      43.670  34.102  33.652  1.00  0.00     0.040 A 
ATOM     76  F   UNL A   1      43.356  31.794  33.925  1.00  0.00    -0.206 F 
ATOM     77  C   UNL A   1      43.915  35.201  32.831  1.00  0.00     0.006 A 
ENDBRANCH  56  70
BRANCH  57  78
ATOM     78  C   UNL A   1      42.502  23.652  27.523  1.00  0.00     0.057 A 
ATOM     79  C   UNL A   1      42.213  22.490  28.247  1.00  0.00     0.134 A 
ATOM     80  C   UNL A   1      42.637  23.532  26.134  1.00  0.00     0.134 A 
ATOM     81  F   UNL A   1      42.094  22.539  29.582  1.00  0.00    -0.206 F 
ATOM     82  C   UNL A   1      42.075  21.252  27.616  1.00  0.00     0.040 A 
ATOM     83  C   UNL A   1      42.479  22.305  25.488  1.00  0.00     0.040 A 
ATOM     84  F   UNL A   1      42.914  24.609  25.386  1.00  0.00    -0.206 F 
ATOM     85  C   UNL A   1      42.201  21.160  26.230  1.00  0.00     0.006 A 
ENDBRANCH  57  78
BRANCH  69  86
ATOM     86  C   UNL A   1      47.908  26.880  30.503  1.00  0.00     0.057 A 
ATOM     87  C   UNL A   1      48.291  26.142  31.630  1.00  0.00     0.134 A 
ATOM     88  C   UNL A   1      48.901  27.192  29.565  1.00  0.00     0.134 A 
ATOM     89  F   UNL A   1      47.390  25.823  32.571  1.00  0.00    -0.206 F 
ATOM     90  C   UNL A   1      49.615  25.745  31.825  1.00  0.00     0.040 A 
ATOM     91  C   UNL A   1      50.223  26.779  29.738  1.00  0.00     0.040 A 
ATOM     92  F   UNL A   1      48.600  27.888  28.460  1.00  0.00    -0.206 F 
ATOM     93  C   UNL A   1      50.583  26.057  30.874  1.00  0.00     0.006 A 
ENDBRANCH  69  86
ENDBRANCH  43  44
ENDBRANCH  36  38
ENDBRANCH  35  36
ENDBRANCH  34  35
ENDBRANCH  33  34
ENDBRANCH  32  33
ENDBRANCH  31  32
ENDBRANCH   1  31
TORSDOF 19
ENDMDL
MODEL 3
REMARK VINA RESULT:     -10.6      4.488      8.450
REMARK SMILES O=C(COc1ccc(N2C[C@@H](C(=O)OCCOCCOC(=O)c3ccc(-c4c5nc(c(-c6c(F)cccc6F)c6ccc([nH]6)c(-c6c(F)cccc6F)c6nc(c(-c7c(F)cccc7F)c7ccc4[nH]7)C=C6)C=C5)cc3)CC2=O)cc1)Nc1ccc(Cl)cc1Cl
REMARK SMILES IDX 15 1 14 2 12 3 13 4 11 5 9 6 10 7 78 8 77 9 79 10 8 11 5 12
REMARK SMILES IDX 6 13 81 14 7 15 80 16 4 17 3 18 2 19 1 20 82 21 83 23 84 24
REMARK SMILES IDX 89 25 85 26 88 27 90 28 86 29 87 30 16 31 17 32 18 33 19 34
REMARK SMILES IDX 20 35 21 36 22 37 23 38 24 39 76 40 25 41 75 42 26 43 27 44
REMARK SMILES IDX 28 45 69 46 29 47 74 48 68 49 70 50 30 51 73 52 67 53 66 54
REMARK SMILES IDX 31 56 57 57 40 58 56 59 41 60 44 61 55 62 71 63 42 64 43 65
REMARK SMILES IDX 54 67 72 68 45 69 32 70 33 71 38 72 34 73 35 74 37 75 39 76
REMARK SMILES IDX 36 77 58 78 59 79 64 80 60 81 61 82 63 83 65 84 62 85 46 86
REMARK SMILES IDX 47 87 52 88 48 89 49 90 51 91 53 92 50 93
REMARK H PARENT 82 22 70 55 44 66
REMARK Flexibility Score: inf
ROOT
ATOM      1  C   UNL A   1      33.261  36.398  29.036  1.00  0.00     0.261 C 
ENDROOT
BRANCH   1   2
ATOM      2  O   UNL A   1      34.108  36.571  30.182  1.00  0.00    -0.463 OA
BRANCH   2   3
ATOM      3  C   UNL A   1      33.514  37.043  31.303  1.00  0.00     0.311 C 
ATOM      4  O   UNL A   1      32.860  38.076  31.377  1.00  0.00    -0.252 OA
BRANCH   3   5
ATOM      5  C   UNL A   1      33.729  36.148  32.495  1.00  0.00     0.128 C 
ATOM      6  N   UNL A   1      35.200  34.419  33.073  1.00  0.00    -0.312 N 
ATOM      7  C   UNL A   1      35.188  35.747  32.521  1.00  0.00     0.141 C 
ATOM      8  C   UNL A   1      33.929  33.850  33.113  1.00  0.00     0.227 C 
ATOM      9  C   UNL A   1      32.956  34.834  32.535  1.00  0.00     0.117 C 
ATOM     10  O   UNL A   1      33.595  32.746  33.520  1.00  0.00    -0.274 OA
BRANCH   6  11
ATOM     11  C   UNL A   1      36.408  33.724  33.294  1.00  0.00     0.044 A 
ATOM     12  C   UNL A   1      38.864  32.407  33.619  1.00  0.00     0.120 A 
ATOM     13  C   UNL A   1      38.482  33.392  34.524  1.00  0.00     0.048 A 
ATOM     14  C   UNL A   1      38.010  32.058  32.578  1.00  0.00     0.048 A 
ATOM     15  C   UNL A   1      37.269  34.068  34.345  1.00  0.00     0.030 A 
ATOM     16  C   UNL A   1      36.788  32.705  32.423  1.00  0.00     0.030 A 
BRANCH  12  17
ATOM     17  O   UNL A   1      40.035  31.731  33.837  1.00  0.00    -0.484 OA
BRANCH  17  18
ATOM     18  C   UNL A   1      39.844  30.560  34.642  1.00  0.00     0.329 C 
BRANCH  18  19
ATOM     19  C   UNL A   1      40.392  29.273  34.018  1.00  0.00     0.262 C 
ATOM     20  O   UNL A   1      39.684  28.556  33.319  1.00  0.00    -0.271 OA
ATOM     21  N   UNL A   1      41.693  29.002  34.432  1.00  0.00    -0.322 N 
ATOM     22  H   UNL A   1      42.182  29.716  34.902  1.00  0.00     0.170 HD
BRANCH  21  23
ATOM     23  C   UNL A   1      42.362  27.774  34.225  1.00  0.00     0.060 A 
ATOM     24  C   UNL A   1      43.026  27.651  32.992  1.00  0.00     0.029 A 
ATOM     25  C   UNL A   1      42.442  26.714  35.144  1.00  0.00     0.066 A 
ATOM     26  C   UNL A   1      43.832  26.544  32.722  1.00  0.00     0.023 A 
ATOM     27  C   UNL A   1      43.249  25.603  34.868  1.00  0.00     0.043 A 
ATOM     28  Cl  UNL A   1      41.435  26.601  36.546  1.00  0.00    -0.082 Cl
ATOM     29  C   UNL A   1      43.952  25.532  33.669  1.00  0.00     0.042 A 
ATOM     30  Cl  UNL A   1      44.952  24.171  33.340  1.00  0.00    -0.084 Cl
ENDBRANCH  21  23
ENDBRANCH  18  19
ENDBRANCH  17  18
ENDBRANCH  12  17
ENDBRANCH   6  11
ENDBRANCH   3   5
ENDBRANCH   2   3
ENDBRANCH   1   2
BRANCH   1  31
ATOM     31  C   UNL A   1      32.742  34.959  28.969  1.00  0.00     0.202 C 
BRANCH  31  32
ATOM     32  O   UNL A   1      33.422  34.090  28.064  1.00  0.00    -0.374 OA
BRANCH  32  33
ATOM     33  C   UNL A   1      34.847  34.159  28.016  1.00  0.00     0.202 C 
BRANCH  33  34
ATOM     34  C   UNL A   1      35.623  33.201  28.927  1.00  0.00     0.261 C 
BRANCH  34  35
ATOM     35  O   UNL A   1      34.811  32.107  29.390  1.00  0.00    -0.460 OA
BRANCH  35  36
ATOM     36  C   UNL A   1      34.754  31.053  28.543  1.00  0.00     0.338 C 
ATOM     37  O   UNL A   1      33.865  30.791  27.744  1.00  0.00    -0.246 OA
BRANCH  36  38
ATOM     38  C   UNL A   1      36.021  30.302  28.567  1.00  0.00     0.060 A 
ATOM     39  C   UNL A   1      36.416  29.749  29.791  1.00  0.00     0.016 A 
ATOM     40  C   UNL A   1      36.856  30.229  27.451  1.00  0.00     0.016 A 
ATOM     41  C   UNL A   1      37.675  29.168  29.922  1.00  0.00     0.010 A 
ATOM     42  C   UNL A   1      38.126  29.653  27.586  1.00  0.00     0.010 A 
ATOM     43  C   UNL A   1      38.553  29.156  28.829  1.00  0.00    -0.014 A 
BRANCH  43  44
ATOM     44  C   UNL A   1      39.966  28.762  29.043  1.00  0.00     0.031 A 
ATOM     45  C   UNL A   1      40.905  29.733  29.703  1.00  0.00     0.074 A 
ATOM     46  C   UNL A   1      40.400  27.541  28.686  1.00  0.00     0.049 A 
ATOM     47  N   UNL A   1      42.177  29.599  29.982  1.00  0.00    -0.248 NA
ATOM     48  C   UNL A   1      40.333  31.028  30.102  1.00  0.00     0.031 C 
ATOM     49  C   UNL A   1      39.582  26.503  28.064  1.00  0.00     0.029 A 
ATOM     50  N   UNL A   1      41.646  26.974  28.791  1.00  0.00    -0.354 N 
ATOM     51  C   UNL A   1      42.559  30.793  30.582  1.00  0.00     0.074 A 
ATOM     52  C   UNL A   1      41.392  31.648  30.602  1.00  0.00     0.031 C 
ATOM     53  C   UNL A   1      40.353  25.428  27.823  1.00  0.00     0.029 A 
ATOM     54  C   UNL A   1      41.720  25.713  28.254  1.00  0.00     0.049 A 
ATOM     55  H   UNL A   1      42.412  27.428  29.211  1.00  0.00     0.167 HD
ATOM     56  C   UNL A   1      43.770  31.141  31.078  1.00  0.00     0.037 A 
ATOM     57  C   UNL A   1      42.778  24.891  28.109  1.00  0.00     0.037 A 
ATOM     58  C   UNL A   1      44.930  30.290  31.060  1.00  0.00     0.049 A 
ATOM     59  C   UNL A   1      44.126  25.320  28.622  1.00  0.00     0.074 A 
ATOM     60  C   UNL A   1      46.192  30.540  31.570  1.00  0.00     0.029 A 
ATOM     61  N   UNL A   1      44.971  29.026  30.490  1.00  0.00    -0.354 N 
ATOM     62  N   UNL A   1      44.466  26.432  29.226  1.00  0.00    -0.248 NA
ATOM     63  C   UNL A   1      45.237  24.373  28.437  1.00  0.00     0.031 C 
ATOM     64  C   UNL A   1      47.010  29.446  31.267  1.00  0.00     0.029 A 
ATOM     65  C   UNL A   1      46.246  28.496  30.609  1.00  0.00     0.049 A 
ATOM     66  H   UNL A   1      44.208  28.574  30.063  1.00  0.00     0.167 HD
ATOM     67  C   UNL A   1      45.821  26.313  29.510  1.00  0.00     0.074 A 
ATOM     68  C   UNL A   1      46.238  25.014  29.024  1.00  0.00     0.031 C 
ATOM     69  C   UNL A   1      46.645  27.201  30.119  1.00  0.00     0.037 A 
BRANCH  56  70
ATOM     70  C   UNL A   1      43.902  32.517  31.660  1.00  0.00     0.057 A 
ATOM     71  C   UNL A   1      43.675  32.772  33.018  1.00  0.00     0.134 A 
ATOM     72  C   UNL A   1      44.277  33.598  30.852  1.00  0.00     0.134 A 
ATOM     73  F   UNL A   1      43.298  31.783  33.842  1.00  0.00    -0.206 F 
ATOM     74  C   UNL A   1      43.790  34.060  33.548  1.00  0.00     0.040 A 
ATOM     75  C   UNL A   1      44.420  34.884  31.374  1.00  0.00     0.040 A 
ATOM     76  F   UNL A   1      44.514  33.421  29.544  1.00  0.00    -0.206 F 
ATOM     77  C   UNL A   1      44.169  35.119  32.725  1.00  0.00     0.006 A 
ENDBRANCH  56  70
BRANCH  57  78
ATOM     78  C   UNL A   1      42.604  23.584  27.430  1.00  0.00     0.057 A 
ATOM     79  C   UNL A   1      42.773  23.452  26.048  1.00  0.00     0.134 A 
ATOM     80  C   UNL A   1      42.264  22.434  28.153  1.00  0.00     0.134 A 
ATOM     81  F   UNL A   1      43.077  24.523  25.300  1.00  0.00    -0.206 F 
ATOM     82  C   UNL A   1      42.598  22.225  25.405  1.00  0.00     0.040 A 
ATOM     83  C   UNL A   1      42.109  21.197  27.527  1.00  0.00     0.040 A 
ATOM     84  F   UNL A   1      42.089  22.497  29.481  1.00  0.00    -0.206 F 
ATOM     85  C   UNL A   1      42.272  21.091  26.148  1.00  0.00     0.006 A 
ENDBRANCH  57  78
BRANCH  69  86
ATOM     86  C   UNL A   1      48.074  26.789  30.316  1.00  0.00     0.057 A 
ATOM     87  C   UNL A   1      48.485  26.061  31.440  1.00  0.00     0.134 A 
ATOM     88  C   UNL A   1      49.043  27.089  29.349  1.00  0.00     0.134 A 
ATOM     89  F   UNL A   1      47.607  25.754  32.407  1.00  0.00    -0.206 F 
ATOM     90  C   UNL A   1      49.812  25.661  31.604  1.00  0.00     0.040 A 
ATOM     91  C   UNL A   1      50.368  26.673  29.492  1.00  0.00     0.040 A 
ATOM     92  F   UNL A   1      48.716  27.776  28.246  1.00  0.00    -0.206 F 
ATOM     93  C   UNL A   1      50.756  25.961  30.625  1.00  0.00     0.006 A 
ENDBRANCH  69  86
ENDBRANCH  43  44
ENDBRANCH  36  38
ENDBRANCH  35  36
ENDBRANCH  34  35
ENDBRANCH  33  34
ENDBRANCH  32  33
ENDBRANCH  31  32
ENDBRANCH   1  31
TORSDOF 19
ENDMDL
