MODEL 1
REMARK VINA RESULT:     -10.7      0.000      0.000
REMARK SMILES O=C(OCCOCCOC(=O)[C@@H](Cc1ccccc1)Nc1ccc(Cl)c(Br)c1)c1ccc(-c2c3nc(c(-c4c(F)cccc4F)c4ccc([nH]4)c(-c4c(F)cccc4F)c4nc(c(-c5c(F)cccc5F)c5ccc2[nH]5)C=C4)C=C3)cc1
REMARK SMILES IDX 6 1 5 2 4 3 3 4 2 5 1 6 29 7 30 8 82 9 31 10 81 11 32 12
REMARK SMILES IDX 33 13 34 14 75 15 35 16 80 17 74 18 76 19 36 20 79 21 73 22
REMARK SMILES IDX 72 23 37 25 63 26 46 27 62 28 47 29 50 30 61 31 77 32 48 33
REMARK SMILES IDX 49 34 60 36 78 37 51 38 38 39 39 40 44 41 40 42 41 43 43 44
REMARK SMILES IDX 45 45 42 46 64 47 65 48 70 49 66 50 67 51 69 52 71 53 68 54
REMARK SMILES IDX 52 55 53 56 58 57 54 58 55 59 57 60 59 61 56 62 7 63 8 64
REMARK SMILES IDX 9 65 10 66 11 67 12 68 13 69 14 70 15 71 19 72 16 73 18 74
REMARK SMILES IDX 17 75 20 76 21 78 22 79 28 80 23 81 26 82 24 83 27 84 25 85
REMARK H PARENT 76 24 50 35 20 77
REMARK Flexibility Score: inf
ROOT
ATOM      1  O   UNL A   1      33.310  27.903  24.773  1.00  0.00    -0.374 OA
ENDROOT
BRANCH   1   2
ATOM      2  C   UNL A   1      31.943  28.284  24.922  1.00  0.00     0.202 C 
BRANCH   2   3
ATOM      3  C   UNL A   1      31.668  29.691  25.467  1.00  0.00     0.261 C 
BRANCH   3   4
ATOM      4  O   UNL A   1      32.888  30.411  25.717  1.00  0.00    -0.460 OA
BRANCH   4   5
ATOM      5  C   UNL A   1      33.204  31.117  26.830  1.00  0.00     0.338 C 
ATOM      6  O   UNL A   1      32.468  32.029  27.199  1.00  0.00    -0.246 OA
BRANCH   5   7
ATOM      7  C   UNL A   1      34.434  30.837  27.627  1.00  0.00     0.060 A 
ATOM      8  C   UNL A   1      34.803  29.560  28.042  1.00  0.00     0.016 A 
ATOM      9  C   UNL A   1      35.310  31.895  27.906  1.00  0.00     0.016 A 
ATOM     10  C   UNL A   1      35.947  29.319  28.764  1.00  0.00     0.010 A 
ATOM     11  C   UNL A   1      36.504  31.661  28.598  1.00  0.00     0.010 A 
ATOM     12  C   UNL A   1      36.813  30.366  29.027  1.00  0.00    -0.014 A 
BRANCH  12  13
ATOM     13  C   UNL A   1      37.978  30.029  29.848  1.00  0.00     0.031 A 
ATOM     14  C   UNL A   1      39.074  29.238  29.218  1.00  0.00     0.074 A 
ATOM     15  C   UNL A   1      38.116  30.627  31.046  1.00  0.00     0.049 A 
ATOM     16  N   UNL A   1      40.175  28.791  29.749  1.00  0.00    -0.248 NA
ATOM     17  C   UNL A   1      38.917  28.927  27.785  1.00  0.00     0.031 C 
ATOM     18  C   UNL A   1      37.162  31.577  31.629  1.00  0.00     0.029 A 
ATOM     19  N   UNL A   1      39.128  30.569  31.960  1.00  0.00    -0.354 N 
ATOM     20  C   UNL A   1      40.821  28.103  28.734  1.00  0.00     0.074 A 
ATOM     21  C   UNL A   1      40.005  28.211  27.546  1.00  0.00     0.031 C 
ATOM     22  C   UNL A   1      37.648  32.028  32.795  1.00  0.00     0.029 A 
ATOM     23  C   UNL A   1      38.895  31.331  33.078  1.00  0.00     0.049 A 
ATOM     24  H   UNL A   1      39.945  30.035  31.831  1.00  0.00     0.167 HD
ATOM     25  C   UNL A   1      41.984  27.421  28.816  1.00  0.00     0.037 A 
ATOM     26  C   UNL A   1      39.595  31.400  34.225  1.00  0.00     0.037 A 
ATOM     27  C   UNL A   1      42.759  27.352  30.023  1.00  0.00     0.049 A 
ATOM     28  C   UNL A   1      40.823  30.542  34.330  1.00  0.00     0.074 A 
ATOM     29  C   UNL A   1      43.907  26.630  30.280  1.00  0.00     0.029 A 
ATOM     30  N   UNL A   1      42.448  28.049  31.186  1.00  0.00    -0.354 N 
ATOM     31  N   UNL A   1      41.380  29.786  33.411  1.00  0.00    -0.248 NA
ATOM     32  C   UNL A   1      41.502  30.512  35.629  1.00  0.00     0.031 C 
ATOM     33  C   UNL A   1      44.267  26.858  31.613  1.00  0.00     0.029 A 
ATOM     34  C   UNL A   1      43.370  27.758  32.172  1.00  0.00     0.049 A 
ATOM     35  H   UNL A   1      41.683  28.660  31.290  1.00  0.00     0.167 HD
ATOM     36  C   UNL A   1      42.476  29.192  34.017  1.00  0.00     0.074 A 
ATOM     37  C   UNL A   1      42.519  29.699  35.376  1.00  0.00     0.031 C 
ATOM     38  C   UNL A   1      43.363  28.301  33.509  1.00  0.00     0.037 A 
BRANCH  25  39
ATOM     39  C   UNL A   1      42.392  26.633  27.610  1.00  0.00     0.057 A 
ATOM     40  C   UNL A   1      42.153  25.257  27.491  1.00  0.00     0.134 A 
ATOM     41  C   UNL A   1      43.095  27.257  26.571  1.00  0.00     0.134 A 
ATOM     42  F   UNL A   1      41.521  24.591  28.469  1.00  0.00    -0.206 F 
ATOM     43  C   UNL A   1      42.619  24.529  26.395  1.00  0.00     0.040 A 
ATOM     44  C   UNL A   1      43.546  26.545  25.460  1.00  0.00     0.040 A 
ATOM     45  F   UNL A   1      43.371  28.569  26.630  1.00  0.00    -0.206 F 
ATOM     46  C   UNL A   1      43.317  25.174  25.373  1.00  0.00     0.006 A 
ENDBRANCH  25  39
BRANCH  26  47
ATOM     47  C   UNL A   1      39.101  32.217  35.364  1.00  0.00     0.057 A 
ATOM     48  C   UNL A   1      38.259  31.679  36.342  1.00  0.00     0.134 A 
ATOM     49  C   UNL A   1      39.455  33.567  35.498  1.00  0.00     0.134 A 
ATOM     50  F   UNL A   1      37.865  30.400  36.264  1.00  0.00    -0.206 F 
ATOM     51  C   UNL A   1      37.780  32.453  37.403  1.00  0.00     0.040 A 
ATOM     52  C   UNL A   1      39.010  34.344  36.568  1.00  0.00     0.040 A 
ATOM     53  F   UNL A   1      40.258  34.151  34.595  1.00  0.00    -0.206 F 
ATOM     54  C   UNL A   1      38.162  33.788  37.521  1.00  0.00     0.006 A 
ENDBRANCH  26  47
BRANCH  38  55
ATOM     55  C   UNL A   1      44.452  27.847  34.429  1.00  0.00     0.057 A 
ATOM     56  C   UNL A   1      45.662  28.542  34.529  1.00  0.00     0.134 A 
ATOM     57  C   UNL A   1      44.258  26.739  35.262  1.00  0.00     0.134 A 
ATOM     58  F   UNL A   1      45.907  29.601  33.742  1.00  0.00    -0.206 F 
ATOM     59  C   UNL A   1      46.654  28.139  35.421  1.00  0.00     0.040 A 
ATOM     60  C   UNL A   1      45.233  26.343  36.176  1.00  0.00     0.040 A 
ATOM     61  F   UNL A   1      43.114  26.042  35.213  1.00  0.00    -0.206 F 
ATOM     62  C   UNL A   1      46.436  27.042  36.254  1.00  0.00     0.006 A 
ENDBRANCH  38  55
ENDBRANCH  12  13
ENDBRANCH   5   7
ENDBRANCH   4   5
ENDBRANCH   3   4
ENDBRANCH   2   3
ENDBRANCH   1   2
BRANCH   1  63
ATOM     63  C   UNL A   1      33.608  26.506  24.844  1.00  0.00     0.202 C 
BRANCH  63  64
ATOM     64  C   UNL A   1      32.642  25.838  25.824  1.00  0.00     0.261 C 
BRANCH  64  65
ATOM     65  O   UNL A   1      32.206  24.591  25.261  1.00  0.00    -0.462 OA
BRANCH  65  66
ATOM     66  C   UNL A   1      32.338  23.506  26.069  1.00  0.00     0.328 C 
ATOM     67  O   UNL A   1      31.989  23.462  27.245  1.00  0.00    -0.250 OA
BRANCH  66  68
ATOM     68  C   UNL A   1      33.036  22.349  25.346  1.00  0.00     0.194 C 
BRANCH  68  69
ATOM     69  C   UNL A   1      32.164  21.370  24.524  1.00  0.00     0.072 C 
BRANCH  69  70
ATOM     70  C   UNL A   1      32.601  19.970  24.137  1.00  0.00    -0.045 A 
ATOM     71  C   UNL A   1      32.210  19.468  22.880  1.00  0.00     0.004 A 
ATOM     72  C   UNL A   1      33.298  19.108  24.990  1.00  0.00     0.004 A 
ATOM     73  C   UNL A   1      32.536  18.169  22.483  1.00  0.00     0.000 A 
ATOM     74  C   UNL A   1      33.646  17.815  24.585  1.00  0.00     0.000 A 
ATOM     75  C   UNL A   1      33.262  17.344  23.335  1.00  0.00     0.000 A 
ENDBRANCH  69  70
ENDBRANCH  68  69
BRANCH  68  76
ATOM     76  N   UNL A   1      34.158  22.860  24.546  1.00  0.00    -0.372 N 
ATOM     77  H   UNL A   1      33.991  23.396  23.737  1.00  0.00     0.161 HD
BRANCH  76  78
ATOM     78  C   UNL A   1      35.454  22.576  24.947  1.00  0.00     0.036 A 
ATOM     79  C   UNL A   1      36.003  21.329  24.640  1.00  0.00     0.027 A 
ATOM     80  C   UNL A   1      36.254  23.511  25.617  1.00  0.00     0.043 A 
ATOM     81  C   UNL A   1      37.315  21.016  25.000  1.00  0.00     0.024 A 
ATOM     82  C   UNL A   1      37.569  23.206  25.982  1.00  0.00     0.038 A 
ATOM     83  C   UNL A   1      38.101  21.951  25.677  1.00  0.00     0.055 A 
ATOM     84  Br  UNL A   1      38.557  24.551  26.890  1.00  0.00    -0.049 Br
ATOM     85  Cl  UNL A   1      39.704  21.484  26.110  1.00  0.00    -0.083 Cl
ENDBRANCH  76  78
ENDBRANCH  68  76
ENDBRANCH  66  68
ENDBRANCH  65  66
ENDBRANCH  64  65
ENDBRANCH  63  64
ENDBRANCH   1  63
TORSDOF 18
ENDMDL
MODEL 2
REMARK VINA RESULT:     -10.6      1.879      6.847
REMARK SMILES O=C(OCCOCCOC(=O)[C@@H](Cc1ccccc1)Nc1ccc(Cl)c(Br)c1)c1ccc(-c2c3nc(c(-c4c(F)cccc4F)c4ccc([nH]4)c(-c4c(F)cccc4F)c4nc(c(-c5c(F)cccc5F)c5ccc2[nH]5)C=C4)C=C3)cc1
REMARK SMILES IDX 6 1 5 2 4 3 3 4 2 5 1 6 29 7 30 8 82 9 31 10 81 11 32 12
REMARK SMILES IDX 33 13 34 14 75 15 35 16 80 17 74 18 76 19 36 20 79 21 73 22
REMARK SMILES IDX 72 23 37 25 63 26 46 27 62 28 47 29 50 30 61 31 77 32 48 33
REMARK SMILES IDX 49 34 60 36 78 37 51 38 38 39 39 40 44 41 40 42 41 43 43 44
REMARK SMILES IDX 45 45 42 46 64 47 65 48 70 49 66 50 67 51 69 52 71 53 68 54
REMARK SMILES IDX 52 55 53 56 58 57 54 58 55 59 57 60 59 61 56 62 7 63 8 64
REMARK SMILES IDX 9 65 10 66 11 67 12 68 13 69 14 70 15 71 19 72 16 73 18 74
REMARK SMILES IDX 17 75 20 76 21 78 22 79 28 80 23 81 26 82 24 83 27 84 25 85
REMARK H PARENT 76 24 50 35 20 77
REMARK Flexibility Score: inf
ROOT
ATOM      1  O   UNL A   1      31.949  29.691  26.665  1.00  0.00    -0.374 OA
ENDROOT
BRANCH   1   2
ATOM      2  C   UNL A   1      31.932  31.023  26.155  1.00  0.00     0.202 C 
BRANCH   2   3
ATOM      3  C   UNL A   1      31.520  32.136  27.127  1.00  0.00     0.261 C 
BRANCH   3   4
ATOM      4  O   UNL A   1      32.393  33.275  27.028  1.00  0.00    -0.460 OA
BRANCH   4   5
ATOM      5  C   UNL A   1      33.092  33.855  28.035  1.00  0.00     0.338 C 
ATOM      6  O   UNL A   1      32.734  34.945  28.474  1.00  0.00    -0.246 OA
BRANCH   5   7
ATOM      7  C   UNL A   1      34.305  33.219  28.628  1.00  0.00     0.060 A 
ATOM      8  C   UNL A   1      34.368  31.875  28.986  1.00  0.00     0.016 A 
ATOM      9  C   UNL A   1      35.471  33.986  28.758  1.00  0.00     0.016 A 
ATOM     10  C   UNL A   1      35.497  31.303  29.519  1.00  0.00     0.010 A 
ATOM     11  C   UNL A   1      36.646  33.408  29.253  1.00  0.00     0.010 A 
ATOM     12  C   UNL A   1      36.648  32.062  29.635  1.00  0.00    -0.014 A 
BRANCH  12  13
ATOM     13  C   UNL A   1      37.788  31.389  30.262  1.00  0.00     0.031 A 
ATOM     14  C   UNL A   1      37.974  31.552  31.733  1.00  0.00     0.074 A 
ATOM     15  C   UNL A   1      38.478  30.486  29.543  1.00  0.00     0.049 A 
ATOM     16  N   UNL A   1      38.921  31.089  32.498  1.00  0.00    -0.248 NA
ATOM     17  C   UNL A   1      36.938  32.322  32.444  1.00  0.00     0.031 C 
ATOM     18  C   UNL A   1      38.206  30.137  28.144  1.00  0.00     0.029 A 
ATOM     19  N   UNL A   1      39.507  29.661  29.897  1.00  0.00    -0.354 N 
ATOM     20  C   UNL A   1      38.626  31.553  33.771  1.00  0.00     0.074 A 
ATOM     21  C   UNL A   1      37.399  32.311  33.685  1.00  0.00     0.031 C 
ATOM     22  C   UNL A   1      39.036  29.153  27.767  1.00  0.00     0.029 A 
ATOM     23  C   UNL A   1      39.951  28.872  28.864  1.00  0.00     0.049 A 
ATOM     24  H   UNL A   1      39.892  29.634  30.802  1.00  0.00     0.167 HD
ATOM     25  C   UNL A   1      39.349  31.372  34.898  1.00  0.00     0.037 A 
ATOM     26  C   UNL A   1      41.022  28.060  28.812  1.00  0.00     0.037 A 
ATOM     27  C   UNL A   1      40.560  30.602  34.926  1.00  0.00     0.049 A 
ATOM     28  C   UNL A   1      41.873  27.967  30.046  1.00  0.00     0.074 A 
ATOM     29  C   UNL A   1      41.442  30.406  35.969  1.00  0.00     0.029 A 
ATOM     30  N   UNL A   1      41.055  29.892  33.836  1.00  0.00    -0.354 N 
ATOM     31  N   UNL A   1      41.669  28.503  31.228  1.00  0.00    -0.248 NA
ATOM     32  C   UNL A   1      43.114  27.195  29.939  1.00  0.00     0.031 C 
ATOM     33  C   UNL A   1      42.494  29.611  35.498  1.00  0.00     0.029 A 
ATOM     34  C   UNL A   1      42.243  29.274  34.175  1.00  0.00     0.049 A 
ATOM     35  H   UNL A   1      40.622  29.839  32.953  1.00  0.00     0.167 HD
ATOM     36  C   UNL A   1      42.753  28.132  32.009  1.00  0.00     0.074 A 
ATOM     37  C   UNL A   1      43.598  27.302  31.170  1.00  0.00     0.031 C 
ATOM     38  C   UNL A   1      43.038  28.452  33.295  1.00  0.00     0.037 A 
BRANCH  25  39
ATOM     39  C   UNL A   1      38.892  32.107  36.119  1.00  0.00     0.057 A 
ATOM     40  C   UNL A   1      38.046  31.530  37.075  1.00  0.00     0.134 A 
ATOM     41  C   UNL A   1      39.260  33.446  36.307  1.00  0.00     0.134 A 
ATOM     42  F   UNL A   1      37.623  30.265  36.933  1.00  0.00    -0.206 F 
ATOM     43  C   UNL A   1      37.565  32.266  38.161  1.00  0.00     0.040 A 
ATOM     44  C   UNL A   1      38.804  34.184  37.399  1.00  0.00     0.040 A 
ATOM     45  F   UNL A   1      40.055  34.063  35.420  1.00  0.00    -0.206 F 
ATOM     46  C   UNL A   1      37.947  33.597  38.326  1.00  0.00     0.006 A 
ENDBRANCH  25  39
BRANCH  26  47
ATOM     47  C   UNL A   1      41.388  27.374  27.545  1.00  0.00     0.057 A 
ATOM     48  C   UNL A   1      42.135  28.014  26.552  1.00  0.00     0.134 A 
ATOM     49  C   UNL A   1      40.990  26.053  27.293  1.00  0.00     0.134 A 
ATOM     50  F   UNL A   1      42.532  29.284  26.720  1.00  0.00    -0.206 F 
ATOM     51  C   UNL A   1      42.463  27.374  25.355  1.00  0.00     0.040 A 
ATOM     52  C   UNL A   1      41.335  25.390  26.115  1.00  0.00     0.040 A 
ATOM     53  F   UNL A   1      40.268  25.377  28.200  1.00  0.00    -0.206 F 
ATOM     54  C   UNL A   1      42.068  26.055  25.136  1.00  0.00     0.006 A 
ENDBRANCH  26  47
BRANCH  38  55
ATOM     55  C   UNL A   1      44.300  27.881  33.859  1.00  0.00     0.057 A 
ATOM     56  C   UNL A   1      45.504  28.594  33.826  1.00  0.00     0.134 A 
ATOM     57  C   UNL A   1      44.291  26.634  34.493  1.00  0.00     0.134 A 
ATOM     58  F   UNL A   1      45.572  29.788  33.217  1.00  0.00    -0.206 F 
ATOM     59  C   UNL A   1      46.666  28.075  34.395  1.00  0.00     0.040 A 
ATOM     60  C   UNL A   1      45.441  26.117  35.087  1.00  0.00     0.040 A 
ATOM     61  F   UNL A   1      43.163  25.912  34.561  1.00  0.00    -0.206 F 
ATOM     62  C   UNL A   1      46.633  26.837  35.036  1.00  0.00     0.006 A 
ENDBRANCH  38  55
ENDBRANCH  12  13
ENDBRANCH   5   7
ENDBRANCH   4   5
ENDBRANCH   3   4
ENDBRANCH   2   3
ENDBRANCH   1   2
BRANCH   1  63
ATOM     63  C   UNL A   1      31.734  28.631  25.728  1.00  0.00     0.202 C 
BRANCH  63  64
ATOM     64  C   UNL A   1      31.110  27.439  26.457  1.00  0.00     0.261 C 
BRANCH  64  65
ATOM     65  O   UNL A   1      31.982  26.308  26.315  1.00  0.00    -0.462 OA
BRANCH  65  66
ATOM     66  C   UNL A   1      31.432  25.216  25.720  1.00  0.00     0.328 C 
ATOM     67  O   UNL A   1      30.229  24.981  25.662  1.00  0.00    -0.250 OA
BRANCH  66  68
ATOM     68  C   UNL A   1      32.510  24.273  25.175  1.00  0.00     0.194 C 
BRANCH  68  69
ATOM     69  C   UNL A   1      33.980  24.754  25.193  1.00  0.00     0.072 C 
BRANCH  69  70
ATOM     70  C   UNL A   1      35.169  23.850  24.933  1.00  0.00    -0.045 A 
ATOM     71  C   UNL A   1      36.002  23.505  26.017  1.00  0.00     0.004 A 
ATOM     72  C   UNL A   1      35.544  23.403  23.662  1.00  0.00     0.004 A 
ATOM     73  C   UNL A   1      37.141  22.718  25.837  1.00  0.00     0.000 A 
ATOM     74  C   UNL A   1      36.672  22.595  23.483  1.00  0.00     0.000 A 
ATOM     75  C   UNL A   1      37.472  22.255  24.568  1.00  0.00     0.000 A 
ENDBRANCH  69  70
ENDBRANCH  68  69
BRANCH  68  76
ATOM     76  N   UNL A   1      32.378  22.947  25.795  1.00  0.00    -0.372 N 
ATOM     77  H   UNL A   1      32.307  22.858  26.773  1.00  0.00     0.161 HD
BRANCH  76  78
ATOM     78  C   UNL A   1      32.354  21.823  24.983  1.00  0.00     0.036 A 
ATOM     79  C   UNL A   1      32.143  21.981  23.612  1.00  0.00     0.027 A 
ATOM     80  C   UNL A   1      32.577  20.533  25.480  1.00  0.00     0.043 A 
ATOM     81  C   UNL A   1      32.142  20.877  22.756  1.00  0.00     0.024 A 
ATOM     82  C   UNL A   1      32.577  19.422  24.631  1.00  0.00     0.038 A 
ATOM     83  C   UNL A   1      32.354  19.594  23.264  1.00  0.00     0.055 A 
ATOM     84  Br  UNL A   1      32.886  17.721  25.420  1.00  0.00    -0.049 Br
ATOM     85  Cl  UNL A   1      32.315  18.277  22.149  1.00  0.00    -0.083 Cl
ENDBRANCH  76  78
ENDBRANCH  68  76
ENDBRANCH  66  68
ENDBRANCH  65  66
ENDBRANCH  64  65
ENDBRANCH  63  64
ENDBRANCH   1  63
TORSDOF 18
ENDMDL
MODEL 3
REMARK VINA RESULT:     -10.6      4.459      8.188
REMARK SMILES O=C(OCCOCCOC(=O)[C@@H](Cc1ccccc1)Nc1ccc(Cl)c(Br)c1)c1ccc(-c2c3nc(c(-c4c(F)cccc4F)c4ccc([nH]4)c(-c4c(F)cccc4F)c4nc(c(-c5c(F)cccc5F)c5ccc2[nH]5)C=C4)C=C3)cc1
REMARK SMILES IDX 6 1 5 2 4 3 3 4 2 5 1 6 29 7 30 8 82 9 31 10 81 11 32 12
REMARK SMILES IDX 33 13 34 14 75 15 35 16 80 17 74 18 76 19 36 20 79 21 73 22
REMARK SMILES IDX 72 23 37 25 63 26 46 27 62 28 47 29 50 30 61 31 77 32 48 33
REMARK SMILES IDX 49 34 60 36 78 37 51 38 38 39 39 40 44 41 40 42 41 43 43 44
REMARK SMILES IDX 45 45 42 46 64 47 65 48 70 49 66 50 67 51 69 52 71 53 68 54
REMARK SMILES IDX 52 55 53 56 58 57 54 58 55 59 57 60 59 61 56 62 7 63 8 64
REMARK SMILES IDX 9 65 10 66 11 67 12 68 13 69 14 70 15 71 19 72 16 73 18 74
REMARK SMILES IDX 17 75 20 76 21 78 22 79 28 80 23 81 26 82 24 83 27 84 25 85
REMARK H PARENT 76 24 50 35 20 77
REMARK Flexibility Score: inf
ROOT
ATOM      1  O   UNL A   1      37.693  21.434  24.594  1.00  0.00    -0.374 OA
ENDROOT
BRANCH   1   2
ATOM      2  C   UNL A   1      38.142  20.100  24.827  1.00  0.00     0.202 C 
BRANCH   2   3
ATOM      3  C   UNL A   1      39.009  19.863  26.069  1.00  0.00     0.261 C 
BRANCH   3   4
ATOM      4  O   UNL A   1      40.203  19.126  25.750  1.00  0.00    -0.460 OA
BRANCH   4   5
ATOM      5  C   UNL A   1      41.480  19.485  26.029  1.00  0.00     0.338 C 
ATOM      6  O   UNL A   1      42.386  18.669  25.878  1.00  0.00    -0.246 OA
BRANCH   5   7
ATOM      7  C   UNL A   1      41.831  20.845  26.533  1.00  0.00     0.060 A 
ATOM      8  C   UNL A   1      41.826  21.186  27.883  1.00  0.00     0.016 A 
ATOM      9  C   UNL A   1      42.265  21.811  25.616  1.00  0.00     0.016 A 
ATOM     10  C   UNL A   1      42.164  22.440  28.330  1.00  0.00     0.010 A 
ATOM     11  C   UNL A   1      42.661  23.079  26.057  1.00  0.00     0.010 A 
ATOM     12  C   UNL A   1      42.603  23.386  27.421  1.00  0.00    -0.014 A 
BRANCH  12  13
ATOM     13  C   UNL A   1      42.889  24.710  27.977  1.00  0.00     0.031 A 
ATOM     14  C   UNL A   1      44.317  25.106  28.142  1.00  0.00     0.074 A 
ATOM     15  C   UNL A   1      41.878  25.588  28.103  1.00  0.00     0.049 A 
ATOM     16  N   UNL A   1      44.814  26.201  28.643  1.00  0.00    -0.248 NA
ATOM     17  C   UNL A   1      45.325  24.147  27.653  1.00  0.00     0.031 C 
ATOM     18  C   UNL A   1      40.477  25.315  27.761  1.00  0.00     0.029 A 
ATOM     19  N   UNL A   1      41.875  26.895  28.499  1.00  0.00    -0.354 N 
ATOM     20  C   UNL A   1      46.191  26.044  28.578  1.00  0.00     0.074 A 
ATOM     21  C   UNL A   1      46.455  24.762  27.966  1.00  0.00     0.031 C 
ATOM     22  C   UNL A   1      39.755  26.431  27.944  1.00  0.00     0.029 A 
ATOM     23  C   UNL A   1      40.623  27.460  28.499  1.00  0.00     0.049 A 
ATOM     24  H   UNL A   1      42.688  27.384  28.758  1.00  0.00     0.167 HD
ATOM     25  C   UNL A   1      47.136  26.899  29.025  1.00  0.00     0.037 A 
ATOM     26  C   UNL A   1      40.229  28.661  28.958  1.00  0.00     0.037 A 
ATOM     27  C   UNL A   1      46.815  28.165  29.621  1.00  0.00     0.049 A 
ATOM     28  C   UNL A   1      41.287  29.546  29.555  1.00  0.00     0.074 A 
ATOM     29  C   UNL A   1      47.658  29.094  30.197  1.00  0.00     0.029 A 
ATOM     30  N   UNL A   1      45.525  28.678  29.709  1.00  0.00    -0.354 N 
ATOM     31  N   UNL A   1      42.585  29.354  29.611  1.00  0.00    -0.248 NA
ATOM     32  C   UNL A   1      40.833  30.792  30.181  1.00  0.00     0.031 C 
ATOM     33  C   UNL A   1      46.872  30.150  30.672  1.00  0.00     0.029 A 
ATOM     34  C   UNL A   1      45.544  29.901  30.351  1.00  0.00     0.049 A 
ATOM     35  H   UNL A   1      44.716  28.233  29.366  1.00  0.00     0.167 HD
ATOM     36  C   UNL A   1      43.106  30.453  30.275  1.00  0.00     0.074 A 
ATOM     37  C   UNL A   1      41.983  31.321  30.578  1.00  0.00     0.031 C 
ATOM     38  C   UNL A   1      44.390  30.723  30.618  1.00  0.00     0.037 A 
BRANCH  25  39
ATOM     39  C   UNL A   1      48.555  26.424  28.975  1.00  0.00     0.057 A 
ATOM     40  C   UNL A   1      49.147  25.706  30.022  1.00  0.00     0.134 A 
ATOM     41  C   UNL A   1      49.362  26.749  27.877  1.00  0.00     0.134 A 
ATOM     42  F   UNL A   1      48.440  25.398  31.120  1.00  0.00    -0.206 F 
ATOM     43  C   UNL A   1      50.497  25.349  29.988  1.00  0.00     0.040 A 
ATOM     44  C   UNL A   1      50.706  26.379  27.822  1.00  0.00     0.040 A 
ATOM     45  F   UNL A   1      48.861  27.449  26.849  1.00  0.00    -0.206 F 
ATOM     46  C   UNL A   1      51.280  25.684  28.883  1.00  0.00     0.006 A 
ENDBRANCH  25  39
BRANCH  26  47
ATOM     47  C   UNL A   1      38.791  29.035  28.961  1.00  0.00     0.057 A 
ATOM     48  C   UNL A   1      37.990  28.863  30.093  1.00  0.00     0.134 A 
ATOM     49  C   UNL A   1      38.177  29.572  27.819  1.00  0.00     0.134 A 
ATOM     50  F   UNL A   1      38.507  28.337  31.213  1.00  0.00    -0.206 F 
ATOM     51  C   UNL A   1      36.633  29.198  30.089  1.00  0.00     0.040 A 
ATOM     52  C   UNL A   1      36.831  29.939  27.809  1.00  0.00     0.040 A 
ATOM     53  F   UNL A   1      38.885  29.763  26.695  1.00  0.00    -0.206 F 
ATOM     54  C   UNL A   1      36.052  29.745  28.945  1.00  0.00     0.006 A 
ENDBRANCH  26  47
BRANCH  38  55
ATOM     55  C   UNL A   1      44.630  32.014  31.336  1.00  0.00     0.057 A 
ATOM     56  C   UNL A   1      44.629  32.085  32.733  1.00  0.00     0.134 A 
ATOM     57  C   UNL A   1      44.923  33.178  30.618  1.00  0.00     0.134 A 
ATOM     58  F   UNL A   1      44.339  31.001  33.470  1.00  0.00    -0.206 F 
ATOM     59  C   UNL A   1      44.900  33.281  33.396  1.00  0.00     0.040 A 
ATOM     60  C   UNL A   1      45.220  34.374  31.270  1.00  0.00     0.040 A 
ATOM     61  F   UNL A   1      44.946  33.165  29.277  1.00  0.00    -0.206 F 
ATOM     62  C   UNL A   1      45.205  34.427  32.663  1.00  0.00     0.006 A 
ENDBRANCH  38  55
ENDBRANCH  12  13
ENDBRANCH   5   7
ENDBRANCH   4   5
ENDBRANCH   3   4
ENDBRANCH   2   3
ENDBRANCH   1   2
BRANCH   1  63
ATOM     63  C   UNL A   1      36.290  21.681  24.715  1.00  0.00     0.202 C 
BRANCH  63  64
ATOM     64  C   UNL A   1      35.987  23.096  24.218  1.00  0.00     0.261 C 
BRANCH  64  65
ATOM     65  O   UNL A   1      34.600  23.378  24.456  1.00  0.00    -0.462 OA
BRANCH  65  66
ATOM     66  C   UNL A   1      34.009  24.210  23.558  1.00  0.00     0.328 C 
ATOM     67  O   UNL A   1      34.140  24.134  22.340  1.00  0.00    -0.250 OA
BRANCH  66  68
ATOM     68  C   UNL A   1      33.198  25.306  24.258  1.00  0.00     0.194 C 
BRANCH  68  69
ATOM     69  C   UNL A   1      33.784  25.941  25.542  1.00  0.00     0.072 C 
BRANCH  69  70
ATOM     70  C   UNL A   1      33.319  27.263  26.120  1.00  0.00    -0.045 A 
ATOM     71  C   UNL A   1      32.127  27.286  26.872  1.00  0.00     0.004 A 
ATOM     72  C   UNL A   1      33.955  28.486  25.878  1.00  0.00     0.004 A 
ATOM     73  C   UNL A   1      31.617  28.479  27.389  1.00  0.00     0.000 A 
ATOM     74  C   UNL A   1      33.458  29.679  26.415  1.00  0.00     0.000 A 
ATOM     75  C   UNL A   1      32.288  29.676  27.166  1.00  0.00     0.000 A 
ENDBRANCH  69  70
ENDBRANCH  68  69
BRANCH  68  76
ATOM     76  N   UNL A   1      32.803  26.337  23.289  1.00  0.00    -0.372 N 
ATOM     77  H   UNL A   1      33.462  26.705  22.655  1.00  0.00     0.161 HD
BRANCH  76  78
ATOM     78  C   UNL A   1      31.491  26.785  23.280  1.00  0.00     0.036 A 
ATOM     79  C   UNL A   1      30.504  26.006  23.887  1.00  0.00     0.027 A 
ATOM     80  C   UNL A   1      31.122  28.014  22.718  1.00  0.00     0.043 A 
ATOM     81  C   UNL A   1      29.176  26.437  23.925  1.00  0.00     0.024 A 
ATOM     82  C   UNL A   1      29.794  28.453  22.751  1.00  0.00     0.038 A 
ATOM     83  C   UNL A   1      28.816  27.658  23.353  1.00  0.00     0.055 A 
ATOM     84  Br  UNL A   1      29.411  30.134  21.955  1.00  0.00    -0.049 Br
ATOM     85  Cl  UNL A   1      27.152  28.112  23.418  1.00  0.00    -0.083 Cl
ENDBRANCH  76  78
ENDBRANCH  68  76
ENDBRANCH  66  68
ENDBRANCH  65  66
ENDBRANCH  64  65
ENDBRANCH  63  64
ENDBRANCH   1  63
TORSDOF 18
ENDMDL
