MODEL 1
REMARK VINA RESULT:     -10.2      0.000      0.000
REMARK SMILES [NH3+]C[C@@]1([C@@H](O)C(=O)OCCOCCOC(=O)c2ccc(-c3c4nc(c(-c5c(F)cccc5F)c5ccc([nH]5)c(-c5c(F)cccc5F)c5nc(c(-c6c(F)cccc6F)c6ccc3[nH]6)C=C5)C=C4)cc2)CCOc2ccccc21
REMARK SMILES IDX 10 1 9 2 8 3 6 4 7 5 4 6 3 7 71 8 79 9 72 10 74 11 78 12
REMARK SMILES IDX 73 13 75 14 77 15 76 16 2 17 1 18 5 22 11 24 12 25 13 26
REMARK SMILES IDX 14 27 15 28 16 29 17 30 18 31 70 32 19 33 69 34 20 35 21 36
REMARK SMILES IDX 22 37 63 38 23 39 68 40 62 41 64 42 24 43 67 44 61 45 60 46
REMARK SMILES IDX 25 48 51 49 34 50 50 51 35 52 38 53 49 54 65 55 36 56 37 57
REMARK SMILES IDX 48 59 66 60 39 61 26 62 27 63 32 64 28 65 29 66 31 67 33 68
REMARK SMILES IDX 30 69 52 70 53 71 58 72 54 73 55 74 57 75 59 76 56 77 40 78
REMARK SMILES IDX 41 79 46 80 42 81 43 82 45 83 47 84 44 85
REMARK H PARENT 1 19 1 20 1 21 5 23 64 47 38 58
REMARK Flexibility Score: inf
ROOT
ATOM      1  C   UNL A   1      39.645  21.511  26.426  1.00  0.00     0.202 C 
ENDROOT
BRANCH   1   2
ATOM      2  C   UNL A   1      38.517  21.457  25.376  1.00  0.00     0.261 C 
BRANCH   2   3
ATOM      3  O   UNL A   1      37.188  21.564  25.946  1.00  0.00    -0.461 OA
BRANCH   3   4
ATOM      4  C   UNL A   1      36.503  22.733  25.830  1.00  0.00     0.336 C 
ATOM      5  O   UNL A   1      36.962  23.764  25.351  1.00  0.00    -0.249 OA
BRANCH   4   6
ATOM      6  C   UNL A   1      35.066  22.644  26.404  1.00  0.00     0.240 C 
BRANCH   6   7
ATOM      7  C   UNL A   1      33.856  22.906  25.417  1.00  0.00     0.088 C 
ATOM      8  C   UNL A   1      34.209  22.166  24.089  1.00  0.00     0.063 C 
ATOM      9  C   UNL A   1      33.660  24.384  25.030  1.00  0.00     0.009 A 
ATOM     10  C   UNL A   1      33.264  22.564  22.971  1.00  0.00     0.231 C 
ATOM     11  C   UNL A   1      33.522  24.790  23.693  1.00  0.00     0.123 A 
ATOM     12  C   UNL A   1      33.647  25.396  25.991  1.00  0.00     0.008 A 
ATOM     13  O   UNL A   1      33.417  23.937  22.630  1.00  0.00    -0.493 OA
ATOM     14  C   UNL A   1      33.512  26.147  23.346  1.00  0.00     0.047 A 
ATOM     15  C   UNL A   1      33.710  26.746  25.650  1.00  0.00     0.001 A 
ATOM     16  C   UNL A   1      33.648  27.127  24.322  1.00  0.00     0.004 A 
BRANCH   7  17
ATOM     17  C   UNL A   1      32.513  22.355  25.997  1.00  0.00     0.274 C 
BRANCH  17  18
ATOM     18  N   UNL A   1      32.178  20.966  25.693  1.00  0.00    -0.357 N 
ATOM     19  H   UNL A   1      32.805  20.346  26.206  1.00  0.00     0.344 HD
ATOM     20  H   UNL A   1      32.282  20.803  24.691  1.00  0.00     0.344 HD
ATOM     21  H   UNL A   1      31.214  20.780  25.969  1.00  0.00     0.344 HD
ENDBRANCH  17  18
ENDBRANCH   7  17
ENDBRANCH   6   7
BRANCH   6  22
ATOM     22  O   UNL A   1      34.849  21.452  27.169  1.00  0.00    -0.380 OA
ATOM     23  H   UNL A   1      34.560  21.691  28.063  1.00  0.00     0.211 HD
ENDBRANCH   6  22
ENDBRANCH   4   6
ENDBRANCH   3   4
ENDBRANCH   2   3
ENDBRANCH   1   2
BRANCH   1  24
ATOM     24  O   UNL A   1      40.807  20.756  26.072  1.00  0.00    -0.374 OA
BRANCH  24  25
ATOM     25  C   UNL A   1      42.017  21.164  26.706  1.00  0.00     0.202 C 
BRANCH  25  26
ATOM     26  C   UNL A   1      43.087  21.671  25.737  1.00  0.00     0.261 C 
BRANCH  26  27
ATOM     27  O   UNL A   1      42.658  22.875  25.073  1.00  0.00    -0.460 OA
BRANCH  27  28
ATOM     28  C   UNL A   1      43.471  23.949  25.242  1.00  0.00     0.338 C 
ATOM     29  O   UNL A   1      44.489  24.207  24.636  1.00  0.00    -0.246 OA
BRANCH  28  30
ATOM     30  C   UNL A   1      42.866  24.878  26.223  1.00  0.00     0.060 A 
ATOM     31  C   UNL A   1      43.511  26.100  26.441  1.00  0.00     0.016 A 
ATOM     32  C   UNL A   1      41.709  24.559  26.937  1.00  0.00     0.016 A 
ATOM     33  C   UNL A   1      43.007  27.003  27.380  1.00  0.00     0.010 A 
ATOM     34  C   UNL A   1      41.197  25.474  27.868  1.00  0.00     0.010 A 
ATOM     35  C   UNL A   1      41.853  26.696  28.114  1.00  0.00    -0.014 A 
BRANCH  35  36
ATOM     36  C   UNL A   1      41.420  27.587  29.227  1.00  0.00     0.031 A 
ATOM     37  C   UNL A   1      42.185  27.559  30.524  1.00  0.00     0.074 A 
ATOM     38  C   UNL A   1      40.388  28.443  29.090  1.00  0.00     0.049 A 
ATOM     39  N   UNL A   1      42.004  28.266  31.612  1.00  0.00    -0.248 NA
ATOM     40  C   UNL A   1      43.296  26.598  30.612  1.00  0.00     0.031 C 
ATOM     41  C   UNL A   1      39.552  28.585  27.900  1.00  0.00     0.029 A 
ATOM     42  N   UNL A   1      39.873  29.364  29.972  1.00  0.00    -0.354 N 
ATOM     43  C   UNL A   1      42.971  27.832  32.509  1.00  0.00     0.074 A 
ATOM     44  C   UNL A   1      43.699  26.764  31.861  1.00  0.00     0.031 C 
ATOM     45  C   UNL A   1      38.638  29.550  28.120  1.00  0.00     0.029 A 
ATOM     46  C   UNL A   1      38.813  30.081  29.472  1.00  0.00     0.049 A 
ATOM     47  H   UNL A   1      40.233  29.498  30.879  1.00  0.00     0.167 HD
ATOM     48  C   UNL A   1      43.253  28.292  33.751  1.00  0.00     0.037 A 
ATOM     49  C   UNL A   1      38.069  31.053  30.037  1.00  0.00     0.037 A 
ATOM     50  C   UNL A   1      42.558  29.367  34.405  1.00  0.00     0.049 A 
ATOM     51  C   UNL A   1      38.376  31.522  31.437  1.00  0.00     0.074 A 
ATOM     52  C   UNL A   1      42.805  29.920  35.650  1.00  0.00     0.029 A 
ATOM     53  N   UNL A   1      41.482  30.052  33.867  1.00  0.00    -0.354 N 
ATOM     54  N   UNL A   1      39.331  31.141  32.248  1.00  0.00    -0.248 NA
ATOM     55  C   UNL A   1      37.499  32.565  31.996  1.00  0.00     0.031 C 
ATOM     56  C   UNL A   1      41.854  30.919  35.881  1.00  0.00     0.029 A 
ATOM     57  C   UNL A   1      41.040  31.012  34.763  1.00  0.00     0.049 A 
ATOM     58  H   UNL A   1      41.090  29.883  32.980  1.00  0.00     0.167 HD
ATOM     59  C   UNL A   1      39.192  31.918  33.394  1.00  0.00     0.074 A 
ATOM     60  C   UNL A   1      38.067  32.799  33.172  1.00  0.00     0.031 C 
ATOM     61  C   UNL A   1      39.935  31.904  34.527  1.00  0.00     0.037 A 
BRANCH  48  62
ATOM     62  C   UNL A   1      44.374  27.621  34.485  1.00  0.00     0.057 A 
ATOM     63  C   UNL A   1      45.691  28.094  34.404  1.00  0.00     0.134 A 
ATOM     64  C   UNL A   1      44.136  26.496  35.283  1.00  0.00     0.134 A 
ATOM     65  F   UNL A   1      45.984  29.158  33.642  1.00  0.00    -0.206 F 
ATOM     66  C   UNL A   1      46.736  27.453  35.069  1.00  0.00     0.040 A 
ATOM     67  C   UNL A   1      45.169  25.862  35.973  1.00  0.00     0.040 A 
ATOM     68  F   UNL A   1      42.897  25.997  35.405  1.00  0.00    -0.206 F 
ATOM     69  C   UNL A   1      46.475  26.336  35.859  1.00  0.00     0.006 A 
ENDBRANCH  48  62
BRANCH  49  70
ATOM     70  C   UNL A   1      36.952  31.680  29.284  1.00  0.00     0.057 A 
ATOM     71  C   UNL A   1      37.087  32.954  28.719  1.00  0.00     0.134 A 
ATOM     72  C   UNL A   1      35.707  31.052  29.170  1.00  0.00     0.134 A 
ATOM     73  F   UNL A   1      38.248  33.618  28.822  1.00  0.00    -0.206 F 
ATOM     74  C   UNL A   1      36.016  33.593  28.090  1.00  0.00     0.040 A 
ATOM     75  C   UNL A   1      34.634  31.669  28.523  1.00  0.00     0.040 A 
ATOM     76  F   UNL A   1      35.512  29.833  29.695  1.00  0.00    -0.206 F 
ATOM     77  C   UNL A   1      34.785  32.948  27.991  1.00  0.00     0.006 A 
ENDBRANCH  49  70
BRANCH  61  78
ATOM     78  C   UNL A   1      39.594  32.894  35.602  1.00  0.00     0.057 A 
ATOM     79  C   UNL A   1      38.685  32.593  36.625  1.00  0.00     0.134 A 
ATOM     80  C   UNL A   1      40.231  34.141  35.649  1.00  0.00     0.134 A 
ATOM     81  F   UNL A   1      38.033  31.421  36.632  1.00  0.00    -0.206 F 
ATOM     82  C   UNL A   1      38.414  33.503  37.648  1.00  0.00     0.040 A 
ATOM     83  C   UNL A   1      39.985  35.049  36.679  1.00  0.00     0.040 A 
ATOM     84  F   UNL A   1      41.119  34.489  34.705  1.00  0.00    -0.206 F 
ATOM     85  C   UNL A   1      39.071  34.732  37.683  1.00  0.00     0.006 A 
ENDBRANCH  61  78
ENDBRANCH  35  36
ENDBRANCH  28  30
ENDBRANCH  27  28
ENDBRANCH  26  27
ENDBRANCH  25  26
ENDBRANCH  24  25
ENDBRANCH   1  24
TORSDOF 18
ENDMDL
MODEL 2
REMARK VINA RESULT:     -10.1      3.073      8.072
REMARK SMILES [NH3+]C[C@@]1([C@@H](O)C(=O)OCCOCCOC(=O)c2ccc(-c3c4nc(c(-c5c(F)cccc5F)c5ccc([nH]5)c(-c5c(F)cccc5F)c5nc(c(-c6c(F)cccc6F)c6ccc3[nH]6)C=C5)C=C4)cc2)CCOc2ccccc21
REMARK SMILES IDX 10 1 9 2 8 3 6 4 7 5 4 6 3 7 71 8 79 9 72 10 74 11 78 12
REMARK SMILES IDX 73 13 75 14 77 15 76 16 2 17 1 18 5 22 11 24 12 25 13 26
REMARK SMILES IDX 14 27 15 28 16 29 17 30 18 31 70 32 19 33 69 34 20 35 21 36
REMARK SMILES IDX 22 37 63 38 23 39 68 40 62 41 64 42 24 43 67 44 61 45 60 46
REMARK SMILES IDX 25 48 51 49 34 50 50 51 35 52 38 53 49 54 65 55 36 56 37 57
REMARK SMILES IDX 48 59 66 60 39 61 26 62 27 63 32 64 28 65 29 66 31 67 33 68
REMARK SMILES IDX 30 69 52 70 53 71 58 72 54 73 55 74 57 75 59 76 56 77 40 78
REMARK SMILES IDX 41 79 46 80 42 81 43 82 45 83 47 84 44 85
REMARK H PARENT 1 19 1 20 1 21 5 23 64 47 38 58
REMARK Flexibility Score: inf
ROOT
ATOM      1  C   UNL A   1      32.948  29.071  27.261  1.00  0.00     0.202 C 
ENDROOT
BRANCH   1   2
ATOM      2  C   UNL A   1      32.970  27.941  26.211  1.00  0.00     0.261 C 
BRANCH   2   3
ATOM      3  O   UNL A   1      33.710  28.278  25.011  1.00  0.00    -0.461 OA
BRANCH   3   4
ATOM      4  C   UNL A   1      33.056  28.345  23.820  1.00  0.00     0.336 C 
ATOM      5  O   UNL A   1      32.177  29.156  23.553  1.00  0.00    -0.249 OA
BRANCH   4   6
ATOM      6  C   UNL A   1      33.518  27.251  22.822  1.00  0.00     0.240 C 
BRANCH   6   7
ATOM      7  C   UNL A   1      32.796  25.843  22.881  1.00  0.00     0.088 C 
ATOM      8  C   UNL A   1      31.285  26.139  23.132  1.00  0.00     0.063 C 
ATOM      9  C   UNL A   1      33.245  24.946  24.049  1.00  0.00     0.009 A 
ATOM     10  C   UNL A   1      30.528  24.871  23.480  1.00  0.00     0.231 C 
ATOM     11  C   UNL A   1      32.322  24.323  24.904  1.00  0.00     0.123 A 
ATOM     12  C   UNL A   1      34.596  24.739  24.336  1.00  0.00     0.008 A 
ATOM     13  O   UNL A   1      30.967  24.334  24.723  1.00  0.00    -0.493 OA
ATOM     14  C   UNL A   1      32.745  23.649  26.057  1.00  0.00     0.047 A 
ATOM     15  C   UNL A   1      35.020  24.134  25.517  1.00  0.00     0.001 A 
ATOM     16  C   UNL A   1      34.093  23.589  26.387  1.00  0.00     0.004 A 
BRANCH   7  17
ATOM     17  C   UNL A   1      32.973  25.053  21.543  1.00  0.00     0.274 C 
BRANCH  17  18
ATOM     18  N   UNL A   1      32.226  25.536  20.383  1.00  0.00    -0.357 N 
ATOM     19  H   UNL A   1      32.728  26.314  19.956  1.00  0.00     0.344 HD
ATOM     20  H   UNL A   1      31.302  25.849  20.680  1.00  0.00     0.344 HD
ATOM     21  H   UNL A   1      32.127  24.780  19.704  1.00  0.00     0.344 HD
ENDBRANCH  17  18
ENDBRANCH   7  17
ENDBRANCH   6   7
BRANCH   6  22
ATOM     22  O   UNL A   1      33.595  27.729  21.474  1.00  0.00    -0.380 OA
ATOM     23  H   UNL A   1      34.145  28.526  21.445  1.00  0.00     0.211 HD
ENDBRANCH   6  22
ENDBRANCH   4   6
ENDBRANCH   3   4
ENDBRANCH   2   3
ENDBRANCH   1   2
BRANCH   1  24
ATOM     24  O   UNL A   1      31.973  30.085  27.006  1.00  0.00    -0.374 OA
BRANCH  24  25
ATOM     25  C   UNL A   1      32.495  31.354  26.624  1.00  0.00     0.202 C 
BRANCH  25  26
ATOM     26  C   UNL A   1      31.812  32.540  27.308  1.00  0.00     0.261 C 
BRANCH  26  27
ATOM     27  O   UNL A   1      32.583  33.746  27.148  1.00  0.00    -0.460 OA
BRANCH  27  28
ATOM     28  C   UNL A   1      33.098  34.258  28.295  1.00  0.00     0.338 C 
ATOM     29  O   UNL A   1      32.626  35.131  28.990  1.00  0.00    -0.246 OA
BRANCH  28  30
ATOM     30  C   UNL A   1      34.306  33.494  28.680  1.00  0.00     0.060 A 
ATOM     31  C   UNL A   1      34.174  32.542  29.696  1.00  0.00     0.016 A 
ATOM     32  C   UNL A   1      35.549  33.715  28.084  1.00  0.00     0.016 A 
ATOM     33  C   UNL A   1      35.286  31.815  30.127  1.00  0.00     0.010 A 
ATOM     34  C   UNL A   1      36.661  32.972  28.508  1.00  0.00     0.010 A 
ATOM     35  C   UNL A   1      36.545  32.030  29.548  1.00  0.00    -0.014 A 
BRANCH  35  36
ATOM     36  C   UNL A   1      37.751  31.374  30.125  1.00  0.00     0.031 A 
ATOM     37  C   UNL A   1      38.127  31.663  31.555  1.00  0.00     0.074 A 
ATOM     38  C   UNL A   1      38.491  30.499  29.415  1.00  0.00     0.049 A 
ATOM     39  N   UNL A   1      39.115  31.184  32.269  1.00  0.00    -0.248 NA
ATOM     40  C   UNL A   1      37.283  32.632  32.273  1.00  0.00     0.031 C 
ATOM     41  C   UNL A   1      38.257  30.118  28.024  1.00  0.00     0.029 A 
ATOM     42  N   UNL A   1      39.597  29.767  29.780  1.00  0.00    -0.354 N 
ATOM     43  C   UNL A   1      39.013  31.795  33.511  1.00  0.00     0.074 A 
ATOM     44  C   UNL A   1      37.903  32.719  33.438  1.00  0.00     0.031 C 
ATOM     45  C   UNL A   1      39.181  29.209  27.658  1.00  0.00     0.029 A 
ATOM     46  C   UNL A   1      40.082  28.957  28.781  1.00  0.00     0.049 A 
ATOM     47  H   UNL A   1      40.003  29.818  30.676  1.00  0.00     0.167 HD
ATOM     48  C   UNL A   1      39.753  31.592  34.627  1.00  0.00     0.037 A 
ATOM     49  C   UNL A   1      41.132  28.110  28.774  1.00  0.00     0.037 A 
ATOM     50  C   UNL A   1      40.843  30.662  34.730  1.00  0.00     0.049 A 
ATOM     51  C   UNL A   1      41.966  27.930  30.016  1.00  0.00     0.074 A 
ATOM     52  C   UNL A   1      41.623  30.368  35.836  1.00  0.00     0.029 A 
ATOM     53  N   UNL A   1      41.309  29.876  33.690  1.00  0.00    -0.354 N 
ATOM     54  N   UNL A   1      41.819  28.472  31.200  1.00  0.00    -0.248 NA
ATOM     55  C   UNL A   1      43.114  27.012  29.919  1.00  0.00     0.031 C 
ATOM     56  C   UNL A   1      42.585  29.428  35.455  1.00  0.00     0.029 A 
ATOM     57  C   UNL A   1      42.379  29.109  34.123  1.00  0.00     0.049 A 
ATOM     58  H   UNL A   1      40.936  29.863  32.779  1.00  0.00     0.167 HD
ATOM     59  C   UNL A   1      42.828  27.935  31.994  1.00  0.00     0.074 A 
ATOM     60  C   UNL A   1      43.577  27.020  31.162  1.00  0.00     0.031 C 
ATOM     61  C   UNL A   1      43.105  28.179  33.298  1.00  0.00     0.037 A 
BRANCH  48  62
ATOM     62  C   UNL A   1      39.395  32.403  35.836  1.00  0.00     0.057 A 
ATOM     63  C   UNL A   1      38.504  31.923  36.804  1.00  0.00     0.134 A 
ATOM     64  C   UNL A   1      39.950  33.673  36.035  1.00  0.00     0.134 A 
ATOM     65  F   UNL A   1      37.927  30.721  36.660  1.00  0.00    -0.206 F 
ATOM     66  C   UNL A   1      38.154  32.691  37.916  1.00  0.00     0.040 A 
ATOM     67  C   UNL A   1      39.628  34.439  37.155  1.00  0.00     0.040 A 
ATOM     68  F   UNL A   1      40.813  34.187  35.146  1.00  0.00    -0.206 F 
ATOM     69  C   UNL A   1      38.721  33.951  38.095  1.00  0.00     0.006 A 
ENDBRANCH  48  62
BRANCH  49  70
ATOM     70  C   UNL A   1      41.466  27.338  27.548  1.00  0.00     0.057 A 
ATOM     71  C   UNL A   1      40.937  26.060  27.334  1.00  0.00     0.134 A 
ATOM     72  C   UNL A   1      42.372  27.829  26.602  1.00  0.00     0.134 A 
ATOM     73  F   UNL A   1      40.087  25.524  28.222  1.00  0.00    -0.206 F 
ATOM     74  C   UNL A   1      41.316  25.286  26.235  1.00  0.00     0.040 A 
ATOM     75  C   UNL A   1      42.742  27.076  25.486  1.00  0.00     0.040 A 
ATOM     76  F   UNL A   1      42.918  29.045  26.754  1.00  0.00    -0.206 F 
ATOM     77  C   UNL A   1      42.221  25.796  25.307  1.00  0.00     0.006 A 
ENDBRANCH  49  70
BRANCH  61  78
ATOM     78  C   UNL A   1      44.235  27.419  33.929  1.00  0.00     0.057 A 
ATOM     79  C   UNL A   1      44.046  26.163  34.516  1.00  0.00     0.134 A 
ATOM     80  C   UNL A   1      45.542  27.925  33.890  1.00  0.00     0.134 A 
ATOM     81  F   UNL A   1      42.819  25.627  34.595  1.00  0.00    -0.206 F 
ATOM     82  C   UNL A   1      45.114  25.442  35.055  1.00  0.00     0.040 A 
ATOM     83  C   UNL A   1      46.619  27.204  34.405  1.00  0.00     0.040 A 
ATOM     84  F   UNL A   1      45.794  29.120  33.334  1.00  0.00    -0.206 F 
ATOM     85  C   UNL A   1      46.406  25.959  34.992  1.00  0.00     0.006 A 
ENDBRANCH  61  78
ENDBRANCH  35  36
ENDBRANCH  28  30
ENDBRANCH  27  28
ENDBRANCH  26  27
ENDBRANCH  25  26
ENDBRANCH  24  25
ENDBRANCH   1  24
TORSDOF 18
ENDMDL
MODEL 3
REMARK VINA RESULT:     -10.1      3.904      6.313
REMARK SMILES [NH3+]C[C@@]1([C@@H](O)C(=O)OCCOCCOC(=O)c2ccc(-c3c4nc(c(-c5c(F)cccc5F)c5ccc([nH]5)c(-c5c(F)cccc5F)c5nc(c(-c6c(F)cccc6F)c6ccc3[nH]6)C=C5)C=C4)cc2)CCOc2ccccc21
REMARK SMILES IDX 10 1 9 2 8 3 6 4 7 5 4 6 3 7 71 8 79 9 72 10 74 11 78 12
REMARK SMILES IDX 73 13 75 14 77 15 76 16 2 17 1 18 5 22 11 24 12 25 13 26
REMARK SMILES IDX 14 27 15 28 16 29 17 30 18 31 70 32 19 33 69 34 20 35 21 36
REMARK SMILES IDX 22 37 63 38 23 39 68 40 62 41 64 42 24 43 67 44 61 45 60 46
REMARK SMILES IDX 25 48 51 49 34 50 50 51 35 52 38 53 49 54 65 55 36 56 37 57
REMARK SMILES IDX 48 59 66 60 39 61 26 62 27 63 32 64 28 65 29 66 31 67 33 68
REMARK SMILES IDX 30 69 52 70 53 71 58 72 54 73 55 74 57 75 59 76 56 77 40 78
REMARK SMILES IDX 41 79 46 80 42 81 43 82 45 83 47 84 44 85
REMARK H PARENT 1 19 1 20 1 21 5 23 64 47 38 58
REMARK Flexibility Score: inf
ROOT
ATOM      1  C   UNL A   1      33.870  21.142  26.491  1.00  0.00     0.202 C 
ENDROOT
BRANCH   1   2
ATOM      2  C   UNL A   1      33.354  22.223  27.462  1.00  0.00     0.261 C 
BRANCH   2   3
ATOM      3  O   UNL A   1      33.096  23.500  26.826  1.00  0.00    -0.461 OA
BRANCH   3   4
ATOM      4  C   UNL A   1      31.813  23.871  26.567  1.00  0.00     0.336 C 
ATOM      5  O   UNL A   1      30.872  23.703  27.335  1.00  0.00    -0.249 OA
BRANCH   4   6
ATOM      6  C   UNL A   1      31.647  24.510  25.164  1.00  0.00     0.240 C 
BRANCH   6   7
ATOM      7  C   UNL A   1      32.530  25.778  24.818  1.00  0.00     0.088 C 
ATOM      8  C   UNL A   1      33.088  26.303  26.177  1.00  0.00     0.063 C 
ATOM      9  C   UNL A   1      31.743  26.953  24.209  1.00  0.00     0.009 A 
ATOM     10  C   UNL A   1      33.725  27.671  26.016  1.00  0.00     0.231 C 
ATOM     11  C   UNL A   1      31.863  28.262  24.702  1.00  0.00     0.123 A 
ATOM     12  C   UNL A   1      30.846  26.765  23.156  1.00  0.00     0.008 A 
ATOM     13  O   UNL A   1      32.757  28.652  25.660  1.00  0.00    -0.493 OA
ATOM     14  C   UNL A   1      31.021  29.286  24.249  1.00  0.00     0.047 A 
ATOM     15  C   UNL A   1      29.957  27.759  22.751  1.00  0.00     0.001 A 
ATOM     16  C   UNL A   1      30.038  29.025  23.302  1.00  0.00     0.004 A 
BRANCH   7  17
ATOM     17  C   UNL A   1      33.709  25.410  23.860  1.00  0.00     0.274 C 
BRANCH  17  18
ATOM     18  N   UNL A   1      34.565  24.294  24.258  1.00  0.00    -0.357 N 
ATOM     19  H   UNL A   1      35.543  24.561  24.149  1.00  0.00     0.344 HD
ATOM     20  H   UNL A   1      34.364  23.486  23.669  1.00  0.00     0.344 HD
ATOM     21  H   UNL A   1      34.383  24.057  25.233  1.00  0.00     0.344 HD
ENDBRANCH  17  18
ENDBRANCH   7  17
ENDBRANCH   6   7
BRANCH   6  22
ATOM     22  O   UNL A   1      31.704  23.545  24.107  1.00  0.00    -0.380 OA
ATOM     23  H   UNL A   1      31.664  22.652  24.482  1.00  0.00     0.211 HD
ENDBRANCH   6  22
ENDBRANCH   4   6
ENDBRANCH   3   4
ENDBRANCH   2   3
ENDBRANCH   1   2
BRANCH   1  24
ATOM     24  O   UNL A   1      35.176  21.402  25.969  1.00  0.00    -0.374 OA
BRANCH  24  25
ATOM     25  C   UNL A   1      35.631  20.488  24.975  1.00  0.00     0.202 C 
BRANCH  25  26
ATOM     26  C   UNL A   1      37.141  20.241  25.000  1.00  0.00     0.261 C 
BRANCH  26  27
ATOM     27  O   UNL A   1      37.850  21.404  25.469  1.00  0.00    -0.460 OA
BRANCH  27  28
ATOM     28  C   UNL A   1      39.043  21.151  26.066  1.00  0.00     0.338 C 
ATOM     29  O   UNL A   1      39.648  20.101  26.090  1.00  0.00    -0.246 OA
BRANCH  28  30
ATOM     30  C   UNL A   1      39.602  22.410  26.607  1.00  0.00     0.060 A 
ATOM     31  C   UNL A   1      39.074  23.612  26.125  1.00  0.00     0.016 A 
ATOM     32  C   UNL A   1      40.637  22.424  27.544  1.00  0.00     0.016 A 
ATOM     33  C   UNL A   1      39.586  24.834  26.571  1.00  0.00     0.010 A 
ATOM     34  C   UNL A   1      41.138  23.652  28.002  1.00  0.00     0.010 A 
ATOM     35  C   UNL A   1      40.632  24.868  27.505  1.00  0.00    -0.014 A 
BRANCH  35  36
ATOM     36  C   UNL A   1      41.281  26.165  27.847  1.00  0.00     0.031 A 
ATOM     37  C   UNL A   1      42.681  26.433  27.360  1.00  0.00     0.074 A 
ATOM     38  C   UNL A   1      40.634  27.118  28.547  1.00  0.00     0.049 A 
ATOM     39  N   UNL A   1      43.426  27.499  27.515  1.00  0.00    -0.248 NA
ATOM     40  C   UNL A   1      43.334  25.349  26.608  1.00  0.00     0.031 C 
ATOM     41  C   UNL A   1      39.281  27.008  29.087  1.00  0.00     0.029 A 
ATOM     42  N   UNL A   1      41.040  28.378  28.918  1.00  0.00    -0.354 N 
ATOM     43  C   UNL A   1      44.630  27.211  26.886  1.00  0.00     0.074 A 
ATOM     44  C   UNL A   1      44.538  25.854  26.397  1.00  0.00     0.031 C 
ATOM     45  C   UNL A   1      38.961  28.161  29.706  1.00  0.00     0.029 A 
ATOM     46  C   UNL A   1      40.093  29.083  29.622  1.00  0.00     0.049 A 
ATOM     47  H   UNL A   1      41.928  28.743  28.699  1.00  0.00     0.167 HD
ATOM     48  C   UNL A   1      45.710  28.007  26.703  1.00  0.00     0.037 A 
ATOM     49  C   UNL A   1      40.134  30.328  30.139  1.00  0.00     0.037 A 
ATOM     50  C   UNL A   1      45.814  29.366  27.159  1.00  0.00     0.049 A 
ATOM     51  C   UNL A   1      41.362  31.182  29.958  1.00  0.00     0.074 A 
ATOM     52  C   UNL A   1      46.860  30.256  26.983  1.00  0.00     0.029 A 
ATOM     53  N   UNL A   1      44.838  30.033  27.881  1.00  0.00    -0.354 N 
ATOM     54  N   UNL A   1      42.469  30.916  29.309  1.00  0.00    -0.248 NA
ATOM     55  C   UNL A   1      41.342  32.518  30.578  1.00  0.00     0.031 C 
ATOM     56  C   UNL A   1      46.531  31.451  27.630  1.00  0.00     0.029 A 
ATOM     57  C   UNL A   1      45.264  31.318  28.174  1.00  0.00     0.049 A 
ATOM     58  H   UNL A   1      43.970  29.650  28.145  1.00  0.00     0.167 HD
ATOM     59  C   UNL A   1      43.257  32.058  29.414  1.00  0.00     0.074 A 
ATOM     60  C   UNL A   1      42.501  33.023  30.180  1.00  0.00     0.031 C 
ATOM     61  C   UNL A   1      44.497  32.284  28.915  1.00  0.00     0.037 A 
BRANCH  48  62
ATOM     62  C   UNL A   1      46.874  27.414  25.968  1.00  0.00     0.057 A 
ATOM     63  C   UNL A   1      47.892  26.726  26.640  1.00  0.00     0.134 A 
ATOM     64  C   UNL A   1      46.974  27.528  24.577  1.00  0.00     0.134 A 
ATOM     65  F   UNL A   1      47.860  26.598  27.974  1.00  0.00    -0.206 F 
ATOM     66  C   UNL A   1      48.986  26.196  25.954  1.00  0.00     0.040 A 
ATOM     67  C   UNL A   1      48.050  26.981  23.878  1.00  0.00     0.040 A 
ATOM     68  F   UNL A   1      46.029  28.172  23.876  1.00  0.00    -0.206 F 
ATOM     69  C   UNL A   1      49.064  26.320  24.569  1.00  0.00     0.006 A 
ENDBRANCH  48  62
BRANCH  49  70
ATOM     70  C   UNL A   1      38.965  30.873  30.879  1.00  0.00     0.057 A 
ATOM     71  C   UNL A   1      37.970  31.605  30.219  1.00  0.00     0.134 A 
ATOM     72  C   UNL A   1      38.852  30.736  32.267  1.00  0.00     0.134 A 
ATOM     73  F   UNL A   1      38.041  31.796  28.893  1.00  0.00    -0.206 F 
ATOM     74  C   UNL A   1      36.918  32.202  30.915  1.00  0.00     0.040 A 
ATOM     75  C   UNL A   1      37.792  31.308  32.973  1.00  0.00     0.040 A 
ATOM     76  F   UNL A   1      39.777  30.052  32.957  1.00  0.00    -0.206 F 
ATOM     77  C   UNL A   1      36.828  32.053  32.298  1.00  0.00     0.006 A 
ENDBRANCH  49  70
BRANCH  61  78
ATOM     78  C   UNL A   1      45.105  33.638  29.137  1.00  0.00     0.057 A 
ATOM     79  C   UNL A   1      44.887  34.703  28.254  1.00  0.00     0.134 A 
ATOM     80  C   UNL A   1      45.868  33.896  30.284  1.00  0.00     0.134 A 
ATOM     81  F   UNL A   1      44.175  34.520  27.132  1.00  0.00    -0.206 F 
ATOM     82  C   UNL A   1      45.416  35.972  28.497  1.00  0.00     0.040 A 
ATOM     83  C   UNL A   1      46.383  35.165  30.549  1.00  0.00     0.040 A 
ATOM     84  F   UNL A   1      46.109  32.923  31.175  1.00  0.00    -0.206 F 
ATOM     85  C   UNL A   1      46.159  36.208  29.652  1.00  0.00     0.006 A 
ENDBRANCH  61  78
ENDBRANCH  35  36
ENDBRANCH  28  30
ENDBRANCH  27  28
ENDBRANCH  26  27
ENDBRANCH  25  26
ENDBRANCH  24  25
ENDBRANCH   1  24
TORSDOF 18
ENDMDL
