MODEL 1
REMARK VINA RESULT:     -10.9      0.000      0.000
REMARK SMILES Cc1cccc(C)c1Nc1ccccc1CC(=O)OCCOCCOC(=O)c1ccc(-c2c3nc(c(-c4c(F)cccc4F)c4ccc([nH]4)c(-c4c(F)cccc4F)c4nc(c(-c5c(F)cccc5F)c5ccc2[nH]5)C=C4)C=C3)cc1
REMARK SMILES IDX 21 1 20 2 19 3 17 4 18 5 16 6 15 7 10 8 11 9 12 10 14 11
REMARK SMILES IDX 13 12 9 13 8 15 1 16 2 17 3 18 4 19 6 20 5 21 7 22 22 23
REMARK SMILES IDX 23 24 24 25 25 26 26 27 27 28 28 29 29 30 81 31 30 32 80 33
REMARK SMILES IDX 31 34 32 35 33 36 74 37 34 38 79 39 73 40 75 41 35 42 78 43
REMARK SMILES IDX 72 44 71 45 36 47 62 48 45 49 61 50 46 51 49 52 60 53 76 54
REMARK SMILES IDX 47 55 48 56 59 58 77 59 50 60 37 61 38 62 43 63 39 64 40 65
REMARK SMILES IDX 42 66 44 67 41 68 63 69 64 70 69 71 65 72 66 73 68 74 70 75
REMARK SMILES IDX 67 76 51 77 52 78 57 79 53 80 54 81 56 82 58 83 55 84
REMARK H PARENT 9 14 75 46 49 57
REMARK Flexibility Score: inf
ROOT
ATOM      1  C   UNL A   1      32.928  30.578  27.246  1.00  0.00     0.202 C 
ENDROOT
BRANCH   1   2
ATOM      2  C   UNL A   1      33.707  29.431  26.592  1.00  0.00     0.261 C 
BRANCH   2   3
ATOM      3  O   UNL A   1      33.430  28.145  27.176  1.00  0.00    -0.463 OA
BRANCH   3   4
ATOM      4  C   UNL A   1      32.388  27.479  26.615  1.00  0.00     0.310 C 
ATOM      5  O   UNL A   1      31.533  26.872  27.260  1.00  0.00    -0.252 OA
BRANCH   4   6
ATOM      6  C   UNL A   1      32.312  27.526  25.111  1.00  0.00     0.160 C 
BRANCH   6   7
ATOM      7  C   UNL A   1      30.989  27.771  24.406  1.00  0.00    -0.013 A 
ATOM      8  C   UNL A   1      30.033  26.760  24.171  1.00  0.00     0.042 A 
ATOM      9  C   UNL A   1      28.861  27.081  23.455  1.00  0.00     0.026 A 
ATOM     10  C   UNL A   1      28.585  28.385  23.050  1.00  0.00     0.002 A 
ATOM     11  C   UNL A   1      30.660  29.092  24.039  1.00  0.00     0.006 A 
ATOM     12  C   UNL A   1      29.476  29.398  23.366  1.00  0.00     0.000 A 
BRANCH   8  13
ATOM     13  N   UNL A   1      30.081  25.474  24.745  1.00  0.00    -0.355 N 
ATOM     14  H   UNL A   1      29.402  25.322  25.441  1.00  0.00     0.167 HD
BRANCH  13  15
ATOM     15  C   UNL A   1      30.923  24.360  24.508  1.00  0.00     0.044 A 
ATOM     16  C   UNL A   1      30.251  23.490  26.813  1.00  0.00     0.046 C 
ATOM     17  C   UNL A   1      30.948  23.334  25.487  1.00  0.00    -0.027 A 
ATOM     18  C   UNL A   1      31.592  22.116  25.214  1.00  0.00     0.005 A 
ATOM     19  C   UNL A   1      32.218  21.904  23.991  1.00  0.00     0.001 A 
ATOM     20  C   UNL A   1      31.640  24.165  23.300  1.00  0.00    -0.027 A 
ATOM     21  C   UNL A   1      32.248  22.923  23.047  1.00  0.00     0.005 A 
ATOM     22  C   UNL A   1      31.788  25.214  22.228  1.00  0.00     0.046 C 
ENDBRANCH  13  15
ENDBRANCH   8  13
ENDBRANCH   6   7
ENDBRANCH   4   6
ENDBRANCH   3   4
ENDBRANCH   2   3
ENDBRANCH   1   2
BRANCH   1  23
ATOM     23  O   UNL A   1      31.809  31.105  26.535  1.00  0.00    -0.374 OA
BRANCH  23  24
ATOM     24  C   UNL A   1      31.406  32.436  26.852  1.00  0.00     0.202 C 
BRANCH  24  25
ATOM     25  C   UNL A   1      32.522  33.451  27.133  1.00  0.00     0.261 C 
BRANCH  25  26
ATOM     26  O   UNL A   1      32.350  34.102  28.405  1.00  0.00    -0.460 OA
BRANCH  26  27
ATOM     27  C   UNL A   1      33.434  34.778  28.843  1.00  0.00     0.338 C 
ATOM     28  O   UNL A   1      33.482  35.944  29.219  1.00  0.00    -0.246 OA
BRANCH  27  29
ATOM     29  C   UNL A   1      34.580  33.867  29.005  1.00  0.00     0.060 A 
ATOM     30  C   UNL A   1      34.363  32.695  29.741  1.00  0.00     0.016 A 
ATOM     31  C   UNL A   1      35.857  34.191  28.545  1.00  0.00     0.016 A 
ATOM     32  C   UNL A   1      35.436  31.875  30.080  1.00  0.00     0.010 A 
ATOM     33  C   UNL A   1      36.937  33.372  28.897  1.00  0.00     0.010 A 
ATOM     34  C   UNL A   1      36.735  32.237  29.704  1.00  0.00    -0.014 A 
BRANCH  34  35
ATOM     35  C   UNL A   1      37.880  31.516  30.313  1.00  0.00     0.031 A 
ATOM     36  C   UNL A   1      38.222  31.783  31.753  1.00  0.00     0.074 A 
ATOM     37  C   UNL A   1      38.559  30.587  29.618  1.00  0.00     0.049 A 
ATOM     38  N   UNL A   1      39.155  31.248  32.498  1.00  0.00    -0.248 NA
ATOM     39  C   UNL A   1      37.397  32.785  32.448  1.00  0.00     0.031 C 
ATOM     40  C   UNL A   1      38.293  30.208  28.230  1.00  0.00     0.029 A 
ATOM     41  N   UNL A   1      39.609  29.788  29.992  1.00  0.00    -0.354 N 
ATOM     42  C   UNL A   1      39.030  31.846  33.746  1.00  0.00     0.074 A 
ATOM     43  C   UNL A   1      37.953  32.807  33.651  1.00  0.00     0.031 C 
ATOM     44  C   UNL A   1      39.164  29.251  27.867  1.00  0.00     0.029 A 
ATOM     45  C   UNL A   1      40.059  28.967  28.988  1.00  0.00     0.049 A 
ATOM     46  H   UNL A   1      40.003  29.803  30.894  1.00  0.00     0.167 HD
ATOM     47  C   UNL A   1      39.741  31.608  34.874  1.00  0.00     0.037 A 
ATOM     48  C   UNL A   1      41.086  28.095  28.974  1.00  0.00     0.037 A 
ATOM     49  C   UNL A   1      40.810  30.651  34.971  1.00  0.00     0.049 A 
ATOM     50  C   UNL A   1      41.904  27.895  30.221  1.00  0.00     0.074 A 
ATOM     51  C   UNL A   1      41.580  30.325  36.074  1.00  0.00     0.029 A 
ATOM     52  N   UNL A   1      41.264  29.869  33.919  1.00  0.00    -0.354 N 
ATOM     53  N   UNL A   1      41.761  28.447  31.402  1.00  0.00    -0.248 NA
ATOM     54  C   UNL A   1      43.025  26.947  30.135  1.00  0.00     0.031 C 
ATOM     55  C   UNL A   1      42.531  29.378  35.678  1.00  0.00     0.029 A 
ATOM     56  C   UNL A   1      42.322  29.080  34.341  1.00  0.00     0.049 A 
ATOM     57  H   UNL A   1      40.890  29.873  33.009  1.00  0.00     0.167 HD
ATOM     58  C   UNL A   1      42.755  27.898  32.204  1.00  0.00     0.074 A 
ATOM     59  C   UNL A   1      43.486  26.960  31.378  1.00  0.00     0.031 C 
ATOM     60  C   UNL A   1      43.037  28.149  33.506  1.00  0.00     0.037 A 
BRANCH  47  61
ATOM     61  C   UNL A   1      39.397  32.417  36.090  1.00  0.00     0.057 A 
ATOM     62  C   UNL A   1      40.001  33.653  36.351  1.00  0.00     0.134 A 
ATOM     63  C   UNL A   1      38.430  31.965  36.996  1.00  0.00     0.134 A 
ATOM     64  F   UNL A   1      40.946  34.135  35.529  1.00  0.00    -0.206 F 
ATOM     65  C   UNL A   1      39.670  34.403  37.482  1.00  0.00     0.040 A 
ATOM     66  C   UNL A   1      38.074  32.715  38.118  1.00  0.00     0.040 A 
ATOM     67  F   UNL A   1      37.812  30.790  36.804  1.00  0.00    -0.206 F 
ATOM     68  C   UNL A   1      38.699  33.936  38.366  1.00  0.00     0.006 A 
ENDBRANCH  47  61
BRANCH  48  69
ATOM     69  C   UNL A   1      41.407  27.347  27.731  1.00  0.00     0.057 A 
ATOM     70  C   UNL A   1      42.219  27.903  26.738  1.00  0.00     0.134 A 
ATOM     71  C   UNL A   1      40.893  26.065  27.504  1.00  0.00     0.134 A 
ATOM     72  F   UNL A   1      42.721  29.138  26.887  1.00  0.00    -0.206 F 
ATOM     73  C   UNL A   1      42.499  27.216  25.554  1.00  0.00     0.040 A 
ATOM     74  C   UNL A   1      41.184  25.358  26.337  1.00  0.00     0.040 A 
ATOM     75  F   UNL A   1      40.107  25.479  28.418  1.00  0.00    -0.206 F 
ATOM     76  C   UNL A   1      41.984  25.937  25.355  1.00  0.00     0.006 A 
ENDBRANCH  48  69
BRANCH  60  77
ATOM     77  C   UNL A   1      44.163  27.377  34.126  1.00  0.00     0.057 A 
ATOM     78  C   UNL A   1      45.469  27.881  34.166  1.00  0.00     0.134 A 
ATOM     79  C   UNL A   1      43.931  26.133  34.728  1.00  0.00     0.134 A 
ATOM     80  F   UNL A   1      45.759  29.062  33.597  1.00  0.00    -0.206 F 
ATOM     81  C   UNL A   1      46.509  27.168  34.766  1.00  0.00     0.040 A 
ATOM     82  C   UNL A   1      44.956  25.421  35.351  1.00  0.00     0.040 A 
ATOM     83  F   UNL A   1      42.701  25.598  34.732  1.00  0.00    -0.206 F 
ATOM     84  C   UNL A   1      46.252  25.936  35.366  1.00  0.00     0.006 A 
ENDBRANCH  60  77
ENDBRANCH  34  35
ENDBRANCH  27  29
ENDBRANCH  26  27
ENDBRANCH  25  26
ENDBRANCH  24  25
ENDBRANCH  23  24
ENDBRANCH   1  23
TORSDOF 17
ENDMDL
MODEL 2
REMARK VINA RESULT:     -10.8      0.741      2.745
REMARK SMILES Cc1cccc(C)c1Nc1ccccc1CC(=O)OCCOCCOC(=O)c1ccc(-c2c3nc(c(-c4c(F)cccc4F)c4ccc([nH]4)c(-c4c(F)cccc4F)c4nc(c(-c5c(F)cccc5F)c5ccc2[nH]5)C=C4)C=C3)cc1
REMARK SMILES IDX 21 1 20 2 19 3 17 4 18 5 16 6 15 7 10 8 11 9 12 10 14 11
REMARK SMILES IDX 13 12 9 13 8 15 1 16 2 17 3 18 4 19 6 20 5 21 7 22 22 23
REMARK SMILES IDX 23 24 24 25 25 26 26 27 27 28 28 29 29 30 81 31 30 32 80 33
REMARK SMILES IDX 31 34 32 35 33 36 74 37 34 38 79 39 73 40 75 41 35 42 78 43
REMARK SMILES IDX 72 44 71 45 36 47 62 48 45 49 61 50 46 51 49 52 60 53 76 54
REMARK SMILES IDX 47 55 48 56 59 58 77 59 50 60 37 61 38 62 43 63 39 64 40 65
REMARK SMILES IDX 42 66 44 67 41 68 63 69 64 70 69 71 65 72 66 73 68 74 70 75
REMARK SMILES IDX 67 76 51 77 52 78 57 79 53 80 54 81 56 82 58 83 55 84
REMARK H PARENT 9 14 75 46 49 57
REMARK Flexibility Score: inf
ROOT
ATOM      1  C   UNL A   1      32.667  30.253  26.895  1.00  0.00     0.202 C 
ENDROOT
BRANCH   1   2
ATOM      2  C   UNL A   1      33.550  29.279  26.107  1.00  0.00     0.261 C 
BRANCH   2   3
ATOM      3  O   UNL A   1      33.846  28.066  26.825  1.00  0.00    -0.463 OA
BRANCH   3   4
ATOM      4  C   UNL A   1      33.518  26.923  26.169  1.00  0.00     0.310 C 
ATOM      5  O   UNL A   1      34.295  26.295  25.450  1.00  0.00    -0.252 OA
BRANCH   4   6
ATOM      6  C   UNL A   1      32.109  26.428  26.378  1.00  0.00     0.160 C 
BRANCH   6   7
ATOM      7  C   UNL A   1      31.691  25.048  25.901  1.00  0.00    -0.013 A 
ATOM      8  C   UNL A   1      31.259  24.776  24.586  1.00  0.00     0.042 A 
ATOM      9  C   UNL A   1      30.837  23.470  24.261  1.00  0.00     0.026 A 
ATOM     10  C   UNL A   1      30.915  22.426  25.180  1.00  0.00     0.002 A 
ATOM     11  C   UNL A   1      31.817  23.964  26.794  1.00  0.00     0.006 A 
ATOM     12  C   UNL A   1      31.432  22.670  26.443  1.00  0.00     0.000 A 
BRANCH   8  13
ATOM     13  N   UNL A   1      31.374  25.680  23.511  1.00  0.00    -0.355 N 
ATOM     14  H   UNL A   1      31.945  25.358  22.777  1.00  0.00     0.167 HD
BRANCH  13  15
ATOM     15  C   UNL A   1      30.821  26.965  23.289  1.00  0.00     0.044 A 
ATOM     16  C   UNL A   1      33.156  27.740  22.602  1.00  0.00     0.046 C 
ATOM     17  C   UNL A   1      31.675  27.967  22.760  1.00  0.00    -0.027 A 
ATOM     18  C   UNL A   1      31.139  29.189  22.321  1.00  0.00     0.005 A 
ATOM     19  C   UNL A   1      29.774  29.436  22.407  1.00  0.00     0.001 A 
ATOM     20  C   UNL A   1      29.444  27.263  23.453  1.00  0.00    -0.027 A 
ATOM     21  C   UNL A   1      28.937  28.485  22.977  1.00  0.00     0.005 A 
ATOM     22  C   UNL A   1      28.452  26.334  24.105  1.00  0.00     0.046 C 
ENDBRANCH  13  15
ENDBRANCH   8  13
ENDBRANCH   6   7
ENDBRANCH   4   6
ENDBRANCH   3   4
ENDBRANCH   2   3
ENDBRANCH   1   2
BRANCH   1  23
ATOM     23  O   UNL A   1      31.607  30.898  26.194  1.00  0.00    -0.374 OA
BRANCH  23  24
ATOM     24  C   UNL A   1      31.243  32.208  26.627  1.00  0.00     0.202 C 
BRANCH  24  25
ATOM     25  C   UNL A   1      32.390  33.178  26.938  1.00  0.00     0.261 C 
BRANCH  25  26
ATOM     26  O   UNL A   1      32.199  33.849  28.198  1.00  0.00    -0.460 OA
BRANCH  26  27
ATOM     27  C   UNL A   1      33.258  34.577  28.613  1.00  0.00     0.338 C 
ATOM     28  O   UNL A   1      33.261  35.751  28.967  1.00  0.00    -0.246 OA
BRANCH  27  29
ATOM     29  C   UNL A   1      34.441  33.716  28.783  1.00  0.00     0.060 A 
ATOM     30  C   UNL A   1      34.252  32.494  29.440  1.00  0.00     0.016 A 
ATOM     31  C   UNL A   1      35.721  34.131  28.408  1.00  0.00     0.016 A 
ATOM     32  C   UNL A   1      35.348  31.711  29.787  1.00  0.00     0.010 A 
ATOM     33  C   UNL A   1      36.824  33.348  28.768  1.00  0.00     0.010 A 
ATOM     34  C   UNL A   1      36.644  32.158  29.499  1.00  0.00    -0.014 A 
BRANCH  34  35
ATOM     35  C   UNL A   1      37.794  31.462  30.124  1.00  0.00     0.031 A 
ATOM     36  C   UNL A   1      38.115  31.742  31.567  1.00  0.00     0.074 A 
ATOM     37  C   UNL A   1      38.497  30.541  29.442  1.00  0.00     0.049 A 
ATOM     38  N   UNL A   1      39.049  31.227  32.326  1.00  0.00    -0.248 NA
ATOM     39  C   UNL A   1      37.264  32.732  32.247  1.00  0.00     0.031 C 
ATOM     40  C   UNL A   1      38.255  30.151  28.054  1.00  0.00     0.029 A 
ATOM     41  N   UNL A   1      39.558  29.763  29.832  1.00  0.00    -0.354 N 
ATOM     42  C   UNL A   1      38.898  31.829  33.569  1.00  0.00     0.074 A 
ATOM     43  C   UNL A   1      37.806  32.770  33.456  1.00  0.00     0.031 C 
ATOM     44  C   UNL A   1      39.147  29.208  27.706  1.00  0.00     0.029 A 
ATOM     45  C   UNL A   1      40.033  28.945  28.838  1.00  0.00     0.049 A 
ATOM     46  H   UNL A   1      39.941  29.790  30.739  1.00  0.00     0.167 HD
ATOM     47  C   UNL A   1      39.601  31.610  34.706  1.00  0.00     0.037 A 
ATOM     48  C   UNL A   1      41.076  28.092  28.840  1.00  0.00     0.037 A 
ATOM     49  C   UNL A   1      40.686  30.672  34.820  1.00  0.00     0.049 A 
ATOM     50  C   UNL A   1      41.883  27.913  30.098  1.00  0.00     0.074 A 
ATOM     51  C   UNL A   1      41.449  30.366  35.933  1.00  0.00     0.029 A 
ATOM     52  N   UNL A   1      41.166  29.894  33.778  1.00  0.00    -0.354 N 
ATOM     53  N   UNL A   1      41.717  28.469  31.273  1.00  0.00    -0.248 NA
ATOM     54  C   UNL A   1      43.022  26.985  30.029  1.00  0.00     0.031 C 
ATOM     55  C   UNL A   1      42.421  29.434  35.553  1.00  0.00     0.029 A 
ATOM     56  C   UNL A   1      42.233  29.126  34.215  1.00  0.00     0.049 A 
ATOM     57  H   UNL A   1      40.802  29.887  32.863  1.00  0.00     0.167 HD
ATOM     58  C   UNL A   1      42.711  27.942  32.089  1.00  0.00     0.074 A 
ATOM     59  C   UNL A   1      43.469  27.013  31.277  1.00  0.00     0.031 C 
ATOM     60  C   UNL A   1      42.973  28.203  33.394  1.00  0.00     0.037 A 
BRANCH  47  61
ATOM     61  C   UNL A   1      39.228  32.419  35.913  1.00  0.00     0.057 A 
ATOM     62  C   UNL A   1      39.744  33.702  36.132  1.00  0.00     0.134 A 
ATOM     63  C   UNL A   1      38.322  31.917  36.856  1.00  0.00     0.134 A 
ATOM     64  F   UNL A   1      40.628  34.234  35.275  1.00  0.00    -0.206 F 
ATOM     65  C   UNL A   1      39.388  34.450  37.256  1.00  0.00     0.040 A 
ATOM     66  C   UNL A   1      37.940  32.664  37.971  1.00  0.00     0.040 A 
ATOM     67  F   UNL A   1      37.789  30.694  36.705  1.00  0.00    -0.206 F 
ATOM     68  C   UNL A   1      38.478  33.933  38.176  1.00  0.00     0.006 A 
ENDBRANCH  47  61
BRANCH  48  69
ATOM     69  C   UNL A   1      41.425  27.344  27.605  1.00  0.00     0.057 A 
ATOM     70  C   UNL A   1      40.962  26.042  27.388  1.00  0.00     0.134 A 
ATOM     71  C   UNL A   1      42.244  27.912  26.621  1.00  0.00     0.134 A 
ATOM     72  F   UNL A   1      40.194  25.436  28.305  1.00  0.00    -0.206 F 
ATOM     73  C   UNL A   1      41.312  25.324  26.242  1.00  0.00     0.040 A 
ATOM     74  C   UNL A   1      42.583  27.215  25.462  1.00  0.00     0.040 A 
ATOM     75  F   UNL A   1      42.720  29.156  26.772  1.00  0.00    -0.206 F 
ATOM     76  C   UNL A   1      42.122  25.914  25.272  1.00  0.00     0.006 A 
ENDBRANCH  48  69
BRANCH  60  77
ATOM     77  C   UNL A   1      44.106  27.455  34.030  1.00  0.00     0.057 A 
ATOM     78  C   UNL A   1      43.922  26.195  34.615  1.00  0.00     0.134 A 
ATOM     79  C   UNL A   1      45.405  27.980  34.020  1.00  0.00     0.134 A 
ATOM     80  F   UNL A   1      42.701  25.642  34.667  1.00  0.00    -0.206 F 
ATOM     81  C   UNL A   1      44.987  25.494  35.185  1.00  0.00     0.040 A 
ATOM     82  C   UNL A   1      46.480  27.279  34.565  1.00  0.00     0.040 A 
ATOM     83  F   UNL A   1      45.650  29.178  33.468  1.00  0.00    -0.206 F 
ATOM     84  C   UNL A   1      46.272  26.033  35.155  1.00  0.00     0.006 A 
ENDBRANCH  60  77
ENDBRANCH  34  35
ENDBRANCH  27  29
ENDBRANCH  26  27
ENDBRANCH  25  26
ENDBRANCH  24  25
ENDBRANCH  23  24
ENDBRANCH   1  23
TORSDOF 17
ENDMDL
MODEL 3
REMARK VINA RESULT:     -10.8      4.516      8.110
REMARK SMILES Cc1cccc(C)c1Nc1ccccc1CC(=O)OCCOCCOC(=O)c1ccc(-c2c3nc(c(-c4c(F)cccc4F)c4ccc([nH]4)c(-c4c(F)cccc4F)c4nc(c(-c5c(F)cccc5F)c5ccc2[nH]5)C=C4)C=C3)cc1
REMARK SMILES IDX 21 1 20 2 19 3 17 4 18 5 16 6 15 7 10 8 11 9 12 10 14 11
REMARK SMILES IDX 13 12 9 13 8 15 1 16 2 17 3 18 4 19 6 20 5 21 7 22 22 23
REMARK SMILES IDX 23 24 24 25 25 26 26 27 27 28 28 29 29 30 81 31 30 32 80 33
REMARK SMILES IDX 31 34 32 35 33 36 74 37 34 38 79 39 73 40 75 41 35 42 78 43
REMARK SMILES IDX 72 44 71 45 36 47 62 48 45 49 61 50 46 51 49 52 60 53 76 54
REMARK SMILES IDX 47 55 48 56 59 58 77 59 50 60 37 61 38 62 43 63 39 64 40 65
REMARK SMILES IDX 42 66 44 67 41 68 63 69 64 70 69 71 65 72 66 73 68 74 70 75
REMARK SMILES IDX 67 76 51 77 52 78 57 79 53 80 54 81 56 82 58 83 55 84
REMARK H PARENT 9 14 75 46 49 57
REMARK Flexibility Score: inf
ROOT
ATOM      1  C   UNL A   1      33.638  35.704  31.296  1.00  0.00     0.202 C 
ENDROOT
BRANCH   1   2
ATOM      2  C   UNL A   1      33.425  34.895  32.580  1.00  0.00     0.261 C 
BRANCH   2   3
ATOM      3  O   UNL A   1      33.697  33.490  32.424  1.00  0.00    -0.463 OA
BRANCH   3   4
ATOM      4  C   UNL A   1      34.840  33.062  33.020  1.00  0.00     0.310 C 
ATOM      5  O   UNL A   1      35.057  33.144  34.228  1.00  0.00    -0.252 OA
BRANCH   4   6
ATOM      6  C   UNL A   1      35.867  32.447  32.104  1.00  0.00     0.160 C 
BRANCH   6   7
ATOM      7  C   UNL A   1      37.084  33.238  31.658  1.00  0.00    -0.013 A 
ATOM      8  C   UNL A   1      38.059  33.735  32.548  1.00  0.00     0.042 A 
ATOM      9  C   UNL A   1      39.122  34.507  32.036  1.00  0.00     0.026 A 
ATOM     10  C   UNL A   1      39.280  34.720  30.668  1.00  0.00     0.002 A 
ATOM     11  C   UNL A   1      37.298  33.416  30.275  1.00  0.00     0.006 A 
ATOM     12  C   UNL A   1      38.378  34.150  29.784  1.00  0.00     0.000 A 
BRANCH   8  13
ATOM     13  N   UNL A   1      38.147  33.377  33.908  1.00  0.00    -0.355 N 
ATOM     14  H   UNL A   1      37.312  33.512  34.412  1.00  0.00     0.167 HD
BRANCH  13  15
ATOM     15  C   UNL A   1      39.210  32.859  34.687  1.00  0.00     0.044 A 
ATOM     16  C   UNL A   1      39.542  35.213  35.619  1.00  0.00     0.046 C 
ATOM     17  C   UNL A   1      39.851  33.739  35.597  1.00  0.00    -0.027 A 
ATOM     18  C   UNL A   1      40.761  33.235  36.540  1.00  0.00     0.005 A 
ATOM     19  C   UNL A   1      41.053  31.878  36.590  1.00  0.00     0.001 A 
ATOM     20  C   UNL A   1      39.583  31.490  34.688  1.00  0.00    -0.027 A 
ATOM     21  C   UNL A   1      40.476  31.015  35.666  1.00  0.00     0.005 A 
ATOM     22  C   UNL A   1      39.066  30.473  33.703  1.00  0.00     0.046 C 
ENDBRANCH  13  15
ENDBRANCH   8  13
ENDBRANCH   6   7
ENDBRANCH   4   6
ENDBRANCH   3   4
ENDBRANCH   2   3
ENDBRANCH   1   2
BRANCH   1  23
ATOM     23  O   UNL A   1      33.094  35.178  30.087  1.00  0.00    -0.374 OA
BRANCH  23  24
ATOM     24  C   UNL A   1      34.013  34.630  29.144  1.00  0.00     0.202 C 
BRANCH  24  25
ATOM     25  C   UNL A   1      33.707  33.222  28.615  1.00  0.00     0.261 C 
BRANCH  25  26
ATOM     26  O   UNL A   1      34.810  32.320  28.820  1.00  0.00    -0.460 OA
BRANCH  26  27
ATOM     27  C   UNL A   1      34.605  31.067  28.359  1.00  0.00     0.338 C 
ATOM     28  O   UNL A   1      33.591  30.627  27.829  1.00  0.00    -0.246 OA
BRANCH  27  29
ATOM     29  C   UNL A   1      35.857  30.293  28.394  1.00  0.00     0.060 A 
ATOM     30  C   UNL A   1      36.250  29.770  29.633  1.00  0.00     0.016 A 
ATOM     31  C   UNL A   1      36.683  30.166  27.275  1.00  0.00     0.016 A 
ATOM     32  C   UNL A   1      37.500  29.178  29.776  1.00  0.00     0.010 A 
ATOM     33  C   UNL A   1      37.947  29.581  27.423  1.00  0.00     0.010 A 
ATOM     34  C   UNL A   1      38.376  29.126  28.684  1.00  0.00    -0.014 A 
BRANCH  34  35
ATOM     35  C   UNL A   1      39.793  28.760  28.924  1.00  0.00     0.031 A 
ATOM     36  C   UNL A   1      40.677  29.726  29.665  1.00  0.00     0.074 A 
ATOM     37  C   UNL A   1      40.268  27.558  28.553  1.00  0.00     0.049 A 
ATOM     38  N   UNL A   1      41.932  29.604  30.015  1.00  0.00    -0.248 NA
ATOM     39  C   UNL A   1      40.060  30.999  30.071  1.00  0.00     0.031 C 
ATOM     40  C   UNL A   1      39.498  26.521  27.868  1.00  0.00     0.029 A 
ATOM     41  N   UNL A   1      41.515  27.007  28.708  1.00  0.00    -0.354 N 
ATOM     42  C   UNL A   1      42.255  30.780  30.680  1.00  0.00     0.074 A 
ATOM     43  C   UNL A   1      41.076  31.617  30.658  1.00  0.00     0.031 C 
ATOM     44  C   UNL A   1      40.293  25.458  27.657  1.00  0.00     0.029 A 
ATOM     45  C   UNL A   1      41.630  25.749  28.171  1.00  0.00     0.049 A 
ATOM     46  H   UNL A   1      42.257  27.471  29.160  1.00  0.00     0.167 HD
ATOM     47  C   UNL A   1      43.425  31.127  31.266  1.00  0.00     0.037 A 
ATOM     48  C   UNL A   1      42.698  24.933  28.094  1.00  0.00     0.037 A 
ATOM     49  C   UNL A   1      44.598  30.295  31.290  1.00  0.00     0.049 A 
ATOM     50  C   UNL A   1      44.007  25.369  28.696  1.00  0.00     0.074 A 
ATOM     51  C   UNL A   1      45.827  30.551  31.873  1.00  0.00     0.029 A 
ATOM     52  N   UNL A   1      44.687  29.044  30.698  1.00  0.00    -0.354 N 
ATOM     53  N   UNL A   1      44.294  26.472  29.343  1.00  0.00    -0.248 NA
ATOM     54  C   UNL A   1      45.142  24.443  28.558  1.00  0.00     0.031 C 
ATOM     55  C   UNL A   1      46.674  29.473  31.594  1.00  0.00     0.029 A 
ATOM     56  C   UNL A   1      45.959  28.526  30.879  1.00  0.00     0.049 A 
ATOM     57  H   UNL A   1      43.955  28.591  30.220  1.00  0.00     0.167 HD
ATOM     58  C   UNL A   1      45.630  26.363  29.711  1.00  0.00     0.074 A 
ATOM     59  C   UNL A   1      46.094  25.081  29.224  1.00  0.00     0.031 C 
ATOM     60  C   UNL A   1      46.403  27.246  30.390  1.00  0.00     0.037 A 
BRANCH  47  61
ATOM     61  C   UNL A   1      43.499  32.481  31.910  1.00  0.00     0.057 A 
ATOM     62  C   UNL A   1      43.818  33.631  31.179  1.00  0.00     0.134 A 
ATOM     63  C   UNL A   1      43.221  32.637  33.273  1.00  0.00     0.134 A 
ATOM     64  F   UNL A   1      44.110  33.547  29.872  1.00  0.00    -0.206 F 
ATOM     65  C   UNL A   1      43.879  34.888  31.785  1.00  0.00     0.040 A 
ATOM     66  C   UNL A   1      43.256  33.890  33.887  1.00  0.00     0.040 A 
ATOM     67  F   UNL A   1      42.906  31.575  34.031  1.00  0.00    -0.206 F 
ATOM     68  C   UNL A   1      43.591  35.020  33.142  1.00  0.00     0.006 A 
ENDBRANCH  47  61
BRANCH  48  69
ATOM     69  C   UNL A   1      42.580  23.619  27.411  1.00  0.00     0.057 A 
ATOM     70  C   UNL A   1      42.256  22.458  28.120  1.00  0.00     0.134 A 
ATOM     71  C   UNL A   1      42.804  23.495  26.035  1.00  0.00     0.134 A 
ATOM     72  F   UNL A   1      42.054  22.508  29.445  1.00  0.00    -0.206 F 
ATOM     73  C   UNL A   1      42.174  21.215  27.488  1.00  0.00     0.040 A 
ATOM     74  C   UNL A   1      42.703  22.264  25.386  1.00  0.00     0.040 A 
ATOM     75  F   UNL A   1      43.120  24.572  25.301  1.00  0.00    -0.206 F 
ATOM     76  C   UNL A   1      42.393  21.118  26.114  1.00  0.00     0.006 A 
ENDBRANCH  48  69
BRANCH  60  77
ATOM     77  C   UNL A   1      47.820  26.844  30.672  1.00  0.00     0.057 A 
ATOM     78  C   UNL A   1      48.875  27.218  29.830  1.00  0.00     0.134 A 
ATOM     79  C   UNL A   1      48.139  26.110  31.822  1.00  0.00     0.134 A 
ATOM     80  F   UNL A   1      48.635  27.911  28.707  1.00  0.00    -0.206 F 
ATOM     81  C   UNL A   1      50.195  26.859  30.111  1.00  0.00     0.040 A 
ATOM     82  C   UNL A   1      49.456  25.766  32.127  1.00  0.00     0.040 A 
ATOM     83  F   UNL A   1      47.176  25.728  32.675  1.00  0.00    -0.206 F 
ATOM     84  C   UNL A   1      50.489  26.137  31.266  1.00  0.00     0.006 A 
ENDBRANCH  60  77
ENDBRANCH  34  35
ENDBRANCH  27  29
ENDBRANCH  26  27
ENDBRANCH  25  26
ENDBRANCH  24  25
ENDBRANCH  23  24
ENDBRANCH   1  23
TORSDOF 17
ENDMDL
