MODEL 1
REMARK VINA RESULT:     -11.6      0.000      0.000
REMARK SMILES O=C(/C=C/N[C@@H](Cc1c[nH]c2ccccc12)C(=O)OCCOCCOC(=O)c1ccc(-c2c3nc(c(-c4c(F)cccc4F)c4ccc([nH]4)c(-c4c(F)cccc4F)c4nc(c(-c5c(F)cccc5F)c5ccc2[nH]5)C=C4)C=C3)cc1)c1ccccc1
REMARK SMILES IDX 21 1 20 2 19 3 17 4 18 5 6 6 5 7 4 9 3 10 2 11 1 12 82 13
REMARK SMILES IDX 83 14 87 15 84 16 86 17 85 18 7 19 8 20 9 21 16 22 10 23
REMARK SMILES IDX 11 24 15 25 12 27 14 28 13 29 22 30 23 31 24 32 25 33 26 34
REMARK SMILES IDX 27 35 28 36 29 37 81 38 30 39 80 40 31 41 32 42 33 43 74 44
REMARK SMILES IDX 34 45 79 46 73 47 75 48 35 49 78 50 72 51 71 52 36 54 62 55
REMARK SMILES IDX 45 56 61 57 46 58 49 59 60 60 76 61 47 62 48 63 59 65 77 66
REMARK SMILES IDX 50 67 37 68 38 69 43 70 39 71 40 72 42 73 44 74 41 75 63 76
REMARK SMILES IDX 64 77 69 78 65 79 66 80 68 81 70 82 67 83 51 84 52 85 57 86
REMARK SMILES IDX 53 87 54 88 56 89 58 90 55 91
REMARK H PARENT 5 8 10 26 75 53 49 64
REMARK Flexibility Score: inf
ROOT
ATOM      1  C   UNL A   1      33.641  27.100  25.750  1.00  0.00     0.202 C 
ENDROOT
BRANCH   1   2
ATOM      2  C   UNL A   1      33.547  25.616  26.108  1.00  0.00     0.261 C 
BRANCH   2   3
ATOM      3  O   UNL A   1      32.170  25.243  26.291  1.00  0.00    -0.462 OA
BRANCH   3   4
ATOM      4  C   UNL A   1      31.871  23.939  26.506  1.00  0.00     0.328 C 
ATOM      5  O   UNL A   1      32.036  23.353  27.571  1.00  0.00    -0.250 OA
BRANCH   4   6
ATOM      6  C   UNL A   1      31.287  23.261  25.259  1.00  0.00     0.194 C 
BRANCH   6   7
ATOM      7  N   UNL A   1      30.205  24.004  24.593  1.00  0.00    -0.378 N 
ATOM      8  H   UNL A   1      29.287  23.757  24.849  1.00  0.00     0.160 HD
BRANCH   7   9
ATOM      9  C   UNL A   1      30.323  25.000  23.656  1.00  0.00     0.082 C 
ATOM     10  C   UNL A   1      29.924  26.266  23.835  1.00  0.00     0.070 C 
BRANCH  10  11
ATOM     11  C   UNL A   1      30.124  27.415  22.911  1.00  0.00     0.187 C 
ATOM     12  O   UNL A   1      30.839  27.283  21.923  1.00  0.00    -0.289 OA
BRANCH  11  13
ATOM     13  C   UNL A   1      29.392  28.679  23.121  1.00  0.00     0.022 A 
ATOM     14  C   UNL A   1      28.053  28.817  22.743  1.00  0.00     0.012 A 
ATOM     15  C   UNL A   1      30.072  29.742  23.720  1.00  0.00     0.012 A 
ATOM     16  C   UNL A   1      27.417  30.048  22.904  1.00  0.00     0.001 A 
ATOM     17  C   UNL A   1      29.429  30.969  23.886  1.00  0.00     0.001 A 
ATOM     18  C   UNL A   1      28.107  31.123  23.465  1.00  0.00     0.000 A 
ENDBRANCH  11  13
ENDBRANCH  10  11
ENDBRANCH   7   9
ENDBRANCH   6   7
BRANCH   6  19
ATOM     19  C   UNL A   1      32.366  22.818  24.270  1.00  0.00     0.074 C 
BRANCH  19  20
ATOM     20  C   UNL A   1      33.180  21.554  24.448  1.00  0.00    -0.020 A 
ATOM     21  C   UNL A   1      34.256  21.533  25.323  1.00  0.00     0.087 A 
ATOM     22  C   UNL A   1      33.073  20.209  23.928  1.00  0.00     0.003 A 
ATOM     23  N   UNL A   1      34.789  20.279  25.355  1.00  0.00    -0.361 N 
ATOM     24  C   UNL A   1      34.075  19.443  24.539  1.00  0.00     0.046 A 
ATOM     25  C   UNL A   1      32.237  19.528  23.016  1.00  0.00     0.010 A 
ATOM     26  H   UNL A   1      35.574  20.013  25.887  1.00  0.00     0.166 HD
ATOM     27  C   UNL A   1      34.247  18.071  24.316  1.00  0.00     0.026 A 
ATOM     28  C   UNL A   1      32.368  18.154  22.816  1.00  0.00     0.001 A 
ATOM     29  C   UNL A   1      33.352  17.432  23.464  1.00  0.00     0.002 A 
ENDBRANCH  19  20
ENDBRANCH   6  19
ENDBRANCH   4   6
ENDBRANCH   3   4
ENDBRANCH   2   3
ENDBRANCH   1   2
BRANCH   1  30
ATOM     30  O   UNL A   1      32.386  27.767  25.896  1.00  0.00    -0.374 OA
BRANCH  30  31
ATOM     31  C   UNL A   1      32.415  28.926  26.731  1.00  0.00     0.202 C 
BRANCH  31  32
ATOM     32  C   UNL A   1      33.781  29.134  27.386  1.00  0.00     0.261 C 
BRANCH  32  33
ATOM     33  O   UNL A   1      34.212  30.498  27.231  1.00  0.00    -0.460 OA
BRANCH  33  34
ATOM     34  C   UNL A   1      34.846  31.044  28.296  1.00  0.00     0.338 C 
ATOM     35  O   UNL A   1      34.416  31.877  29.075  1.00  0.00    -0.246 OA
BRANCH  34  36
ATOM     36  C   UNL A   1      36.145  30.362  28.473  1.00  0.00     0.060 A 
ATOM     37  C   UNL A   1      36.414  29.733  29.696  1.00  0.00     0.016 A 
ATOM     38  C   UNL A   1      37.092  30.337  27.446  1.00  0.00     0.016 A 
ATOM     39  C   UNL A   1      37.636  29.085  29.901  1.00  0.00     0.010 A 
ATOM     40  C   UNL A   1      38.300  29.665  27.645  1.00  0.00     0.010 A 
ATOM     41  C   UNL A   1      38.595  29.058  28.882  1.00  0.00    -0.014 A 
BRANCH  41  42
ATOM     42  C   UNL A   1      39.982  28.579  29.120  1.00  0.00     0.031 A 
ATOM     43  C   UNL A   1      40.978  29.567  29.666  1.00  0.00     0.074 A 
ATOM     44  C   UNL A   1      40.384  27.331  28.814  1.00  0.00     0.049 A 
ATOM     45  N   UNL A   1      42.279  29.480  29.759  1.00  0.00    -0.248 NA
ATOM     46  C   UNL A   1      40.420  30.837  30.162  1.00  0.00     0.031 C 
ATOM     47  C   UNL A   1      39.527  26.243  28.347  1.00  0.00     0.029 A 
ATOM     48  N   UNL A   1      41.645  26.783  28.814  1.00  0.00    -0.354 N 
ATOM     49  C   UNL A   1      42.692  30.684  30.312  1.00  0.00     0.074 A 
ATOM     50  C   UNL A   1      41.516  31.508  30.475  1.00  0.00     0.031 C 
ATOM     51  C   UNL A   1      40.294  25.180  28.042  1.00  0.00     0.029 A 
ATOM     52  C   UNL A   1      41.695  25.516  28.284  1.00  0.00     0.049 A 
ATOM     53  H   UNL A   1      42.438  27.254  29.159  1.00  0.00     0.167 HD
ATOM     54  C   UNL A   1      43.937  31.064  30.683  1.00  0.00     0.037 A 
ATOM     55  C   UNL A   1      42.753  24.731  28.002  1.00  0.00     0.037 A 
ATOM     56  C   UNL A   1      45.107  30.243  30.550  1.00  0.00     0.049 A 
ATOM     57  C   UNL A   1      44.145  25.210  28.325  1.00  0.00     0.074 A 
ATOM     58  C   UNL A   1      46.410  30.532  30.912  1.00  0.00     0.029 A 
ATOM     59  N   UNL A   1      45.110  28.964  30.017  1.00  0.00    -0.354 N 
ATOM     60  N   UNL A   1      44.527  26.343  28.862  1.00  0.00    -0.248 NA
ATOM     61  C   UNL A   1      45.255  24.292  28.019  1.00  0.00     0.031 C 
ATOM     62  C   UNL A   1      47.208  29.435  30.574  1.00  0.00     0.029 A 
ATOM     63  C   UNL A   1      46.394  28.451  30.036  1.00  0.00     0.049 A 
ATOM     64  H   UNL A   1      44.316  28.491  29.676  1.00  0.00     0.167 HD
ATOM     65  C   UNL A   1      45.904  26.246  29.021  1.00  0.00     0.074 A 
ATOM     66  C   UNL A   1      46.298  24.955  28.500  1.00  0.00     0.031 C 
ATOM     67  C   UNL A   1      46.763  27.142  29.564  1.00  0.00     0.037 A 
BRANCH  54  68
ATOM     68  C   UNL A   1      44.081  32.431  31.280  1.00  0.00     0.057 A 
ATOM     69  C   UNL A   1      43.978  32.641  32.661  1.00  0.00     0.134 A 
ATOM     70  C   UNL A   1      44.321  33.546  30.469  1.00  0.00     0.134 A 
ATOM     71  F   UNL A   1      43.729  31.614  33.487  1.00  0.00    -0.206 F 
ATOM     72  C   UNL A   1      44.079  33.919  33.213  1.00  0.00     0.040 A 
ATOM     73  C   UNL A   1      44.449  34.824  31.012  1.00  0.00     0.040 A 
ATOM     74  F   UNL A   1      44.430  33.410  29.138  1.00  0.00    -0.206 F 
ATOM     75  C   UNL A   1      44.320  35.014  32.387  1.00  0.00     0.006 A 
ENDBRANCH  54  68
BRANCH  55  76
ATOM     76  C   UNL A   1      42.557  23.395  27.381  1.00  0.00     0.057 A 
ATOM     77  C   UNL A   1      42.306  22.266  28.166  1.00  0.00     0.134 A 
ATOM     78  C   UNL A   1      42.675  23.208  25.999  1.00  0.00     0.134 A 
ATOM     79  F   UNL A   1      42.208  22.380  29.500  1.00  0.00    -0.206 F 
ATOM     80  C   UNL A   1      42.207  20.991  27.606  1.00  0.00     0.040 A 
ATOM     81  C   UNL A   1      42.560  21.941  25.422  1.00  0.00     0.040 A 
ATOM     82  F   UNL A   1      42.912  24.250  25.190  1.00  0.00    -0.206 F 
ATOM     83  C   UNL A   1      42.335  20.827  26.228  1.00  0.00     0.006 A 
ENDBRANCH  55  76
BRANCH  67  84
ATOM     84  C   UNL A   1      48.196  26.733  29.722  1.00  0.00     0.057 A 
ATOM     85  C   UNL A   1      48.638  25.965  30.803  1.00  0.00     0.134 A 
ATOM     86  C   UNL A   1      49.129  27.047  28.723  1.00  0.00     0.134 A 
ATOM     87  F   UNL A   1      47.797  25.641  31.796  1.00  0.00    -0.206 F 
ATOM     88  C   UNL A   1      49.961  25.527  30.890  1.00  0.00     0.040 A 
ATOM     89  C   UNL A   1      50.447  26.598  28.789  1.00  0.00     0.040 A 
ATOM     90  F   UNL A   1      48.764  27.776  27.656  1.00  0.00    -0.206 F 
ATOM     91  C   UNL A   1      50.867  25.834  29.876  1.00  0.00     0.006 A 
ENDBRANCH  67  84
ENDBRANCH  41  42
ENDBRANCH  34  36
ENDBRANCH  33  34
ENDBRANCH  32  33
ENDBRANCH  31  32
ENDBRANCH  30  31
ENDBRANCH   1  30
TORSDOF 20
ENDMDL
MODEL 2
REMARK VINA RESULT:     -11.6      2.481      7.297
REMARK SMILES O=C(/C=C/N[C@@H](Cc1c[nH]c2ccccc12)C(=O)OCCOCCOC(=O)c1ccc(-c2c3nc(c(-c4c(F)cccc4F)c4ccc([nH]4)c(-c4c(F)cccc4F)c4nc(c(-c5c(F)cccc5F)c5ccc2[nH]5)C=C4)C=C3)cc1)c1ccccc1
REMARK SMILES IDX 21 1 20 2 19 3 17 4 18 5 6 6 5 7 4 9 3 10 2 11 1 12 82 13
REMARK SMILES IDX 83 14 87 15 84 16 86 17 85 18 7 19 8 20 9 21 16 22 10 23
REMARK SMILES IDX 11 24 15 25 12 27 14 28 13 29 22 30 23 31 24 32 25 33 26 34
REMARK SMILES IDX 27 35 28 36 29 37 81 38 30 39 80 40 31 41 32 42 33 43 74 44
REMARK SMILES IDX 34 45 79 46 73 47 75 48 35 49 78 50 72 51 71 52 36 54 62 55
REMARK SMILES IDX 45 56 61 57 46 58 49 59 60 60 76 61 47 62 48 63 59 65 77 66
REMARK SMILES IDX 50 67 37 68 38 69 43 70 39 71 40 72 42 73 44 74 41 75 63 76
REMARK SMILES IDX 64 77 69 78 65 79 66 80 68 81 70 82 67 83 51 84 52 85 57 86
REMARK SMILES IDX 53 87 54 88 56 89 58 90 55 91
REMARK H PARENT 5 8 10 26 75 53 49 64
REMARK Flexibility Score: inf
ROOT
ATOM      1  C   UNL A   1      35.965  22.033  25.107  1.00  0.00     0.202 C 
ENDROOT
BRANCH   1   2
ATOM      2  C   UNL A   1      34.769  22.121  24.159  1.00  0.00     0.261 C 
BRANCH   2   3
ATOM      3  O   UNL A   1      34.877  23.302  23.344  1.00  0.00    -0.462 OA
BRANCH   3   4
ATOM      4  C   UNL A   1      33.800  23.697  22.623  1.00  0.00     0.328 C 
ATOM      5  O   UNL A   1      33.468  23.212  21.546  1.00  0.00    -0.250 OA
BRANCH   4   6
ATOM      6  C   UNL A   1      33.021  24.828  23.308  1.00  0.00     0.194 C 
BRANCH   6   7
ATOM      7  N   UNL A   1      31.847  24.397  24.083  1.00  0.00    -0.378 N 
ATOM      8  H   UNL A   1      31.935  23.545  24.567  1.00  0.00     0.160 HD
BRANCH   7   9
ATOM      9  C   UNL A   1      30.642  25.042  24.212  1.00  0.00     0.082 C 
ATOM     10  C   UNL A   1      30.326  26.193  23.606  1.00  0.00     0.070 C 
BRANCH  10  11
ATOM     11  C   UNL A   1      29.007  26.883  23.610  1.00  0.00     0.187 C 
ATOM     12  O   UNL A   1      28.040  26.343  24.139  1.00  0.00    -0.289 OA
BRANCH  11  13
ATOM     13  C   UNL A   1      28.877  28.251  23.072  1.00  0.00     0.022 A 
ATOM     14  C   UNL A   1      27.664  28.943  23.122  1.00  0.00     0.012 A 
ATOM     15  C   UNL A   1      30.011  28.848  22.512  1.00  0.00     0.012 A 
ATOM     16  C   UNL A   1      27.571  30.210  22.546  1.00  0.00     0.001 A 
ATOM     17  C   UNL A   1      29.914  30.119  21.946  1.00  0.00     0.001 A 
ATOM     18  C   UNL A   1      28.691  30.791  21.952  1.00  0.00     0.000 A 
ENDBRANCH  11  13
ENDBRANCH  10  11
ENDBRANCH   7   9
ENDBRANCH   6   7
BRANCH   6  19
ATOM     19  C   UNL A   1      33.926  25.760  24.115  1.00  0.00     0.074 C 
BRANCH  19  20
ATOM     20  C   UNL A   1      33.614  27.226  24.334  1.00  0.00    -0.020 A 
ATOM     21  C   UNL A   1      33.859  28.151  23.330  1.00  0.00     0.087 A 
ATOM     22  C   UNL A   1      33.009  27.973  25.415  1.00  0.00     0.003 A 
ATOM     23  N   UNL A   1      33.446  29.383  23.738  1.00  0.00    -0.361 N 
ATOM     24  C   UNL A   1      32.898  29.304  24.991  1.00  0.00     0.046 A 
ATOM     25  C   UNL A   1      32.521  27.688  26.709  1.00  0.00     0.010 A 
ATOM     26  H   UNL A   1      33.529  30.210  23.210  1.00  0.00     0.166 HD
ATOM     27  C   UNL A   1      32.309  30.317  25.761  1.00  0.00     0.026 A 
ATOM     28  C   UNL A   1      31.894  28.674  27.469  1.00  0.00     0.001 A 
ATOM     29  C   UNL A   1      31.779  29.969  26.999  1.00  0.00     0.002 A 
ENDBRANCH  19  20
ENDBRANCH   6  19
ENDBRANCH   4   6
ENDBRANCH   3   4
ENDBRANCH   2   3
ENDBRANCH   1   2
BRANCH   1  30
ATOM     30  O   UNL A   1      36.824  20.936  24.789  1.00  0.00    -0.374 OA
BRANCH  30  31
ATOM     31  C   UNL A   1      38.100  20.966  25.431  1.00  0.00     0.202 C 
BRANCH  31  32
ATOM     32  C   UNL A   1      39.000  19.814  24.982  1.00  0.00     0.261 C 
BRANCH  32  33
ATOM     33  O   UNL A   1      39.804  19.346  26.081  1.00  0.00    -0.460 OA
BRANCH  33  34
ATOM     34  C   UNL A   1      41.132  19.594  25.991  1.00  0.00     0.338 C 
ATOM     35  O   UNL A   1      41.982  18.921  25.432  1.00  0.00    -0.246 OA
BRANCH  34  36
ATOM     36  C   UNL A   1      41.405  20.923  26.576  1.00  0.00     0.060 A 
ATOM     37  C   UNL A   1      41.938  21.924  25.753  1.00  0.00     0.016 A 
ATOM     38  C   UNL A   1      41.138  21.188  27.921  1.00  0.00     0.016 A 
ATOM     39  C   UNL A   1      42.216  23.192  26.275  1.00  0.00     0.010 A 
ATOM     40  C   UNL A   1      41.390  22.463  28.432  1.00  0.00     0.010 A 
ATOM     41  C   UNL A   1      41.958  23.467  27.623  1.00  0.00    -0.014 A 
BRANCH  41  42
ATOM     42  C   UNL A   1      42.433  24.714  28.276  1.00  0.00     0.031 A 
ATOM     43  C   UNL A   1      41.439  25.831  28.454  1.00  0.00     0.074 A 
ATOM     44  C   UNL A   1      43.712  24.897  28.653  1.00  0.00     0.049 A 
ATOM     45  N   UNL A   1      41.634  27.080  28.785  1.00  0.00    -0.248 NA
ATOM     46  C   UNL A   1      40.029  25.483  28.207  1.00  0.00     0.031 C 
ATOM     47  C   UNL A   1      44.772  23.893  28.614  1.00  0.00     0.029 A 
ATOM     48  N   UNL A   1      44.346  26.029  29.111  1.00  0.00    -0.354 N 
ATOM     49  C   UNL A   1      40.376  27.667  28.774  1.00  0.00     0.074 A 
ATOM     50  C   UNL A   1      39.435  26.657  28.344  1.00  0.00     0.031 C 
ATOM     51  C   UNL A   1      45.937  24.467  28.965  1.00  0.00     0.029 A 
ATOM     52  C   UNL A   1      45.706  25.882  29.246  1.00  0.00     0.049 A 
ATOM     53  H   UNL A   1      43.870  26.866  29.321  1.00  0.00     0.167 HD
ATOM     54  C   UNL A   1      40.025  28.927  29.122  1.00  0.00     0.037 A 
ATOM     55  C   UNL A   1      46.656  26.794  29.535  1.00  0.00     0.037 A 
ATOM     56  C   UNL A   1      40.948  29.928  29.576  1.00  0.00     0.049 A 
ATOM     57  C   UNL A   1      46.260  28.220  29.819  1.00  0.00     0.074 A 
ATOM     58  C   UNL A   1      40.686  31.229  29.967  1.00  0.00     0.029 A 
ATOM     59  N   UNL A   1      42.313  29.733  29.705  1.00  0.00    -0.354 N 
ATOM     60  N   UNL A   1      45.067  28.763  29.822  1.00  0.00    -0.248 NA
ATOM     61  C   UNL A   1      47.343  29.158  30.157  1.00  0.00     0.031 C 
ATOM     62  C   UNL A   1      41.900  31.831  30.311  1.00  0.00     0.029 A 
ATOM     63  C   UNL A   1      42.910  30.893  30.167  1.00  0.00     0.049 A 
ATOM     64  H   UNL A   1      42.787  28.895  29.500  1.00  0.00     0.167 HD
ATOM     65  C   UNL A   1      45.248  30.080  30.227  1.00  0.00     0.074 A 
ATOM     66  C   UNL A   1      46.668  30.264  30.437  1.00  0.00     0.031 C 
ATOM     67  C   UNL A   1      44.318  31.045  30.423  1.00  0.00     0.037 A 
BRANCH  54  68
ATOM     68  C   UNL A   1      38.570  29.277  29.030  1.00  0.00     0.057 A 
ATOM     69  C   UNL A   1      37.985  29.665  27.818  1.00  0.00     0.134 A 
ATOM     70  C   UNL A   1      37.748  29.228  30.162  1.00  0.00     0.134 A 
ATOM     71  F   UNL A   1      38.727  29.750  26.703  1.00  0.00    -0.206 F 
ATOM     72  C   UNL A   1      36.639  30.022  27.740  1.00  0.00     0.040 A 
ATOM     73  C   UNL A   1      36.395  29.557  30.091  1.00  0.00     0.040 A 
ATOM     74  F   UNL A   1      38.248  28.862  31.352  1.00  0.00    -0.206 F 
ATOM     75  C   UNL A   1      35.839  29.964  28.879  1.00  0.00     0.006 A 
ENDBRANCH  54  68
BRANCH  55  76
ATOM     76  C   UNL A   1      48.088  26.400  29.582  1.00  0.00     0.057 A 
ATOM     77  C   UNL A   1      48.655  25.886  30.753  1.00  0.00     0.134 A 
ATOM     78  C   UNL A   1      48.933  26.584  28.482  1.00  0.00     0.134 A 
ATOM     79  F   UNL A   1      47.899  25.711  31.848  1.00  0.00    -0.206 F 
ATOM     80  C   UNL A   1      50.017  25.595  30.840  1.00  0.00     0.040 A 
ATOM     81  C   UNL A   1      50.294  26.281  28.548  1.00  0.00     0.040 A 
ATOM     82  F   UNL A   1      48.450  27.070  27.329  1.00  0.00    -0.206 F 
ATOM     83  C   UNL A   1      50.841  25.794  29.734  1.00  0.00     0.006 A 
ENDBRANCH  55  76
BRANCH  67  84
ATOM     84  C   UNL A   1      44.777  32.359  30.982  1.00  0.00     0.057 A 
ATOM     85  C   UNL A   1      44.897  32.583  32.356  1.00  0.00     0.134 A 
ATOM     86  C   UNL A   1      45.184  33.384  30.116  1.00  0.00     0.134 A 
ATOM     87  F   UNL A   1      44.514  31.646  33.235  1.00  0.00    -0.206 F 
ATOM     88  C   UNL A   1      45.402  33.786  32.854  1.00  0.00     0.040 A 
ATOM     89  C   UNL A   1      45.710  34.581  30.601  1.00  0.00     0.040 A 
ATOM     90  F   UNL A   1      45.100  33.226  28.786  1.00  0.00    -0.206 F 
ATOM     91  C   UNL A   1      45.821  34.785  31.975  1.00  0.00     0.006 A 
ENDBRANCH  67  84
ENDBRANCH  41  42
ENDBRANCH  34  36
ENDBRANCH  33  34
ENDBRANCH  32  33
ENDBRANCH  31  32
ENDBRANCH  30  31
ENDBRANCH   1  30
TORSDOF 20
ENDMDL
MODEL 3
REMARK VINA RESULT:     -11.4      2.771      7.684
REMARK SMILES O=C(/C=C/N[C@@H](Cc1c[nH]c2ccccc12)C(=O)OCCOCCOC(=O)c1ccc(-c2c3nc(c(-c4c(F)cccc4F)c4ccc([nH]4)c(-c4c(F)cccc4F)c4nc(c(-c5c(F)cccc5F)c5ccc2[nH]5)C=C4)C=C3)cc1)c1ccccc1
REMARK SMILES IDX 21 1 20 2 19 3 17 4 18 5 6 6 5 7 4 9 3 10 2 11 1 12 82 13
REMARK SMILES IDX 83 14 87 15 84 16 86 17 85 18 7 19 8 20 9 21 16 22 10 23
REMARK SMILES IDX 11 24 15 25 12 27 14 28 13 29 22 30 23 31 24 32 25 33 26 34
REMARK SMILES IDX 27 35 28 36 29 37 81 38 30 39 80 40 31 41 32 42 33 43 74 44
REMARK SMILES IDX 34 45 79 46 73 47 75 48 35 49 78 50 72 51 71 52 36 54 62 55
REMARK SMILES IDX 45 56 61 57 46 58 49 59 60 60 76 61 47 62 48 63 59 65 77 66
REMARK SMILES IDX 50 67 37 68 38 69 43 70 39 71 40 72 42 73 44 74 41 75 63 76
REMARK SMILES IDX 64 77 69 78 65 79 66 80 68 81 70 82 67 83 51 84 52 85 57 86
REMARK SMILES IDX 53 87 54 88 56 89 58 90 55 91
REMARK H PARENT 5 8 10 26 75 53 49 64
REMARK Flexibility Score: inf
ROOT
ATOM      1  C   UNL A   1      36.033  22.036  25.196  1.00  0.00     0.202 C 
ENDROOT
BRANCH   1   2
ATOM      2  C   UNL A   1      34.838  22.072  24.242  1.00  0.00     0.261 C 
BRANCH   2   3
ATOM      3  O   UNL A   1      34.911  23.245  23.411  1.00  0.00    -0.462 OA
BRANCH   3   4
ATOM      4  C   UNL A   1      33.814  23.613  22.706  1.00  0.00     0.328 C 
ATOM      5  O   UNL A   1      33.436  23.070  21.674  1.00  0.00    -0.250 OA
BRANCH   4   6
ATOM      6  C   UNL A   1      33.078  24.797  23.349  1.00  0.00     0.194 C 
BRANCH   6   7
ATOM      7  N   UNL A   1      31.916  24.435  24.177  1.00  0.00    -0.378 N 
ATOM      8  H   UNL A   1      31.972  23.573  24.650  1.00  0.00     0.160 HD
BRANCH   7   9
ATOM      9  C   UNL A   1      30.763  25.154  24.368  1.00  0.00     0.082 C 
ATOM     10  C   UNL A   1      30.303  26.091  23.530  1.00  0.00     0.070 C 
BRANCH  10  11
ATOM     11  C   UNL A   1      29.010  26.824  23.617  1.00  0.00     0.187 C 
ATOM     12  O   UNL A   1      28.063  26.317  24.210  1.00  0.00    -0.289 OA
BRANCH  11  13
ATOM     13  C   UNL A   1      28.890  28.193  23.081  1.00  0.00     0.022 A 
ATOM     14  C   UNL A   1      27.667  28.871  23.078  1.00  0.00     0.012 A 
ATOM     15  C   UNL A   1      30.040  28.807  22.578  1.00  0.00     0.012 A 
ATOM     16  C   UNL A   1      27.585  30.140  22.506  1.00  0.00     0.001 A 
ATOM     17  C   UNL A   1      29.955  30.080  22.015  1.00  0.00     0.001 A 
ATOM     18  C   UNL A   1      28.726  30.738  21.968  1.00  0.00     0.000 A 
ENDBRANCH  11  13
ENDBRANCH  10  11
ENDBRANCH   7   9
ENDBRANCH   6   7
BRANCH   6  19
ATOM     19  C   UNL A   1      34.023  25.751  24.081  1.00  0.00     0.074 C 
BRANCH  19  20
ATOM     20  C   UNL A   1      33.682  27.201  24.354  1.00  0.00    -0.020 A 
ATOM     21  C   UNL A   1      33.952  28.173  23.402  1.00  0.00     0.087 A 
ATOM     22  C   UNL A   1      33.027  27.891  25.443  1.00  0.00     0.003 A 
ATOM     23  N   UNL A   1      33.506  29.381  23.849  1.00  0.00    -0.361 N 
ATOM     24  C   UNL A   1      32.913  29.238  25.076  1.00  0.00     0.046 A 
ATOM     25  C   UNL A   1      32.496  27.541  26.703  1.00  0.00     0.010 A 
ATOM     26  H   UNL A   1      33.598  30.232  23.363  1.00  0.00     0.166 HD
ATOM     27  C   UNL A   1      32.282  30.207  25.867  1.00  0.00     0.026 A 
ATOM     28  C   UNL A   1      31.827  28.484  27.483  1.00  0.00     0.001 A 
ATOM     29  C   UNL A   1      31.712  29.797  27.068  1.00  0.00     0.002 A 
ENDBRANCH  19  20
ENDBRANCH   6  19
ENDBRANCH   4   6
ENDBRANCH   3   4
ENDBRANCH   2   3
ENDBRANCH   1   2
BRANCH   1  30
ATOM     30  O   UNL A   1      36.898  20.931  24.932  1.00  0.00    -0.374 OA
BRANCH  30  31
ATOM     31  C   UNL A   1      38.203  21.039  25.504  1.00  0.00     0.202 C 
BRANCH  31  32
ATOM     32  C   UNL A   1      39.043  19.783  25.270  1.00  0.00     0.261 C 
BRANCH  32  33
ATOM     33  O   UNL A   1      39.884  19.521  26.409  1.00  0.00    -0.460 OA
BRANCH  33  34
ATOM     34  C   UNL A   1      41.218  19.598  26.190  1.00  0.00     0.338 C 
ATOM     35  O   UNL A   1      41.952  18.735  25.738  1.00  0.00    -0.246 OA
BRANCH  34  36
ATOM     36  C   UNL A   1      41.663  20.980  26.463  1.00  0.00     0.060 A 
ATOM     37  C   UNL A   1      41.663  21.437  27.788  1.00  0.00     0.016 A 
ATOM     38  C   UNL A   1      42.078  21.823  25.429  1.00  0.00     0.016 A 
ATOM     39  C   UNL A   1      42.070  22.742  28.083  1.00  0.00     0.010 A 
ATOM     40  C   UNL A   1      42.510  23.116  25.730  1.00  0.00     0.010 A 
ATOM     41  C   UNL A   1      42.482  23.597  27.054  1.00  0.00    -0.014 A 
BRANCH  41  42
ATOM     42  C   UNL A   1      42.713  25.048  27.282  1.00  0.00     0.031 A 
ATOM     43  C   UNL A   1      44.114  25.568  27.099  1.00  0.00     0.074 A 
ATOM     44  C   UNL A   1      41.743  25.884  27.696  1.00  0.00     0.049 A 
ATOM     45  N   UNL A   1      44.630  26.721  27.437  1.00  0.00    -0.248 NA
ATOM     46  C   UNL A   1      45.065  24.646  26.453  1.00  0.00     0.031 C 
ATOM     47  C   UNL A   1      40.329  25.549  27.851  1.00  0.00     0.029 A 
ATOM     48  N   UNL A   1      41.820  27.194  28.107  1.00  0.00    -0.354 N 
ATOM     49  C   UNL A   1      45.963  26.656  27.057  1.00  0.00     0.074 A 
ATOM     50  C   UNL A   1      46.193  25.333  26.521  1.00  0.00     0.031 C 
ATOM     51  C   UNL A   1      39.684  26.602  28.384  1.00  0.00     0.029 A 
ATOM     52  C   UNL A   1      40.641  27.681  28.617  1.00  0.00     0.049 A 
ATOM     53  H   UNL A   1      42.643  27.731  28.043  1.00  0.00     0.167 HD
ATOM     54  C   UNL A   1      46.910  27.621  27.117  1.00  0.00     0.037 A 
ATOM     55  C   UNL A   1      40.374  28.854  29.227  1.00  0.00     0.037 A 
ATOM     56  C   UNL A   1      46.685  28.946  27.622  1.00  0.00     0.049 A 
ATOM     57  C   UNL A   1      41.466  29.881  29.381  1.00  0.00     0.074 A 
ATOM     58  C   UNL A   1      47.576  30.000  27.709  1.00  0.00     0.029 A 
ATOM     59  N   UNL A   1      45.474  29.398  28.120  1.00  0.00    -0.354 N 
ATOM     60  N   UNL A   1      42.720  29.818  29.005  1.00  0.00    -0.248 NA
ATOM     61  C   UNL A   1      41.101  31.151  30.029  1.00  0.00     0.031 C 
ATOM     62  C   UNL A   1      46.910  31.086  28.284  1.00  0.00     0.029 A 
ATOM     63  C   UNL A   1      45.595  30.717  28.520  1.00  0.00     0.049 A 
ATOM     64  H   UNL A   1      44.650  28.862  28.179  1.00  0.00     0.167 HD
ATOM     65  C   UNL A   1      43.272  31.057  29.306  1.00  0.00     0.074 A 
ATOM     66  C   UNL A   1      42.225  31.845  29.920  1.00  0.00     0.031 C 
ATOM     67  C   UNL A   1      44.530  31.506  29.080  1.00  0.00     0.037 A 
BRANCH  54  68
ATOM     68  C   UNL A   1      48.275  27.267  26.608  1.00  0.00     0.057 A 
ATOM     69  C   UNL A   1      49.278  26.800  27.467  1.00  0.00     0.134 A 
ATOM     70  C   UNL A   1      48.590  27.396  25.251  1.00  0.00     0.134 A 
ATOM     71  F   UNL A   1      49.043  26.674  28.782  1.00  0.00    -0.206 F 
ATOM     72  C   UNL A   1      50.558  26.502  26.998  1.00  0.00     0.040 A 
ATOM     73  C   UNL A   1      49.857  27.076  24.766  1.00  0.00     0.040 A 
ATOM     74  F   UNL A   1      47.671  27.837  24.377  1.00  0.00    -0.206 F 
ATOM     75  C   UNL A   1      50.848  26.636  25.642  1.00  0.00     0.006 A 
ENDBRANCH  54  68
BRANCH  55  76
ATOM     76  C   UNL A   1      39.010  29.141  29.742  1.00  0.00     0.057 A 
ATOM     77  C   UNL A   1      38.045  29.744  28.928  1.00  0.00     0.134 A 
ATOM     78  C   UNL A   1      38.660  28.878  31.071  1.00  0.00     0.134 A 
ATOM     79  F   UNL A   1      38.332  30.043  27.651  1.00  0.00    -0.206 F 
ATOM     80  C   UNL A   1      36.790  30.101  29.422  1.00  0.00     0.040 A 
ATOM     81  C   UNL A   1      37.401  29.214  31.575  1.00  0.00     0.040 A 
ATOM     82  F   UNL A   1      39.538  28.299  31.902  1.00  0.00    -0.206 F 
ATOM     83  C   UNL A   1      36.466  29.836  30.750  1.00  0.00     0.006 A 
ENDBRANCH  55  76
BRANCH  67  84
ATOM     84  C   UNL A   1      44.831  32.940  29.399  1.00  0.00     0.057 A 
ATOM     85  C   UNL A   1      45.403  33.329  30.613  1.00  0.00     0.134 A 
ATOM     86  C   UNL A   1      44.617  33.932  28.431  1.00  0.00     0.134 A 
ATOM     87  F   UNL A   1      45.621  32.429  31.582  1.00  0.00    -0.206 F 
ATOM     88  C   UNL A   1      45.749  34.660  30.859  1.00  0.00     0.040 A 
ATOM     89  C   UNL A   1      44.978  35.260  28.658  1.00  0.00     0.040 A 
ATOM     90  F   UNL A   1      44.078  33.620  27.243  1.00  0.00    -0.206 F 
ATOM     91  C   UNL A   1      45.546  35.628  29.876  1.00  0.00     0.006 A 
ENDBRANCH  67  84
ENDBRANCH  41  42
ENDBRANCH  34  36
ENDBRANCH  33  34
ENDBRANCH  32  33
ENDBRANCH  31  32
ENDBRANCH  30  31
ENDBRANCH   1  30
TORSDOF 20
ENDMDL
