MODEL 1
REMARK VINA RESULT:     -12.5      0.000      0.000
REMARK SMILES O=C(OCCOCCOC(=O)c1ccc(-c2c3nc(c(-c4c(F)cccc4F)c4ccc([nH]4)c(-c4c(F)cccc4F)c4nc(c(-c5c(F)cccc5F)c5ccc2[nH]5)C=C4)C=C3)cc1)C1=Cc2cc(Cl)cc(Cl)c2O[C@@H]1C(F)(F)F
REMARK SMILES IDX 7 1 6 2 5 3 4 4 3 5 2 6 1 7 66 8 67 9 77 10 68 11 76 12
REMARK SMILES IDX 69 13 75 14 70 15 73 16 71 17 72 18 74 19 78 20 79 21 80 22
REMARK SMILES IDX 81 23 8 24 9 25 10 26 11 27 12 28 13 29 65 30 14 31 64 32
REMARK SMILES IDX 15 33 16 34 17 35 58 36 18 37 63 38 57 39 59 40 19 41 62 42
REMARK SMILES IDX 56 43 55 44 20 46 46 47 29 48 45 49 30 50 33 51 44 52 60 53
REMARK SMILES IDX 31 54 32 55 43 57 61 58 34 59 21 60 22 61 27 62 23 63 24 64
REMARK SMILES IDX 26 65 28 66 25 67 47 68 48 69 53 70 49 71 50 72 52 73 54 74
REMARK SMILES IDX 51 75 35 76 36 77 41 78 37 79 38 80 40 81 42 82 39 83
REMARK H PARENT 59 45 33 56
REMARK Flexibility Score: inf
ROOT
ATOM      1  C   UNL A   1      42.753  20.983  26.160  1.00  0.00     0.202 C 
ENDROOT
BRANCH   1   2
ATOM      2  O   UNL A   1      41.394  21.108  25.719  1.00  0.00    -0.374 OA
BRANCH   2   3
ATOM      3  C   UNL A   1      40.030  21.436  26.465  1.00  0.00     0.202 C 
BRANCH   3   4
ATOM      4  C   UNL A   1      38.244  22.497  25.846  1.00  0.00     0.261 C 
BRANCH   4   5
ATOM      5  O   UNL A   1      36.979  21.871  25.210  1.00  0.00    -0.460 OA
BRANCH   5   6
ATOM      6  C   UNL A   1      36.356  22.699  24.368  1.00  0.00     0.338 C 
ATOM      7  O   UNL A   1      36.780  23.315  23.425  1.00  0.00    -0.246 OA
BRANCH   6   8
ATOM      8  C   UNL A   1      35.169  22.842  25.174  1.00  0.00     0.087 C 
ATOM      9  C   UNL A   1      35.073  24.224  25.742  1.00  0.00     0.027 C 
ATOM     10  C   UNL A   1      33.924  22.095  23.884  1.00  0.00     0.316 C 
ATOM     11  C   UNL A   1      33.882  25.474  25.150  1.00  0.00     0.020 A 
ATOM     12  O   UNL A   1      32.709  23.422  23.211  1.00  0.00    -0.474 OA
ATOM     13  C   UNL A   1      33.983  26.769  25.586  1.00  0.00     0.032 A 
ATOM     14  C   UNL A   1      32.778  25.121  23.860  1.00  0.00     0.146 A 
ATOM     15  C   UNL A   1      33.210  27.701  24.869  1.00  0.00     0.043 A 
ATOM     16  C   UNL A   1      32.219  26.129  23.123  1.00  0.00     0.085 A 
ATOM     17  Cl  UNL A   1      33.284  29.352  25.399  1.00  0.00    -0.084 Cl
ATOM     18  C   UNL A   1      32.420  27.413  23.681  1.00  0.00     0.045 A 
ATOM     19  Cl  UNL A   1      31.673  25.927  21.522  1.00  0.00    -0.080 Cl
BRANCH  10  20
ATOM     20  C   UNL A   1      33.620  20.694  24.533  1.00  0.00     0.430 C 
ATOM     21  F   UNL A   1      33.085  20.739  25.766  1.00  0.00    -0.167 F 
ATOM     22  F   UNL A   1      32.676  20.084  23.756  1.00  0.00    -0.167 F 
ATOM     23  F   UNL A   1      34.668  19.842  24.542  1.00  0.00    -0.167 F 
ENDBRANCH  10  20
ENDBRANCH   6   8
ENDBRANCH   5   6
ENDBRANCH   4   5
ENDBRANCH   3   4
ENDBRANCH   2   3
ENDBRANCH   1   2
BRANCH   1  24
ATOM     24  C   UNL A   1      43.731  21.837  25.359  1.00  0.00     0.261 C 
BRANCH  24  25
ATOM     25  O   UNL A   1      43.150  23.064  24.937  1.00  0.00    -0.460 OA
BRANCH  25  26
ATOM     26  C   UNL A   1      43.954  24.143  25.070  1.00  0.00     0.338 C 
ATOM     27  O   UNL A   1      44.990  24.387  24.480  1.00  0.00    -0.246 OA
BRANCH  26  28
ATOM     28  C   UNL A   1      43.360  25.027  26.085  1.00  0.00     0.060 A 
ATOM     29  C   UNL A   1      43.906  26.303  26.254  1.00  0.00     0.016 A 
ATOM     30  C   UNL A   1      42.247  24.613  26.832  1.00  0.00     0.016 A 
ATOM     31  C   UNL A   1      43.312  27.188  27.147  1.00  0.00     0.010 A 
ATOM     32  C   UNL A   1      41.651  25.498  27.719  1.00  0.00     0.010 A 
ATOM     33  C   UNL A   1      42.190  26.782  27.884  1.00  0.00    -0.014 A 
BRANCH  33  34
ATOM     34  C   UNL A   1      41.708  27.617  28.995  1.00  0.00     0.031 A 
ATOM     35  C   UNL A   1      42.426  27.492  30.301  1.00  0.00     0.074 A 
ATOM     36  C   UNL A   1      40.662  28.444  28.840  1.00  0.00     0.049 A 
ATOM     37  N   UNL A   1      42.206  28.108  31.429  1.00  0.00    -0.248 NA
ATOM     38  C   UNL A   1      43.546  26.534  30.340  1.00  0.00     0.031 C 
ATOM     39  C   UNL A   1      39.904  28.635  27.605  1.00  0.00     0.029 A 
ATOM     40  N   UNL A   1      40.052  29.275  29.743  1.00  0.00    -0.354 N 
ATOM     41  C   UNL A   1      43.168  27.627  32.304  1.00  0.00     0.074 A 
ATOM     42  C   UNL A   1      43.937  26.629  31.599  1.00  0.00     0.031 C 
ATOM     43  C   UNL A   1      38.922  29.526  27.829  1.00  0.00     0.029 A 
ATOM     44  C   UNL A   1      38.968  29.943  29.229  1.00  0.00     0.049 A 
ATOM     45  H   UNL A   1      40.361  29.382  30.671  1.00  0.00     0.167 HD
ATOM     46  C   UNL A   1      43.395  27.998  33.584  1.00  0.00     0.037 A 
ATOM     47  C   UNL A   1      38.108  30.782  29.837  1.00  0.00     0.037 A 
ATOM     48  C   UNL A   1      42.591  28.962  34.282  1.00  0.00     0.049 A 
ATOM     49  C   UNL A   1      38.328  31.111  31.292  1.00  0.00     0.074 A 
ATOM     50  C   UNL A   1      42.726  29.417  35.580  1.00  0.00     0.029 A 
ATOM     51  N   UNL A   1      41.483  29.600  33.741  1.00  0.00    -0.354 N 
ATOM     52  N   UNL A   1      39.277  30.701  32.101  1.00  0.00    -0.248 NA
ATOM     53  C   UNL A   1      37.363  32.025  31.918  1.00  0.00     0.031 C 
ATOM     54  C   UNL A   1      41.660  30.280  35.847  1.00  0.00     0.029 A 
ATOM     55  C   UNL A   1      40.905  30.421  34.692  1.00  0.00     0.049 A 
ATOM     56  H   UNL A   1      41.158  29.485  32.819  1.00  0.00     0.167 HD
ATOM     57  C   UNL A   1      39.045  31.336  33.316  1.00  0.00     0.074 A 
ATOM     58  C   UNL A   1      37.872  32.166  33.133  1.00  0.00     0.031 C 
ATOM     59  C   UNL A   1      39.740  31.245  34.478  1.00  0.00     0.037 A 
BRANCH  46  60
ATOM     60  C   UNL A   1      44.529  27.327  34.296  1.00  0.00     0.057 A 
ATOM     61  C   UNL A   1      44.358  26.122  34.993  1.00  0.00     0.134 A 
ATOM     62  C   UNL A   1      45.806  27.900  34.299  1.00  0.00     0.134 A 
ATOM     63  F   UNL A   1      43.153  25.535  35.052  1.00  0.00    -0.206 F 
ATOM     64  C   UNL A   1      45.410  25.527  35.690  1.00  0.00     0.040 A 
ATOM     65  C   UNL A   1      46.872  27.299  34.967  1.00  0.00     0.040 A 
ATOM     66  F   UNL A   1      46.036  29.056  33.660  1.00  0.00    -0.206 F 
ATOM     67  C   UNL A   1      46.674  26.113  35.672  1.00  0.00     0.006 A 
ENDBRANCH  46  60
BRANCH  47  68
ATOM     68  C   UNL A   1      36.968  31.370  29.087  1.00  0.00     0.057 A 
ATOM     69  C   UNL A   1      36.997  32.695  28.638  1.00  0.00     0.134 A 
ATOM     70  C   UNL A   1      35.803  30.633  28.834  1.00  0.00     0.134 A 
ATOM     71  F   UNL A   1      38.075  33.461  28.864  1.00  0.00    -0.206 F 
ATOM     72  C   UNL A   1      35.903  33.275  27.992  1.00  0.00     0.040 A 
ATOM     73  C   UNL A   1      34.714  31.191  28.164  1.00  0.00     0.040 A 
ATOM     74  F   UNL A   1      35.710  29.355  29.232  1.00  0.00    -0.206 F 
ATOM     75  C   UNL A   1      34.757  32.521  27.751  1.00  0.00     0.006 A 
ENDBRANCH  47  68
BRANCH  59  76
ATOM     76  C   UNL A   1      39.281  32.099  35.626  1.00  0.00     0.057 A 
ATOM     77  C   UNL A   1      39.689  33.431  35.775  1.00  0.00     0.134 A 
ATOM     78  C   UNL A   1      38.368  31.594  36.562  1.00  0.00     0.134 A 
ATOM     79  F   UNL A   1      40.568  33.974  34.919  1.00  0.00    -0.206 F 
ATOM     80  C   UNL A   1      39.225  34.221  36.827  1.00  0.00     0.040 A 
ATOM     81  C   UNL A   1      37.871  32.384  37.597  1.00  0.00     0.040 A 
ATOM     82  F   UNL A   1      37.926  30.330  36.470  1.00  0.00    -0.206 F 
ATOM     83  C   UNL A   1      38.305  33.700  37.736  1.00  0.00     0.006 A 
ENDBRANCH  59  76
ENDBRANCH  33  34
ENDBRANCH  26  28
ENDBRANCH  25  26
ENDBRANCH  24  25
ENDBRANCH   1  24
TORSDOF 15
ENDMDL
MODEL 2
REMARK VINA RESULT:     -12.3      4.919      9.693
REMARK SMILES O=C(OCCOCCOC(=O)c1ccc(-c2c3nc(c(-c4c(F)cccc4F)c4ccc([nH]4)c(-c4c(F)cccc4F)c4nc(c(-c5c(F)cccc5F)c5ccc2[nH]5)C=C4)C=C3)cc1)C1=Cc2cc(Cl)cc(Cl)c2O[C@@H]1C(F)(F)F
REMARK SMILES IDX 7 1 6 2 5 3 4 4 3 5 2 6 1 7 66 8 67 9 77 10 68 11 76 12
REMARK SMILES IDX 69 13 75 14 70 15 73 16 71 17 72 18 74 19 78 20 79 21 80 22
REMARK SMILES IDX 81 23 8 24 9 25 10 26 11 27 12 28 13 29 65 30 14 31 64 32
REMARK SMILES IDX 15 33 16 34 17 35 58 36 18 37 63 38 57 39 59 40 19 41 62 42
REMARK SMILES IDX 56 43 55 44 20 46 46 47 29 48 45 49 30 50 33 51 44 52 60 53
REMARK SMILES IDX 31 54 32 55 43 57 61 58 34 59 21 60 22 61 27 62 23 63 24 64
REMARK SMILES IDX 26 65 28 66 25 67 47 68 48 69 53 70 49 71 50 72 52 73 54 74
REMARK SMILES IDX 51 75 35 76 36 77 41 78 37 79 38 80 40 81 42 82 39 83
REMARK H PARENT 59 45 33 56
REMARK Flexibility Score: inf
ROOT
ATOM      1  C   UNL A   1      34.514  33.985  30.228  1.00  0.00     0.202 C 
ENDROOT
BRANCH   1   2
ATOM      2  O   UNL A   1      33.965  32.894  29.478  1.00  0.00    -0.374 OA
BRANCH   2   3
ATOM      3  C   UNL A   1      34.316  32.252  28.068  1.00  0.00     0.202 C 
BRANCH   3   4
ATOM      4  C   UNL A   1      34.103  30.243  27.284  1.00  0.00     0.261 C 
BRANCH   4   5
ATOM      5  O   UNL A   1      33.095  29.781  26.204  1.00  0.00    -0.460 OA
BRANCH   5   6
ATOM      6  C   UNL A   1      32.502  28.622  26.506  1.00  0.00     0.338 C 
ATOM      7  O   UNL A   1      32.161  28.178  27.571  1.00  0.00    -0.246 OA
BRANCH   6   8
ATOM      8  C   UNL A   1      32.741  28.010  25.223  1.00  0.00     0.087 C 
ATOM      9  C   UNL A   1      33.912  27.079  25.286  1.00  0.00     0.027 C 
ATOM     10  C   UNL A   1      30.910  27.454  24.889  1.00  0.00     0.316 C 
ATOM     11  C   UNL A   1      33.752  25.261  25.255  1.00  0.00     0.020 A 
ATOM     12  O   UNL A   1      30.727  25.542  24.918  1.00  0.00    -0.474 OA
ATOM     13  C   UNL A   1      34.849  24.478  25.507  1.00  0.00     0.032 A 
ATOM     14  C   UNL A   1      32.198  24.498  25.157  1.00  0.00     0.146 A 
ATOM     15  C   UNL A   1      34.569  23.118  25.736  1.00  0.00     0.043 A 
ATOM     16  C   UNL A   1      32.026  23.207  25.575  1.00  0.00     0.085 A 
ATOM     17  Cl  UNL A   1      35.928  22.080  26.036  1.00  0.00    -0.084 Cl
ATOM     18  C   UNL A   1      33.242  22.526  25.819  1.00  0.00     0.045 A 
ATOM     19  Cl  UNL A   1      30.534  22.588  26.116  1.00  0.00    -0.080 Cl
BRANCH  10  20
ATOM     20  C   UNL A   1      30.477  28.486  23.783  1.00  0.00     0.430 C 
ATOM     21  F   UNL A   1      31.118  28.367  22.606  1.00  0.00    -0.167 F 
ATOM     22  F   UNL A   1      29.162  28.248  23.500  1.00  0.00    -0.167 F 
ATOM     23  F   UNL A   1      30.521  29.778  24.175  1.00  0.00    -0.167 F 
ENDBRANCH  10  20
ENDBRANCH   6   8
ENDBRANCH   5   6
ENDBRANCH   4   5
ENDBRANCH   3   4
ENDBRANCH   2   3
ENDBRANCH   1   2
BRANCH   1  24
ATOM     24  C   UNL A   1      34.593  33.712  31.727  1.00  0.00     0.261 C 
BRANCH  24  25
ATOM     25  O   UNL A   1      34.934  32.360  32.008  1.00  0.00    -0.460 OA
BRANCH  25  26
ATOM     26  C   UNL A   1      35.976  32.207  32.855  1.00  0.00     0.338 C 
ATOM     27  O   UNL A   1      36.047  32.525  34.028  1.00  0.00    -0.246 OA
BRANCH  26  28
ATOM     28  C   UNL A   1      37.072  31.564  32.112  1.00  0.00     0.060 A 
ATOM     29  C   UNL A   1      38.120  30.991  32.839  1.00  0.00     0.016 A 
ATOM     30  C   UNL A   1      37.040  31.490  30.712  1.00  0.00     0.016 A 
ATOM     31  C   UNL A   1      39.124  30.305  32.166  1.00  0.00     0.010 A 
ATOM     32  C   UNL A   1      38.039  30.800  30.039  1.00  0.00     0.010 A 
ATOM     33  C   UNL A   1      39.086  30.216  30.767  1.00  0.00    -0.014 A 
BRANCH  33  34
ATOM     34  C   UNL A   1      40.258  29.707  30.038  1.00  0.00     0.031 A 
ATOM     35  C   UNL A   1      41.379  30.668  29.797  1.00  0.00     0.074 A 
ATOM     36  C   UNL A   1      40.309  28.438  29.602  1.00  0.00     0.049 A 
ATOM     37  N   UNL A   1      42.516  30.477  29.185  1.00  0.00    -0.248 NA
ATOM     38  C   UNL A   1      41.188  32.035  30.313  1.00  0.00     0.031 C 
ATOM     39  C   UNL A   1      39.268  27.431  29.794  1.00  0.00     0.029 A 
ATOM     40  N   UNL A   1      41.284  27.786  28.894  1.00  0.00    -0.354 N 
ATOM     41  C   UNL A   1      43.180  31.692  29.259  1.00  0.00     0.074 A 
ATOM     42  C   UNL A   1      42.303  32.628  29.922  1.00  0.00     0.031 C 
ATOM     43  C   UNL A   1      39.657  26.284  29.211  1.00  0.00     0.029 A 
ATOM     44  C   UNL A   1      40.961  26.489  28.583  1.00  0.00     0.049 A 
ATOM     45  H   UNL A   1      42.134  28.208  28.633  1.00  0.00     0.167 HD
ATOM     46  C   UNL A   1      44.423  31.993  28.822  1.00  0.00     0.037 A 
ATOM     47  C   UNL A   1      41.644  25.584  27.856  1.00  0.00     0.037 A 
ATOM     48  C   UNL A   1      45.264  31.059  28.126  1.00  0.00     0.049 A 
ATOM     49  C   UNL A   1      42.990  25.972  27.299  1.00  0.00     0.074 A 
ATOM     50  C   UNL A   1      46.541  31.252  27.636  1.00  0.00     0.029 A 
ATOM     51  N   UNL A   1      44.896  29.761  27.802  1.00  0.00    -0.354 N 
ATOM     52  N   UNL A   1      43.644  27.104  27.424  1.00  0.00    -0.248 NA
ATOM     53  C   UNL A   1      43.698  24.958  26.507  1.00  0.00     0.031 C 
ATOM     54  C   UNL A   1      46.921  30.092  26.955  1.00  0.00     0.029 A 
ATOM     55  C   UNL A   1      45.911  29.150  27.087  1.00  0.00     0.049 A 
ATOM     56  H   UNL A   1      44.041  29.338  28.045  1.00  0.00     0.167 HD
ATOM     57  C   UNL A   1      44.852  26.924  26.761  1.00  0.00     0.074 A 
ATOM     58  C   UNL A   1      44.844  25.569  26.246  1.00  0.00     0.031 C 
ATOM     59  C   UNL A   1      45.879  27.795  26.595  1.00  0.00     0.037 A 
BRANCH  46  60
ATOM     60  C   UNL A   1      44.907  33.391  29.056  1.00  0.00     0.057 A 
ATOM     61  C   UNL A   1      44.666  34.424  28.140  1.00  0.00     0.134 A 
ATOM     62  C   UNL A   1      45.639  33.706  30.208  1.00  0.00     0.134 A 
ATOM     63  F   UNL A   1      43.995  34.182  27.003  1.00  0.00    -0.206 F 
ATOM     64  C   UNL A   1      45.159  35.712  28.346  1.00  0.00     0.040 A 
ATOM     65  C   UNL A   1      46.110  34.998  30.440  1.00  0.00     0.040 A 
ATOM     66  F   UNL A   1      45.912  32.763  31.122  1.00  0.00    -0.206 F 
ATOM     67  C   UNL A   1      45.878  36.003  29.504  1.00  0.00     0.006 A 
ENDBRANCH  46  60
BRANCH  47  68
ATOM     68  C   UNL A   1      41.080  24.230  27.611  1.00  0.00     0.057 A 
ATOM     69  C   UNL A   1      41.581  23.102  28.270  1.00  0.00     0.134 A 
ATOM     70  C   UNL A   1      40.051  24.026  26.682  1.00  0.00     0.134 A 
ATOM     71  F   UNL A   1      42.579  23.226  29.157  1.00  0.00    -0.206 F 
ATOM     72  C   UNL A   1      41.103  21.819  27.995  1.00  0.00     0.040 A 
ATOM     73  C   UNL A   1      39.544  22.753  26.419  1.00  0.00     0.040 A 
ATOM     74  F   UNL A   1      39.521  25.065  26.018  1.00  0.00    -0.206 F 
ATOM     75  C   UNL A   1      40.078  21.642  27.068  1.00  0.00     0.006 A 
ENDBRANCH  47  68
BRANCH  59  76
ATOM     76  C   UNL A   1      47.097  27.298  25.869  1.00  0.00     0.057 A 
ATOM     77  C   UNL A   1      48.111  26.582  26.517  1.00  0.00     0.134 A 
ATOM     78  C   UNL A   1      47.222  27.489  24.485  1.00  0.00     0.134 A 
ATOM     79  F   UNL A   1      48.057  26.372  27.841  1.00  0.00    -0.206 F 
ATOM     80  C   UNL A   1      49.218  26.097  25.820  1.00  0.00     0.040 A 
ATOM     81  C   UNL A   1      48.306  26.978  23.773  1.00  0.00     0.040 A 
ATOM     82  F   UNL A   1      46.279  28.154  23.801  1.00  0.00    -0.206 F 
ATOM     83  C   UNL A   1      49.313  26.286  24.442  1.00  0.00     0.006 A 
ENDBRANCH  59  76
ENDBRANCH  33  34
ENDBRANCH  26  28
ENDBRANCH  25  26
ENDBRANCH  24  25
ENDBRANCH   1  24
TORSDOF 15
ENDMDL
MODEL 3
REMARK VINA RESULT:     -12.0      3.247      8.138
REMARK SMILES O=C(OCCOCCOC(=O)c1ccc(-c2c3nc(c(-c4c(F)cccc4F)c4ccc([nH]4)c(-c4c(F)cccc4F)c4nc(c(-c5c(F)cccc5F)c5ccc2[nH]5)C=C4)C=C3)cc1)C1=Cc2cc(Cl)cc(Cl)c2O[C@@H]1C(F)(F)F
REMARK SMILES IDX 7 1 6 2 5 3 4 4 3 5 2 6 1 7 66 8 67 9 77 10 68 11 76 12
REMARK SMILES IDX 69 13 75 14 70 15 73 16 71 17 72 18 74 19 78 20 79 21 80 22
REMARK SMILES IDX 81 23 8 24 9 25 10 26 11 27 12 28 13 29 65 30 14 31 64 32
REMARK SMILES IDX 15 33 16 34 17 35 58 36 18 37 63 38 57 39 59 40 19 41 62 42
REMARK SMILES IDX 56 43 55 44 20 46 46 47 29 48 45 49 30 50 33 51 44 52 60 53
REMARK SMILES IDX 31 54 32 55 43 57 61 58 34 59 21 60 22 61 27 62 23 63 24 64
REMARK SMILES IDX 26 65 28 66 25 67 47 68 48 69 53 70 49 71 50 72 52 73 54 74
REMARK SMILES IDX 51 75 35 76 36 77 41 78 37 79 38 80 40 81 42 82 39 83
REMARK H PARENT 59 45 33 56
REMARK Flexibility Score: inf
ROOT
ATOM      1  C   UNL A   1      31.411  32.391  26.718  1.00  0.00     0.202 C 
ENDROOT
BRANCH   1   2
ATOM      2  O   UNL A   1      31.605  30.995  26.458  1.00  0.00    -0.374 OA
BRANCH   2   3
ATOM      3  C   UNL A   1      32.532  29.881  27.109  1.00  0.00     0.202 C 
BRANCH   3   4
ATOM      4  C   UNL A   1      32.350  27.726  27.247  1.00  0.00     0.261 C 
BRANCH   4   5
ATOM      5  O   UNL A   1      31.514  26.814  26.316  1.00  0.00    -0.460 OA
BRANCH   5   6
ATOM      6  C   UNL A   1      31.838  25.522  26.425  1.00  0.00     0.338 C 
ATOM      7  O   UNL A   1      31.788  24.785  27.375  1.00  0.00    -0.246 OA
BRANCH   6   8
ATOM      8  C   UNL A   1      32.549  25.456  25.173  1.00  0.00     0.087 C 
ATOM      9  C   UNL A   1      34.028  25.398  25.401  1.00  0.00     0.027 C 
ATOM     10  C   UNL A   1      31.500  24.020  24.389  1.00  0.00     0.316 C 
ATOM     11  C   UNL A   1      35.023  23.888  25.157  1.00  0.00     0.020 A 
ATOM     12  O   UNL A   1      32.528  22.411  24.189  1.00  0.00    -0.474 OA
ATOM     13  C   UNL A   1      36.331  23.863  25.568  1.00  0.00     0.032 A 
ATOM     14  C   UNL A   1      34.290  22.402  24.644  1.00  0.00     0.146 A 
ATOM     15  C   UNL A   1      36.922  22.585  25.594  1.00  0.00     0.043 A 
ATOM     16  C   UNL A   1      34.901  21.202  24.884  1.00  0.00     0.085 A 
ATOM     17  Cl  UNL A   1      38.585  22.504  26.084  1.00  0.00    -0.084 Cl
ATOM     18  C   UNL A   1      36.240  21.329  25.323  1.00  0.00     0.045 A 
ATOM     19  Cl  UNL A   1      34.054  19.730  25.018  1.00  0.00    -0.080 Cl
BRANCH  10  20
ATOM     20  C   UNL A   1      30.656  24.811  23.321  1.00  0.00     0.430 C 
ATOM     21  F   UNL A   1      31.362  25.314  22.293  1.00  0.00    -0.167 F 
ATOM     22  F   UNL A   1      29.785  23.922  22.756  1.00  0.00    -0.167 F 
ATOM     23  F   UNL A   1      29.875  25.786  23.835  1.00  0.00    -0.167 F 
ENDBRANCH  10  20
ENDBRANCH   6   8
ENDBRANCH   5   6
ENDBRANCH   4   5
ENDBRANCH   3   4
ENDBRANCH   2   3
ENDBRANCH   1   2
BRANCH   1  24
ATOM     24  C   UNL A   1      32.674  33.099  27.202  1.00  0.00     0.261 C 
BRANCH  24  25
ATOM     25  O   UNL A   1      32.417  33.959  28.304  1.00  0.00    -0.460 OA
BRANCH  25  26
ATOM     26  C   UNL A   1      33.441  34.779  28.629  1.00  0.00     0.338 C 
ATOM     27  O   UNL A   1      33.477  35.995  28.581  1.00  0.00    -0.246 OA
BRANCH  26  28
ATOM     28  C   UNL A   1      34.566  33.941  29.075  1.00  0.00     0.060 A 
ATOM     29  C   UNL A   1      34.289  32.833  29.881  1.00  0.00     0.016 A 
ATOM     30  C   UNL A   1      35.877  34.226  28.665  1.00  0.00     0.016 A 
ATOM     31  C   UNL A   1      35.322  31.978  30.247  1.00  0.00     0.010 A 
ATOM     32  C   UNL A   1      36.908  33.370  29.025  1.00  0.00     0.010 A 
ATOM     33  C   UNL A   1      36.631  32.251  29.825  1.00  0.00    -0.014 A 
BRANCH  33  34
ATOM     34  C   UNL A   1      37.755  31.497  30.402  1.00  0.00     0.031 A 
ATOM     35  C   UNL A   1      38.126  31.807  31.818  1.00  0.00     0.074 A 
ATOM     36  C   UNL A   1      38.420  30.580  29.682  1.00  0.00     0.049 A 
ATOM     37  N   UNL A   1      39.068  31.291  32.558  1.00  0.00    -0.248 NA
ATOM     38  C   UNL A   1      37.325  32.847  32.489  1.00  0.00     0.031 C 
ATOM     39  C   UNL A   1      38.127  30.209  28.299  1.00  0.00     0.029 A 
ATOM     40  N   UNL A   1      39.494  29.800  30.021  1.00  0.00    -0.354 N 
ATOM     41  C   UNL A   1      38.961  31.930  33.785  1.00  0.00     0.074 A 
ATOM     42  C   UNL A   1      37.905  32.908  33.675  1.00  0.00     0.031 C 
ATOM     43  C   UNL A   1      39.007  29.273  27.903  1.00  0.00     0.029 A 
ATOM     44  C   UNL A   1      39.938  29.003  28.996  1.00  0.00     0.049 A 
ATOM     45  H   UNL A   1      39.907  29.809  30.914  1.00  0.00     0.167 HD
ATOM     46  C   UNL A   1      39.678  31.706  34.909  1.00  0.00     0.037 A 
ATOM     47  C   UNL A   1      40.992  28.164  28.954  1.00  0.00     0.037 A 
ATOM     48  C   UNL A   1      40.754  30.758  34.985  1.00  0.00     0.049 A 
ATOM     49  C   UNL A   1      41.834  28.000  30.193  1.00  0.00     0.074 A 
ATOM     50  C   UNL A   1      41.551  30.447  36.070  1.00  0.00     0.029 A 
ATOM     51  N   UNL A   1      41.198  29.986  33.920  1.00  0.00    -0.354 N 
ATOM     52  N   UNL A   1      41.693  28.560  31.372  1.00  0.00    -0.248 NA
ATOM     53  C   UNL A   1      42.977  27.082  30.102  1.00  0.00     0.031 C 
ATOM     54  C   UNL A   1      42.522  29.535  35.644  1.00  0.00     0.029 A 
ATOM     55  C   UNL A   1      42.281  29.222  34.314  1.00  0.00     0.049 A 
ATOM     56  H   UNL A   1      40.801  29.983  33.019  1.00  0.00     0.167 HD
ATOM     57  C   UNL A   1      42.702  28.035  32.170  1.00  0.00     0.074 A 
ATOM     58  C   UNL A   1      43.441  27.102  31.342  1.00  0.00     0.031 C 
ATOM     59  C   UNL A   1      42.992  28.293  33.470  1.00  0.00     0.037 A 
BRANCH  46  60
ATOM     60  C   UNL A   1      39.333  32.531  36.111  1.00  0.00     0.057 A 
ATOM     61  C   UNL A   1      38.382  32.111  37.051  1.00  0.00     0.134 A 
ATOM     62  C   UNL A   1      39.950  33.770  36.323  1.00  0.00     0.134 A 
ATOM     63  F   UNL A   1      37.735  30.946  36.891  1.00  0.00    -0.206 F 
ATOM     64  C   UNL A   1      38.036  32.906  38.144  1.00  0.00     0.040 A 
ATOM     65  C   UNL A   1      39.634  34.560  37.429  1.00  0.00     0.040 A 
ATOM     66  F   UNL A   1      40.862  34.235  35.458  1.00  0.00    -0.206 F 
ATOM     67  C   UNL A   1      38.669  34.132  38.338  1.00  0.00     0.006 A 
ENDBRANCH  46  60
BRANCH  47  68
ATOM     68  C   UNL A   1      41.315  27.419  27.709  1.00  0.00     0.057 A 
ATOM     69  C   UNL A   1      42.111  27.984  26.707  1.00  0.00     0.134 A 
ATOM     70  C   UNL A   1      40.804  26.135  27.474  1.00  0.00     0.134 A 
ATOM     71  F   UNL A   1      42.616  29.217  26.862  1.00  0.00    -0.206 F 
ATOM     72  C   UNL A   1      42.363  27.317  25.506  1.00  0.00     0.040 A 
ATOM     73  C   UNL A   1      41.072  25.445  26.291  1.00  0.00     0.040 A 
ATOM     74  F   UNL A   1      40.037  25.531  28.395  1.00  0.00    -0.206 F 
ATOM     75  C   UNL A   1      41.844  26.041  25.297  1.00  0.00     0.006 A 
ENDBRANCH  47  68
BRANCH  59  76
ATOM     76  C   UNL A   1      44.124  27.525  34.092  1.00  0.00     0.057 A 
ATOM     77  C   UNL A   1      43.945  26.252  34.647  1.00  0.00     0.134 A 
ATOM     78  C   UNL A   1      45.425  28.048  34.077  1.00  0.00     0.134 A 
ATOM     79  F   UNL A   1      42.724  25.698  34.702  1.00  0.00    -0.206 F 
ATOM     80  C   UNL A   1      45.014  25.538  35.189  1.00  0.00     0.040 A 
ATOM     81  C   UNL A   1      46.506  27.328  34.583  1.00  0.00     0.040 A 
ATOM     82  F   UNL A   1      45.668  29.256  33.547  1.00  0.00    -0.206 F 
ATOM     83  C   UNL A   1      46.301  26.072  35.148  1.00  0.00     0.006 A 
ENDBRANCH  59  76
ENDBRANCH  33  34
ENDBRANCH  26  28
ENDBRANCH  25  26
ENDBRANCH  24  25
ENDBRANCH   1  24
TORSDOF 15
ENDMDL
