MODEL 1
REMARK VINA RESULT:      -9.5      0.000      0.000
REMARK SMILES CN(CC1CCC1)C(=O)N(CC(=O)OCCOCCOC(=O)c1ccc(-c2c3nc(c(-c4c(F)cccc4F)c4ccc([nH]4)c(-c4c(F)cccc4F)c4nc(c(-c5c(F)cccc5F)c5ccc2[nH]5)C=C4)C=C3)cc1)C(C)(C)C
REMARK SMILES IDX 15 1 14 2 12 3 13 4 11 5 10 6 8 7 9 8 2 9 1 10 3 11 4 12
REMARK SMILES IDX 5 13 7 14 6 15 77 16 78 17 79 18 80 19 16 20 17 21 18 22
REMARK SMILES IDX 19 23 20 24 21 25 22 26 23 27 24 28 76 29 25 30 75 31 26 32
REMARK SMILES IDX 27 33 28 34 69 35 29 36 74 37 68 38 70 39 30 40 73 41 67 42
REMARK SMILES IDX 66 43 31 45 57 46 40 47 56 48 41 49 44 50 55 51 71 52 42 53
REMARK SMILES IDX 43 54 54 56 72 57 45 58 32 59 33 60 38 61 34 62 35 63 37 64
REMARK SMILES IDX 39 65 36 66 58 67 59 68 64 69 60 70 61 71 63 72 65 73 62 74
REMARK SMILES IDX 46 75 47 76 52 77 48 78 49 79 51 80 53 81 50 82
REMARK H PARENT 70 44 44 55
REMARK Flexibility Score: inf
ROOT
ATOM      1  C   UNL A   1      31.608  28.047  26.014  1.00  0.00     0.261 C 
ENDROOT
BRANCH   1   2
ATOM      2  O   UNL A   1      32.271  26.768  26.225  1.00  0.00    -0.462 OA
BRANCH   2   3
ATOM      3  C   UNL A   1      31.418  25.708  26.334  1.00  0.00     0.325 C 
ATOM      4  O   UNL A   1      30.205  25.834  26.499  1.00  0.00    -0.250 OA
BRANCH   3   5
ATOM      5  C   UNL A   1      32.047  24.314  26.141  1.00  0.00     0.244 C 
BRANCH   5   6
ATOM      6  N   UNL A   1      33.116  24.077  25.159  1.00  0.00    -0.309 N 
BRANCH   6   7
ATOM      7  C   UNL A   1      34.403  23.625  25.444  1.00  0.00     0.320 C 
ATOM      8  O   UNL A   1      35.332  24.443  25.500  1.00  0.00    -0.248 OA
BRANCH   7   9
ATOM      9  N   UNL A   1      34.750  22.295  25.600  1.00  0.00    -0.327 N 
ATOM     10  C   UNL A   1      36.204  22.072  25.614  1.00  0.00     0.148 C 
BRANCH   9  11
ATOM     11  C   UNL A   1      33.968  21.087  25.846  1.00  0.00     0.124 C 
BRANCH  11  12
ATOM     12  C   UNL A   1      33.950  20.183  24.609  1.00  0.00     0.008 C 
ATOM     13  C   UNL A   1      34.083  18.633  24.631  1.00  0.00     0.005 C 
ATOM     14  C   UNL A   1      32.528  19.979  24.019  1.00  0.00     0.005 C 
ATOM     15  C   UNL A   1      32.564  18.519  24.494  1.00  0.00     0.001 C 
ENDBRANCH  11  12
ENDBRANCH   9  11
ENDBRANCH   7   9
ENDBRANCH   6   7
BRANCH   6  16
ATOM     16  C   UNL A   1      32.720  24.104  23.683  1.00  0.00     0.037 C 
ATOM     17  C   UNL A   1      31.301  23.522  23.479  1.00  0.00     0.034 C 
ATOM     18  C   UNL A   1      32.790  25.553  23.138  1.00  0.00     0.034 C 
ATOM     19  C   UNL A   1      33.660  23.296  22.752  1.00  0.00     0.034 C 
ENDBRANCH   6  16
ENDBRANCH   5   6
ENDBRANCH   3   5
ENDBRANCH   2   3
ENDBRANCH   1   2
BRANCH   1  20
ATOM     20  C   UNL A   1      32.205  29.183  26.859  1.00  0.00     0.202 C 
BRANCH  20  21
ATOM     21  O   UNL A   1      32.427  30.417  26.168  1.00  0.00    -0.374 OA
BRANCH  21  22
ATOM     22  C   UNL A   1      31.360  31.356  26.206  1.00  0.00     0.202 C 
BRANCH  22  23
ATOM     23  C   UNL A   1      31.761  32.806  26.498  1.00  0.00     0.261 C 
BRANCH  23  24
ATOM     24  O   UNL A   1      32.180  33.016  27.857  1.00  0.00    -0.460 OA
BRANCH  24  25
ATOM     25  C   UNL A   1      33.244  33.838  27.985  1.00  0.00     0.338 C 
ATOM     26  O   UNL A   1      33.229  35.064  28.018  1.00  0.00    -0.246 OA
BRANCH  25  27
ATOM     27  C   UNL A   1      34.498  33.090  28.188  1.00  0.00     0.060 A 
ATOM     28  C   UNL A   1      34.371  31.737  28.524  1.00  0.00     0.016 A 
ATOM     29  C   UNL A   1      35.745  33.719  28.239  1.00  0.00     0.016 A 
ATOM     30  C   UNL A   1      35.466  31.038  29.021  1.00  0.00     0.010 A 
ATOM     31  C   UNL A   1      36.848  33.012  28.740  1.00  0.00     0.010 A 
ATOM     32  C   UNL A   1      36.694  31.690  29.197  1.00  0.00    -0.014 A 
BRANCH  32  33
ATOM     33  C   UNL A   1      37.715  31.038  30.057  1.00  0.00     0.031 A 
ATOM     34  C   UNL A   1      38.668  30.049  29.434  1.00  0.00     0.074 A 
ATOM     35  C   UNL A   1      37.867  31.394  31.344  1.00  0.00     0.049 A 
ATOM     36  N   UNL A   1      39.704  29.446  29.961  1.00  0.00    -0.248 NA
ATOM     37  C   UNL A   1      38.423  29.700  28.026  1.00  0.00     0.031 C 
ATOM     38  C   UNL A   1      37.035  32.358  32.058  1.00  0.00     0.029 A 
ATOM     39  N   UNL A   1      38.794  30.991  32.273  1.00  0.00    -0.354 N 
ATOM     40  C   UNL A   1      40.232  28.650  28.952  1.00  0.00     0.074 A 
ATOM     41  C   UNL A   1      39.384  28.818  27.792  1.00  0.00     0.031 C 
ATOM     42  C   UNL A   1      37.493  32.479  33.316  1.00  0.00     0.029 A 
ATOM     43  C   UNL A   1      38.643  31.594  33.497  1.00  0.00     0.049 A 
ATOM     44  H   UNL A   1      39.500  30.332  32.080  1.00  0.00     0.167 HD
ATOM     45  C   UNL A   1      41.334  27.863  28.978  1.00  0.00     0.037 A 
ATOM     46  C   UNL A   1      39.355  31.452  34.631  1.00  0.00     0.037 A 
ATOM     47  C   UNL A   1      42.185  27.693  30.125  1.00  0.00     0.049 A 
ATOM     48  C   UNL A   1      40.556  30.545  34.649  1.00  0.00     0.074 A 
ATOM     49  C   UNL A   1      43.330  26.924  30.246  1.00  0.00     0.029 A 
ATOM     50  N   UNL A   1      41.979  28.301  31.353  1.00  0.00    -0.354 N 
ATOM     51  N   UNL A   1      41.065  29.826  33.678  1.00  0.00    -0.248 NA
ATOM     52  C   UNL A   1      41.291  30.442  35.919  1.00  0.00     0.031 C 
ATOM     53  C   UNL A   1      43.798  27.040  31.560  1.00  0.00     0.029 A 
ATOM     54  C   UNL A   1      42.966  27.912  32.244  1.00  0.00     0.049 A 
ATOM     55  H   UNL A   1      41.241  28.918  31.562  1.00  0.00     0.167 HD
ATOM     56  C   UNL A   1      42.192  29.209  34.209  1.00  0.00     0.074 A 
ATOM     57  C   UNL A   1      42.297  29.645  35.586  1.00  0.00     0.031 C 
ATOM     58  C   UNL A   1      43.063  28.361  33.610  1.00  0.00     0.037 A 
BRANCH  45  59
ATOM     59  C   UNL A   1      41.665  27.108  27.724  1.00  0.00     0.057 A 
ATOM     60  C   UNL A   1      42.440  27.676  26.704  1.00  0.00     0.134 A 
ATOM     61  C   UNL A   1      41.215  25.796  27.540  1.00  0.00     0.134 A 
ATOM     62  F   UNL A   1      42.892  28.934  26.814  1.00  0.00    -0.206 F 
ATOM     63  C   UNL A   1      42.732  26.973  25.533  1.00  0.00     0.040 A 
ATOM     64  C   UNL A   1      41.518  25.075  26.383  1.00  0.00     0.040 A 
ATOM     65  F   UNL A   1      40.472  25.192  28.480  1.00  0.00    -0.206 F 
ATOM     66  C   UNL A   1      42.273  25.667  25.373  1.00  0.00     0.006 A 
ENDBRANCH  45  59
BRANCH  46  67
ATOM     67  C   UNL A   1      38.959  32.205  35.846  1.00  0.00     0.057 A 
ATOM     68  C   UNL A   1      38.190  31.611  36.852  1.00  0.00     0.134 A 
ATOM     69  C   UNL A   1      39.343  33.539  36.027  1.00  0.00     0.134 A 
ATOM     70  F   UNL A   1      37.774  30.343  36.724  1.00  0.00    -0.206 F 
ATOM     71  C   UNL A   1      37.807  32.320  37.991  1.00  0.00     0.040 A 
ATOM     72  C   UNL A   1      38.985  34.254  37.171  1.00  0.00     0.040 A 
ATOM     73  F   UNL A   1      40.081  34.163  35.098  1.00  0.00    -0.206 F 
ATOM     74  C   UNL A   1      38.210  33.644  38.156  1.00  0.00     0.006 A 
ENDBRANCH  46  67
BRANCH  58  75
ATOM     75  C   UNL A   1      44.223  27.876  34.426  1.00  0.00     0.057 A 
ATOM     76  C   UNL A   1      44.162  26.687  35.163  1.00  0.00     0.134 A 
ATOM     77  C   UNL A   1      45.430  28.588  34.442  1.00  0.00     0.134 A 
ATOM     78  F   UNL A   1      43.032  25.965  35.197  1.00  0.00    -0.206 F 
ATOM     79  C   UNL A   1      45.254  26.235  35.906  1.00  0.00     0.040 A 
ATOM     80  C   UNL A   1      46.534  28.134  35.164  1.00  0.00     0.040 A 
ATOM     81  F   UNL A   1      45.556  29.729  33.749  1.00  0.00    -0.206 F 
ATOM     82  C   UNL A   1      46.447  26.957  35.903  1.00  0.00     0.006 A 
ENDBRANCH  58  75
ENDBRANCH  32  33
ENDBRANCH  25  27
ENDBRANCH  24  25
ENDBRANCH  23  24
ENDBRANCH  22  23
ENDBRANCH  21  22
ENDBRANCH  20  21
ENDBRANCH   1  20
TORSDOF 20
ENDMDL
MODEL 2
REMARK VINA RESULT:      -9.3      3.872      8.927
REMARK SMILES CN(CC1CCC1)C(=O)N(CC(=O)OCCOCCOC(=O)c1ccc(-c2c3nc(c(-c4c(F)cccc4F)c4ccc([nH]4)c(-c4c(F)cccc4F)c4nc(c(-c5c(F)cccc5F)c5ccc2[nH]5)C=C4)C=C3)cc1)C(C)(C)C
REMARK SMILES IDX 15 1 14 2 12 3 13 4 11 5 10 6 8 7 9 8 2 9 1 10 3 11 4 12
REMARK SMILES IDX 5 13 7 14 6 15 77 16 78 17 79 18 80 19 16 20 17 21 18 22
REMARK SMILES IDX 19 23 20 24 21 25 22 26 23 27 24 28 76 29 25 30 75 31 26 32
REMARK SMILES IDX 27 33 28 34 69 35 29 36 74 37 68 38 70 39 30 40 73 41 67 42
REMARK SMILES IDX 66 43 31 45 57 46 40 47 56 48 41 49 44 50 55 51 71 52 42 53
REMARK SMILES IDX 43 54 54 56 72 57 45 58 32 59 33 60 38 61 34 62 35 63 37 64
REMARK SMILES IDX 39 65 36 66 58 67 59 68 64 69 60 70 61 71 63 72 65 73 62 74
REMARK SMILES IDX 46 75 47 76 52 77 48 78 49 79 51 80 53 81 50 82
REMARK H PARENT 70 44 44 55
REMARK Flexibility Score: inf
ROOT
ATOM      1  C   UNL A   1      35.795  23.304  25.656  1.00  0.00     0.261 C 
ENDROOT
BRANCH   1   2
ATOM      2  O   UNL A   1      34.774  24.306  25.389  1.00  0.00    -0.462 OA
BRANCH   2   3
ATOM      3  C   UNL A   1      34.490  24.475  24.065  1.00  0.00     0.325 C 
ATOM      4  O   UNL A   1      35.042  23.835  23.171  1.00  0.00    -0.250 OA
BRANCH   3   5
ATOM      5  C   UNL A   1      33.349  25.460  23.740  1.00  0.00     0.244 C 
BRANCH   5   6
ATOM      6  N   UNL A   1      32.379  25.884  24.761  1.00  0.00    -0.309 N 
BRANCH   6   7
ATOM      7  C   UNL A   1      32.446  27.051  25.519  1.00  0.00     0.320 C 
ATOM      8  O   UNL A   1      32.403  26.972  26.755  1.00  0.00    -0.248 OA
BRANCH   7   9
ATOM      9  N   UNL A   1      32.483  28.328  24.990  1.00  0.00    -0.327 N 
ATOM     10  C   UNL A   1      33.321  29.256  25.765  1.00  0.00     0.148 C 
BRANCH   9  11
ATOM     11  C   UNL A   1      31.935  28.914  23.769  1.00  0.00     0.124 C 
BRANCH  11  12
ATOM     12  C   UNL A   1      30.407  28.997  23.838  1.00  0.00     0.008 C 
ATOM     13  C   UNL A   1      29.568  30.277  23.556  1.00  0.00     0.005 C 
ATOM     14  C   UNL A   1      29.702  28.354  22.613  1.00  0.00     0.005 C 
ATOM     15  C   UNL A   1      29.279  29.754  22.148  1.00  0.00     0.001 C 
ENDBRANCH  11  12
ENDBRANCH   9  11
ENDBRANCH   7   9
ENDBRANCH   6   7
BRANCH   6  16
ATOM     16  C   UNL A   1      31.069  25.102  24.838  1.00  0.00     0.037 C 
ATOM     17  C   UNL A   1      30.605  24.656  23.431  1.00  0.00     0.034 C 
ATOM     18  C   UNL A   1      31.234  23.870  25.764  1.00  0.00     0.034 C 
ATOM     19  C   UNL A   1      29.886  25.892  25.456  1.00  0.00     0.034 C 
ENDBRANCH   6  16
ENDBRANCH   5   6
ENDBRANCH   3   5
ENDBRANCH   2   3
ENDBRANCH   1   2
BRANCH   1  20
ATOM     20  C   UNL A   1      35.218  21.975  26.166  1.00  0.00     0.202 C 
BRANCH  20  21
ATOM     21  O   UNL A   1      35.607  20.808  25.432  1.00  0.00    -0.374 OA
BRANCH  21  22
ATOM     22  C   UNL A   1      36.743  20.951  24.589  1.00  0.00     0.202 C 
BRANCH  22  23
ATOM     23  C   UNL A   1      37.987  20.161  25.011  1.00  0.00     0.261 C 
BRANCH  23  24
ATOM     24  O   UNL A   1      38.879  20.914  25.850  1.00  0.00    -0.460 OA
BRANCH  24  25
ATOM     25  C   UNL A   1      40.085  20.334  26.031  1.00  0.00     0.338 C 
ATOM     26  O   UNL A   1      40.398  19.180  25.755  1.00  0.00    -0.246 OA
BRANCH  25  27
ATOM     27  C   UNL A   1      41.087  21.290  26.536  1.00  0.00     0.060 A 
ATOM     28  C   UNL A   1      41.051  21.567  27.908  1.00  0.00     0.016 A 
ATOM     29  C   UNL A   1      41.906  22.036  25.684  1.00  0.00     0.016 A 
ATOM     30  C   UNL A   1      41.744  22.660  28.416  1.00  0.00     0.010 A 
ATOM     31  C   UNL A   1      42.606  23.138  26.198  1.00  0.00     0.010 A 
ATOM     32  C   UNL A   1      42.471  23.493  27.553  1.00  0.00    -0.014 A 
BRANCH  32  33
ATOM     33  C   UNL A   1      42.881  24.830  28.053  1.00  0.00     0.031 A 
ATOM     34  C   UNL A   1      41.823  25.881  28.273  1.00  0.00     0.074 A 
ATOM     35  C   UNL A   1      44.153  25.078  28.408  1.00  0.00     0.049 A 
ATOM     36  N   UNL A   1      41.931  27.073  28.805  1.00  0.00    -0.248 NA
ATOM     37  C   UNL A   1      40.458  25.538  27.842  1.00  0.00     0.031 C 
ATOM     38  C   UNL A   1      45.265  24.140  28.275  1.00  0.00     0.029 A 
ATOM     39  N   UNL A   1      44.717  26.196  28.971  1.00  0.00    -0.354 N 
ATOM     40  C   UNL A   1      40.653  27.618  28.773  1.00  0.00     0.074 A 
ATOM     41  C   UNL A   1      39.792  26.644  28.139  1.00  0.00     0.031 C 
ATOM     42  C   UNL A   1      46.381  24.721  28.751  1.00  0.00     0.029 A 
ATOM     43  C   UNL A   1      46.063  26.071  29.211  1.00  0.00     0.049 A 
ATOM     44  H   UNL A   1      44.205  27.011  29.181  1.00  0.00     0.167 HD
ATOM     45  C   UNL A   1      40.227  28.814  29.244  1.00  0.00     0.037 A 
ATOM     46  C   UNL A   1      46.936  26.946  29.747  1.00  0.00     0.037 A 
ATOM     47  C   UNL A   1      41.075  29.787  29.880  1.00  0.00     0.049 A 
ATOM     48  C   UNL A   1      46.447  28.284  30.233  1.00  0.00     0.074 A 
ATOM     49  C   UNL A   1      40.733  31.024  30.399  1.00  0.00     0.029 A 
ATOM     50  N   UNL A   1      42.437  29.631  30.078  1.00  0.00    -0.354 N 
ATOM     51  N   UNL A   1      45.231  28.773  30.230  1.00  0.00    -0.248 NA
ATOM     52  C   UNL A   1      47.454  29.186  30.813  1.00  0.00     0.031 C 
ATOM     53  C   UNL A   1      41.898  31.632  30.882  1.00  0.00     0.029 A 
ATOM     54  C   UNL A   1      42.956  30.757  30.698  1.00  0.00     0.049 A 
ATOM     55  H   UNL A   1      42.960  28.839  29.818  1.00  0.00     0.167 HD
ATOM     56  C   UNL A   1      45.320  30.024  30.829  1.00  0.00     0.074 A 
ATOM     57  C   UNL A   1      46.709  30.216  31.191  1.00  0.00     0.031 C 
ATOM     58  C   UNL A   1      44.340  30.930  31.061  1.00  0.00     0.037 A 
BRANCH  45  59
ATOM     59  C   UNL A   1      38.773  29.141  29.067  1.00  0.00     0.057 A 
ATOM     60  C   UNL A   1      38.250  29.528  27.826  1.00  0.00     0.134 A 
ATOM     61  C   UNL A   1      37.885  29.058  30.146  1.00  0.00     0.134 A 
ATOM     62  F   UNL A   1      39.051  29.639  26.756  1.00  0.00    -0.206 F 
ATOM     63  C   UNL A   1      36.899  29.846  27.672  1.00  0.00     0.040 A 
ATOM     64  C   UNL A   1      36.529  29.353  29.999  1.00  0.00     0.040 A 
ATOM     65  F   UNL A   1      38.321  28.690  31.360  1.00  0.00    -0.206 F 
ATOM     66  C   UNL A   1      36.034  29.754  28.760  1.00  0.00     0.006 A 
ENDBRANCH  45  59
BRANCH  46  67
ATOM     67  C   UNL A   1      48.366  26.574  29.869  1.00  0.00     0.057 A 
ATOM     68  C   UNL A   1      49.287  26.880  28.861  1.00  0.00     0.134 A 
ATOM     69  C   UNL A   1      48.845  25.901  31.000  1.00  0.00     0.134 A 
ATOM     70  F   UNL A   1      48.883  27.503  27.745  1.00  0.00    -0.206 F 
ATOM     71  C   UNL A   1      50.631  26.522  28.968  1.00  0.00     0.040 A 
ATOM     72  C   UNL A   1      50.191  25.556  31.130  1.00  0.00     0.040 A 
ATOM     73  F   UNL A   1      48.012  25.581  32.000  1.00  0.00    -0.206 F 
ATOM     74  C   UNL A   1      51.088  25.863  30.108  1.00  0.00     0.006 A 
ENDBRANCH  46  67
BRANCH  58  75
ATOM     75  C   UNL A   1      44.725  32.195  31.768  1.00  0.00     0.057 A 
ATOM     76  C   UNL A   1      44.722  32.290  33.165  1.00  0.00     0.134 A 
ATOM     77  C   UNL A   1      45.141  33.319  31.042  1.00  0.00     0.134 A 
ATOM     78  F   UNL A   1      44.323  31.253  33.917  1.00  0.00    -0.206 F 
ATOM     79  C   UNL A   1      45.098  33.468  33.815  1.00  0.00     0.040 A 
ATOM     80  C   UNL A   1      45.540  34.493  31.682  1.00  0.00     0.040 A 
ATOM     81  F   UNL A   1      45.176  33.289  29.702  1.00  0.00    -0.206 F 
ATOM     82  C   UNL A   1      45.514  34.572  33.072  1.00  0.00     0.006 A 
ENDBRANCH  58  75
ENDBRANCH  32  33
ENDBRANCH  25  27
ENDBRANCH  24  25
ENDBRANCH  23  24
ENDBRANCH  22  23
ENDBRANCH  21  22
ENDBRANCH  20  21
ENDBRANCH   1  20
TORSDOF 20
ENDMDL
MODEL 3
REMARK VINA RESULT:      -9.3      4.549      9.501
REMARK SMILES CN(CC1CCC1)C(=O)N(CC(=O)OCCOCCOC(=O)c1ccc(-c2c3nc(c(-c4c(F)cccc4F)c4ccc([nH]4)c(-c4c(F)cccc4F)c4nc(c(-c5c(F)cccc5F)c5ccc2[nH]5)C=C4)C=C3)cc1)C(C)(C)C
REMARK SMILES IDX 15 1 14 2 12 3 13 4 11 5 10 6 8 7 9 8 2 9 1 10 3 11 4 12
REMARK SMILES IDX 5 13 7 14 6 15 77 16 78 17 79 18 80 19 16 20 17 21 18 22
REMARK SMILES IDX 19 23 20 24 21 25 22 26 23 27 24 28 76 29 25 30 75 31 26 32
REMARK SMILES IDX 27 33 28 34 69 35 29 36 74 37 68 38 70 39 30 40 73 41 67 42
REMARK SMILES IDX 66 43 31 45 57 46 40 47 56 48 41 49 44 50 55 51 71 52 42 53
REMARK SMILES IDX 43 54 54 56 72 57 45 58 32 59 33 60 38 61 34 62 35 63 37 64
REMARK SMILES IDX 39 65 36 66 58 67 59 68 64 69 60 70 61 71 63 72 65 73 62 74
REMARK SMILES IDX 46 75 47 76 52 77 48 78 49 79 51 80 53 81 50 82
REMARK H PARENT 70 44 44 55
REMARK Flexibility Score: inf
ROOT
ATOM      1  C   UNL A   1      36.258  22.176  25.317  1.00  0.00     0.261 C 
ENDROOT
BRANCH   1   2
ATOM      2  O   UNL A   1      35.518  21.605  26.432  1.00  0.00    -0.462 OA
BRANCH   2   3
ATOM      3  C   UNL A   1      34.385  22.292  26.760  1.00  0.00     0.325 C 
ATOM      4  O   UNL A   1      33.752  22.091  27.796  1.00  0.00    -0.250 OA
BRANCH   3   5
ATOM      5  C   UNL A   1      33.979  23.424  25.796  1.00  0.00     0.244 C 
BRANCH   5   6
ATOM      6  N   UNL A   1      32.996  23.210  24.723  1.00  0.00    -0.309 N 
BRANCH   6   7
ATOM      7  C   UNL A   1      33.141  22.342  23.642  1.00  0.00     0.320 C 
ATOM      8  O   UNL A   1      33.572  22.784  22.567  1.00  0.00    -0.248 OA
BRANCH   7   9
ATOM      9  N   UNL A   1      32.764  21.011  23.648  1.00  0.00    -0.327 N 
ATOM     10  C   UNL A   1      32.016  20.613  22.446  1.00  0.00     0.148 C 
BRANCH   9  11
ATOM     11  C   UNL A   1      33.040  19.905  24.561  1.00  0.00     0.124 C 
BRANCH  11  12
ATOM     12  C   UNL A   1      32.621  18.567  23.944  1.00  0.00     0.008 C 
ATOM     13  C   UNL A   1      33.584  17.560  23.252  1.00  0.00     0.005 C 
ATOM     14  C   UNL A   1      32.346  17.464  25.002  1.00  0.00     0.005 C 
ATOM     15  C   UNL A   1      33.614  16.733  24.538  1.00  0.00     0.001 C 
ENDBRANCH  11  12
ENDBRANCH   9  11
ENDBRANCH   7   9
ENDBRANCH   6   7
BRANCH   6  16
ATOM     16  C   UNL A   1      31.605  23.807  24.928  1.00  0.00     0.037 C 
ATOM     17  C   UNL A   1      30.790  22.980  25.950  1.00  0.00     0.034 C 
ATOM     18  C   UNL A   1      31.720  25.280  25.399  1.00  0.00     0.034 C 
ATOM     19  C   UNL A   1      30.742  23.880  23.642  1.00  0.00     0.034 C 
ENDBRANCH   6  16
ENDBRANCH   5   6
ENDBRANCH   3   5
ENDBRANCH   2   3
ENDBRANCH   1   2
BRANCH   1  20
ATOM     20  C   UNL A   1      37.267  21.197  24.696  1.00  0.00     0.202 C 
BRANCH  20  21
ATOM     21  O   UNL A   1      37.055  19.814  25.003  1.00  0.00    -0.374 OA
BRANCH  21  22
ATOM     22  C   UNL A   1      38.209  18.985  24.978  1.00  0.00     0.202 C 
BRANCH  22  23
ATOM     23  C   UNL A   1      39.293  19.323  26.008  1.00  0.00     0.261 C 
BRANCH  23  24
ATOM     24  O   UNL A   1      40.620  19.316  25.456  1.00  0.00    -0.460 OA
BRANCH  24  25
ATOM     25  C   UNL A   1      41.590  19.604  26.352  1.00  0.00     0.338 C 
ATOM     26  O   UNL A   1      42.513  18.874  26.699  1.00  0.00    -0.246 OA
BRANCH  25  27
ATOM     27  C   UNL A   1      41.496  20.991  26.841  1.00  0.00     0.060 A 
ATOM     28  C   UNL A   1      41.038  21.947  25.927  1.00  0.00     0.016 A 
ATOM     29  C   UNL A   1      42.013  21.384  28.079  1.00  0.00     0.016 A 
ATOM     30  C   UNL A   1      41.198  23.301  26.197  1.00  0.00     0.010 A 
ATOM     31  C   UNL A   1      42.173  22.752  28.350  1.00  0.00     0.010 A 
ATOM     32  C   UNL A   1      41.829  23.712  27.380  1.00  0.00    -0.014 A 
BRANCH  32  33
ATOM     33  C   UNL A   1      42.311  25.114  27.465  1.00  0.00     0.031 A 
ATOM     34  C   UNL A   1      41.448  26.139  28.156  1.00  0.00     0.074 A 
ATOM     35  C   UNL A   1      43.537  25.454  27.033  1.00  0.00     0.049 A 
ATOM     36  N   UNL A   1      41.711  27.388  28.448  1.00  0.00    -0.248 NA
ATOM     37  C   UNL A   1      40.113  25.692  28.584  1.00  0.00     0.031 C 
ATOM     38  C   UNL A   1      44.481  24.554  26.376  1.00  0.00     0.029 A 
ATOM     39  N   UNL A   1      44.203  26.653  27.102  1.00  0.00    -0.354 N 
ATOM     40  C   UNL A   1      40.578  27.874  29.091  1.00  0.00     0.074 A 
ATOM     41  C   UNL A   1      39.612  26.797  29.117  1.00  0.00     0.031 C 
ATOM     42  C   UNL A   1      45.610  25.231  26.107  1.00  0.00     0.029 A 
ATOM     43  C   UNL A   1      45.464  26.613  26.563  1.00  0.00     0.049 A 
ATOM     44  H   UNL A   1      43.812  27.465  27.500  1.00  0.00     0.167 HD
ATOM     45  C   UNL A   1      40.364  29.098  29.628  1.00  0.00     0.037 A 
ATOM     46  C   UNL A   1      46.396  27.579  26.456  1.00  0.00     0.037 A 
ATOM     47  C   UNL A   1      41.320  30.173  29.610  1.00  0.00     0.049 A 
ATOM     48  C   UNL A   1      46.124  28.944  27.030  1.00  0.00     0.074 A 
ATOM     49  C   UNL A   1      41.198  31.447  30.137  1.00  0.00     0.029 A 
ATOM     50  N   UNL A   1      42.575  30.098  29.029  1.00  0.00    -0.354 N 
ATOM     51  N   UNL A   1      45.064  29.379  27.666  1.00  0.00    -0.248 NA
ATOM     52  C   UNL A   1      47.188  29.949  26.882  1.00  0.00     0.031 C 
ATOM     53  C   UNL A   1      42.370  32.155  29.844  1.00  0.00     0.029 A 
ATOM     54  C   UNL A   1      43.234  31.308  29.169  1.00  0.00     0.049 A 
ATOM     55  H   UNL A   1      42.946  29.302  28.582  1.00  0.00     0.167 HD
ATOM     56  C   UNL A   1      45.342  30.694  28.019  1.00  0.00     0.074 A 
ATOM     57  C   UNL A   1      46.675  30.984  27.533  1.00  0.00     0.031 C 
ATOM     58  C   UNL A   1      44.565  31.580  28.688  1.00  0.00     0.037 A 
BRANCH  45  59
ATOM     59  C   UNL A   1      39.027  29.342  30.264  1.00  0.00     0.057 A 
ATOM     60  C   UNL A   1      37.930  29.801  29.524  1.00  0.00     0.134 A 
ATOM     61  C   UNL A   1      38.831  29.104  31.630  1.00  0.00     0.134 A 
ATOM     62  F   UNL A   1      38.055  30.061  28.214  1.00  0.00    -0.206 F 
ATOM     63  C   UNL A   1      36.693  30.042  30.125  1.00  0.00     0.040 A 
ATOM     64  C   UNL A   1      37.594  29.319  32.239  1.00  0.00     0.040 A 
ATOM     65  F   UNL A   1      39.839  28.659  32.395  1.00  0.00    -0.206 F 
ATOM     66  C   UNL A   1      36.522  29.796  31.487  1.00  0.00     0.006 A 
ENDBRANCH  45  59
BRANCH  46  67
ATOM     67  C   UNL A   1      47.688  27.283  25.790  1.00  0.00     0.057 A 
ATOM     68  C   UNL A   1      48.816  26.903  26.526  1.00  0.00     0.134 A 
ATOM     69  C   UNL A   1      47.823  27.375  24.400  1.00  0.00     0.134 A 
ATOM     70  F   UNL A   1      48.753  26.820  27.863  1.00  0.00    -0.206 F 
ATOM     71  C   UNL A   1      50.035  26.634  25.904  1.00  0.00     0.040 A 
ATOM     72  C   UNL A   1      49.031  27.088  23.762  1.00  0.00     0.040 A 
ATOM     73  F   UNL A   1      46.778  27.734  23.640  1.00  0.00    -0.206 F 
ATOM     74  C   UNL A   1      50.144  26.720  24.518  1.00  0.00     0.006 A 
ENDBRANCH  46  67
BRANCH  58  75
ATOM     75  C   UNL A   1      45.146  32.934  28.965  1.00  0.00     0.057 A 
ATOM     76  C   UNL A   1      45.918  33.187  30.105  1.00  0.00     0.134 A 
ATOM     77  C   UNL A   1      44.965  33.987  28.058  1.00  0.00     0.134 A 
ATOM     78  F   UNL A   1      46.120  32.225  31.018  1.00  0.00    -0.206 F 
ATOM     79  C   UNL A   1      46.469  34.447  30.346  1.00  0.00     0.040 A 
ATOM     80  C   UNL A   1      45.529  35.243  28.277  1.00  0.00     0.040 A 
ATOM     81  F   UNL A   1      44.245  33.806  26.941  1.00  0.00    -0.206 F 
ATOM     82  C   UNL A   1      46.280  35.478  29.427  1.00  0.00     0.006 A 
ENDBRANCH  58  75
ENDBRANCH  32  33
ENDBRANCH  25  27
ENDBRANCH  24  25
ENDBRANCH  23  24
ENDBRANCH  22  23
ENDBRANCH  21  22
ENDBRANCH  20  21
ENDBRANCH   1  20
TORSDOF 20
ENDMDL
