MODEL 1
REMARK VINA RESULT:     -10.8      0.000      0.000
REMARK SMILES Cc1ccc(O[C@H](C)C(=O)Nc2ccsc2C(=O)OCCOCCOC(=O)c2ccc(-c3c4nc(c(-c5c(F)cccc5F)c5ccc([nH]5)c(-c5c(F)cccc5F)c5nc(c(-c6c(F)cccc6F)c6ccc3[nH]6)C=C5)C=C4)cc2)cc1
REMARK SMILES IDX 21 1 20 2 19 3 17 4 18 5 16 6 12 7 13 8 14 9 15 10 11 11
REMARK SMILES IDX 9 12 10 13 7 15 8 16 6 17 5 18 1 19 2 20 3 21 83 22 4 23
REMARK SMILES IDX 82 24 22 25 23 26 24 27 25 28 26 29 27 30 28 31 29 32 81 33
REMARK SMILES IDX 30 34 80 35 31 36 32 37 33 38 74 39 34 40 79 41 73 42 75 43
REMARK SMILES IDX 35 44 78 45 72 46 71 47 36 49 62 50 45 51 61 52 46 53 49 54
REMARK SMILES IDX 60 55 76 56 47 57 48 58 59 60 77 61 50 62 37 63 38 64 43 65
REMARK SMILES IDX 39 66 40 67 42 68 44 69 41 70 63 71 64 72 69 73 65 74 66 75
REMARK SMILES IDX 68 76 70 77 67 78 51 79 52 80 57 81 53 82 54 83 56 84 58 85
REMARK SMILES IDX 55 86
REMARK H PARENT 11 14 75 48 49 59
REMARK Flexibility Score: inf
ROOT
ATOM      1  C   UNL A   1      35.543  24.403  24.897  1.00  0.00     0.202 C 
ENDROOT
BRANCH   1   2
ATOM      2  C   UNL A   1      34.191  24.825  25.376  1.00  0.00     0.261 C 
BRANCH   2   3
ATOM      3  O   UNL A   1      34.065  26.263  25.439  1.00  0.00    -0.459 OA
BRANCH   3   4
ATOM      4  C   UNL A   1      33.519  27.063  24.467  1.00  0.00     0.350 C 
ATOM      5  O   UNL A   1      33.564  26.882  23.267  1.00  0.00    -0.245 OA
BRANCH   4   6
ATOM      6  C   UNL A   1      32.885  28.174  25.153  1.00  0.00     0.136 A 
ATOM      7  C   UNL A   1      32.167  29.230  24.605  1.00  0.00     0.066 A 
ATOM      8  C   UNL A   1      31.668  30.085  25.624  1.00  0.00     0.039 A 
ATOM      9  C   UNL A   1      32.125  29.746  26.878  1.00  0.00     0.068 A 
ATOM     10  S   UNL A   1      33.073  28.329  26.846  1.00  0.00    -0.135 S 
BRANCH   7  11
ATOM     11  N   UNL A   1      31.878  29.295  23.239  1.00  0.00    -0.321 N 
ATOM     12  C   UNL A   1      30.653  29.102  22.647  1.00  0.00     0.265 C 
ATOM     13  O   UNL A   1      30.413  29.726  21.604  1.00  0.00    -0.270 OA
ATOM     14  H   UNL A   1      32.631  29.501  22.638  1.00  0.00     0.170 HD
BRANCH  12  15
ATOM     15  C   UNL A   1      29.607  28.159  23.229  1.00  0.00     0.259 C 
ATOM     16  C   UNL A   1      28.236  28.732  22.914  1.00  0.00     0.064 C 
BRANCH  15  17
ATOM     17  O   UNL A   1      30.038  26.840  22.916  1.00  0.00    -0.481 OA
BRANCH  17  18
ATOM     18  C   UNL A   1      30.209  25.786  23.745  1.00  0.00     0.120 A 
ATOM     19  C   UNL A   1      31.123  22.892  26.818  1.00  0.00     0.044 C 
ATOM     20  C   UNL A   1      30.736  23.889  25.769  1.00  0.00    -0.051 A 
ATOM     21  C   UNL A   1      30.894  23.568  24.419  1.00  0.00     0.007 A 
ATOM     22  C   UNL A   1      30.261  25.157  26.104  1.00  0.00     0.007 A 
ATOM     23  C   UNL A   1      30.598  24.499  23.419  1.00  0.00     0.047 A 
ATOM     24  C   UNL A   1      30.004  26.093  25.097  1.00  0.00     0.047 A 
ENDBRANCH  17  18
ENDBRANCH  15  17
ENDBRANCH  12  15
ENDBRANCH   7  11
ENDBRANCH   4   6
ENDBRANCH   3   4
ENDBRANCH   2   3
ENDBRANCH   1   2
BRANCH   1  25
ATOM     25  O   UNL A   1      35.526  22.994  24.969  1.00  0.00    -0.374 OA
BRANCH  25  26
ATOM     26  C   UNL A   1      36.408  22.399  25.889  1.00  0.00     0.202 C 
BRANCH  26  27
ATOM     27  C   UNL A   1      37.839  22.398  25.351  1.00  0.00     0.261 C 
BRANCH  27  28
ATOM     28  O   UNL A   1      38.769  22.073  26.413  1.00  0.00    -0.460 OA
BRANCH  28  29
ATOM     29  C   UNL A   1      39.941  22.777  26.428  1.00  0.00     0.338 C 
ATOM     30  O   UNL A   1      41.055  22.282  26.447  1.00  0.00    -0.246 OA
BRANCH  29  31
ATOM     31  C   UNL A   1      39.674  24.225  26.701  1.00  0.00     0.060 A 
ATOM     32  C   UNL A   1      40.385  25.224  26.003  1.00  0.00     0.016 A 
ATOM     33  C   UNL A   1      39.023  24.543  27.885  1.00  0.00     0.016 A 
ATOM     34  C   UNL A   1      40.599  26.486  26.588  1.00  0.00     0.010 A 
ATOM     35  C   UNL A   1      39.373  25.715  28.518  1.00  0.00     0.010 A 
ATOM     36  C   UNL A   1      40.175  26.691  27.896  1.00  0.00    -0.014 A 
BRANCH  36  37
ATOM     37  C   UNL A   1      40.476  27.837  28.764  1.00  0.00     0.031 A 
ATOM     38  C   UNL A   1      39.503  28.951  28.761  1.00  0.00     0.074 A 
ATOM     39  C   UNL A   1      41.391  27.787  29.764  1.00  0.00     0.049 A 
ATOM     40  N   UNL A   1      39.701  30.080  29.345  1.00  0.00    -0.248 NA
ATOM     41  C   UNL A   1      38.241  28.912  28.027  1.00  0.00     0.031 C 
ATOM     42  C   UNL A   1      41.308  28.446  31.070  1.00  0.00     0.029 A 
ATOM     43  N   UNL A   1      42.592  27.086  29.848  1.00  0.00    -0.354 N 
ATOM     44  C   UNL A   1      38.491  30.735  29.386  1.00  0.00     0.074 A 
ATOM     45  C   UNL A   1      37.678  30.058  28.412  1.00  0.00     0.031 C 
ATOM     46  C   UNL A   1      42.467  28.295  31.731  1.00  0.00     0.029 A 
ATOM     47  C   UNL A   1      43.413  27.688  30.818  1.00  0.00     0.049 A 
ATOM     48  H   UNL A   1      42.830  26.295  29.314  1.00  0.00     0.167 HD
ATOM     49  C   UNL A   1      38.292  31.663  30.364  1.00  0.00     0.037 A 
ATOM     50  C   UNL A   1      44.669  28.112  30.500  1.00  0.00     0.037 A 
ATOM     51  C   UNL A   1      39.504  31.813  31.191  1.00  0.00     0.049 A 
ATOM     52  C   UNL A   1      44.755  29.610  30.590  1.00  0.00     0.074 A 
ATOM     53  C   UNL A   1      39.866  31.417  32.468  1.00  0.00     0.029 A 
ATOM     54  N   UNL A   1      40.685  32.202  30.581  1.00  0.00    -0.354 N 
ATOM     55  N   UNL A   1      43.758  30.350  30.987  1.00  0.00    -0.248 NA
ATOM     56  C   UNL A   1      45.896  30.412  30.165  1.00  0.00     0.031 C 
ATOM     57  C   UNL A   1      41.273  31.626  32.619  1.00  0.00     0.029 A 
ATOM     58  C   UNL A   1      41.762  32.171  31.443  1.00  0.00     0.049 A 
ATOM     59  H   UNL A   1      40.750  32.471  29.637  1.00  0.00     0.167 HD
ATOM     60  C   UNL A   1      44.023  31.661  30.757  1.00  0.00     0.074 A 
ATOM     61  C   UNL A   1      45.387  31.655  30.252  1.00  0.00     0.031 C 
ATOM     62  C   UNL A   1      43.066  32.616  30.956  1.00  0.00     0.037 A 
BRANCH  49  63
ATOM     63  C   UNL A   1      36.960  32.294  30.741  1.00  0.00     0.057 A 
ATOM     64  C   UNL A   1      36.489  33.412  30.024  1.00  0.00     0.134 A 
ATOM     65  C   UNL A   1      36.100  31.901  31.787  1.00  0.00     0.134 A 
ATOM     66  F   UNL A   1      37.129  33.876  28.942  1.00  0.00    -0.206 F 
ATOM     67  C   UNL A   1      35.322  34.114  30.362  1.00  0.00     0.040 A 
ATOM     68  C   UNL A   1      34.939  32.601  32.147  1.00  0.00     0.040 A 
ATOM     69  F   UNL A   1      36.285  30.797  32.508  1.00  0.00    -0.206 F 
ATOM     70  C   UNL A   1      34.549  33.720  31.441  1.00  0.00     0.006 A 
ENDBRANCH  49  63
BRANCH  50  71
ATOM     71  C   UNL A   1      45.293  27.228  29.470  1.00  0.00     0.057 A 
ATOM     72  C   UNL A   1      45.738  25.958  29.885  1.00  0.00     0.134 A 
ATOM     73  C   UNL A   1      44.943  27.370  28.120  1.00  0.00     0.134 A 
ATOM     74  F   UNL A   1      46.073  25.749  31.168  1.00  0.00    -0.206 F 
ATOM     75  C   UNL A   1      45.695  24.848  29.034  1.00  0.00     0.040 A 
ATOM     76  C   UNL A   1      44.863  26.258  27.272  1.00  0.00     0.040 A 
ATOM     77  F   UNL A   1      44.497  28.546  27.658  1.00  0.00    -0.206 F 
ATOM     78  C   UNL A   1      45.203  24.989  27.739  1.00  0.00     0.006 A 
ENDBRANCH  50  71
BRANCH  62  79
ATOM     79  C   UNL A   1      43.291  34.067  30.643  1.00  0.00     0.057 A 
ATOM     80  C   UNL A   1      43.385  34.545  29.332  1.00  0.00     0.134 A 
ATOM     81  C   UNL A   1      43.486  35.033  31.654  1.00  0.00     0.134 A 
ATOM     82  F   UNL A   1      43.368  33.706  28.285  1.00  0.00    -0.206 F 
ATOM     83  C   UNL A   1      43.526  35.906  29.045  1.00  0.00     0.040 A 
ATOM     84  C   UNL A   1      43.695  36.382  31.379  1.00  0.00     0.040 A 
ATOM     85  F   UNL A   1      43.459  34.730  32.958  1.00  0.00    -0.206 F 
ATOM     86  C   UNL A   1      43.678  36.830  30.071  1.00  0.00     0.006 A 
ENDBRANCH  62  79
ENDBRANCH  36  37
ENDBRANCH  29  31
ENDBRANCH  28  29
ENDBRANCH  27  28
ENDBRANCH  26  27
ENDBRANCH  25  26
ENDBRANCH   1  25
TORSDOF 18
ENDMDL
MODEL 2
REMARK VINA RESULT:     -10.7      2.577      4.222
REMARK SMILES Cc1ccc(O[C@H](C)C(=O)Nc2ccsc2C(=O)OCCOCCOC(=O)c2ccc(-c3c4nc(c(-c5c(F)cccc5F)c5ccc([nH]5)c(-c5c(F)cccc5F)c5nc(c(-c6c(F)cccc6F)c6ccc3[nH]6)C=C5)C=C4)cc2)cc1
REMARK SMILES IDX 21 1 20 2 19 3 17 4 18 5 16 6 12 7 13 8 14 9 15 10 11 11
REMARK SMILES IDX 9 12 10 13 7 15 8 16 6 17 5 18 1 19 2 20 3 21 83 22 4 23
REMARK SMILES IDX 82 24 22 25 23 26 24 27 25 28 26 29 27 30 28 31 29 32 81 33
REMARK SMILES IDX 30 34 80 35 31 36 32 37 33 38 74 39 34 40 79 41 73 42 75 43
REMARK SMILES IDX 35 44 78 45 72 46 71 47 36 49 62 50 45 51 61 52 46 53 49 54
REMARK SMILES IDX 60 55 76 56 47 57 48 58 59 60 77 61 50 62 37 63 38 64 43 65
REMARK SMILES IDX 39 66 40 67 42 68 44 69 41 70 63 71 64 72 69 73 65 74 66 75
REMARK SMILES IDX 68 76 70 77 67 78 51 79 52 80 57 81 53 82 54 83 56 84 58 85
REMARK SMILES IDX 55 86
REMARK H PARENT 11 14 75 48 49 59
REMARK Flexibility Score: inf
ROOT
ATOM      1  C   UNL A   1      36.288  20.843  24.952  1.00  0.00     0.202 C 
ENDROOT
BRANCH   1   2
ATOM      2  C   UNL A   1      35.002  20.082  25.002  1.00  0.00     0.261 C 
BRANCH   2   3
ATOM      3  O   UNL A   1      33.865  20.955  25.174  1.00  0.00    -0.459 OA
BRANCH   3   4
ATOM      4  C   UNL A   1      32.982  21.326  24.190  1.00  0.00     0.350 C 
ATOM      5  O   UNL A   1      32.161  20.616  23.646  1.00  0.00    -0.245 OA
BRANCH   4   6
ATOM      6  C   UNL A   1      33.229  22.731  23.920  1.00  0.00     0.136 A 
ATOM      7  C   UNL A   1      33.332  23.779  24.826  1.00  0.00     0.066 A 
ATOM      8  C   UNL A   1      33.627  24.998  24.159  1.00  0.00     0.039 A 
ATOM      9  C   UNL A   1      33.602  24.876  22.788  1.00  0.00     0.068 A 
ATOM     10  S   UNL A   1      33.327  23.267  22.298  1.00  0.00    -0.135 S 
BRANCH   7  11
ATOM     11  N   UNL A   1      33.297  23.565  26.208  1.00  0.00    -0.321 N 
ATOM     12  C   UNL A   1      32.183  23.320  26.974  1.00  0.00     0.265 C 
ATOM     13  O   UNL A   1      32.321  22.609  27.980  1.00  0.00    -0.270 OA
ATOM     14  H   UNL A   1      34.161  23.595  26.680  1.00  0.00     0.170 HD
BRANCH  12  15
ATOM     15  C   UNL A   1      30.813  23.890  26.625  1.00  0.00     0.259 C 
ATOM     16  C   UNL A   1      29.761  22.950  27.188  1.00  0.00     0.064 C 
BRANCH  15  17
ATOM     17  O   UNL A   1      30.884  25.288  26.876  1.00  0.00    -0.481 OA
BRANCH  17  18
ATOM     18  C   UNL A   1      30.776  26.312  26.000  1.00  0.00     0.120 A 
ATOM     19  C   UNL A   1      30.509  29.065  22.684  1.00  0.00     0.044 C 
ATOM     20  C   UNL A   1      30.533  28.126  23.850  1.00  0.00    -0.051 A 
ATOM     21  C   UNL A   1      31.327  28.423  24.960  1.00  0.00     0.007 A 
ATOM     22  C   UNL A   1      29.815  26.931  23.842  1.00  0.00     0.007 A 
ATOM     23  C   UNL A   1      31.417  27.538  26.038  1.00  0.00     0.047 A 
ATOM     24  C   UNL A   1      29.942  26.035  24.909  1.00  0.00     0.047 A 
ENDBRANCH  17  18
ENDBRANCH  15  17
ENDBRANCH  12  15
ENDBRANCH   7  11
ENDBRANCH   4   6
ENDBRANCH   3   4
ENDBRANCH   2   3
ENDBRANCH   1   2
BRANCH   1  25
ATOM     25  O   UNL A   1      36.099  21.926  25.837  1.00  0.00    -0.374 OA
BRANCH  25  26
ATOM     26  C   UNL A   1      37.225  22.728  26.100  1.00  0.00     0.202 C 
BRANCH  26  27
ATOM     27  C   UNL A   1      38.508  22.033  25.643  1.00  0.00     0.261 C 
BRANCH  27  28
ATOM     28  O   UNL A   1      39.383  21.813  26.777  1.00  0.00    -0.460 OA
BRANCH  28  29
ATOM     29  C   UNL A   1      40.646  21.373  26.491  1.00  0.00     0.338 C 
ATOM     30  O   UNL A   1      40.927  20.246  26.120  1.00  0.00    -0.246 OA
BRANCH  29  31
ATOM     31  C   UNL A   1      41.661  22.368  26.962  1.00  0.00     0.060 A 
ATOM     32  C   UNL A   1      41.976  22.467  28.334  1.00  0.00     0.016 A 
ATOM     33  C   UNL A   1      41.980  23.412  26.105  1.00  0.00     0.016 A 
ATOM     34  C   UNL A   1      42.435  23.685  28.872  1.00  0.00     0.010 A 
ATOM     35  C   UNL A   1      42.271  24.637  26.662  1.00  0.00     0.010 A 
ATOM     36  C   UNL A   1      42.482  24.800  28.044  1.00  0.00    -0.014 A 
BRANCH  36  37
ATOM     37  C   UNL A   1      42.722  26.195  28.436  1.00  0.00     0.031 A 
ATOM     38  C   UNL A   1      41.533  27.061  28.587  1.00  0.00     0.074 A 
ATOM     39  C   UNL A   1      43.899  26.625  28.955  1.00  0.00     0.049 A 
ATOM     40  N   UNL A   1      41.587  28.332  28.774  1.00  0.00    -0.248 NA
ATOM     41  C   UNL A   1      40.162  26.570  28.465  1.00  0.00     0.031 C 
ATOM     42  C   UNL A   1      44.085  27.636  30.000  1.00  0.00     0.029 A 
ATOM     43  N   UNL A   1      45.203  26.211  28.691  1.00  0.00    -0.354 N 
ATOM     44  C   UNL A   1      40.332  28.741  29.163  1.00  0.00     0.074 A 
ATOM     45  C   UNL A   1      39.464  27.659  28.784  1.00  0.00     0.031 C 
ATOM     46  C   UNL A   1      45.393  27.908  30.142  1.00  0.00     0.029 A 
ATOM     47  C   UNL A   1      46.098  27.223  29.079  1.00  0.00     0.049 A 
ATOM     48  H   UNL A   1      45.458  25.347  28.294  1.00  0.00     0.167 HD
ATOM     49  C   UNL A   1      40.225  29.879  29.906  1.00  0.00     0.037 A 
ATOM     50  C   UNL A   1      46.991  27.741  28.189  1.00  0.00     0.037 A 
ATOM     51  C   UNL A   1      41.551  30.494  30.106  1.00  0.00     0.049 A 
ATOM     52  C   UNL A   1      46.670  29.182  27.902  1.00  0.00     0.074 A 
ATOM     53  C   UNL A   1      42.427  30.590  31.175  1.00  0.00     0.029 A 
ATOM     54  N   UNL A   1      42.286  30.874  28.996  1.00  0.00    -0.354 N 
ATOM     55  N   UNL A   1      45.704  29.820  28.501  1.00  0.00    -0.248 NA
ATOM     56  C   UNL A   1      47.315  29.998  26.881  1.00  0.00     0.031 C 
ATOM     57  C   UNL A   1      43.678  31.082  30.684  1.00  0.00     0.029 A 
ATOM     58  C   UNL A   1      43.555  31.307  29.323  1.00  0.00     0.049 A 
ATOM     59  H   UNL A   1      41.942  30.839  28.074  1.00  0.00     0.167 HD
ATOM     60  C   UNL A   1      45.486  31.017  27.899  1.00  0.00     0.074 A 
ATOM     61  C   UNL A   1      46.534  31.094  26.893  1.00  0.00     0.031 C 
ATOM     62  C   UNL A   1      44.425  31.800  28.258  1.00  0.00     0.037 A 
BRANCH  49  63
ATOM     63  C   UNL A   1      38.984  30.350  30.647  1.00  0.00     0.057 A 
ATOM     64  C   UNL A   1      38.576  29.683  31.821  1.00  0.00     0.134 A 
ATOM     65  C   UNL A   1      38.126  31.408  30.283  1.00  0.00     0.134 A 
ATOM     66  F   UNL A   1      39.312  28.706  32.369  1.00  0.00    -0.206 F 
ATOM     67  C   UNL A   1      37.395  29.987  32.513  1.00  0.00     0.040 A 
ATOM     68  C   UNL A   1      36.934  31.715  30.956  1.00  0.00     0.040 A 
ATOM     69  F   UNL A   1      38.390  32.250  29.285  1.00  0.00    -0.206 F 
ATOM     70  C   UNL A   1      36.557  30.997  32.072  1.00  0.00     0.006 A 
ENDBRANCH  49  63
BRANCH  50  71
ATOM     71  C   UNL A   1      47.448  26.703  27.216  1.00  0.00     0.057 A 
ATOM     72  C   UNL A   1      46.811  26.661  25.961  1.00  0.00     0.134 A 
ATOM     73  C   UNL A   1      48.759  26.212  27.281  1.00  0.00     0.134 A 
ATOM     74  F   UNL A   1      45.561  27.131  25.825  1.00  0.00    -0.206 F 
ATOM     75  C   UNL A   1      47.497  26.288  24.799  1.00  0.00     0.040 A 
ATOM     76  C   UNL A   1      49.463  25.870  26.120  1.00  0.00     0.040 A 
ATOM     77  F   UNL A   1      49.433  26.234  28.440  1.00  0.00    -0.206 F 
ATOM     78  C   UNL A   1      48.845  25.944  24.872  1.00  0.00     0.006 A 
ENDBRANCH  50  71
BRANCH  62  79
ATOM     79  C   UNL A   1      44.104  33.095  27.570  1.00  0.00     0.057 A 
ATOM     80  C   UNL A   1      43.769  33.159  26.213  1.00  0.00     0.134 A 
ATOM     81  C   UNL A   1      44.182  34.339  28.232  1.00  0.00     0.134 A 
ATOM     82  F   UNL A   1      43.808  32.065  25.437  1.00  0.00    -0.206 F 
ATOM     83  C   UNL A   1      43.405  34.357  25.592  1.00  0.00     0.040 A 
ATOM     84  C   UNL A   1      43.885  35.548  27.606  1.00  0.00     0.040 A 
ATOM     85  F   UNL A   1      44.521  34.450  29.522  1.00  0.00    -0.206 F 
ATOM     86  C   UNL A   1      43.459  35.557  26.291  1.00  0.00     0.006 A 
ENDBRANCH  62  79
ENDBRANCH  36  37
ENDBRANCH  29  31
ENDBRANCH  28  29
ENDBRANCH  27  28
ENDBRANCH  26  27
ENDBRANCH  25  26
ENDBRANCH   1  25
TORSDOF 18
ENDMDL
MODEL 3
REMARK VINA RESULT:     -10.7      3.270      7.738
REMARK SMILES Cc1ccc(O[C@H](C)C(=O)Nc2ccsc2C(=O)OCCOCCOC(=O)c2ccc(-c3c4nc(c(-c5c(F)cccc5F)c5ccc([nH]5)c(-c5c(F)cccc5F)c5nc(c(-c6c(F)cccc6F)c6ccc3[nH]6)C=C5)C=C4)cc2)cc1
REMARK SMILES IDX 21 1 20 2 19 3 17 4 18 5 16 6 12 7 13 8 14 9 15 10 11 11
REMARK SMILES IDX 9 12 10 13 7 15 8 16 6 17 5 18 1 19 2 20 3 21 83 22 4 23
REMARK SMILES IDX 82 24 22 25 23 26 24 27 25 28 26 29 27 30 28 31 29 32 81 33
REMARK SMILES IDX 30 34 80 35 31 36 32 37 33 38 74 39 34 40 79 41 73 42 75 43
REMARK SMILES IDX 35 44 78 45 72 46 71 47 36 49 62 50 45 51 61 52 46 53 49 54
REMARK SMILES IDX 60 55 76 56 47 57 48 58 59 60 77 61 50 62 37 63 38 64 43 65
REMARK SMILES IDX 39 66 40 67 42 68 44 69 41 70 63 71 64 72 69 73 65 74 66 75
REMARK SMILES IDX 68 76 70 77 67 78 51 79 52 80 57 81 53 82 54 83 56 84 58 85
REMARK SMILES IDX 55 86
REMARK H PARENT 11 14 75 48 49 59
REMARK Flexibility Score: inf
ROOT
ATOM      1  C   UNL A   1      36.375  20.937  25.050  1.00  0.00     0.202 C 
ENDROOT
BRANCH   1   2
ATOM      2  C   UNL A   1      35.111  20.154  24.890  1.00  0.00     0.261 C 
BRANCH   2   3
ATOM      3  O   UNL A   1      33.944  20.943  25.207  1.00  0.00    -0.459 OA
BRANCH   3   4
ATOM      4  C   UNL A   1      32.969  21.326  24.320  1.00  0.00     0.350 C 
ATOM      5  O   UNL A   1      32.067  20.635  23.891  1.00  0.00    -0.245 OA
BRANCH   4   6
ATOM      6  C   UNL A   1      33.232  22.714  23.987  1.00  0.00     0.136 A 
ATOM      7  C   UNL A   1      33.307  23.806  24.841  1.00  0.00     0.066 A 
ATOM      8  C   UNL A   1      33.632  24.989  24.124  1.00  0.00     0.039 A 
ATOM      9  C   UNL A   1      33.657  24.796  22.760  1.00  0.00     0.068 A 
ATOM     10  S   UNL A   1      33.393  23.165  22.344  1.00  0.00    -0.135 S 
BRANCH   7  11
ATOM     11  N   UNL A   1      33.220  23.665  26.230  1.00  0.00    -0.321 N 
ATOM     12  C   UNL A   1      32.092  23.372  26.958  1.00  0.00     0.265 C 
ATOM     13  O   UNL A   1      32.235  22.730  28.007  1.00  0.00    -0.270 OA
ATOM     14  H   UNL A   1      34.054  23.790  26.738  1.00  0.00     0.170 HD
BRANCH  12  15
ATOM     15  C   UNL A   1      30.700  23.809  26.514  1.00  0.00     0.259 C 
ATOM     16  C   UNL A   1      29.690  22.883  27.170  1.00  0.00     0.064 C 
BRANCH  15  17
ATOM     17  O   UNL A   1      30.683  25.229  26.590  1.00  0.00    -0.481 OA
BRANCH  17  18
ATOM     18  C   UNL A   1      30.553  26.129  25.590  1.00  0.00     0.120 A 
ATOM     19  C   UNL A   1      30.062  29.498  22.934  1.00  0.00     0.044 C 
ATOM     20  C   UNL A   1      30.300  28.323  23.831  1.00  0.00    -0.051 A 
ATOM     21  C   UNL A   1      29.623  27.125  23.594  1.00  0.00     0.007 A 
ATOM     22  C   UNL A   1      31.151  28.403  24.932  1.00  0.00     0.007 A 
ATOM     23  C   UNL A   1      29.778  26.029  24.448  1.00  0.00     0.047 A 
ATOM     24  C   UNL A   1      31.271  27.314  25.802  1.00  0.00     0.047 A 
ENDBRANCH  17  18
ENDBRANCH  15  17
ENDBRANCH  12  15
ENDBRANCH   7  11
ENDBRANCH   4   6
ENDBRANCH   3   4
ENDBRANCH   2   3
ENDBRANCH   1   2
BRANCH   1  25
ATOM     25  O   UNL A   1      36.035  21.994  25.920  1.00  0.00    -0.374 OA
BRANCH  25  26
ATOM     26  C   UNL A   1      36.896  23.107  25.926  1.00  0.00     0.202 C 
BRANCH  26  27
ATOM     27  C   UNL A   1      38.323  22.693  25.567  1.00  0.00     0.261 C 
BRANCH  27  28
ATOM     28  O   UNL A   1      38.919  21.960  26.666  1.00  0.00    -0.460 OA
BRANCH  28  29
ATOM     29  C   UNL A   1      39.986  21.164  26.356  1.00  0.00     0.338 C 
ATOM     30  O   UNL A   1      39.912  19.997  26.010  1.00  0.00    -0.246 OA
BRANCH  29  31
ATOM     31  C   UNL A   1      41.265  21.827  26.765  1.00  0.00     0.060 A 
ATOM     32  C   UNL A   1      41.424  22.313  28.081  1.00  0.00     0.016 A 
ATOM     33  C   UNL A   1      42.101  22.284  25.756  1.00  0.00     0.016 A 
ATOM     34  C   UNL A   1      42.291  23.392  28.341  1.00  0.00     0.010 A 
ATOM     35  C   UNL A   1      42.819  23.436  25.987  1.00  0.00     0.010 A 
ATOM     36  C   UNL A   1      42.911  24.018  27.266  1.00  0.00    -0.014 A 
BRANCH  36  37
ATOM     37  C   UNL A   1      43.676  25.271  27.281  1.00  0.00     0.031 A 
ATOM     38  C   UNL A   1      45.146  25.156  27.397  1.00  0.00     0.074 A 
ATOM     39  C   UNL A   1      43.155  26.460  26.889  1.00  0.00     0.049 A 
ATOM     40  N   UNL A   1      45.935  26.156  27.577  1.00  0.00    -0.248 NA
ATOM     41  C   UNL A   1      45.853  23.878  27.394  1.00  0.00     0.031 C 
ATOM     42  C   UNL A   1      43.848  27.533  26.170  1.00  0.00     0.029 A 
ATOM     43  N   UNL A   1      41.859  26.956  27.008  1.00  0.00    -0.354 N 
ATOM     44  C   UNL A   1      47.215  25.714  27.337  1.00  0.00     0.074 A 
ATOM     45  C   UNL A   1      47.124  24.280  27.406  1.00  0.00     0.031 C 
ATOM     46  C   UNL A   1      43.056  28.615  26.094  1.00  0.00     0.029 A 
ATOM     47  C   UNL A   1      41.888  28.358  26.910  1.00  0.00     0.049 A 
ATOM     48  H   UNL A   1      41.050  26.412  27.140  1.00  0.00     0.167 HD
ATOM     49  C   UNL A   1      48.151  26.625  26.948  1.00  0.00     0.037 A 
ATOM     50  C   UNL A   1      41.362  29.136  27.898  1.00  0.00     0.037 A 
ATOM     51  C   UNL A   1      47.571  27.981  26.912  1.00  0.00     0.049 A 
ATOM     52  C   UNL A   1      42.448  29.917  28.585  1.00  0.00     0.074 A 
ATOM     53  C   UNL A   1      47.175  28.844  25.903  1.00  0.00     0.029 A 
ATOM     54  N   UNL A   1      47.035  28.510  28.074  1.00  0.00    -0.354 N 
ATOM     55  N   UNL A   1      43.694  29.873  28.204  1.00  0.00    -0.248 NA
ATOM     56  C   UNL A   1      42.269  30.723  29.786  1.00  0.00     0.031 C 
ATOM     57  C   UNL A   1      46.440  29.918  26.496  1.00  0.00     0.029 A 
ATOM     58  C   UNL A   1      46.409  29.722  27.866  1.00  0.00     0.049 A 
ATOM     59  H   UNL A   1      47.094  28.070  28.953  1.00  0.00     0.167 HD
ATOM     60  C   UNL A   1      44.488  30.479  29.123  1.00  0.00     0.074 A 
ATOM     61  C   UNL A   1      43.547  31.013  30.096  1.00  0.00     0.031 C 
ATOM     62  C   UNL A   1      45.850  30.431  29.015  1.00  0.00     0.037 A 
BRANCH  49  63
ATOM     63  C   UNL A   1      49.529  26.310  26.387  1.00  0.00     0.057 A 
ATOM     64  C   UNL A   1      50.504  25.723  27.219  1.00  0.00     0.134 A 
ATOM     65  C   UNL A   1      49.993  26.563  25.080  1.00  0.00     0.134 A 
ATOM     66  F   UNL A   1      50.222  25.332  28.469  1.00  0.00    -0.206 F 
ATOM     67  C   UNL A   1      51.826  25.486  26.814  1.00  0.00     0.040 A 
ATOM     68  C   UNL A   1      51.315  26.346  24.665  1.00  0.00     0.040 A 
ATOM     69  F   UNL A   1      49.204  26.993  24.097  1.00  0.00    -0.206 F 
ATOM     70  C   UNL A   1      52.243  25.815  25.536  1.00  0.00     0.006 A 
ENDBRANCH  49  63
BRANCH  50  71
ATOM     71  C   UNL A   1      40.179  28.478  28.531  1.00  0.00     0.057 A 
ATOM     72  C   UNL A   1      40.366  27.870  29.787  1.00  0.00     0.134 A 
ATOM     73  C   UNL A   1      38.885  28.922  28.225  1.00  0.00     0.134 A 
ATOM     74  F   UNL A   1      41.584  27.438  30.149  1.00  0.00    -0.206 F 
ATOM     75  C   UNL A   1      39.351  27.839  30.749  1.00  0.00     0.040 A 
ATOM     76  C   UNL A   1      37.873  28.927  29.194  1.00  0.00     0.040 A 
ATOM     77  F   UNL A   1      38.635  29.524  27.054  1.00  0.00    -0.206 F 
ATOM     78  C   UNL A   1      38.116  28.420  30.470  1.00  0.00     0.006 A 
ENDBRANCH  50  71
BRANCH  62  79
ATOM     79  C   UNL A   1      46.766  31.022  30.046  1.00  0.00     0.057 A 
ATOM     80  C   UNL A   1      47.038  30.384  31.261  1.00  0.00     0.134 A 
ATOM     81  C   UNL A   1      47.363  32.291  29.883  1.00  0.00     0.134 A 
ATOM     82  F   UNL A   1      46.415  29.246  31.601  1.00  0.00    -0.206 F 
ATOM     83  C   UNL A   1      47.945  30.906  32.189  1.00  0.00     0.040 A 
ATOM     84  C   UNL A   1      48.216  32.852  30.831  1.00  0.00     0.040 A 
ATOM     85  F   UNL A   1      47.175  33.043  28.792  1.00  0.00    -0.206 F 
ATOM     86  C   UNL A   1      48.540  32.142  31.973  1.00  0.00     0.006 A 
ENDBRANCH  62  79
ENDBRANCH  36  37
ENDBRANCH  29  31
ENDBRANCH  28  29
ENDBRANCH  27  28
ENDBRANCH  26  27
ENDBRANCH  25  26
ENDBRANCH   1  25
TORSDOF 18
ENDMDL
