MODEL 1
REMARK VINA RESULT:     -11.0      0.000      0.000
REMARK SMILES O=C(Cc1cncnc1N1CCC2(CC1)OCCC[C@@H]2O)OCCOCCOC(=O)c1ccc(-c2c3nc(c(-c4c(F)cccc4F)c4ccc([nH]4)c(-c4c(F)cccc4F)c4nc(c(-c5c(F)cccc5F)c5ccc2[nH]5)C=C4)C=C3)cc1
REMARK SMILES IDX 24 1 23 2 22 3 2 4 1 5 3 6 4 7 5 8 9 9 6 10 8 11 7 12 10 13
REMARK SMILES IDX 11 14 15 15 12 16 14 17 13 18 16 19 20 20 17 21 19 22 18 23
REMARK SMILES IDX 21 24 25 26 26 27 27 28 28 29 29 30 30 31 31 32 32 33 84 34
REMARK SMILES IDX 33 35 83 36 34 37 35 38 36 39 77 40 37 41 82 42 76 43 78 44
REMARK SMILES IDX 38 45 81 46 75 47 74 48 39 50 65 51 48 52 64 53 49 54 52 55
REMARK SMILES IDX 63 56 79 57 50 58 51 59 62 61 80 62 53 63 40 64 41 65 46 66
REMARK SMILES IDX 42 67 43 68 45 69 47 70 44 71 66 72 67 73 72 74 68 75 69 76
REMARK SMILES IDX 71 77 73 78 70 79 54 80 55 81 60 82 56 83 57 84 59 85 61 86
REMARK SMILES IDX 58 87
REMARK H PARENT 21 25 78 49 52 60
REMARK Flexibility Score: inf
ROOT
ATOM      1  C   UNL A   1      34.363  32.334  27.762  1.00  0.00     0.202 C 
ENDROOT
BRANCH   1   2
ATOM      2  C   UNL A   1      34.278  30.806  27.658  1.00  0.00     0.261 C 
BRANCH   2   3
ATOM      3  O   UNL A   1      33.499  30.376  26.533  1.00  0.00    -0.463 OA
BRANCH   3   4
ATOM      4  C   UNL A   1      33.346  29.022  26.446  1.00  0.00     0.310 C 
ATOM      5  O   UNL A   1      33.013  28.344  27.409  1.00  0.00    -0.252 OA
BRANCH   4   6
ATOM      6  C   UNL A   1      33.892  28.485  25.146  1.00  0.00     0.163 C 
BRANCH   6   7
ATOM      7  C   UNL A   1      32.880  28.020  24.142  1.00  0.00     0.024 A 
ATOM      8  C   UNL A   1      32.006  28.936  23.582  1.00  0.00     0.121 A 
ATOM      9  C   UNL A   1      32.684  26.700  23.750  1.00  0.00     0.135 A 
ATOM     10  N   UNL A   1      31.006  28.620  22.745  1.00  0.00    -0.244 NA
ATOM     11  N   UNL A   1      31.681  26.345  22.924  1.00  0.00    -0.219 NA
ATOM     12  C   UNL A   1      30.892  27.319  22.465  1.00  0.00     0.224 A 
BRANCH   9  13
ATOM     13  N   UNL A   1      33.555  25.684  24.160  1.00  0.00    -0.356 N 
ATOM     14  C   UNL A   1      33.617  24.612  23.156  1.00  0.00     0.121 C 
ATOM     15  C   UNL A   1      33.244  25.136  25.480  1.00  0.00     0.121 C 
ATOM     16  C   UNL A   1      34.869  23.805  23.399  1.00  0.00     0.060 C 
ATOM     17  C   UNL A   1      34.423  24.296  25.940  1.00  0.00     0.060 C 
ATOM     18  C   UNL A   1      35.050  23.360  24.868  1.00  0.00     0.097 C 
ATOM     19  O   UNL A   1      34.346  22.117  25.092  1.00  0.00    -0.372 OA
ATOM     20  C   UNL A   1      36.593  23.274  25.078  1.00  0.00     0.146 C 
ATOM     21  C   UNL A   1      34.965  20.913  24.663  1.00  0.00     0.161 C 
ATOM     22  C   UNL A   1      37.193  21.925  24.755  1.00  0.00     0.037 C 
ATOM     23  C   UNL A   1      36.345  20.778  25.259  1.00  0.00     0.031 C 
BRANCH  20  24
ATOM     24  O   UNL A   1      36.975  23.637  26.398  1.00  0.00    -0.390 OA
ATOM     25  H   UNL A   1      37.045  24.602  26.460  1.00  0.00     0.211 HD
ENDBRANCH  20  24
ENDBRANCH   9  13
ENDBRANCH   6   7
ENDBRANCH   4   6
ENDBRANCH   3   4
ENDBRANCH   2   3
ENDBRANCH   1   2
BRANCH   1  26
ATOM     26  O   UNL A   1      33.597  32.884  28.829  1.00  0.00    -0.374 OA
BRANCH  26  27
ATOM     27  C   UNL A   1      34.153  34.043  29.450  1.00  0.00     0.202 C 
BRANCH  27  28
ATOM     28  C   UNL A   1      34.419  33.865  30.948  1.00  0.00     0.261 C 
BRANCH  28  29
ATOM     29  O   UNL A   1      34.581  32.472  31.303  1.00  0.00    -0.460 OA
BRANCH  29  30
ATOM     30  C   UNL A   1      35.614  32.198  32.151  1.00  0.00     0.338 C 
ATOM     31  O   UNL A   1      35.633  32.370  33.349  1.00  0.00    -0.246 OA
BRANCH  30  32
ATOM     32  C   UNL A   1      36.743  31.574  31.408  1.00  0.00     0.060 A 
ATOM     33  C   UNL A   1      37.623  30.754  32.120  1.00  0.00     0.016 A 
ATOM     34  C   UNL A   1      36.942  31.760  30.032  1.00  0.00     0.016 A 
ATOM     35  C   UNL A   1      38.656  30.084  31.450  1.00  0.00     0.010 A 
ATOM     36  C   UNL A   1      38.024  31.139  29.376  1.00  0.00     0.010 A 
ATOM     37  C   UNL A   1      38.896  30.294  30.075  1.00  0.00    -0.014 A 
BRANCH  37  38
ATOM     38  C   UNL A   1      40.155  29.754  29.465  1.00  0.00     0.031 A 
ATOM     39  C   UNL A   1      41.392  30.608  29.554  1.00  0.00     0.074 A 
ATOM     40  C   UNL A   1      40.258  28.538  28.887  1.00  0.00     0.049 A 
ATOM     41  N   UNL A   1      42.599  30.362  29.113  1.00  0.00    -0.248 NA
ATOM     42  C   UNL A   1      41.237  31.929  30.184  1.00  0.00     0.031 C 
ATOM     43  C   UNL A   1      39.164  27.611  28.650  1.00  0.00     0.029 A 
ATOM     44  N   UNL A   1      41.363  27.832  28.457  1.00  0.00    -0.354 N 
ATOM     45  C   UNL A   1      43.315  31.528  29.331  1.00  0.00     0.074 A 
ATOM     46  C   UNL A   1      42.450  32.434  30.052  1.00  0.00     0.031 C 
ATOM     47  C   UNL A   1      39.659  26.397  28.352  1.00  0.00     0.029 A 
ATOM     48  C   UNL A   1      41.103  26.502  28.188  1.00  0.00     0.049 A 
ATOM     49  H   UNL A   1      42.254  28.238  28.352  1.00  0.00     0.167 HD
ATOM     50  C   UNL A   1      44.542  31.866  28.869  1.00  0.00     0.037 A 
ATOM     51  C   UNL A   1      41.928  25.499  27.816  1.00  0.00     0.037 A 
ATOM     52  C   UNL A   1      45.371  31.006  28.076  1.00  0.00     0.049 A 
ATOM     53  C   UNL A   1      43.332  25.856  27.397  1.00  0.00     0.074 A 
ATOM     54  C   UNL A   1      46.557  31.302  27.430  1.00  0.00     0.029 A 
ATOM     55  N   UNL A   1      45.089  29.675  27.812  1.00  0.00    -0.354 N 
ATOM     56  N   UNL A   1      43.959  27.001  27.504  1.00  0.00    -0.248 NA
ATOM     57  C   UNL A   1      44.106  24.814  26.702  1.00  0.00     0.031 C 
ATOM     58  C   UNL A   1      46.977  30.154  26.747  1.00  0.00     0.029 A 
ATOM     59  C   UNL A   1      46.079  29.134  27.012  1.00  0.00     0.049 A 
ATOM     60  H   UNL A   1      44.300  29.188  28.145  1.00  0.00     0.167 HD
ATOM     61  C   UNL A   1      45.169  26.836  26.844  1.00  0.00     0.074 A 
ATOM     62  C   UNL A   1      45.225  25.459  26.403  1.00  0.00     0.031 C 
ATOM     63  C   UNL A   1      46.124  27.760  26.582  1.00  0.00     0.037 A 
BRANCH  50  64
ATOM     64  C   UNL A   1      44.928  33.299  29.064  1.00  0.00     0.057 A 
ATOM     65  C   UNL A   1      44.588  34.299  28.148  1.00  0.00     0.134 A 
ATOM     66  C   UNL A   1      45.780  33.643  30.123  1.00  0.00     0.134 A 
ATOM     67  F   UNL A   1      43.817  34.017  27.087  1.00  0.00    -0.206 F 
ATOM     68  C   UNL A   1      45.121  35.586  28.252  1.00  0.00     0.040 A 
ATOM     69  C   UNL A   1      46.298  34.930  30.251  1.00  0.00     0.040 A 
ATOM     70  F   UNL A   1      46.158  32.720  31.021  1.00  0.00    -0.206 F 
ATOM     71  C   UNL A   1      45.982  35.901  29.304  1.00  0.00     0.006 A 
ENDBRANCH  50  64
BRANCH  51  72
ATOM     72  C   UNL A   1      41.471  24.080  27.726  1.00  0.00     0.057 A 
ATOM     73  C   UNL A   1      41.985  23.111  28.603  1.00  0.00     0.134 A 
ATOM     74  C   UNL A   1      40.575  23.631  26.748  1.00  0.00     0.134 A 
ATOM     75  F   UNL A   1      42.882  23.456  29.538  1.00  0.00    -0.206 F 
ATOM     76  C   UNL A   1      41.631  21.762  28.507  1.00  0.00     0.040 A 
ATOM     77  C   UNL A   1      40.183  22.292  26.664  1.00  0.00     0.040 A 
ATOM     78  F   UNL A   1      40.065  24.487  25.851  1.00  0.00    -0.206 F 
ATOM     79  C   UNL A   1      40.717  21.350  27.541  1.00  0.00     0.006 A 
ENDBRANCH  51  72
BRANCH  63  80
ATOM     80  C   UNL A   1      47.308  27.328  25.774  1.00  0.00     0.057 A 
ATOM     81  C   UNL A   1      47.357  27.521  24.387  1.00  0.00     0.134 A 
ATOM     82  C   UNL A   1      48.444  26.802  26.398  1.00  0.00     0.134 A 
ATOM     83  F   UNL A   1      46.297  28.014  23.730  1.00  0.00    -0.206 F 
ATOM     84  C   UNL A   1      48.498  27.201  23.649  1.00  0.00     0.040 A 
ATOM     85  C   UNL A   1      49.596  26.496  25.675  1.00  0.00     0.040 A 
ATOM     86  F   UNL A   1      48.458  26.601  27.725  1.00  0.00    -0.206 F 
ATOM     87  C   UNL A   1      49.625  26.696  24.295  1.00  0.00     0.006 A 
ENDBRANCH  63  80
ENDBRANCH  37  38
ENDBRANCH  30  32
ENDBRANCH  29  30
ENDBRANCH  28  29
ENDBRANCH  27  28
ENDBRANCH  26  27
ENDBRANCH   1  26
TORSDOF 17
ENDMDL
MODEL 2
REMARK VINA RESULT:     -11.0      5.061      9.584
REMARK SMILES O=C(Cc1cncnc1N1CCC2(CC1)OCCC[C@@H]2O)OCCOCCOC(=O)c1ccc(-c2c3nc(c(-c4c(F)cccc4F)c4ccc([nH]4)c(-c4c(F)cccc4F)c4nc(c(-c5c(F)cccc5F)c5ccc2[nH]5)C=C4)C=C3)cc1
REMARK SMILES IDX 24 1 23 2 22 3 2 4 1 5 3 6 4 7 5 8 9 9 6 10 8 11 7 12 10 13
REMARK SMILES IDX 11 14 15 15 12 16 14 17 13 18 16 19 20 20 17 21 19 22 18 23
REMARK SMILES IDX 21 24 25 26 26 27 27 28 28 29 29 30 30 31 31 32 32 33 84 34
REMARK SMILES IDX 33 35 83 36 34 37 35 38 36 39 77 40 37 41 82 42 76 43 78 44
REMARK SMILES IDX 38 45 81 46 75 47 74 48 39 50 65 51 48 52 64 53 49 54 52 55
REMARK SMILES IDX 63 56 79 57 50 58 51 59 62 61 80 62 53 63 40 64 41 65 46 66
REMARK SMILES IDX 42 67 43 68 45 69 47 70 44 71 66 72 67 73 72 74 68 75 69 76
REMARK SMILES IDX 71 77 73 78 70 79 54 80 55 81 60 82 56 83 57 84 59 85 61 86
REMARK SMILES IDX 58 87
REMARK H PARENT 21 25 78 49 52 60
REMARK Flexibility Score: inf
ROOT
ATOM      1  C   UNL A   1      37.537  21.946  25.754  1.00  0.00     0.202 C 
ENDROOT
BRANCH   1   2
ATOM      2  C   UNL A   1      36.823  21.917  24.396  1.00  0.00     0.261 C 
BRANCH   2   3
ATOM      3  O   UNL A   1      36.746  23.214  23.789  1.00  0.00    -0.463 OA
BRANCH   3   4
ATOM      4  C   UNL A   1      35.473  23.677  23.623  1.00  0.00     0.310 C 
ATOM      5  O   UNL A   1      34.930  23.700  22.525  1.00  0.00    -0.252 OA
BRANCH   4   6
ATOM      6  C   UNL A   1      34.972  24.378  24.861  1.00  0.00     0.163 C 
BRANCH   6   7
ATOM      7  C   UNL A   1      33.486  24.534  24.982  1.00  0.00     0.024 A 
ATOM      8  C   UNL A   1      32.935  25.804  24.991  1.00  0.00     0.121 A 
ATOM      9  C   UNL A   1      32.579  23.494  25.154  1.00  0.00     0.135 A 
ATOM     10  N   UNL A   1      31.632  26.066  25.183  1.00  0.00    -0.244 NA
ATOM     11  N   UNL A   1      31.268  23.721  25.365  1.00  0.00    -0.219 NA
ATOM     12  C   UNL A   1      30.860  24.993  25.371  1.00  0.00     0.224 A 
BRANCH   9  13
ATOM     13  N   UNL A   1      32.982  22.157  25.068  1.00  0.00    -0.356 N 
ATOM     14  C   UNL A   1      31.985  21.356  24.342  1.00  0.00     0.121 C 
ATOM     15  C   UNL A   1      33.290  21.547  26.361  1.00  0.00     0.121 C 
ATOM     16  C   UNL A   1      32.648  20.083  23.873  1.00  0.00     0.060 C 
ATOM     17  C   UNL A   1      34.012  20.234  26.112  1.00  0.00     0.060 C 
ATOM     18  C   UNL A   1      33.428  19.340  24.982  1.00  0.00     0.097 C 
ATOM     19  O   UNL A   1      32.532  18.469  25.709  1.00  0.00    -0.372 OA
ATOM     20  C   UNL A   1      34.584  18.603  24.239  1.00  0.00     0.146 C 
ATOM     21  C   UNL A   1      32.196  17.219  25.123  1.00  0.00     0.161 C 
ATOM     22  C   UNL A   1      34.235  17.212  23.764  1.00  0.00     0.037 C 
ATOM     23  C   UNL A   1      33.441  16.432  24.790  1.00  0.00     0.031 C 
BRANCH  20  24
ATOM     24  O   UNL A   1      35.766  18.531  25.025  1.00  0.00    -0.390 OA
ATOM     25  H   UNL A   1      35.528  18.397  25.955  1.00  0.00     0.211 HD
ENDBRANCH  20  24
ENDBRANCH   9  13
ENDBRANCH   6   7
ENDBRANCH   4   6
ENDBRANCH   3   4
ENDBRANCH   2   3
ENDBRANCH   1   2
BRANCH   1  26
ATOM     26  O   UNL A   1      38.742  22.704  25.756  1.00  0.00    -0.374 OA
BRANCH  26  27
ATOM     27  C   UNL A   1      39.801  22.171  26.552  1.00  0.00     0.202 C 
BRANCH  27  28
ATOM     28  C   UNL A   1      41.197  22.521  26.026  1.00  0.00     0.261 C 
BRANCH  28  29
ATOM     29  O   UNL A   1      41.778  23.634  26.745  1.00  0.00    -0.460 OA
BRANCH  29  30
ATOM     30  C   UNL A   1      41.502  24.870  26.237  1.00  0.00     0.338 C 
ATOM     31  O   UNL A   1      41.459  25.179  25.068  1.00  0.00    -0.246 OA
BRANCH  30  32
ATOM     32  C   UNL A   1      41.180  25.821  27.336  1.00  0.00     0.060 A 
ATOM     33  C   UNL A   1      41.913  27.009  27.411  1.00  0.00     0.016 A 
ATOM     34  C   UNL A   1      40.168  25.581  28.276  1.00  0.00     0.016 A 
ATOM     35  C   UNL A   1      41.597  27.969  28.382  1.00  0.00     0.010 A 
ATOM     36  C   UNL A   1      39.900  26.519  29.293  1.00  0.00     0.010 A 
ATOM     37  C   UNL A   1      40.611  27.725  29.361  1.00  0.00    -0.014 A 
BRANCH  37  38
ATOM     38  C   UNL A   1      40.485  28.670  30.519  1.00  0.00     0.031 A 
ATOM     39  C   UNL A   1      39.306  29.606  30.529  1.00  0.00     0.074 A 
ATOM     40  C   UNL A   1      41.334  28.701  31.569  1.00  0.00     0.049 A 
ATOM     41  N   UNL A   1      38.973  30.507  31.417  1.00  0.00    -0.248 NA
ATOM     42  C   UNL A   1      38.410  29.548  29.363  1.00  0.00     0.031 C 
ATOM     43  C   UNL A   1      42.557  27.926  31.700  1.00  0.00     0.029 A 
ATOM     44  N   UNL A   1      41.255  29.363  32.776  1.00  0.00    -0.354 N 
ATOM     45  C   UNL A   1      37.889  31.177  30.873  1.00  0.00     0.074 A 
ATOM     46  C   UNL A   1      37.543  30.504  29.642  1.00  0.00     0.031 C 
ATOM     47  C   UNL A   1      42.979  27.963  32.975  1.00  0.00     0.029 A 
ATOM     48  C   UNL A   1      42.166  28.921  33.715  1.00  0.00     0.049 A 
ATOM     49  H   UNL A   1      40.608  30.085  32.953  1.00  0.00     0.167 HD
ATOM     50  C   UNL A   1      37.306  32.323  31.295  1.00  0.00     0.037 A 
ATOM     51  C   UNL A   1      42.346  29.274  35.007  1.00  0.00     0.037 A 
ATOM     52  C   UNL A   1      37.703  33.047  32.467  1.00  0.00     0.049 A 
ATOM     53  C   UNL A   1      41.619  30.493  35.514  1.00  0.00     0.074 A 
ATOM     54  C   UNL A   1      37.285  34.293  32.898  1.00  0.00     0.029 A 
ATOM     55  N   UNL A   1      38.625  32.588  33.394  1.00  0.00    -0.354 N 
ATOM     56  N   UNL A   1      40.671  31.190  34.936  1.00  0.00    -0.248 NA
ATOM     57  C   UNL A   1      42.062  31.045  36.805  1.00  0.00     0.031 C 
ATOM     58  C   UNL A   1      37.981  34.601  34.072  1.00  0.00     0.029 A 
ATOM     59  C   UNL A   1      38.791  33.525  34.397  1.00  0.00     0.049 A 
ATOM     60  H   UNL A   1      39.092  31.722  33.345  1.00  0.00     0.167 HD
ATOM     61  C   UNL A   1      40.448  32.286  35.758  1.00  0.00     0.074 A 
ATOM     62  C   UNL A   1      41.303  32.127  36.915  1.00  0.00     0.031 C 
ATOM     63  C   UNL A   1      39.643  33.354  35.545  1.00  0.00     0.037 A 
BRANCH  50  64
ATOM     64  C   UNL A   1      36.322  32.930  30.343  1.00  0.00     0.057 A 
ATOM     65  C   UNL A   1      36.718  33.649  29.212  1.00  0.00     0.134 A 
ATOM     66  C   UNL A   1      34.957  32.905  30.658  1.00  0.00     0.134 A 
ATOM     67  F   UNL A   1      38.017  33.750  28.889  1.00  0.00    -0.206 F 
ATOM     68  C   UNL A   1      35.792  34.364  28.450  1.00  0.00     0.040 A 
ATOM     69  C   UNL A   1      34.021  33.595  29.891  1.00  0.00     0.040 A 
ATOM     70  F   UNL A   1      34.519  32.248  31.744  1.00  0.00    -0.206 F 
ATOM     71  C   UNL A   1      34.440  34.341  28.793  1.00  0.00     0.006 A 
ENDBRANCH  50  64
BRANCH  51  72
ATOM     72  C   UNL A   1      43.297  28.556  35.907  1.00  0.00     0.057 A 
ATOM     73  C   UNL A   1      42.864  27.457  36.667  1.00  0.00     0.134 A 
ATOM     74  C   UNL A   1      44.624  28.963  36.091  1.00  0.00     0.134 A 
ATOM     75  F   UNL A   1      41.594  27.035  36.578  1.00  0.00    -0.206 F 
ATOM     76  C   UNL A   1      43.706  26.801  37.568  1.00  0.00     0.040 A 
ATOM     77  C   UNL A   1      45.489  28.293  36.960  1.00  0.00     0.040 A 
ATOM     78  F   UNL A   1      45.106  30.024  35.429  1.00  0.00    -0.206 F 
ATOM     79  C   UNL A   1      45.029  27.212  37.709  1.00  0.00     0.006 A 
ENDBRANCH  51  72
BRANCH  63  80
ATOM     80  C   UNL A   1      39.650  34.446  36.570  1.00  0.00     0.057 A 
ATOM     81  C   UNL A   1      38.917  34.338  37.759  1.00  0.00     0.134 A 
ATOM     82  C   UNL A   1      40.466  35.571  36.407  1.00  0.00     0.134 A 
ATOM     83  F   UNL A   1      38.110  33.288  37.969  1.00  0.00    -0.206 F 
ATOM     84  C   UNL A   1      38.997  35.316  38.752  1.00  0.00     0.040 A 
ATOM     85  C   UNL A   1      40.568  36.545  37.400  1.00  0.00     0.040 A 
ATOM     86  F   UNL A   1      41.196  35.726  35.292  1.00  0.00    -0.206 F 
ATOM     87  C   UNL A   1      39.832  36.419  38.577  1.00  0.00     0.006 A 
ENDBRANCH  63  80
ENDBRANCH  37  38
ENDBRANCH  30  32
ENDBRANCH  29  30
ENDBRANCH  28  29
ENDBRANCH  27  28
ENDBRANCH  26  27
ENDBRANCH   1  26
TORSDOF 17
ENDMDL
MODEL 3
REMARK VINA RESULT:     -10.9      4.517      9.698
REMARK SMILES O=C(Cc1cncnc1N1CCC2(CC1)OCCC[C@@H]2O)OCCOCCOC(=O)c1ccc(-c2c3nc(c(-c4c(F)cccc4F)c4ccc([nH]4)c(-c4c(F)cccc4F)c4nc(c(-c5c(F)cccc5F)c5ccc2[nH]5)C=C4)C=C3)cc1
REMARK SMILES IDX 24 1 23 2 22 3 2 4 1 5 3 6 4 7 5 8 9 9 6 10 8 11 7 12 10 13
REMARK SMILES IDX 11 14 15 15 12 16 14 17 13 18 16 19 20 20 17 21 19 22 18 23
REMARK SMILES IDX 21 24 25 26 26 27 27 28 28 29 29 30 30 31 31 32 32 33 84 34
REMARK SMILES IDX 33 35 83 36 34 37 35 38 36 39 77 40 37 41 82 42 76 43 78 44
REMARK SMILES IDX 38 45 81 46 75 47 74 48 39 50 65 51 48 52 64 53 49 54 52 55
REMARK SMILES IDX 63 56 79 57 50 58 51 59 62 61 80 62 53 63 40 64 41 65 46 66
REMARK SMILES IDX 42 67 43 68 45 69 47 70 44 71 66 72 67 73 72 74 68 75 69 76
REMARK SMILES IDX 71 77 73 78 70 79 54 80 55 81 60 82 56 83 57 84 59 85 61 86
REMARK SMILES IDX 58 87
REMARK H PARENT 21 25 78 49 52 60
REMARK Flexibility Score: inf
ROOT
ATOM      1  C   UNL A   1      39.480  21.634  26.323  1.00  0.00     0.202 C 
ENDROOT
BRANCH   1   2
ATOM      2  C   UNL A   1      38.127  21.598  25.600  1.00  0.00     0.261 C 
BRANCH   2   3
ATOM      3  O   UNL A   1      37.988  22.657  24.643  1.00  0.00    -0.463 OA
BRANCH   3   4
ATOM      4  C   UNL A   1      36.778  22.681  24.010  1.00  0.00     0.310 C 
ATOM      5  O   UNL A   1      36.674  22.968  22.824  1.00  0.00    -0.252 OA
BRANCH   4   6
ATOM      6  C   UNL A   1      35.638  22.590  24.993  1.00  0.00     0.163 C 
BRANCH   6   7
ATOM      7  C   UNL A   1      34.490  21.710  24.599  1.00  0.00     0.024 A 
ATOM      8  C   UNL A   1      34.511  20.370  24.946  1.00  0.00     0.121 A 
ATOM      9  C   UNL A   1      33.396  22.107  23.837  1.00  0.00     0.135 A 
ATOM     10  N   UNL A   1      33.585  19.473  24.571  1.00  0.00    -0.244 NA
ATOM     11  N   UNL A   1      32.458  21.230  23.430  1.00  0.00    -0.219 NA
ATOM     12  C   UNL A   1      32.599  19.959  23.814  1.00  0.00     0.224 A 
BRANCH   9  13
ATOM     13  N   UNL A   1      33.196  23.450  23.498  1.00  0.00    -0.356 N 
ATOM     14  C   UNL A   1      32.364  24.124  24.506  1.00  0.00     0.121 C 
ATOM     15  C   UNL A   1      32.643  23.646  22.159  1.00  0.00     0.121 C 
ATOM     16  C   UNL A   1      32.560  25.614  24.365  1.00  0.00     0.060 C 
ATOM     17  C   UNL A   1      32.778  25.115  21.796  1.00  0.00     0.060 C 
ATOM     18  C   UNL A   1      32.409  26.129  22.915  1.00  0.00     0.097 C 
ATOM     19  O   UNL A   1      31.016  26.403  22.637  1.00  0.00    -0.372 OA
ATOM     20  C   UNL A   1      33.342  27.375  22.828  1.00  0.00     0.146 C 
ATOM     21  C   UNL A   1      30.469  27.623  23.116  1.00  0.00     0.161 C 
ATOM     22  C   UNL A   1      32.677  28.681  23.200  1.00  0.00     0.037 C 
ATOM     23  C   UNL A   1      31.279  28.801  22.631  1.00  0.00     0.031 C 
BRANCH  20  24
ATOM     24  O   UNL A   1      33.931  27.515  21.543  1.00  0.00    -0.390 OA
ATOM     25  H   UNL A   1      33.466  28.206  21.047  1.00  0.00     0.211 HD
ENDBRANCH  20  24
ENDBRANCH   9  13
ENDBRANCH   6   7
ENDBRANCH   4   6
ENDBRANCH   3   4
ENDBRANCH   2   3
ENDBRANCH   1   2
BRANCH   1  26
ATOM     26  O   UNL A   1      40.531  20.988  25.613  1.00  0.00    -0.374 OA
BRANCH  26  27
ATOM     27  C   UNL A   1      41.730  20.768  26.357  1.00  0.00     0.202 C 
BRANCH  27  28
ATOM     28  C   UNL A   1      42.958  21.458  25.754  1.00  0.00     0.261 C 
BRANCH  28  29
ATOM     29  O   UNL A   1      42.599  22.659  25.032  1.00  0.00    -0.460 OA
BRANCH  29  30
ATOM     30  C   UNL A   1      43.409  23.737  25.246  1.00  0.00     0.338 C 
ATOM     31  O   UNL A   1      44.432  24.003  24.658  1.00  0.00    -0.246 OA
BRANCH  30  32
ATOM     32  C   UNL A   1      42.825  24.623  26.291  1.00  0.00     0.060 A 
ATOM     33  C   UNL A   1      43.151  25.982  26.256  1.00  0.00     0.016 A 
ATOM     34  C   UNL A   1      41.954  24.154  27.286  1.00  0.00     0.016 A 
ATOM     35  C   UNL A   1      42.567  26.868  27.172  1.00  0.00     0.010 A 
ATOM     36  C   UNL A   1      41.425  25.037  28.247  1.00  0.00     0.010 A 
ATOM     37  C   UNL A   1      41.724  26.406  28.204  1.00  0.00    -0.014 A 
BRANCH  37  38
ATOM     38  C   UNL A   1      41.330  27.351  29.300  1.00  0.00     0.031 A 
ATOM     39  C   UNL A   1      42.295  27.534  30.441  1.00  0.00     0.074 A 
ATOM     40  C   UNL A   1      40.191  28.078  29.303  1.00  0.00     0.049 A 
ATOM     41  N   UNL A   1      42.188  28.296  31.499  1.00  0.00    -0.248 NA
ATOM     42  C   UNL A   1      43.519  26.718  30.405  1.00  0.00     0.031 C 
ATOM     43  C   UNL A   1      39.117  27.983  28.328  1.00  0.00     0.029 A 
ATOM     44  N   UNL A   1      39.779  29.108  30.122  1.00  0.00    -0.354 N 
ATOM     45  C   UNL A   1      43.282  27.983  32.290  1.00  0.00     0.074 A 
ATOM     46  C   UNL A   1      44.102  27.058  31.540  1.00  0.00     0.031 C 
ATOM     47  C   UNL A   1      38.303  29.045  28.451  1.00  0.00     0.029 A 
ATOM     48  C   UNL A   1      38.686  29.800  29.638  1.00  0.00     0.049 A 
ATOM     49  H   UNL A   1      40.222  29.330  30.972  1.00  0.00     0.167 HD
ATOM     50  C   UNL A   1      43.526  28.336  33.573  1.00  0.00     0.037 A 
ATOM     51  C   UNL A   1      38.048  30.891  30.117  1.00  0.00     0.037 A 
ATOM     52  C   UNL A   1      42.670  29.182  34.355  1.00  0.00     0.049 A 
ATOM     53  C   UNL A   1      38.388  31.354  31.511  1.00  0.00     0.074 A 
ATOM     54  C   UNL A   1      42.742  29.476  35.703  1.00  0.00     0.029 A 
ATOM     55  N   UNL A   1      41.574  29.863  33.851  1.00  0.00    -0.354 N 
ATOM     56  N   UNL A   1      39.362  30.962  32.296  1.00  0.00    -0.248 NA
ATOM     57  C   UNL A   1      37.475  32.328  32.132  1.00  0.00     0.031 C 
ATOM     58  C   UNL A   1      41.666  30.312  36.023  1.00  0.00     0.029 A 
ATOM     59  C   UNL A   1      40.959  30.578  34.862  1.00  0.00     0.049 A 
ATOM     60  H   UNL A   1      41.277  29.840  32.912  1.00  0.00     0.167 HD
ATOM     61  C   UNL A   1      39.146  31.593  33.514  1.00  0.00     0.074 A 
ATOM     62  C   UNL A   1      37.994  32.453  33.346  1.00  0.00     0.031 C 
ATOM     63  C   UNL A   1      39.814  31.432  34.681  1.00  0.00     0.037 A 
BRANCH  50  64
ATOM     64  C   UNL A   1      44.667  27.623  34.229  1.00  0.00     0.057 A 
ATOM     65  C   UNL A   1      45.971  28.127  34.222  1.00  0.00     0.134 A 
ATOM     66  C   UNL A   1      44.466  26.337  34.749  1.00  0.00     0.134 A 
ATOM     67  F   UNL A   1      46.232  29.332  33.690  1.00  0.00    -0.206 F 
ATOM     68  C   UNL A   1      47.047  27.357  34.668  1.00  0.00     0.040 A 
ATOM     69  C   UNL A   1      45.528  25.568  35.220  1.00  0.00     0.040 A 
ATOM     70  F   UNL A   1      43.240  25.791  34.763  1.00  0.00    -0.206 F 
ATOM     71  C   UNL A   1      46.825  26.072  35.165  1.00  0.00     0.006 A 
ENDBRANCH  50  64
BRANCH  51  72
ATOM     72  C   UNL A   1      36.970  31.586  29.353  1.00  0.00     0.057 A 
ATOM     73  C   UNL A   1      35.730  30.961  29.145  1.00  0.00     0.134 A 
ATOM     74  C   UNL A   1      37.147  32.842  28.760  1.00  0.00     0.134 A 
ATOM     75  F   UNL A   1      35.500  29.737  29.644  1.00  0.00    -0.206 F 
ATOM     76  C   UNL A   1      34.720  31.552  28.380  1.00  0.00     0.040 A 
ATOM     77  C   UNL A   1      36.133  33.462  28.025  1.00  0.00     0.040 A 
ATOM     78  F   UNL A   1      38.313  33.492  28.883  1.00  0.00    -0.206 F 
ATOM     79  C   UNL A   1      34.916  32.813  27.826  1.00  0.00     0.006 A 
ENDBRANCH  51  72
BRANCH  63  80
ATOM     80  C   UNL A   1      39.319  32.186  35.877  1.00  0.00     0.057 A 
ATOM     81  C   UNL A   1      39.728  33.501  36.134  1.00  0.00     0.134 A 
ATOM     82  C   UNL A   1      38.356  31.626  36.723  1.00  0.00     0.134 A 
ATOM     83  F   UNL A   1      40.654  34.090  35.363  1.00  0.00    -0.206 F 
ATOM     84  C   UNL A   1      39.196  34.232  37.197  1.00  0.00     0.040 A 
ATOM     85  C   UNL A   1      37.804  32.352  37.778  1.00  0.00     0.040 A 
ATOM     86  F   UNL A   1      37.921  30.372  36.523  1.00  0.00    -0.206 F 
ATOM     87  C   UNL A   1      38.223  33.660  38.016  1.00  0.00     0.006 A 
ENDBRANCH  63  80
ENDBRANCH  37  38
ENDBRANCH  30  32
ENDBRANCH  29  30
ENDBRANCH  28  29
ENDBRANCH  27  28
ENDBRANCH  26  27
ENDBRANCH   1  26
TORSDOF 17
ENDMDL
