MODEL 1
REMARK VINA RESULT:     -11.8      0.000      0.000
REMARK SMILES Cc1ccc(N2C(=O)C[C@H](Sc3ccccc3C(=O)OCCOCCOC(=O)c3ccc(-c4c5nc(c(-c6c(F)cccc6F)c6ccc([nH]6)c(-c6c(F)cccc6F)c6nc(c(-c7c(F)cccc7F)c7ccc4[nH]7)C=C6)C=C5)cc3)C2=O)cc1
REMARK SMILES IDX 22 1 21 2 20 3 18 4 19 5 17 6 12 7 13 8 14 9 16 10 15 11
REMARK SMILES IDX 11 12 10 13 6 14 7 15 83 16 8 17 9 18 84 19 5 20 1 21 2 22
REMARK SMILES IDX 3 23 86 24 4 25 85 26 23 27 24 28 25 29 26 30 27 31 28 32
REMARK SMILES IDX 29 33 30 34 82 35 31 36 81 37 32 38 33 39 34 40 75 41 35 42
REMARK SMILES IDX 80 43 74 44 76 45 36 46 79 47 73 48 72 49 37 51 63 52 46 53
REMARK SMILES IDX 62 54 47 55 50 56 61 57 77 58 48 59 49 60 60 62 78 63 51 64
REMARK SMILES IDX 38 65 39 66 44 67 40 68 41 69 43 70 45 71 42 72 64 73 65 74
REMARK SMILES IDX 70 75 66 76 67 77 69 78 71 79 68 80 52 81 53 82 58 83 54 84
REMARK SMILES IDX 55 85 57 86 59 87 56 88
REMARK H PARENT 76 50 50 61
REMARK Flexibility Score: inf
ROOT
ATOM      1  C   UNL A   1      33.162  27.466  25.839  1.00  0.00     0.202 C 
ENDROOT
BRANCH   1   2
ATOM      2  C   UNL A   1      34.196  26.551  25.312  1.00  0.00     0.261 C 
BRANCH   2   3
ATOM      3  O   UNL A   1      34.049  25.194  25.788  1.00  0.00    -0.460 OA
BRANCH   3   4
ATOM      4  C   UNL A   1      34.926  24.185  25.492  1.00  0.00     0.339 C 
ATOM      5  O   UNL A   1      36.125  24.209  25.524  1.00  0.00    -0.246 OA
BRANCH   4   6
ATOM      6  C   UNL A   1      34.115  22.996  25.149  1.00  0.00     0.073 A 
ATOM      7  C   UNL A   1      33.489  22.823  23.900  1.00  0.00     0.023 A 
ATOM      8  C   UNL A   1      32.919  21.564  23.642  1.00  0.00     0.016 A 
ATOM      9  C   UNL A   1      32.967  20.527  24.583  1.00  0.00     0.001 A 
ATOM     10  C   UNL A   1      34.052  21.984  26.130  1.00  0.00     0.017 A 
ATOM     11  C   UNL A   1      33.504  20.747  25.842  1.00  0.00     0.001 A 
BRANCH   7  12
ATOM     12  S   UNL A   1      33.115  24.126  22.715  1.00  0.00    -0.111 SA
BRANCH  12  13
ATOM     13  C   UNL A   1      31.396  24.652  23.021  1.00  0.00     0.151 C 
ATOM     14  N   UNL A   1      30.191  26.573  23.519  1.00  0.00    -0.250 N 
ATOM     15  C   UNL A   1      30.023  25.748  24.605  1.00  0.00     0.235 C 
ATOM     16  C   UNL A   1      31.009  26.029  22.557  1.00  0.00     0.247 C 
ATOM     17  O   UNL A   1      29.335  25.940  25.599  1.00  0.00    -0.274 OA
ATOM     18  C   UNL A   1      31.018  24.629  24.491  1.00  0.00     0.126 C 
ATOM     19  O   UNL A   1      31.253  26.504  21.457  1.00  0.00    -0.273 OA
BRANCH  14  20
ATOM     20  C   UNL A   1      29.641  27.865  23.425  1.00  0.00     0.052 A 
ATOM     21  C   UNL A   1      27.977  31.833  23.199  1.00  0.00     0.044 C 
ATOM     22  C   UNL A   1      28.552  30.452  23.317  1.00  0.00    -0.051 A 
ATOM     23  C   UNL A   1      27.792  29.339  22.932  1.00  0.00     0.005 A 
ATOM     24  C   UNL A   1      29.867  30.260  23.751  1.00  0.00     0.005 A 
ATOM     25  C   UNL A   1      28.318  28.049  23.026  1.00  0.00     0.027 A 
ATOM     26  C   UNL A   1      30.420  28.979  23.766  1.00  0.00     0.027 A 
ENDBRANCH  14  20
ENDBRANCH  12  13
ENDBRANCH   7  12
ENDBRANCH   4   6
ENDBRANCH   3   4
ENDBRANCH   2   3
ENDBRANCH   1   2
BRANCH   1  27
ATOM     27  O   UNL A   1      33.941  28.177  26.760  1.00  0.00    -0.374 OA
BRANCH  27  28
ATOM     28  C   UNL A   1      33.240  29.091  27.518  1.00  0.00     0.202 C 
BRANCH  28  29
ATOM     29  C   UNL A   1      33.662  30.469  27.083  1.00  0.00     0.261 C 
BRANCH  29  30
ATOM     30  O   UNL A   1      34.999  31.006  27.429  1.00  0.00    -0.460 OA
BRANCH  30  31
ATOM     31  C   UNL A   1      35.864  30.937  28.479  1.00  0.00     0.338 C 
ATOM     32  O   UNL A   1      35.711  31.667  29.458  1.00  0.00    -0.246 OA
BRANCH  31  33
ATOM     33  C   UNL A   1      36.928  29.900  28.588  1.00  0.00     0.060 A 
ATOM     34  C   UNL A   1      37.015  29.105  29.756  1.00  0.00     0.016 A 
ATOM     35  C   UNL A   1      37.870  29.723  27.588  1.00  0.00     0.016 A 
ATOM     36  C   UNL A   1      38.168  28.349  30.034  1.00  0.00     0.010 A 
ATOM     37  C   UNL A   1      39.023  29.002  27.884  1.00  0.00     0.010 A 
ATOM     38  C   UNL A   1      39.230  28.395  29.142  1.00  0.00    -0.014 A 
BRANCH  38  39
ATOM     39  C   UNL A   1      40.587  27.871  29.404  1.00  0.00     0.031 A 
ATOM     40  C   UNL A   1      40.923  26.554  28.835  1.00  0.00     0.074 A 
ATOM     41  C   UNL A   1      41.595  28.614  29.942  1.00  0.00     0.049 A 
ATOM     42  N   UNL A   1      41.978  25.896  29.155  1.00  0.00    -0.248 NA
ATOM     43  C   UNL A   1      40.066  25.820  27.907  1.00  0.00     0.031 C 
ATOM     44  C   UNL A   1      43.053  28.470  29.814  1.00  0.00     0.029 A 
ATOM     45  N   UNL A   1      41.528  29.782  30.705  1.00  0.00    -0.354 N 
ATOM     46  C   UNL A   1      42.142  24.910  28.216  1.00  0.00     0.074 A 
ATOM     47  C   UNL A   1      40.843  24.773  27.614  1.00  0.00     0.031 C 
ATOM     48  C   UNL A   1      43.671  29.274  30.709  1.00  0.00     0.029 A 
ATOM     49  C   UNL A   1      42.634  29.859  31.550  1.00  0.00     0.049 A 
ATOM     50  H   UNL A   1      40.809  30.452  30.652  1.00  0.00     0.167 HD
ATOM     51  C   UNL A   1      43.411  24.471  27.978  1.00  0.00     0.037 A 
ATOM     52  C   UNL A   1      42.452  29.790  32.898  1.00  0.00     0.037 A 
ATOM     53  C   UNL A   1      44.353  25.051  28.962  1.00  0.00     0.049 A 
ATOM     54  C   UNL A   1      43.062  28.509  33.392  1.00  0.00     0.074 A 
ATOM     55  C   UNL A   1      45.397  25.961  28.917  1.00  0.00     0.029 A 
ATOM     56  N   UNL A   1      44.061  24.906  30.314  1.00  0.00    -0.354 N 
ATOM     57  N   UNL A   1      43.542  27.617  32.572  1.00  0.00    -0.248 NA
ATOM     58  C   UNL A   1      43.167  28.090  34.780  1.00  0.00     0.031 C 
ATOM     59  C   UNL A   1      45.707  26.355  30.263  1.00  0.00     0.029 A 
ATOM     60  C   UNL A   1      44.875  25.663  31.130  1.00  0.00     0.049 A 
ATOM     61  H   UNL A   1      43.345  24.322  30.655  1.00  0.00     0.167 HD
ATOM     62  C   UNL A   1      44.055  26.567  33.244  1.00  0.00     0.074 A 
ATOM     63  C   UNL A   1      43.729  26.872  34.633  1.00  0.00     0.031 C 
ATOM     64  C   UNL A   1      44.699  25.562  32.581  1.00  0.00     0.037 A 
BRANCH  51  65
ATOM     65  C   UNL A   1      43.854  23.653  26.775  1.00  0.00     0.057 A 
ATOM     66  C   UNL A   1      44.541  24.280  25.715  1.00  0.00     0.134 A 
ATOM     67  C   UNL A   1      43.605  22.282  26.548  1.00  0.00     0.134 A 
ATOM     68  F   UNL A   1      44.871  25.578  25.762  1.00  0.00    -0.206 F 
ATOM     69  C   UNL A   1      44.925  23.611  24.541  1.00  0.00     0.040 A 
ATOM     70  C   UNL A   1      44.013  21.594  25.395  1.00  0.00     0.040 A 
ATOM     71  F   UNL A   1      42.925  21.514  27.399  1.00  0.00    -0.206 F 
ATOM     72  C   UNL A   1      44.668  22.259  24.378  1.00  0.00     0.006 A 
ENDBRANCH  51  65
BRANCH  52  73
ATOM     73  C   UNL A   1      41.172  30.437  33.347  1.00  0.00     0.057 A 
ATOM     74  C   UNL A   1      41.100  31.844  33.423  1.00  0.00     0.134 A 
ATOM     75  C   UNL A   1      39.947  29.765  33.245  1.00  0.00     0.134 A 
ATOM     76  F   UNL A   1      42.226  32.577  33.460  1.00  0.00    -0.206 F 
ATOM     77  C   UNL A   1      39.888  32.547  33.289  1.00  0.00     0.040 A 
ATOM     78  C   UNL A   1      38.735  30.458  33.080  1.00  0.00     0.040 A 
ATOM     79  F   UNL A   1      39.914  28.427  33.164  1.00  0.00    -0.206 F 
ATOM     80  C   UNL A   1      38.706  31.850  33.059  1.00  0.00     0.006 A 
ENDBRANCH  52  73
BRANCH  64  81
ATOM     81  C   UNL A   1      45.170  24.337  33.290  1.00  0.00     0.057 A 
ATOM     82  C   UNL A   1      46.457  24.221  33.821  1.00  0.00     0.134 A 
ATOM     83  C   UNL A   1      44.334  23.215  33.452  1.00  0.00     0.134 A 
ATOM     84  F   UNL A   1      47.394  25.150  33.584  1.00  0.00    -0.206 F 
ATOM     85  C   UNL A   1      46.831  23.133  34.611  1.00  0.00     0.040 A 
ATOM     86  C   UNL A   1      44.719  22.094  34.178  1.00  0.00     0.040 A 
ATOM     87  F   UNL A   1      43.094  23.157  32.950  1.00  0.00    -0.206 F 
ATOM     88  C   UNL A   1      45.955  22.070  34.801  1.00  0.00     0.006 A 
ENDBRANCH  64  81
ENDBRANCH  38  39
ENDBRANCH  31  33
ENDBRANCH  30  31
ENDBRANCH  29  30
ENDBRANCH  28  29
ENDBRANCH  27  28
ENDBRANCH   1  27
TORSDOF 17
ENDMDL
MODEL 2
REMARK VINA RESULT:     -11.7      2.978      8.734
REMARK SMILES Cc1ccc(N2C(=O)C[C@H](Sc3ccccc3C(=O)OCCOCCOC(=O)c3ccc(-c4c5nc(c(-c6c(F)cccc6F)c6ccc([nH]6)c(-c6c(F)cccc6F)c6nc(c(-c7c(F)cccc7F)c7ccc4[nH]7)C=C6)C=C5)cc3)C2=O)cc1
REMARK SMILES IDX 22 1 21 2 20 3 18 4 19 5 17 6 12 7 13 8 14 9 16 10 15 11
REMARK SMILES IDX 11 12 10 13 6 14 7 15 83 16 8 17 9 18 84 19 5 20 1 21 2 22
REMARK SMILES IDX 3 23 86 24 4 25 85 26 23 27 24 28 25 29 26 30 27 31 28 32
REMARK SMILES IDX 29 33 30 34 82 35 31 36 81 37 32 38 33 39 34 40 75 41 35 42
REMARK SMILES IDX 80 43 74 44 76 45 36 46 79 47 73 48 72 49 37 51 63 52 46 53
REMARK SMILES IDX 62 54 47 55 50 56 61 57 77 58 48 59 49 60 60 62 78 63 51 64
REMARK SMILES IDX 38 65 39 66 44 67 40 68 41 69 43 70 45 71 42 72 64 73 65 74
REMARK SMILES IDX 70 75 66 76 67 77 69 78 71 79 68 80 52 81 53 82 58 83 54 84
REMARK SMILES IDX 55 85 57 86 59 87 56 88
REMARK H PARENT 76 50 50 61
REMARK Flexibility Score: inf
ROOT
ATOM      1  C   UNL A   1      35.515  24.077  25.007  1.00  0.00     0.202 C 
ENDROOT
BRANCH   1   2
ATOM      2  C   UNL A   1      34.561  24.923  25.755  1.00  0.00     0.261 C 
BRANCH   2   3
ATOM      3  O   UNL A   1      34.074  26.046  24.987  1.00  0.00    -0.460 OA
BRANCH   3   4
ATOM      4  C   UNL A   1      33.434  27.124  25.539  1.00  0.00     0.339 C 
ATOM      5  O   UNL A   1      33.785  27.805  26.462  1.00  0.00    -0.246 OA
BRANCH   4   6
ATOM      6  C   UNL A   1      32.203  27.344  24.748  1.00  0.00     0.073 A 
ATOM      7  C   UNL A   1      31.025  26.595  24.928  1.00  0.00     0.023 A 
ATOM      8  C   UNL A   1      29.876  27.041  24.251  1.00  0.00     0.016 A 
ATOM      9  C   UNL A   1      29.899  28.176  23.430  1.00  0.00     0.001 A 
ATOM     10  C   UNL A   1      32.240  28.413  23.827  1.00  0.00     0.017 A 
ATOM     11  C   UNL A   1      31.091  28.843  23.190  1.00  0.00     0.001 A 
BRANCH   7  12
ATOM     12  S   UNL A   1      30.908  24.983  25.722  1.00  0.00    -0.111 SA
BRANCH  12  13
ATOM     13  C   UNL A   1      30.963  23.729  24.400  1.00  0.00     0.151 C 
ATOM     14  N   UNL A   1      32.161  21.833  23.801  1.00  0.00    -0.250 N 
ATOM     15  C   UNL A   1      32.406  22.746  22.804  1.00  0.00     0.235 C 
ATOM     16  C   UNL A   1      31.355  22.332  24.797  1.00  0.00     0.247 C 
ATOM     17  O   UNL A   1      33.056  22.588  21.780  1.00  0.00    -0.274 OA
ATOM     18  C   UNL A   1      31.921  24.085  23.279  1.00  0.00     0.126 C 
ATOM     19  O   UNL A   1      30.908  21.711  25.751  1.00  0.00    -0.273 OA
BRANCH  14  20
ATOM     20  C   UNL A   1      32.728  20.545  23.840  1.00  0.00     0.052 A 
ATOM     21  C   UNL A   1      34.405  16.579  23.972  1.00  0.00     0.044 C 
ATOM     22  C   UNL A   1      33.793  17.948  23.951  1.00  0.00    -0.051 A 
ATOM     23  C   UNL A   1      34.399  19.000  24.650  1.00  0.00     0.005 A 
ATOM     24  C   UNL A   1      32.651  18.208  23.188  1.00  0.00     0.005 A 
ATOM     25  C   UNL A   1      33.846  20.283  24.630  1.00  0.00     0.027 A 
ATOM     26  C   UNL A   1      32.146  19.506  23.101  1.00  0.00     0.027 A 
ENDBRANCH  14  20
ENDBRANCH  12  13
ENDBRANCH   7  12
ENDBRANCH   4   6
ENDBRANCH   3   4
ENDBRANCH   2   3
ENDBRANCH   1   2
BRANCH   1  27
ATOM     27  O   UNL A   1      36.235  23.545  26.084  1.00  0.00    -0.374 OA
BRANCH  27  28
ATOM     28  C   UNL A   1      36.508  22.198  25.981  1.00  0.00     0.202 C 
BRANCH  28  29
ATOM     29  C   UNL A   1      37.844  22.050  25.303  1.00  0.00     0.261 C 
BRANCH  29  30
ATOM     30  O   UNL A   1      39.094  21.940  26.089  1.00  0.00    -0.460 OA
BRANCH  30  31
ATOM     31  C   UNL A   1      40.137  22.748  26.429  1.00  0.00     0.338 C 
ATOM     32  O   UNL A   1      41.296  22.372  26.250  1.00  0.00    -0.246 OA
BRANCH  31  33
ATOM     33  C   UNL A   1      39.962  24.157  26.878  1.00  0.00     0.060 A 
ATOM     34  C   UNL A   1      40.586  25.205  26.160  1.00  0.00     0.016 A 
ATOM     35  C   UNL A   1      39.235  24.467  28.016  1.00  0.00     0.016 A 
ATOM     36  C   UNL A   1      40.709  26.491  26.715  1.00  0.00     0.010 A 
ATOM     37  C   UNL A   1      39.391  25.732  28.576  1.00  0.00     0.010 A 
ATOM     38  C   UNL A   1      40.208  26.721  27.988  1.00  0.00    -0.014 A 
BRANCH  38  39
ATOM     39  C   UNL A   1      40.475  27.925  28.803  1.00  0.00     0.031 A 
ATOM     40  C   UNL A   1      39.504  29.030  28.712  1.00  0.00     0.074 A 
ATOM     41  C   UNL A   1      41.424  27.983  29.779  1.00  0.00     0.049 A 
ATOM     42  N   UNL A   1      39.718  30.199  29.198  1.00  0.00    -0.248 NA
ATOM     43  C   UNL A   1      38.231  28.946  28.000  1.00  0.00     0.031 C 
ATOM     44  C   UNL A   1      41.502  28.833  30.978  1.00  0.00     0.029 A 
ATOM     45  N   UNL A   1      42.558  27.189  29.965  1.00  0.00    -0.354 N 
ATOM     46  C   UNL A   1      38.513  30.852  29.234  1.00  0.00     0.074 A 
ATOM     47  C   UNL A   1      37.692  30.131  28.299  1.00  0.00     0.031 C 
ATOM     48  C   UNL A   1      42.732  28.727  31.532  1.00  0.00     0.029 A 
ATOM     49  C   UNL A   1      43.542  27.918  30.629  1.00  0.00     0.049 A 
ATOM     50  H   UNL A   1      42.647  26.254  29.672  1.00  0.00     0.167 HD
ATOM     51  C   UNL A   1      38.345  31.815  30.185  1.00  0.00     0.037 A 
ATOM     52  C   UNL A   1      44.703  28.217  29.985  1.00  0.00     0.037 A 
ATOM     53  C   UNL A   1      39.623  32.083  30.882  1.00  0.00     0.049 A 
ATOM     54  C   UNL A   1      44.756  29.704  29.771  1.00  0.00     0.074 A 
ATOM     55  C   UNL A   1      40.116  31.878  32.160  1.00  0.00     0.029 A 
ATOM     56  N   UNL A   1      40.739  32.387  30.110  1.00  0.00    -0.354 N 
ATOM     57  N   UNL A   1      43.750  30.475  30.069  1.00  0.00    -0.248 NA
ATOM     58  C   UNL A   1      45.867  30.448  29.201  1.00  0.00     0.031 C 
ATOM     59  C   UNL A   1      41.541  32.057  32.126  1.00  0.00     0.029 A 
ATOM     60  C   UNL A   1      41.913  32.402  30.835  1.00  0.00     0.049 A 
ATOM     61  H   UNL A   1      40.697  32.572  29.144  1.00  0.00     0.167 HD
ATOM     62  C   UNL A   1      44.036  31.767  29.813  1.00  0.00     0.074 A 
ATOM     63  C   UNL A   1      45.357  31.696  29.195  1.00  0.00     0.031 C 
ATOM     64  C   UNL A   1      43.156  32.757  30.146  1.00  0.00     0.037 A 
BRANCH  51  65
ATOM     65  C   UNL A   1      37.014  32.411  30.616  1.00  0.00     0.057 A 
ATOM     66  C   UNL A   1      36.238  31.758  31.595  1.00  0.00     0.134 A 
ATOM     67  C   UNL A   1      36.399  33.569  30.092  1.00  0.00     0.134 A 
ATOM     68  F   UNL A   1      36.669  30.647  32.208  1.00  0.00    -0.206 F 
ATOM     69  C   UNL A   1      34.969  32.207  32.000  1.00  0.00     0.040 A 
ATOM     70  C   UNL A   1      35.147  34.045  30.513  1.00  0.00     0.040 A 
ATOM     71  F   UNL A   1      36.937  34.305  29.120  1.00  0.00    -0.206 F 
ATOM     72  C   UNL A   1      34.420  33.359  31.464  1.00  0.00     0.006 A 
ENDBRANCH  51  65
BRANCH  52  73
ATOM     73  C   UNL A   1      45.142  27.133  29.042  1.00  0.00     0.057 A 
ATOM     74  C   UNL A   1      45.765  25.977  29.560  1.00  0.00     0.134 A 
ATOM     75  C   UNL A   1      44.564  27.000  27.772  1.00  0.00     0.134 A 
ATOM     76  F   UNL A   1      46.291  25.991  30.796  1.00  0.00    -0.206 F 
ATOM     77  C   UNL A   1      45.714  24.733  28.905  1.00  0.00     0.040 A 
ATOM     78  C   UNL A   1      44.481  25.756  27.124  1.00  0.00     0.040 A 
ATOM     79  F   UNL A   1      43.946  28.042  27.198  1.00  0.00    -0.206 F 
ATOM     80  C   UNL A   1      45.019  24.610  27.706  1.00  0.00     0.006 A 
ENDBRANCH  52  73
BRANCH  64  81
ATOM     81  C   UNL A   1      43.401  34.178  29.766  1.00  0.00     0.057 A 
ATOM     82  C   UNL A   1      43.430  34.610  28.438  1.00  0.00     0.134 A 
ATOM     83  C   UNL A   1      43.632  35.169  30.740  1.00  0.00     0.134 A 
ATOM     84  F   UNL A   1      43.393  33.736  27.421  1.00  0.00    -0.206 F 
ATOM     85  C   UNL A   1      43.510  35.963  28.106  1.00  0.00     0.040 A 
ATOM     86  C   UNL A   1      43.783  36.513  30.419  1.00  0.00     0.040 A 
ATOM     87  F   UNL A   1      43.689  34.897  32.050  1.00  0.00    -0.206 F 
ATOM     88  C   UNL A   1      43.675  36.920  29.100  1.00  0.00     0.006 A 
ENDBRANCH  64  81
ENDBRANCH  38  39
ENDBRANCH  31  33
ENDBRANCH  30  31
ENDBRANCH  29  30
ENDBRANCH  28  29
ENDBRANCH  27  28
ENDBRANCH   1  27
TORSDOF 17
ENDMDL
MODEL 3
REMARK VINA RESULT:     -11.6      3.710      8.420
REMARK SMILES Cc1ccc(N2C(=O)C[C@H](Sc3ccccc3C(=O)OCCOCCOC(=O)c3ccc(-c4c5nc(c(-c6c(F)cccc6F)c6ccc([nH]6)c(-c6c(F)cccc6F)c6nc(c(-c7c(F)cccc7F)c7ccc4[nH]7)C=C6)C=C5)cc3)C2=O)cc1
REMARK SMILES IDX 22 1 21 2 20 3 18 4 19 5 17 6 12 7 13 8 14 9 16 10 15 11
REMARK SMILES IDX 11 12 10 13 6 14 7 15 83 16 8 17 9 18 84 19 5 20 1 21 2 22
REMARK SMILES IDX 3 23 86 24 4 25 85 26 23 27 24 28 25 29 26 30 27 31 28 32
REMARK SMILES IDX 29 33 30 34 82 35 31 36 81 37 32 38 33 39 34 40 75 41 35 42
REMARK SMILES IDX 80 43 74 44 76 45 36 46 79 47 73 48 72 49 37 51 63 52 46 53
REMARK SMILES IDX 62 54 47 55 50 56 61 57 77 58 48 59 49 60 60 62 78 63 51 64
REMARK SMILES IDX 38 65 39 66 44 67 40 68 41 69 43 70 45 71 42 72 64 73 65 74
REMARK SMILES IDX 70 75 66 76 67 77 69 78 71 79 68 80 52 81 53 82 58 83 54 84
REMARK SMILES IDX 55 85 57 86 59 87 56 88
REMARK H PARENT 76 50 50 61
REMARK Flexibility Score: inf
ROOT
ATOM      1  C   UNL A   1      37.053  23.914  26.042  1.00  0.00     0.202 C 
ENDROOT
BRANCH   1   2
ATOM      2  C   UNL A   1      35.577  23.861  25.997  1.00  0.00     0.261 C 
BRANCH   2   3
ATOM      3  O   UNL A   1      35.042  24.024  24.664  1.00  0.00    -0.460 OA
BRANCH   3   4
ATOM      4  C   UNL A   1      35.223  23.114  23.656  1.00  0.00     0.339 C 
ATOM      5  O   UNL A   1      36.023  23.143  22.764  1.00  0.00    -0.246 OA
BRANCH   4   6
ATOM      6  C   UNL A   1      34.250  22.022  23.883  1.00  0.00     0.073 A 
ATOM      7  C   UNL A   1      32.981  21.980  23.275  1.00  0.00     0.023 A 
ATOM      8  C   UNL A   1      32.243  20.792  23.422  1.00  0.00     0.016 A 
ATOM      9  C   UNL A   1      32.743  19.700  24.142  1.00  0.00     0.001 A 
ATOM     10  C   UNL A   1      34.689  20.961  24.703  1.00  0.00     0.017 A 
ATOM     11  C   UNL A   1      33.953  19.796  24.813  1.00  0.00     0.001 A 
BRANCH   7  12
ATOM     12  S   UNL A   1      32.105  23.380  22.559  1.00  0.00    -0.111 SA
BRANCH  12  13
ATOM     13  C   UNL A   1      31.385  24.327  23.941  1.00  0.00     0.151 C 
ATOM     14  N   UNL A   1      31.996  25.937  25.498  1.00  0.00    -0.250 N 
ATOM     15  C   UNL A   1      31.684  24.820  26.235  1.00  0.00     0.235 C 
ATOM     16  C   UNL A   1      31.884  25.731  24.143  1.00  0.00     0.247 C 
ATOM     17  O   UNL A   1      31.662  24.702  27.452  1.00  0.00    -0.274 OA
ATOM     18  C   UNL A   1      31.583  23.658  25.289  1.00  0.00     0.126 C 
ATOM     19  O   UNL A   1      32.012  26.574  23.266  1.00  0.00    -0.273 OA
BRANCH  14  20
ATOM     20  C   UNL A   1      32.448  27.145  26.061  1.00  0.00     0.052 A 
ATOM     21  C   UNL A   1      33.867  30.811  27.824  1.00  0.00     0.044 C 
ATOM     22  C   UNL A   1      33.381  29.516  27.244  1.00  0.00    -0.051 A 
ATOM     23  C   UNL A   1      32.008  29.292  27.077  1.00  0.00     0.005 A 
ATOM     24  C   UNL A   1      34.286  28.545  26.805  1.00  0.00     0.005 A 
ATOM     25  C   UNL A   1      31.541  28.095  26.528  1.00  0.00     0.027 A 
ATOM     26  C   UNL A   1      33.823  27.385  26.181  1.00  0.00     0.027 A 
ENDBRANCH  14  20
ENDBRANCH  12  13
ENDBRANCH   7  12
ENDBRANCH   4   6
ENDBRANCH   3   4
ENDBRANCH   2   3
ENDBRANCH   1   2
BRANCH   1  27
ATOM     27  O   UNL A   1      37.318  22.561  26.291  1.00  0.00    -0.374 OA
BRANCH  27  28
ATOM     28  C   UNL A   1      38.227  21.987  25.428  1.00  0.00     0.202 C 
BRANCH  28  29
ATOM     29  C   UNL A   1      39.425  21.565  26.236  1.00  0.00     0.261 C 
BRANCH  29  30
ATOM     30  O   UNL A   1      40.251  22.560  26.958  1.00  0.00    -0.460 OA
BRANCH  30  31
ATOM     31  C   UNL A   1      40.990  23.661  26.648  1.00  0.00     0.338 C 
ATOM     32  O   UNL A   1      41.931  23.575  25.860  1.00  0.00    -0.246 OA
BRANCH  31  33
ATOM     33  C   UNL A   1      40.630  25.035  27.098  1.00  0.00     0.060 A 
ATOM     34  C   UNL A   1      40.903  26.142  26.259  1.00  0.00     0.016 A 
ATOM     35  C   UNL A   1      40.073  25.263  28.345  1.00  0.00     0.016 A 
ATOM     36  C   UNL A   1      40.874  27.456  26.760  1.00  0.00     0.010 A 
ATOM     37  C   UNL A   1      40.080  26.563  28.845  1.00  0.00     0.010 A 
ATOM     38  C   UNL A   1      40.574  27.655  28.099  1.00  0.00    -0.014 A 
BRANCH  38  39
ATOM     39  C   UNL A   1      40.745  28.928  28.831  1.00  0.00     0.031 A 
ATOM     40  C   UNL A   1      39.607  29.863  28.833  1.00  0.00     0.074 A 
ATOM     41  C   UNL A   1      41.789  29.184  29.669  1.00  0.00     0.049 A 
ATOM     42  N   UNL A   1      39.691  31.076  29.247  1.00  0.00    -0.248 NA
ATOM     43  C   UNL A   1      38.284  29.545  28.301  1.00  0.00     0.031 C 
ATOM     44  C   UNL A   1      41.882  30.099  30.817  1.00  0.00     0.029 A 
ATOM     45  N   UNL A   1      43.050  28.586  29.728  1.00  0.00    -0.354 N 
ATOM     46  C   UNL A   1      38.412  31.536  29.421  1.00  0.00     0.074 A 
ATOM     47  C   UNL A   1      37.604  30.648  28.629  1.00  0.00     0.031 C 
ATOM     48  C   UNL A   1      43.173  30.215  31.205  1.00  0.00     0.029 A 
ATOM     49  C   UNL A   1      43.981  29.493  30.230  1.00  0.00     0.049 A 
ATOM     50  H   UNL A   1      43.250  27.661  29.457  1.00  0.00     0.167 HD
ATOM     51  C   UNL A   1      38.213  32.511  30.354  1.00  0.00     0.037 A 
ATOM     52  C   UNL A   1      44.988  29.932  29.426  1.00  0.00     0.037 A 
ATOM     53  C   UNL A   1      39.510  33.011  30.864  1.00  0.00     0.049 A 
ATOM     54  C   UNL A   1      44.775  31.395  29.157  1.00  0.00     0.074 A 
ATOM     55  C   UNL A   1      40.187  32.954  32.071  1.00  0.00     0.029 A 
ATOM     56  N   UNL A   1      40.456  33.441  29.940  1.00  0.00    -0.354 N 
ATOM     57  N   UNL A   1      43.704  32.017  29.561  1.00  0.00    -0.248 NA
ATOM     58  C   UNL A   1      45.671  32.270  28.419  1.00  0.00     0.031 C 
ATOM     59  C   UNL A   1      41.549  33.349  31.840  1.00  0.00     0.029 A 
ATOM     60  C   UNL A   1      41.695  33.677  30.501  1.00  0.00     0.049 A 
ATOM     61  H   UNL A   1      40.263  33.565  28.983  1.00  0.00     0.167 HD
ATOM     62  C   UNL A   1      43.746  33.322  29.226  1.00  0.00     0.074 A 
ATOM     63  C   UNL A   1      44.971  33.422  28.439  1.00  0.00     0.031 C 
ATOM     64  C   UNL A   1      42.767  34.181  29.640  1.00  0.00     0.037 A 
BRANCH  51  65
ATOM     65  C   UNL A   1      36.869  32.918  30.938  1.00  0.00     0.057 A 
ATOM     66  C   UNL A   1      36.432  32.349  32.152  1.00  0.00     0.134 A 
ATOM     67  C   UNL A   1      35.930  33.799  30.361  1.00  0.00     0.134 A 
ATOM     68  F   UNL A   1      37.199  31.496  32.845  1.00  0.00    -0.206 F 
ATOM     69  C   UNL A   1      35.178  32.620  32.724  1.00  0.00     0.040 A 
ATOM     70  C   UNL A   1      34.688  34.104  30.940  1.00  0.00     0.040 A 
ATOM     71  F   UNL A   1      36.120  34.404  29.189  1.00  0.00    -0.206 F 
ATOM     72  C   UNL A   1      34.301  33.507  32.122  1.00  0.00     0.006 A 
ENDBRANCH  51  65
BRANCH  52  73
ATOM     73  C   UNL A   1      45.472  28.878  28.470  1.00  0.00     0.057 A 
ATOM     74  C   UNL A   1      45.052  28.924  27.123  1.00  0.00     0.134 A 
ATOM     75  C   UNL A   1      46.645  28.155  28.722  1.00  0.00     0.134 A 
ATOM     76  F   UNL A   1      43.973  29.645  26.777  1.00  0.00    -0.206 F 
ATOM     77  C   UNL A   1      45.817  28.380  26.074  1.00  0.00     0.040 A 
ATOM     78  C   UNL A   1      47.431  27.635  27.680  1.00  0.00     0.040 A 
ATOM     79  F   UNL A   1      47.124  28.058  29.970  1.00  0.00    -0.206 F 
ATOM     80  C   UNL A   1      47.042  27.782  26.350  1.00  0.00     0.006 A 
ENDBRANCH  52  73
BRANCH  64  81
ATOM     81  C   UNL A   1      42.732  35.600  29.183  1.00  0.00     0.057 A 
ATOM     82  C   UNL A   1      43.438  36.617  29.830  1.00  0.00     0.134 A 
ATOM     83  C   UNL A   1      41.965  35.995  28.070  1.00  0.00     0.134 A 
ATOM     84  F   UNL A   1      44.066  36.398  30.995  1.00  0.00    -0.206 F 
ATOM     85  C   UNL A   1      43.516  37.908  29.303  1.00  0.00     0.040 A 
ATOM     86  C   UNL A   1      41.978  37.294  27.576  1.00  0.00     0.040 A 
ATOM     87  F   UNL A   1      41.193  35.143  27.384  1.00  0.00    -0.206 F 
ATOM     88  C   UNL A   1      42.793  38.245  28.165  1.00  0.00     0.006 A 
ENDBRANCH  64  81
ENDBRANCH  38  39
ENDBRANCH  31  33
ENDBRANCH  30  31
ENDBRANCH  29  30
ENDBRANCH  28  29
ENDBRANCH  27  28
ENDBRANCH   1  27
TORSDOF 17
ENDMDL
