MODEL 1
REMARK VINA RESULT:     -10.9      0.000      0.000
REMARK SMILES Cc1cc(C)c(NC(=O)C2(C)CCCC2)c(C(=O)OCCOCCOC(=O)c2ccc(-c3c4nc(c(-c5c(F)cccc5F)c5ccc([nH]5)c(-c5c(F)cccc5F)c5nc(c(-c6c(F)cccc6F)c6ccc3[nH]6)C=C5)C=C4)cc2)c1
REMARK SMILES IDX 22 1 21 2 20 3 19 4 17 5 18 6 16 7 1 8 2 9 3 10 82 11 4 12
REMARK SMILES IDX 5 13 6 14 7 15 8 16 9 18 10 19 11 20 12 21 15 22 13 23 14 24
REMARK SMILES IDX 23 25 24 26 25 27 26 28 27 29 28 30 29 31 81 32 30 33 80 34
REMARK SMILES IDX 31 35 32 36 33 37 74 38 34 39 79 40 73 41 75 42 35 43 78 44
REMARK SMILES IDX 72 45 71 46 36 48 62 49 45 50 61 51 46 52 49 53 60 54 76 55
REMARK SMILES IDX 47 56 48 57 59 59 77 60 50 61 37 62 38 63 43 64 39 65 40 66
REMARK SMILES IDX 42 67 44 68 41 69 63 70 64 71 69 72 65 73 66 74 68 75 70 76
REMARK SMILES IDX 67 77 51 78 52 79 57 80 53 81 54 82 56 83 58 84 55 85
REMARK H PARENT 7 17 75 47 49 58
REMARK Flexibility Score: inf
ROOT
ATOM      1  O   UNL A   1      32.069  30.680  27.080  1.00  0.00    -0.374 OA
ENDROOT
BRANCH   1   2
ATOM      2  C   UNL A   1      33.280  30.252  26.462  1.00  0.00     0.202 C 
BRANCH   2   3
ATOM      3  C   UNL A   1      33.583  28.748  26.495  1.00  0.00     0.261 C 
BRANCH   3   4
ATOM      4  O   UNL A   1      32.708  28.002  25.630  1.00  0.00    -0.460 OA
BRANCH   4   5
ATOM      5  C   UNL A   1      32.785  28.285  24.303  1.00  0.00     0.340 C 
ATOM      6  O   UNL A   1      33.795  28.326  23.615  1.00  0.00    -0.246 OA
BRANCH   5   7
ATOM      7  C   UNL A   1      31.410  28.306  23.739  1.00  0.00     0.084 A 
ATOM      8  C   UNL A   1      29.045  30.868  22.206  1.00  0.00     0.044 C 
ATOM      9  C   UNL A   1      29.584  29.612  22.823  1.00  0.00    -0.050 A 
ATOM     10  C   UNL A   1      28.754  28.504  22.998  1.00  0.00     0.009 A 
ATOM     11  C   UNL A   1      30.910  29.521  23.239  1.00  0.00     0.021 A 
ATOM     12  C   UNL A   1      29.219  27.305  23.578  1.00  0.00    -0.026 A 
ATOM     13  C   UNL A   1      28.157  26.319  23.969  1.00  0.00     0.046 C 
ATOM     14  C   UNL A   1      30.594  27.146  23.825  1.00  0.00     0.058 A 
BRANCH  14  15
ATOM     15  N   UNL A   1      31.218  25.913  24.156  1.00  0.00    -0.325 N 
ATOM     16  C   UNL A   1      31.426  24.805  23.372  1.00  0.00     0.230 C 
ATOM     17  H   UNL A   1      31.551  25.843  25.080  1.00  0.00     0.169 HD
ATOM     18  O   UNL A   1      30.602  23.889  23.377  1.00  0.00    -0.274 OA
BRANCH  16  19
ATOM     19  C   UNL A   1      32.784  24.701  22.609  1.00  0.00     0.047 C 
ATOM     20  C   UNL A   1      32.843  25.660  21.415  1.00  0.00     0.022 C 
ATOM     21  C   UNL A   1      33.967  24.965  23.567  1.00  0.00     0.016 C 
ATOM     22  C   UNL A   1      33.118  23.270  22.161  1.00  0.00     0.016 C 
ATOM     23  C   UNL A   1      34.173  23.656  24.327  1.00  0.00     0.001 C 
ATOM     24  C   UNL A   1      33.649  22.558  23.409  1.00  0.00     0.001 C 
ENDBRANCH  16  19
ENDBRANCH  14  15
ENDBRANCH   5   7
ENDBRANCH   4   5
ENDBRANCH   3   4
ENDBRANCH   2   3
ENDBRANCH   1   2
BRANCH   1  25
ATOM     25  C   UNL A   1      31.373  31.770  26.477  1.00  0.00     0.202 C 
BRANCH  25  26
ATOM     26  C   UNL A   1      31.952  33.176  26.687  1.00  0.00     0.261 C 
BRANCH  26  27
ATOM     27  O   UNL A   1      32.151  33.490  28.078  1.00  0.00    -0.460 OA
BRANCH  27  28
ATOM     28  C   UNL A   1      33.161  34.356  28.323  1.00  0.00     0.338 C 
ATOM     29  O   UNL A   1      33.105  35.578  28.357  1.00  0.00    -0.246 OA
BRANCH  28  30
ATOM     30  C   UNL A   1      34.373  33.618  28.717  1.00  0.00     0.060 A 
ATOM     31  C   UNL A   1      34.201  32.386  29.363  1.00  0.00     0.016 A 
ATOM     32  C   UNL A   1      35.649  34.157  28.539  1.00  0.00     0.016 A 
ATOM     33  C   UNL A   1      35.305  31.708  29.875  1.00  0.00     0.010 A 
ATOM     34  C   UNL A   1      36.755  33.477  29.059  1.00  0.00     0.010 A 
ATOM     35  C   UNL A   1      36.585  32.268  29.759  1.00  0.00    -0.014 A 
BRANCH  35  36
ATOM     36  C   UNL A   1      37.725  31.651  30.480  1.00  0.00     0.031 A 
ATOM     37  C   UNL A   1      38.568  30.624  29.778  1.00  0.00     0.074 A 
ATOM     38  C   UNL A   1      38.017  32.017  31.740  1.00  0.00     0.049 A 
ATOM     39  N   UNL A   1      39.577  29.926  30.232  1.00  0.00    -0.248 NA
ATOM     40  C   UNL A   1      38.222  30.341  28.376  1.00  0.00     0.031 C 
ATOM     41  C   UNL A   1      37.296  33.026  32.514  1.00  0.00     0.029 A 
ATOM     42  N   UNL A   1      38.993  31.571  32.593  1.00  0.00    -0.354 N 
ATOM     43  C   UNL A   1      39.983  29.119  29.176  1.00  0.00     0.074 A 
ATOM     44  C   UNL A   1      39.089  29.386  28.071  1.00  0.00     0.031 C 
ATOM     45  C   UNL A   1      37.849  33.115  33.735  1.00  0.00     0.029 A 
ATOM     46  C   UNL A   1      38.938  32.144  33.839  1.00  0.00     0.049 A 
ATOM     47  H   UNL A   1      39.671  30.902  32.337  1.00  0.00     0.167 HD
ATOM     48  C   UNL A   1      41.015  28.242  29.129  1.00  0.00     0.037 A 
ATOM     49  C   UNL A   1      39.667  31.897  34.944  1.00  0.00     0.037 A 
ATOM     50  C   UNL A   1      41.901  27.975  30.234  1.00  0.00     0.049 A 
ATOM     51  C   UNL A   1      40.762  30.865  34.892  1.00  0.00     0.074 A 
ATOM     52  C   UNL A   1      42.987  27.118  30.282  1.00  0.00     0.029 A 
ATOM     53  N   UNL A   1      41.795  28.557  31.488  1.00  0.00    -0.354 N 
ATOM     54  N   UNL A   1      41.154  30.125  33.883  1.00  0.00    -0.248 NA
ATOM     55  C   UNL A   1      41.518  30.638  36.131  1.00  0.00     0.031 C 
ATOM     56  C   UNL A   1      43.502  27.139  31.582  1.00  0.00     0.029 A 
ATOM     57  C   UNL A   1      42.778  28.056  32.327  1.00  0.00     0.049 A 
ATOM     58  H   UNL A   1      41.121  29.227  31.746  1.00  0.00     0.167 HD
ATOM     59  C   UNL A   1      42.218  29.367  34.356  1.00  0.00     0.074 A 
ATOM     60  C   UNL A   1      42.418  29.747  35.739  1.00  0.00     0.031 C 
ATOM     61  C   UNL A   1      42.966  28.443  33.703  1.00  0.00     0.037 A 
BRANCH  48  62
ATOM     62  C   UNL A   1      41.219  27.485  27.848  1.00  0.00     0.057 A 
ATOM     63  C   UNL A   1      40.622  26.237  27.618  1.00  0.00     0.134 A 
ATOM     64  C   UNL A   1      42.012  28.019  26.823  1.00  0.00     0.134 A 
ATOM     65  F   UNL A   1      39.861  25.663  28.562  1.00  0.00    -0.206 F 
ATOM     66  C   UNL A   1      40.832  25.536  26.429  1.00  0.00     0.040 A 
ATOM     67  C   UNL A   1      42.205  27.339  25.619  1.00  0.00     0.040 A 
ATOM     68  F   UNL A   1      42.608  29.210  26.974  1.00  0.00    -0.206 F 
ATOM     69  C   UNL A   1      41.621  26.090  25.423  1.00  0.00     0.006 A 
ENDBRANCH  48  62
BRANCH  49  70
ATOM     70  C   UNL A   1      39.376  32.633  36.201  1.00  0.00     0.057 A 
ATOM     71  C   UNL A   1      38.450  32.146  37.130  1.00  0.00     0.134 A 
ATOM     72  C   UNL A   1      40.016  33.842  36.501  1.00  0.00     0.134 A 
ATOM     73  F   UNL A   1      37.788  31.004  36.889  1.00  0.00    -0.206 F 
ATOM     74  C   UNL A   1      38.159  32.841  38.305  1.00  0.00     0.040 A 
ATOM     75  C   UNL A   1      39.755  34.534  37.685  1.00  0.00     0.040 A 
ATOM     76  F   UNL A   1      40.916  34.361  35.653  1.00  0.00    -0.206 F 
ATOM     77  C   UNL A   1      38.818  34.037  38.588  1.00  0.00     0.006 A 
ENDBRANCH  49  70
BRANCH  61  78
ATOM     78  C   UNL A   1      44.093  27.804  34.464  1.00  0.00     0.057 A 
ATOM     79  C   UNL A   1      43.940  26.584  35.135  1.00  0.00     0.134 A 
ATOM     80  C   UNL A   1      45.362  28.400  34.490  1.00  0.00     0.134 A 
ATOM     81  F   UNL A   1      42.749  25.966  35.159  1.00  0.00    -0.206 F 
ATOM     82  C   UNL A   1      45.000  25.992  35.824  1.00  0.00     0.040 A 
ATOM     83  C   UNL A   1      46.436  27.802  35.151  1.00  0.00     0.040 A 
ATOM     84  F   UNL A   1      45.582  29.564  33.860  1.00  0.00    -0.206 F 
ATOM     85  C   UNL A   1      46.255  26.598  35.826  1.00  0.00     0.006 A 
ENDBRANCH  61  78
ENDBRANCH  35  36
ENDBRANCH  28  30
ENDBRANCH  27  28
ENDBRANCH  26  27
ENDBRANCH  25  26
ENDBRANCH   1  25
TORSDOF 16
ENDMDL
MODEL 2
REMARK VINA RESULT:     -10.9      0.447      6.272
REMARK SMILES Cc1cc(C)c(NC(=O)C2(C)CCCC2)c(C(=O)OCCOCCOC(=O)c2ccc(-c3c4nc(c(-c5c(F)cccc5F)c5ccc([nH]5)c(-c5c(F)cccc5F)c5nc(c(-c6c(F)cccc6F)c6ccc3[nH]6)C=C5)C=C4)cc2)c1
REMARK SMILES IDX 22 1 21 2 20 3 19 4 17 5 18 6 16 7 1 8 2 9 3 10 82 11 4 12
REMARK SMILES IDX 5 13 6 14 7 15 8 16 9 18 10 19 11 20 12 21 15 22 13 23 14 24
REMARK SMILES IDX 23 25 24 26 25 27 26 28 27 29 28 30 29 31 81 32 30 33 80 34
REMARK SMILES IDX 31 35 32 36 33 37 74 38 34 39 79 40 73 41 75 42 35 43 78 44
REMARK SMILES IDX 72 45 71 46 36 48 62 49 45 50 61 51 46 52 49 53 60 54 76 55
REMARK SMILES IDX 47 56 48 57 59 59 77 60 50 61 37 62 38 63 43 64 39 65 40 66
REMARK SMILES IDX 42 67 44 68 41 69 63 70 64 71 69 72 65 73 66 74 68 75 70 76
REMARK SMILES IDX 67 77 51 78 52 79 57 80 53 81 54 82 56 83 58 84 55 85
REMARK H PARENT 7 17 75 47 49 58
REMARK Flexibility Score: inf
ROOT
ATOM      1  O   UNL A   1      32.193  30.764  27.223  1.00  0.00    -0.374 OA
ENDROOT
BRANCH   1   2
ATOM      2  C   UNL A   1      33.441  30.369  26.657  1.00  0.00     0.202 C 
BRANCH   2   3
ATOM      3  C   UNL A   1      33.619  28.877  26.344  1.00  0.00     0.261 C 
BRANCH   3   4
ATOM      4  O   UNL A   1      32.544  28.362  25.539  1.00  0.00    -0.460 OA
BRANCH   4   5
ATOM      5  C   UNL A   1      32.571  28.682  24.218  1.00  0.00     0.340 C 
ATOM      6  O   UNL A   1      33.561  28.835  23.517  1.00  0.00    -0.246 OA
BRANCH   5   7
ATOM      7  C   UNL A   1      31.192  28.583  23.674  1.00  0.00     0.084 A 
ATOM      8  C   UNL A   1      28.617  30.918  22.116  1.00  0.00     0.044 C 
ATOM      9  C   UNL A   1      29.259  29.722  22.755  1.00  0.00    -0.050 A 
ATOM     10  C   UNL A   1      28.519  28.559  22.968  1.00  0.00     0.009 A 
ATOM     11  C   UNL A   1      30.594  29.744  23.153  1.00  0.00     0.021 A 
ATOM     12  C   UNL A   1      29.082  27.414  23.570  1.00  0.00    -0.026 A 
ATOM     13  C   UNL A   1      28.104  26.359  24.000  1.00  0.00     0.046 C 
ATOM     14  C   UNL A   1      30.469  27.367  23.800  1.00  0.00     0.058 A 
BRANCH  14  15
ATOM     15  N   UNL A   1      31.190  26.194  24.151  1.00  0.00    -0.325 N 
ATOM     16  C   UNL A   1      31.431  25.065  23.407  1.00  0.00     0.230 C 
ATOM     17  H   UNL A   1      31.574  26.190  25.058  1.00  0.00     0.169 HD
ATOM     18  O   UNL A   1      30.671  24.099  23.498  1.00  0.00    -0.274 OA
BRANCH  16  19
ATOM     19  C   UNL A   1      32.753  25.013  22.577  1.00  0.00     0.047 C 
ATOM     20  C   UNL A   1      32.695  25.934  21.353  1.00  0.00     0.022 C 
ATOM     21  C   UNL A   1      33.965  25.374  23.463  1.00  0.00     0.016 C 
ATOM     22  C   UNL A   1      33.145  23.588  22.155  1.00  0.00     0.016 C 
ATOM     23  C   UNL A   1      34.285  24.103  24.250  1.00  0.00     0.001 C 
ATOM     24  C   UNL A   1      33.779  22.949  23.393  1.00  0.00     0.001 C 
ENDBRANCH  16  19
ENDBRANCH  14  15
ENDBRANCH   5   7
ENDBRANCH   4   5
ENDBRANCH   3   4
ENDBRANCH   2   3
ENDBRANCH   1   2
BRANCH   1  25
ATOM     25  C   UNL A   1      31.473  31.807  26.566  1.00  0.00     0.202 C 
BRANCH  25  26
ATOM     26  C   UNL A   1      32.017  33.235  26.710  1.00  0.00     0.261 C 
BRANCH  26  27
ATOM     27  O   UNL A   1      32.248  33.603  28.083  1.00  0.00    -0.460 OA
BRANCH  27  28
ATOM     28  C   UNL A   1      33.366  34.337  28.290  1.00  0.00     0.338 C 
ATOM     29  O   UNL A   1      33.460  35.557  28.332  1.00  0.00    -0.246 OA
BRANCH  28  30
ATOM     30  C   UNL A   1      34.493  33.453  28.632  1.00  0.00     0.060 A 
ATOM     31  C   UNL A   1      34.247  32.405  29.529  1.00  0.00     0.016 A 
ATOM     32  C   UNL A   1      35.783  33.695  28.156  1.00  0.00     0.016 A 
ATOM     33  C   UNL A   1      35.301  31.621  29.989  1.00  0.00     0.010 A 
ATOM     34  C   UNL A   1      36.841  32.909  28.623  1.00  0.00     0.010 A 
ATOM     35  C   UNL A   1      36.610  31.891  29.568  1.00  0.00    -0.014 A 
BRANCH  35  36
ATOM     36  C   UNL A   1      37.750  31.194  30.213  1.00  0.00     0.031 A 
ATOM     37  C   UNL A   1      38.075  31.496  31.649  1.00  0.00     0.074 A 
ATOM     38  C   UNL A   1      38.474  30.289  29.533  1.00  0.00     0.049 A 
ATOM     39  N   UNL A   1      39.051  31.042  32.394  1.00  0.00    -0.248 NA
ATOM     40  C   UNL A   1      37.183  32.442  32.338  1.00  0.00     0.031 C 
ATOM     41  C   UNL A   1      38.234  29.886  28.148  1.00  0.00     0.029 A 
ATOM     42  N   UNL A   1      39.566  29.554  29.915  1.00  0.00    -0.354 N 
ATOM     43  C   UNL A   1      38.895  31.650  33.633  1.00  0.00     0.074 A 
ATOM     44  C   UNL A   1      37.753  32.533  33.530  1.00  0.00     0.031 C 
ATOM     45  C   UNL A   1      39.161  28.981  27.792  1.00  0.00     0.029 A 
ATOM     46  C   UNL A   1      40.079  28.770  28.911  1.00  0.00     0.049 A 
ATOM     47  H   UNL A   1      39.947  29.583  30.824  1.00  0.00     0.167 HD
ATOM     48  C   UNL A   1      39.630  31.479  34.758  1.00  0.00     0.037 A 
ATOM     49  C   UNL A   1      41.176  27.990  28.891  1.00  0.00     0.037 A 
ATOM     50  C   UNL A   1      40.769  30.602  34.855  1.00  0.00     0.049 A 
ATOM     51  C   UNL A   1      42.023  27.872  30.131  1.00  0.00     0.074 A 
ATOM     52  C   UNL A   1      41.570  30.345  35.955  1.00  0.00     0.029 A 
ATOM     53  N   UNL A   1      41.274  29.845  33.808  1.00  0.00    -0.354 N 
ATOM     54  N   UNL A   1      41.853  28.430  31.304  1.00  0.00    -0.248 NA
ATOM     55  C   UNL A   1      43.209  27.009  30.043  1.00  0.00     0.031 C 
ATOM     56  C   UNL A   1      42.592  29.478  35.557  1.00  0.00     0.029 A 
ATOM     57  C   UNL A   1      42.393  29.144  34.227  1.00  0.00     0.049 A 
ATOM     58  H   UNL A   1      40.893  29.812  32.900  1.00  0.00     0.167 HD
ATOM     59  C   UNL A   1      42.893  27.967  32.102  1.00  0.00     0.074 A 
ATOM     60  C   UNL A   1      43.680  27.071  31.281  1.00  0.00     0.031 C 
ATOM     61  C   UNL A   1      43.168  28.254  33.399  1.00  0.00     0.037 A 
BRANCH  48  62
ATOM     62  C   UNL A   1      39.240  32.283  35.965  1.00  0.00     0.057 A 
ATOM     63  C   UNL A   1      39.784  33.549  36.223  1.00  0.00     0.134 A 
ATOM     64  C   UNL A   1      38.295  31.791  36.875  1.00  0.00     0.134 A 
ATOM     65  F   UNL A   1      40.704  34.075  35.399  1.00  0.00    -0.206 F 
ATOM     66  C   UNL A   1      39.426  34.281  37.358  1.00  0.00     0.040 A 
ATOM     67  C   UNL A   1      37.907  32.526  37.997  1.00  0.00     0.040 A 
ATOM     68  F   UNL A   1      37.730  30.589  36.687  1.00  0.00    -0.206 F 
ATOM     69  C   UNL A   1      38.480  33.772  38.245  1.00  0.00     0.006 A 
ENDBRANCH  48  62
BRANCH  49  70
ATOM     70  C   UNL A   1      41.547  27.269  27.646  1.00  0.00     0.057 A 
ATOM     71  C   UNL A   1      42.239  27.911  26.613  1.00  0.00     0.134 A 
ATOM     72  C   UNL A   1      41.216  25.921  27.461  1.00  0.00     0.134 A 
ATOM     73  F   UNL A   1      42.565  29.207  26.722  1.00  0.00    -0.206 F 
ATOM     74  C   UNL A   1      42.575  27.243  25.435  1.00  0.00     0.040 A 
ATOM     75  C   UNL A   1      41.570  25.234  26.298  1.00  0.00     0.040 A 
ATOM     76  F   UNL A   1      40.556  25.247  28.415  1.00  0.00    -0.206 F 
ATOM     77  C   UNL A   1      42.245  25.898  25.278  1.00  0.00     0.006 A 
ENDBRANCH  49  70
BRANCH  61  78
ATOM     78  C   UNL A   1      44.349  27.565  34.023  1.00  0.00     0.057 A 
ATOM     79  C   UNL A   1      45.623  28.146  34.043  1.00  0.00     0.134 A 
ATOM     80  C   UNL A   1      44.196  26.320  34.648  1.00  0.00     0.134 A 
ATOM     81  F   UNL A   1      45.840  29.331  33.452  1.00  0.00    -0.206 F 
ATOM     82  C   UNL A   1      46.708  27.503  34.641  1.00  0.00     0.040 A 
ATOM     83  C   UNL A   1      45.268  25.682  35.275  1.00  0.00     0.040 A 
ATOM     84  F   UNL A   1      43.001  25.711  34.675  1.00  0.00    -0.206 F 
ATOM     85  C   UNL A   1      46.530  26.270  35.267  1.00  0.00     0.006 A 
ENDBRANCH  61  78
ENDBRANCH  35  36
ENDBRANCH  28  30
ENDBRANCH  27  28
ENDBRANCH  26  27
ENDBRANCH  25  26
ENDBRANCH   1  25
TORSDOF 16
ENDMDL
MODEL 3
REMARK VINA RESULT:     -10.8      1.195      6.338
REMARK SMILES Cc1cc(C)c(NC(=O)C2(C)CCCC2)c(C(=O)OCCOCCOC(=O)c2ccc(-c3c4nc(c(-c5c(F)cccc5F)c5ccc([nH]5)c(-c5c(F)cccc5F)c5nc(c(-c6c(F)cccc6F)c6ccc3[nH]6)C=C5)C=C4)cc2)c1
REMARK SMILES IDX 22 1 21 2 20 3 19 4 17 5 18 6 16 7 1 8 2 9 3 10 82 11 4 12
REMARK SMILES IDX 5 13 6 14 7 15 8 16 9 18 10 19 11 20 12 21 15 22 13 23 14 24
REMARK SMILES IDX 23 25 24 26 25 27 26 28 27 29 28 30 29 31 81 32 30 33 80 34
REMARK SMILES IDX 31 35 32 36 33 37 74 38 34 39 79 40 73 41 75 42 35 43 78 44
REMARK SMILES IDX 72 45 71 46 36 48 62 49 45 50 61 51 46 52 49 53 60 54 76 55
REMARK SMILES IDX 47 56 48 57 59 59 77 60 50 61 37 62 38 63 43 64 39 65 40 66
REMARK SMILES IDX 42 67 44 68 41 69 63 70 64 71 69 72 65 73 66 74 68 75 70 76
REMARK SMILES IDX 67 77 51 78 52 79 57 80 53 81 54 82 56 83 58 84 55 85
REMARK H PARENT 7 17 75 47 49 58
REMARK Flexibility Score: inf
ROOT
ATOM      1  O   UNL A   1      32.278  30.864  26.723  1.00  0.00    -0.374 OA
ENDROOT
BRANCH   1   2
ATOM      2  C   UNL A   1      32.024  29.769  25.847  1.00  0.00     0.202 C 
BRANCH   2   3
ATOM      3  C   UNL A   1      33.202  29.266  25.003  1.00  0.00     0.261 C 
BRANCH   3   4
ATOM      4  O   UNL A   1      32.796  28.900  23.673  1.00  0.00    -0.460 OA
BRANCH   4   5
ATOM      5  C   UNL A   1      33.028  27.614  23.302  1.00  0.00     0.340 C 
ATOM      6  O   UNL A   1      34.029  27.174  22.753  1.00  0.00    -0.246 OA
BRANCH   5   7
ATOM      7  C   UNL A   1      31.969  26.750  23.883  1.00  0.00     0.084 A 
ATOM      8  C   UNL A   1      28.162  26.624  23.929  1.00  0.00     0.044 C 
ATOM      9  C   UNL A   1      29.603  26.365  24.252  1.00  0.00    -0.050 A 
ATOM     10  C   UNL A   1      29.946  25.405  25.205  1.00  0.00     0.009 A 
ATOM     11  C   UNL A   1      30.625  27.070  23.620  1.00  0.00     0.021 A 
ATOM     12  C   UNL A   1      31.289  25.132  25.542  1.00  0.00    -0.026 A 
ATOM     13  C   UNL A   1      31.493  24.303  26.777  1.00  0.00     0.046 C 
ATOM     14  C   UNL A   1      32.322  25.705  24.778  1.00  0.00     0.058 A 
BRANCH  14  15
ATOM     15  N   UNL A   1      33.687  25.313  24.843  1.00  0.00    -0.325 N 
ATOM     16  C   UNL A   1      34.226  24.080  25.114  1.00  0.00     0.230 C 
ATOM     17  H   UNL A   1      34.340  26.029  24.667  1.00  0.00     0.169 HD
ATOM     18  O   UNL A   1      34.540  23.791  26.270  1.00  0.00    -0.274 OA
BRANCH  16  19
ATOM     19  C   UNL A   1      34.546  23.147  23.904  1.00  0.00     0.047 C 
ATOM     20  C   UNL A   1      36.003  23.284  23.447  1.00  0.00     0.022 C 
ATOM     21  C   UNL A   1      34.230  21.677  24.252  1.00  0.00     0.016 C 
ATOM     22  C   UNL A   1      33.593  23.351  22.716  1.00  0.00     0.016 C 
ATOM     23  C   UNL A   1      32.716  21.538  24.094  1.00  0.00     0.001 C 
ATOM     24  C   UNL A   1      32.308  22.602  23.082  1.00  0.00     0.001 C 
ENDBRANCH  16  19
ENDBRANCH  14  15
ENDBRANCH   5   7
ENDBRANCH   4   5
ENDBRANCH   3   4
ENDBRANCH   2   3
ENDBRANCH   1   2
BRANCH   1  25
ATOM     25  C   UNL A   1      31.389  31.979  26.657  1.00  0.00     0.202 C 
BRANCH  25  26
ATOM     26  C   UNL A   1      32.003  33.377  26.810  1.00  0.00     0.261 C 
BRANCH  26  27
ATOM     27  O   UNL A   1      32.306  33.702  28.180  1.00  0.00    -0.460 OA
BRANCH  27  28
ATOM     28  C   UNL A   1      33.398  34.483  28.347  1.00  0.00     0.338 C 
ATOM     29  O   UNL A   1      33.444  35.705  28.382  1.00  0.00    -0.246 OA
BRANCH  28  30
ATOM     30  C   UNL A   1      34.571  33.648  28.655  1.00  0.00     0.060 A 
ATOM     31  C   UNL A   1      34.338  32.355  29.144  1.00  0.00     0.016 A 
ATOM     32  C   UNL A   1      35.872  34.146  28.553  1.00  0.00     0.016 A 
ATOM     33  C   UNL A   1      35.405  31.571  29.575  1.00  0.00     0.010 A 
ATOM     34  C   UNL A   1      36.941  33.359  28.992  1.00  0.00     0.010 A 
ATOM     35  C   UNL A   1      36.710  32.082  29.536  1.00  0.00    -0.014 A 
BRANCH  35  36
ATOM     36  C   UNL A   1      37.813  31.331  30.183  1.00  0.00     0.031 A 
ATOM     37  C   UNL A   1      38.127  31.592  31.630  1.00  0.00     0.074 A 
ATOM     38  C   UNL A   1      38.514  30.414  29.495  1.00  0.00     0.049 A 
ATOM     39  N   UNL A   1      39.075  31.087  32.379  1.00  0.00    -0.248 NA
ATOM     40  C   UNL A   1      37.260  32.556  32.325  1.00  0.00     0.031 C 
ATOM     41  C   UNL A   1      38.281  30.047  28.099  1.00  0.00     0.029 A 
ATOM     42  N   UNL A   1      39.573  29.631  29.878  1.00  0.00    -0.354 N 
ATOM     43  C   UNL A   1      38.921  31.675  33.628  1.00  0.00     0.074 A 
ATOM     44  C   UNL A   1      37.814  32.601  33.527  1.00  0.00     0.031 C 
ATOM     45  C   UNL A   1      39.180  29.117  27.738  1.00  0.00     0.029 A 
ATOM     46  C   UNL A   1      40.073  28.850  28.866  1.00  0.00     0.049 A 
ATOM     47  H   UNL A   1      39.940  29.629  30.792  1.00  0.00     0.167 HD
ATOM     48  C   UNL A   1      39.633  31.456  34.760  1.00  0.00     0.037 A 
ATOM     49  C   UNL A   1      41.141  28.031  28.845  1.00  0.00     0.037 A 
ATOM     50  C   UNL A   1      40.737  30.535  34.855  1.00  0.00     0.049 A 
ATOM     51  C   UNL A   1      41.964  27.857  30.094  1.00  0.00     0.074 A 
ATOM     52  C   UNL A   1      41.512  30.227  35.961  1.00  0.00     0.029 A 
ATOM     53  N   UNL A   1      41.230  29.782  33.801  1.00  0.00    -0.354 N 
ATOM     54  N   UNL A   1      41.797  28.397  31.277  1.00  0.00    -0.248 NA
ATOM     55  C   UNL A   1      43.120  26.954  30.006  1.00  0.00     0.031 C 
ATOM     56  C   UNL A   1      42.508  29.332  35.561  1.00  0.00     0.029 A 
ATOM     57  C   UNL A   1      42.317  29.032  34.221  1.00  0.00     0.049 A 
ATOM     58  H   UNL A   1      40.863  29.781  32.887  1.00  0.00     0.167 HD
ATOM     59  C   UNL A   1      42.806  27.881  32.079  1.00  0.00     0.074 A 
ATOM     60  C   UNL A   1      43.573  26.973  31.252  1.00  0.00     0.031 C 
ATOM     61  C   UNL A   1      43.072  28.132  33.386  1.00  0.00     0.037 A 
BRANCH  48  62
ATOM     62  C   UNL A   1      39.254  32.248  35.978  1.00  0.00     0.057 A 
ATOM     63  C   UNL A   1      39.812  33.506  36.250  1.00  0.00     0.134 A 
ATOM     64  C   UNL A   1      38.306  31.755  36.884  1.00  0.00     0.134 A 
ATOM     65  F   UNL A   1      40.735  34.031  35.431  1.00  0.00    -0.206 F 
ATOM     66  C   UNL A   1      39.463  34.227  37.394  1.00  0.00     0.040 A 
ATOM     67  C   UNL A   1      37.928  32.481  38.015  1.00  0.00     0.040 A 
ATOM     68  F   UNL A   1      37.728  30.562  36.682  1.00  0.00    -0.206 F 
ATOM     69  C   UNL A   1      38.514  33.717  38.277  1.00  0.00     0.006 A 
ENDBRANCH  48  62
BRANCH  49  70
ATOM     70  C   UNL A   1      41.505  27.322  27.592  1.00  0.00     0.057 A 
ATOM     71  C   UNL A   1      41.070  26.016  27.343  1.00  0.00     0.134 A 
ATOM     72  C   UNL A   1      42.298  27.936  26.613  1.00  0.00     0.134 A 
ATOM     73  F   UNL A   1      40.325  25.368  28.251  1.00  0.00    -0.206 F 
ATOM     74  C   UNL A   1      41.423  25.339  26.175  1.00  0.00     0.040 A 
ATOM     75  C   UNL A   1      42.636  27.279  25.428  1.00  0.00     0.040 A 
ATOM     76  F   UNL A   1      42.745  29.188  26.789  1.00  0.00    -0.206 F 
ATOM     77  C   UNL A   1      42.203  25.973  25.210  1.00  0.00     0.006 A 
ENDBRANCH  49  70
BRANCH  61  78
ATOM     78  C   UNL A   1      44.218  27.388  34.012  1.00  0.00     0.057 A 
ATOM     79  C   UNL A   1      44.045  26.148  34.641  1.00  0.00     0.134 A 
ATOM     80  C   UNL A   1      45.520  27.902  33.947  1.00  0.00     0.134 A 
ATOM     81  F   UNL A   1      42.823  25.604  34.748  1.00  0.00    -0.206 F 
ATOM     82  C   UNL A   1      45.121  25.459  35.204  1.00  0.00     0.040 A 
ATOM     83  C   UNL A   1      46.607  27.209  34.480  1.00  0.00     0.040 A 
ATOM     84  F   UNL A   1      45.759  29.080  33.351  1.00  0.00    -0.206 F 
ATOM     85  C   UNL A   1      46.408  25.986  35.117  1.00  0.00     0.006 A 
ENDBRANCH  61  78
ENDBRANCH  35  36
ENDBRANCH  28  30
ENDBRANCH  27  28
ENDBRANCH  26  27
ENDBRANCH  25  26
ENDBRANCH   1  25
TORSDOF 16
ENDMDL
