MODEL 1
REMARK VINA RESULT:     -11.6      0.000      0.000
REMARK SMILES Cn1c(C(=O)N2CCC[C@@H](C(=O)OCCOCCOC(=O)c3ccc(-c4c5nc(c(-c6c(F)cccc6F)c6ccc([nH]6)c(-c6c(F)cccc6F)c6nc(c(-c7c(F)cccc7F)c7ccc4[nH]7)C=C6)C=C5)cc3)C2)cc2sccc21
REMARK SMILES IDX 16 1 15 2 14 3 13 4 11 5 12 6 10 7 6 8 7 9 76 10 8 11 9 12
REMARK SMILES IDX 4 13 5 14 3 15 1 16 2 17 82 18 77 19 78 20 81 21 79 22 80 23
REMARK SMILES IDX 17 24 18 25 19 26 20 27 21 28 22 29 23 30 75 31 24 32 74 33
REMARK SMILES IDX 25 34 26 35 27 36 68 37 28 38 73 39 67 40 69 41 29 42 72 43
REMARK SMILES IDX 66 44 65 45 30 47 56 48 39 49 55 50 40 51 43 52 54 53 70 54
REMARK SMILES IDX 41 55 42 56 53 58 71 59 44 60 31 61 32 62 37 63 33 64 34 65
REMARK SMILES IDX 36 66 38 67 35 68 57 69 58 70 63 71 59 72 60 73 62 74 64 75
REMARK SMILES IDX 61 76 45 77 46 78 51 79 47 80 48 81 50 82 52 83 49 84
REMARK H PARENT 69 46 43 57
REMARK Flexibility Score: inf
ROOT
ATOM      1  O   UNL A   1      41.652  20.590  25.852  1.00  0.00    -0.374 OA
ENDROOT
BRANCH   1   2
ATOM      2  C   UNL A   1      40.255  20.527  26.127  1.00  0.00     0.202 C 
BRANCH   2   3
ATOM      3  C   UNL A   1      39.479  21.823  26.378  1.00  0.00     0.261 C 
BRANCH   3   4
ATOM      4  O   UNL A   1      38.138  21.813  25.855  1.00  0.00    -0.463 OA
BRANCH   4   5
ATOM      5  C   UNL A   1      37.561  23.045  25.791  1.00  0.00     0.310 C 
ATOM      6  O   UNL A   1      38.176  24.102  25.853  1.00  0.00    -0.252 OA
BRANCH   5   7
ATOM      7  C   UNL A   1      36.064  22.962  25.571  1.00  0.00     0.119 C 
ATOM      8  N   UNL A   1      34.495  22.882  23.656  1.00  0.00    -0.337 N 
ATOM      9  C   UNL A   1      33.943  21.598  24.054  1.00  0.00     0.120 C 
ATOM     10  C   UNL A   1      35.867  23.142  24.065  1.00  0.00     0.135 C 
ATOM     11  C   UNL A   1      34.044  21.403  25.558  1.00  0.00     0.022 C 
ATOM     12  C   UNL A   1      35.473  21.628  26.052  1.00  0.00     0.019 C 
BRANCH   8  13
ATOM     13  C   UNL A   1      33.742  23.733  22.857  1.00  0.00     0.270 C 
ATOM     14  O   UNL A   1      33.525  23.456  21.678  1.00  0.00    -0.267 OA
BRANCH  13  15
ATOM     15  C   UNL A   1      33.303  24.993  23.451  1.00  0.00     0.108 A 
ATOM     16  C   UNL A   1      31.246  24.133  24.671  1.00  0.00     0.150 C 
ATOM     17  N   UNL A   1      32.158  25.150  24.209  1.00  0.00    -0.339 N 
ATOM     18  C   UNL A   1      31.951  26.496  24.434  1.00  0.00     0.059 A 
ATOM     19  C   UNL A   1      33.857  26.258  23.269  1.00  0.00     0.053 A 
ATOM     20  C   UNL A   1      32.997  27.184  23.903  1.00  0.00     0.053 A 
ATOM     21  C   UNL A   1      30.967  27.336  25.023  1.00  0.00     0.038 A 
ATOM     22  S   UNL A   1      32.871  28.891  24.149  1.00  0.00    -0.142 S 
ATOM     23  C   UNL A   1      31.349  28.658  24.911  1.00  0.00     0.068 A 
ENDBRANCH  13  15
ENDBRANCH   8  13
ENDBRANCH   5   7
ENDBRANCH   4   5
ENDBRANCH   3   4
ENDBRANCH   2   3
ENDBRANCH   1   2
BRANCH   1  24
ATOM     24  C   UNL A   1      42.529  19.622  26.411  1.00  0.00     0.202 C 
BRANCH  24  25
ATOM     25  C   UNL A   1      43.447  18.835  25.491  1.00  0.00     0.261 C 
BRANCH  25  26
ATOM     26  O   UNL A   1      43.640  19.470  24.237  1.00  0.00    -0.460 OA
BRANCH  26  27
ATOM     27  C   UNL A   1      44.931  19.803  24.008  1.00  0.00     0.338 C 
ATOM     28  O   UNL A   1      45.841  19.061  23.690  1.00  0.00    -0.246 OA
BRANCH  27  29
ATOM     29  C   UNL A   1      45.127  21.203  24.386  1.00  0.00     0.060 A 
ATOM     30  C   UNL A   1      45.991  21.430  25.458  1.00  0.00     0.016 A 
ATOM     31  C   UNL A   1      44.247  22.185  23.911  1.00  0.00     0.016 A 
ATOM     32  C   UNL A   1      45.812  22.571  26.202  1.00  0.00     0.010 A 
ATOM     33  C   UNL A   1      44.056  23.316  24.666  1.00  0.00     0.010 A 
ATOM     34  C   UNL A   1      44.783  23.451  25.844  1.00  0.00    -0.014 A 
BRANCH  34  35
ATOM     35  C   UNL A   1      44.596  24.632  26.654  1.00  0.00     0.031 A 
ATOM     36  C   UNL A   1      45.758  25.538  26.547  1.00  0.00     0.074 A 
ATOM     37  C   UNL A   1      43.457  24.883  27.324  1.00  0.00     0.049 A 
ATOM     38  N   UNL A   1      46.655  25.762  27.446  1.00  0.00    -0.248 NA
ATOM     39  C   UNL A   1      46.096  26.067  25.214  1.00  0.00     0.031 C 
ATOM     40  C   UNL A   1      42.187  24.154  27.260  1.00  0.00     0.029 A 
ATOM     41  N   UNL A   1      43.168  25.921  28.155  1.00  0.00    -0.354 N 
ATOM     42  C   UNL A   1      47.533  26.667  26.863  1.00  0.00     0.074 A 
ATOM     43  C   UNL A   1      47.287  26.620  25.449  1.00  0.00     0.031 C 
ATOM     44  C   UNL A   1      41.213  24.898  27.834  1.00  0.00     0.029 A 
ATOM     45  C   UNL A   1      41.811  26.086  28.420  1.00  0.00     0.049 A 
ATOM     46  H   UNL A   1      43.860  26.507  28.536  1.00  0.00     0.167 HD
ATOM     47  C   UNL A   1      48.139  27.614  27.626  1.00  0.00     0.037 A 
ATOM     48  C   UNL A   1      41.245  27.163  29.024  1.00  0.00     0.037 A 
ATOM     49  C   UNL A   1      48.107  27.240  29.020  1.00  0.00     0.049 A 
ATOM     50  C   UNL A   1      42.325  27.890  29.734  1.00  0.00     0.074 A 
ATOM     51  C   UNL A   1      48.594  26.183  29.764  1.00  0.00     0.029 A 
ATOM     52  N   UNL A   1      47.144  27.839  29.794  1.00  0.00    -0.354 N 
ATOM     53  N   UNL A   1      42.928  27.436  30.795  1.00  0.00    -0.248 NA
ATOM     54  C   UNL A   1      43.049  28.917  29.000  1.00  0.00     0.031 C 
ATOM     55  C   UNL A   1      47.606  25.941  30.765  1.00  0.00     0.029 A 
ATOM     56  C   UNL A   1      46.603  26.902  30.631  1.00  0.00     0.049 A 
ATOM     57  H   UNL A   1      46.886  28.788  29.752  1.00  0.00     0.167 HD
ATOM     58  C   UNL A   1      44.261  27.762  30.607  1.00  0.00     0.074 A 
ATOM     59  C   UNL A   1      44.260  28.764  29.543  1.00  0.00     0.031 C 
ATOM     60  C   UNL A   1      45.246  26.967  31.123  1.00  0.00     0.037 A 
BRANCH  47  61
ATOM     61  C   UNL A   1      48.304  29.053  27.184  1.00  0.00     0.057 A 
ATOM     62  C   UNL A   1      49.564  29.657  27.329  1.00  0.00     0.134 A 
ATOM     63  C   UNL A   1      47.242  29.949  26.927  1.00  0.00     0.134 A 
ATOM     64  F   UNL A   1      50.656  28.918  27.584  1.00  0.00    -0.206 F 
ATOM     65  C   UNL A   1      49.738  31.046  27.320  1.00  0.00     0.040 A 
ATOM     66  C   UNL A   1      47.414  31.334  26.864  1.00  0.00     0.040 A 
ATOM     67  F   UNL A   1      45.967  29.564  26.822  1.00  0.00    -0.206 F 
ATOM     68  C   UNL A   1      48.658  31.890  27.098  1.00  0.00     0.006 A 
ENDBRANCH  47  61
BRANCH  48  69
ATOM     69  C   UNL A   1      39.922  27.789  28.801  1.00  0.00     0.057 A 
ATOM     70  C   UNL A   1      38.979  27.873  29.837  1.00  0.00     0.134 A 
ATOM     71  C   UNL A   1      39.672  28.590  27.674  1.00  0.00     0.134 A 
ATOM     72  F   UNL A   1      39.148  27.177  30.971  1.00  0.00    -0.206 F 
ATOM     73  C   UNL A   1      37.872  28.730  29.773  1.00  0.00     0.040 A 
ATOM     74  C   UNL A   1      38.568  29.446  27.596  1.00  0.00     0.040 A 
ATOM     75  F   UNL A   1      40.543  28.640  26.656  1.00  0.00    -0.206 F 
ATOM     76  C   UNL A   1      37.672  29.532  28.654  1.00  0.00     0.006 A 
ENDBRANCH  48  69
BRANCH  60  77
ATOM     77  C   UNL A   1      44.837  25.947  32.150  1.00  0.00     0.057 A 
ATOM     78  C   UNL A   1      44.497  24.614  31.866  1.00  0.00     0.134 A 
ATOM     79  C   UNL A   1      44.882  26.312  33.500  1.00  0.00     0.134 A 
ATOM     80  F   UNL A   1      44.523  24.141  30.612  1.00  0.00    -0.206 F 
ATOM     81  C   UNL A   1      44.159  23.709  32.877  1.00  0.00     0.040 A 
ATOM     82  C   UNL A   1      44.583  25.408  34.520  1.00  0.00     0.040 A 
ATOM     83  F   UNL A   1      45.250  27.553  33.852  1.00  0.00    -0.206 F 
ATOM     84  C   UNL A   1      44.205  24.105  34.211  1.00  0.00     0.006 A 
ENDBRANCH  60  77
ENDBRANCH  34  35
ENDBRANCH  27  29
ENDBRANCH  26  27
ENDBRANCH  25  26
ENDBRANCH  24  25
ENDBRANCH   1  24
TORSDOF 16
ENDMDL
MODEL 2
REMARK VINA RESULT:     -11.3      5.586     10.717
REMARK SMILES Cn1c(C(=O)N2CCC[C@@H](C(=O)OCCOCCOC(=O)c3ccc(-c4c5nc(c(-c6c(F)cccc6F)c6ccc([nH]6)c(-c6c(F)cccc6F)c6nc(c(-c7c(F)cccc7F)c7ccc4[nH]7)C=C6)C=C5)cc3)C2)cc2sccc21
REMARK SMILES IDX 16 1 15 2 14 3 13 4 11 5 12 6 10 7 6 8 7 9 76 10 8 11 9 12
REMARK SMILES IDX 4 13 5 14 3 15 1 16 2 17 82 18 77 19 78 20 81 21 79 22 80 23
REMARK SMILES IDX 17 24 18 25 19 26 20 27 21 28 22 29 23 30 75 31 24 32 74 33
REMARK SMILES IDX 25 34 26 35 27 36 68 37 28 38 73 39 67 40 69 41 29 42 72 43
REMARK SMILES IDX 66 44 65 45 30 47 56 48 39 49 55 50 40 51 43 52 54 53 70 54
REMARK SMILES IDX 41 55 42 56 53 58 71 59 44 60 31 61 32 62 37 63 33 64 34 65
REMARK SMILES IDX 36 66 38 67 35 68 57 69 58 70 63 71 59 72 60 73 62 74 64 75
REMARK SMILES IDX 61 76 45 77 46 78 51 79 47 80 48 81 50 82 52 83 49 84
REMARK H PARENT 69 46 43 57
REMARK Flexibility Score: inf
ROOT
ATOM      1  O   UNL A   1      34.439  34.275  29.207  1.00  0.00    -0.374 OA
ENDROOT
BRANCH   1   2
ATOM      2  C   UNL A   1      33.987  32.931  29.060  1.00  0.00     0.202 C 
BRANCH   2   3
ATOM      3  C   UNL A   1      34.337  32.156  27.786  1.00  0.00     0.261 C 
BRANCH   3   4
ATOM      4  O   UNL A   1      33.395  31.120  27.453  1.00  0.00    -0.463 OA
BRANCH   4   5
ATOM      5  C   UNL A   1      33.946  29.879  27.369  1.00  0.00     0.310 C 
ATOM      6  O   UNL A   1      34.982  29.540  27.929  1.00  0.00    -0.252 OA
BRANCH   5   7
ATOM      7  C   UNL A   1      33.095  28.931  26.548  1.00  0.00     0.119 C 
ATOM      8  N   UNL A   1      33.313  26.682  25.535  1.00  0.00    -0.337 N 
ATOM      9  C   UNL A   1      32.193  26.143  26.288  1.00  0.00     0.120 C 
ATOM     10  C   UNL A   1      34.029  27.785  26.157  1.00  0.00     0.135 C 
ATOM     11  C   UNL A   1      31.193  27.234  26.634  1.00  0.00     0.022 C 
ATOM     12  C   UNL A   1      31.876  28.414  27.325  1.00  0.00     0.019 C 
BRANCH   8  13
ATOM     13  C   UNL A   1      33.688  26.081  24.340  1.00  0.00     0.270 C 
ATOM     14  O   UNL A   1      33.629  26.703  23.281  1.00  0.00    -0.267 OA
BRANCH  13  15
ATOM     15  C   UNL A   1      34.064  24.670  24.392  1.00  0.00     0.108 A 
ATOM     16  C   UNL A   1      31.961  23.685  23.360  1.00  0.00     0.150 C 
ATOM     17  N   UNL A   1      33.253  23.623  23.998  1.00  0.00    -0.339 N 
ATOM     18  C   UNL A   1      33.846  22.433  24.370  1.00  0.00     0.059 A 
ATOM     19  C   UNL A   1      35.216  24.118  24.948  1.00  0.00     0.053 A 
ATOM     20  C   UNL A   1      35.060  22.712  24.914  1.00  0.00     0.053 A 
ATOM     21  C   UNL A   1      33.537  21.045  24.367  1.00  0.00     0.038 A 
ATOM     22  S   UNL A   1      35.923  21.292  25.393  1.00  0.00    -0.142 S 
ATOM     23  C   UNL A   1      34.582  20.330  24.916  1.00  0.00     0.068 A 
ENDBRANCH  13  15
ENDBRANCH   8  13
ENDBRANCH   5   7
ENDBRANCH   4   5
ENDBRANCH   3   4
ENDBRANCH   2   3
ENDBRANCH   1   2
BRANCH   1  24
ATOM     24  C   UNL A   1      33.538  35.353  28.999  1.00  0.00     0.202 C 
BRANCH  24  25
ATOM     25  C   UNL A   1      32.823  35.963  30.194  1.00  0.00     0.261 C 
BRANCH  25  26
ATOM     26  O   UNL A   1      32.580  35.021  31.226  1.00  0.00    -0.460 OA
BRANCH  26  27
ATOM     27  C   UNL A   1      32.986  35.455  32.442  1.00  0.00     0.338 C 
ATOM     28  O   UNL A   1      32.549  36.400  33.072  1.00  0.00    -0.246 OA
BRANCH  27  29
ATOM     29  C   UNL A   1      34.189  34.715  32.826  1.00  0.00     0.060 A 
ATOM     30  C   UNL A   1      35.367  35.459  32.890  1.00  0.00     0.016 A 
ATOM     31  C   UNL A   1      34.186  33.314  32.796  1.00  0.00     0.016 A 
ATOM     32  C   UNL A   1      36.558  34.801  32.697  1.00  0.00     0.010 A 
ATOM     33  C   UNL A   1      35.374  32.660  32.584  1.00  0.00     0.010 A 
ATOM     34  C   UNL A   1      36.530  33.422  32.455  1.00  0.00    -0.014 A 
BRANCH  34  35
ATOM     35  C   UNL A   1      37.791  32.755  32.229  1.00  0.00     0.031 A 
ATOM     36  C   UNL A   1      38.604  32.725  33.461  1.00  0.00     0.074 A 
ATOM     37  C   UNL A   1      38.103  32.163  31.061  1.00  0.00     0.049 A 
ATOM     38  N   UNL A   1      39.667  33.412  33.709  1.00  0.00    -0.248 NA
ATOM     39  C   UNL A   1      38.042  32.041  34.639  1.00  0.00     0.031 C 
ATOM     40  C   UNL A   1      37.239  31.938  29.899  1.00  0.00     0.029 A 
ATOM     41  N   UNL A   1      39.261  31.548  30.701  1.00  0.00    -0.354 N 
ATOM     42  C   UNL A   1      40.045  33.043  34.994  1.00  0.00     0.074 A 
ATOM     43  C   UNL A   1      38.901  32.411  35.589  1.00  0.00     0.031 C 
ATOM     44  C   UNL A   1      37.829  31.046  29.068  1.00  0.00     0.029 A 
ATOM     45  C   UNL A   1      39.159  30.743  29.569  1.00  0.00     0.049 A 
ATOM     46  H   UNL A   1      40.102  31.661  31.199  1.00  0.00     0.167 HD
ATOM     47  C   UNL A   1      41.362  32.985  35.325  1.00  0.00     0.037 A 
ATOM     48  C   UNL A   1      40.093  29.857  29.137  1.00  0.00     0.037 A 
ATOM     49  C   UNL A   1      42.153  33.756  34.395  1.00  0.00     0.049 A 
ATOM     50  C   UNL A   1      41.376  30.212  29.790  1.00  0.00     0.074 A 
ATOM     51  C   UNL A   1      42.203  35.081  34.012  1.00  0.00     0.029 A 
ATOM     52  N   UNL A   1      42.805  33.050  33.414  1.00  0.00    -0.354 N 
ATOM     53  N   UNL A   1      42.059  31.284  29.507  1.00  0.00    -0.248 NA
ATOM     54  C   UNL A   1      41.671  29.610  31.082  1.00  0.00     0.031 C 
ATOM     55  C   UNL A   1      42.504  35.058  32.617  1.00  0.00     0.029 A 
ATOM     56  C   UNL A   1      42.694  33.731  32.232  1.00  0.00     0.049 A 
ATOM     57  H   UNL A   1      43.275  32.195  33.541  1.00  0.00     0.167 HD
ATOM     58  C   UNL A   1      42.511  31.745  30.733  1.00  0.00     0.074 A 
ATOM     59  C   UNL A   1      42.335  30.620  31.649  1.00  0.00     0.031 C 
ATOM     60  C   UNL A   1      42.698  33.083  30.941  1.00  0.00     0.037 A 
BRANCH  47  61
ATOM     61  C   UNL A   1      41.958  31.868  36.155  1.00  0.00     0.057 A 
ATOM     62  C   UNL A   1      42.827  32.208  37.206  1.00  0.00     0.134 A 
ATOM     63  C   UNL A   1      41.976  30.504  35.788  1.00  0.00     0.134 A 
ATOM     64  F   UNL A   1      42.912  33.473  37.647  1.00  0.00    -0.206 F 
ATOM     65  C   UNL A   1      43.714  31.286  37.776  1.00  0.00     0.040 A 
ATOM     66  C   UNL A   1      42.820  29.566  36.386  1.00  0.00     0.040 A 
ATOM     67  F   UNL A   1      41.264  30.011  34.770  1.00  0.00    -0.206 F 
ATOM     68  C   UNL A   1      43.720  29.962  37.359  1.00  0.00     0.006 A 
ENDBRANCH  47  61
BRANCH  48  69
ATOM     69  C   UNL A   1      39.920  28.555  28.453  1.00  0.00     0.057 A 
ATOM     70  C   UNL A   1      40.528  28.305  27.213  1.00  0.00     0.134 A 
ATOM     71  C   UNL A   1      39.422  27.431  29.133  1.00  0.00     0.134 A 
ATOM     72  F   UNL A   1      41.068  29.307  26.504  1.00  0.00    -0.206 F 
ATOM     73  C   UNL A   1      40.667  27.009  26.696  1.00  0.00     0.040 A 
ATOM     74  C   UNL A   1      39.550  26.133  28.626  1.00  0.00     0.040 A 
ATOM     75  F   UNL A   1      38.884  27.545  30.356  1.00  0.00    -0.206 F 
ATOM     76  C   UNL A   1      40.189  25.916  27.411  1.00  0.00     0.006 A 
ENDBRANCH  48  69
BRANCH  60  77
ATOM     77  C   UNL A   1      42.715  33.971  29.726  1.00  0.00     0.057 A 
ATOM     78  C   UNL A   1      41.614  34.701  29.250  1.00  0.00     0.134 A 
ATOM     79  C   UNL A   1      43.933  34.164  29.065  1.00  0.00     0.134 A 
ATOM     80  F   UNL A   1      40.430  34.661  29.876  1.00  0.00    -0.206 F 
ATOM     81  C   UNL A   1      41.712  35.536  28.132  1.00  0.00     0.040 A 
ATOM     82  C   UNL A   1      44.052  35.023  27.971  1.00  0.00     0.040 A 
ATOM     83  F   UNL A   1      45.041  33.541  29.495  1.00  0.00    -0.206 F 
ATOM     84  C   UNL A   1      42.936  35.700  27.491  1.00  0.00     0.006 A 
ENDBRANCH  60  77
ENDBRANCH  34  35
ENDBRANCH  27  29
ENDBRANCH  26  27
ENDBRANCH  25  26
ENDBRANCH  24  25
ENDBRANCH   1  24
TORSDOF 16
ENDMDL
MODEL 3
REMARK VINA RESULT:     -10.9      1.647      1.978
REMARK SMILES Cn1c(C(=O)N2CCC[C@@H](C(=O)OCCOCCOC(=O)c3ccc(-c4c5nc(c(-c6c(F)cccc6F)c6ccc([nH]6)c(-c6c(F)cccc6F)c6nc(c(-c7c(F)cccc7F)c7ccc4[nH]7)C=C6)C=C5)cc3)C2)cc2sccc21
REMARK SMILES IDX 16 1 15 2 14 3 13 4 11 5 12 6 10 7 6 8 7 9 76 10 8 11 9 12
REMARK SMILES IDX 4 13 5 14 3 15 1 16 2 17 82 18 77 19 78 20 81 21 79 22 80 23
REMARK SMILES IDX 17 24 18 25 19 26 20 27 21 28 22 29 23 30 75 31 24 32 74 33
REMARK SMILES IDX 25 34 26 35 27 36 68 37 28 38 73 39 67 40 69 41 29 42 72 43
REMARK SMILES IDX 66 44 65 45 30 47 56 48 39 49 55 50 40 51 43 52 54 53 70 54
REMARK SMILES IDX 41 55 42 56 53 58 71 59 44 60 31 61 32 62 37 63 33 64 34 65
REMARK SMILES IDX 36 66 38 67 35 68 57 69 58 70 63 71 59 72 60 73 62 74 64 75
REMARK SMILES IDX 61 76 45 77 46 78 51 79 47 80 48 81 50 82 52 83 49 84
REMARK H PARENT 69 46 43 57
REMARK Flexibility Score: inf
ROOT
ATOM      1  O   UNL A   1      40.670  21.053  27.250  1.00  0.00    -0.374 OA
ENDROOT
BRANCH   1   2
ATOM      2  C   UNL A   1      40.017  21.735  26.182  1.00  0.00     0.202 C 
BRANCH   2   3
ATOM      3  C   UNL A   1      38.608  21.303  25.764  1.00  0.00     0.261 C 
BRANCH   3   4
ATOM      4  O   UNL A   1      37.891  22.296  25.008  1.00  0.00    -0.463 OA
BRANCH   4   5
ATOM      5  C   UNL A   1      37.126  23.124  25.771  1.00  0.00     0.310 C 
ATOM      6  O   UNL A   1      37.533  24.150  26.303  1.00  0.00    -0.252 OA
BRANCH   5   7
ATOM      7  C   UNL A   1      35.684  22.664  25.841  1.00  0.00     0.119 C 
ATOM      8  N   UNL A   1      33.429  23.660  25.601  1.00  0.00    -0.337 N 
ATOM      9  C   UNL A   1      33.069  22.785  24.498  1.00  0.00     0.120 C 
ATOM     10  C   UNL A   1      34.848  23.942  25.755  1.00  0.00     0.135 C 
ATOM     11  C   UNL A   1      33.817  21.465  24.581  1.00  0.00     0.022 C 
ATOM     12  C   UNL A   1      35.324  21.688  24.711  1.00  0.00     0.019 C 
BRANCH   8  13
ATOM     13  C   UNL A   1      32.428  24.235  26.374  1.00  0.00     0.270 C 
ATOM     14  O   UNL A   1      31.885  23.596  27.272  1.00  0.00    -0.267 OA
BRANCH  13  15
ATOM     15  C   UNL A   1      32.000  25.586  26.014  1.00  0.00     0.108 A 
ATOM     16  C   UNL A   1      30.345  24.976  24.185  1.00  0.00     0.150 C 
ATOM     17  N   UNL A   1      31.112  25.886  24.999  1.00  0.00    -0.339 N 
ATOM     18  C   UNL A   1      31.095  27.253  24.810  1.00  0.00     0.059 A 
ATOM     19  C   UNL A   1      32.484  26.792  26.515  1.00  0.00     0.053 A 
ATOM     20  C   UNL A   1      31.893  27.825  25.751  1.00  0.00     0.053 A 
ATOM     21  C   UNL A   1      30.514  28.196  23.918  1.00  0.00     0.038 A 
ATOM     22  S   UNL A   1      31.930  29.550  25.641  1.00  0.00    -0.142 S 
ATOM     23  C   UNL A   1      30.912  29.472  24.259  1.00  0.00     0.068 A 
ENDBRANCH  13  15
ENDBRANCH   8  13
ENDBRANCH   5   7
ENDBRANCH   4   5
ENDBRANCH   3   4
ENDBRANCH   2   3
ENDBRANCH   1   2
BRANCH   1  24
ATOM     24  C   UNL A   1      42.081  20.895  27.231  1.00  0.00     0.202 C 
BRANCH  24  25
ATOM     25  C   UNL A   1      42.700  19.871  26.293  1.00  0.00     0.261 C 
BRANCH  25  26
ATOM     26  O   UNL A   1      43.119  20.439  25.063  1.00  0.00    -0.460 OA
BRANCH  26  27
ATOM     27  C   UNL A   1      44.426  20.789  25.063  1.00  0.00     0.338 C 
ATOM     28  O   UNL A   1      45.390  20.049  25.022  1.00  0.00    -0.246 OA
BRANCH  27  29
ATOM     29  C   UNL A   1      44.525  22.229  25.311  1.00  0.00     0.060 A 
ATOM     30  C   UNL A   1      45.319  22.607  26.394  1.00  0.00     0.016 A 
ATOM     31  C   UNL A   1      43.617  23.106  24.703  1.00  0.00     0.016 A 
ATOM     32  C   UNL A   1      45.039  23.802  27.013  1.00  0.00     0.010 A 
ATOM     33  C   UNL A   1      43.326  24.290  25.333  1.00  0.00     0.010 A 
ATOM     34  C   UNL A   1      43.983  24.580  26.524  1.00  0.00    -0.014 A 
BRANCH  34  35
ATOM     35  C   UNL A   1      43.690  25.819  27.206  1.00  0.00     0.031 A 
ATOM     36  C   UNL A   1      44.709  26.845  26.903  1.00  0.00     0.074 A 
ATOM     37  C   UNL A   1      42.572  26.006  27.930  1.00  0.00     0.049 A 
ATOM     38  N   UNL A   1      45.623  27.291  27.696  1.00  0.00    -0.248 NA
ATOM     39  C   UNL A   1      44.888  27.242  25.496  1.00  0.00     0.031 C 
ATOM     40  C   UNL A   1      41.411  25.119  28.051  1.00  0.00     0.029 A 
ATOM     41  N   UNL A   1      42.199  27.094  28.656  1.00  0.00    -0.354 N 
ATOM     42  C   UNL A   1      46.332  28.220  26.945  1.00  0.00     0.074 A 
ATOM     43  C   UNL A   1      46.005  27.966  25.570  1.00  0.00     0.031 C 
ATOM     44  C   UNL A   1      40.384  25.800  28.611  1.00  0.00     0.029 A 
ATOM     45  C   UNL A   1      40.851  27.118  29.007  1.00  0.00     0.049 A 
ATOM     46  H   UNL A   1      42.828  27.805  28.911  1.00  0.00     0.167 HD
ATOM     47  C   UNL A   1      46.852  29.324  27.543  1.00  0.00     0.037 A 
ATOM     48  C   UNL A   1      40.185  28.180  29.527  1.00  0.00     0.037 A 
ATOM     49  C   UNL A   1      46.959  29.125  28.970  1.00  0.00     0.049 A 
ATOM     50  C   UNL A   1      41.199  29.122  30.060  1.00  0.00     0.074 A 
ATOM     51  C   UNL A   1      47.630  28.239  29.789  1.00  0.00     0.029 A 
ATOM     52  N   UNL A   1      45.975  29.688  29.743  1.00  0.00    -0.354 N 
ATOM     53  N   UNL A   1      41.924  28.883  31.115  1.00  0.00    -0.248 NA
ATOM     54  C   UNL A   1      41.730  30.132  29.158  1.00  0.00     0.031 C 
ATOM     55  C   UNL A   1      46.749  28.001  30.887  1.00  0.00     0.029 A 
ATOM     56  C   UNL A   1      45.620  28.802  30.723  1.00  0.00     0.049 A 
ATOM     57  H   UNL A   1      45.588  30.584  29.613  1.00  0.00     0.167 HD
ATOM     58  C   UNL A   1      43.186  29.350  30.786  1.00  0.00     0.074 A 
ATOM     59  C   UNL A   1      42.982  30.203  29.618  1.00  0.00     0.031 C 
ATOM     60  C   UNL A   1      44.300  28.756  31.310  1.00  0.00     0.037 A 
BRANCH  47  61
ATOM     61  C   UNL A   1      46.791  30.705  26.927  1.00  0.00     0.057 A 
ATOM     62  C   UNL A   1      47.953  31.496  26.946  1.00  0.00     0.134 A 
ATOM     63  C   UNL A   1      45.604  31.403  26.613  1.00  0.00     0.134 A 
ATOM     64  F   UNL A   1      49.147  30.958  27.238  1.00  0.00    -0.206 F 
ATOM     65  C   UNL A   1      47.920  32.885  26.764  1.00  0.00     0.040 A 
ATOM     66  C   UNL A   1      45.568  32.779  26.379  1.00  0.00     0.040 A 
ATOM     67  F   UNL A   1      44.397  30.829  26.610  1.00  0.00    -0.206 F 
ATOM     68  C   UNL A   1      46.723  33.532  26.490  1.00  0.00     0.006 A 
ENDBRANCH  47  61
BRANCH  48  69
ATOM     69  C   UNL A   1      38.778  28.602  29.338  1.00  0.00     0.057 A 
ATOM     70  C   UNL A   1      37.891  28.663  30.425  1.00  0.00     0.134 A 
ATOM     71  C   UNL A   1      38.357  29.246  28.163  1.00  0.00     0.134 A 
ATOM     72  F   UNL A   1      38.217  28.112  31.603  1.00  0.00    -0.206 F 
ATOM     73  C   UNL A   1      36.674  29.356  30.359  1.00  0.00     0.040 A 
ATOM     74  C   UNL A   1      37.143  29.937  28.082  1.00  0.00     0.040 A 
ATOM     75  F   UNL A   1      39.154  29.308  27.087  1.00  0.00    -0.206 F 
ATOM     76  C   UNL A   1      36.304  30.009  29.187  1.00  0.00     0.006 A 
ENDBRANCH  48  69
BRANCH  60  77
ATOM     77  C   UNL A   1      44.099  27.828  32.477  1.00  0.00     0.057 A 
ATOM     78  C   UNL A   1      44.024  26.429  32.386  1.00  0.00     0.134 A 
ATOM     79  C   UNL A   1      44.074  28.377  33.764  1.00  0.00     0.134 A 
ATOM     80  F   UNL A   1      44.140  25.801  31.207  1.00  0.00    -0.206 F 
ATOM     81  C   UNL A   1      43.870  25.623  33.519  1.00  0.00     0.040 A 
ATOM     82  C   UNL A   1      43.958  27.583  34.904  1.00  0.00     0.040 A 
ATOM     83  F   UNL A   1      44.194  29.703  33.933  1.00  0.00    -0.206 F 
ATOM     84  C   UNL A   1      43.840  26.201  34.785  1.00  0.00     0.006 A 
ENDBRANCH  60  77
ENDBRANCH  34  35
ENDBRANCH  27  29
ENDBRANCH  26  27
ENDBRANCH  25  26
ENDBRANCH  24  25
ENDBRANCH   1  24
TORSDOF 16
ENDMDL
