MODEL 1
REMARK VINA RESULT:     -12.3      0.000      0.000
REMARK SMILES Cc1ccc2cc(C[N@H+]3CC[NH2+][C@H](C(=O)OCCOCCOC(=O)c4ccc(-c5c6nc(c(-c7c(F)cccc7F)c7ccc([nH]7)c(-c7c(F)cccc7F)c7nc(c(-c8c(F)cccc8F)c8ccc5[nH]8)C=C7)C=C6)cc4)C3)c(N3CCOCC3)nc2c1
REMARK SMILES IDX 18 1 17 2 16 3 14 4 15 5 13 6 9 7 10 8 79 9 11 11 12 12 8 15
REMARK SMILES IDX 7 16 1 17 2 18 3 19 89 20 4 21 88 22 5 23 87 24 6 25 80 26
REMARK SMILES IDX 81 27 82 28 86 29 83 30 85 31 84 32 19 33 20 34 21 35 22 36
REMARK SMILES IDX 23 37 24 38 25 39 26 40 78 41 27 42 77 43 28 44 29 45 30 46
REMARK SMILES IDX 71 47 31 48 76 49 70 50 72 51 32 52 75 53 69 54 68 55 33 57
REMARK SMILES IDX 59 58 42 59 58 60 43 61 46 62 57 63 73 64 44 65 45 66 56 68
REMARK SMILES IDX 74 69 47 70 34 71 35 72 40 73 36 74 37 75 39 76 41 77 38 78
REMARK SMILES IDX 60 79 61 80 66 81 62 82 63 83 65 84 67 85 64 86 48 87 49 88
REMARK SMILES IDX 54 89 50 90 51 91 53 92 55 93 52 94
REMARK H PARENT 9 10 12 13 12 14 72 56 46 67
REMARK Flexibility Score: inf
ROOT
ATOM      1  C   UNL A   1      42.932  21.692  27.147  1.00  0.00     0.202 C 
ENDROOT
BRANCH   1   2
ATOM      2  C   UNL A   1      42.129  20.664  26.337  1.00  0.00     0.261 C 
BRANCH   2   3
ATOM      3  O   UNL A   1      41.031  21.256  25.621  1.00  0.00    -0.459 OA
BRANCH   3   4
ATOM      4  C   UNL A   1      39.832  20.612  25.730  1.00  0.00     0.371 C 
ATOM      5  O   UNL A   1      39.684  19.399  25.624  1.00  0.00    -0.245 OA
BRANCH   4   6
ATOM      6  C   UNL A   1      38.690  21.597  26.029  1.00  0.00     0.348 C 
ATOM      7  N   UNL A   1      36.525  22.395  24.884  1.00  0.00    -0.321 N 
ATOM      8  C   UNL A   1      37.073  23.750  25.004  1.00  0.00     0.324 C 
ATOM      9  C   UNL A   1      37.570  21.372  24.972  1.00  0.00     0.341 C 
ATOM     10  H   UNL A   1      36.177  22.333  23.928  1.00  0.00     0.348 HD
ATOM     11  C   UNL A   1      38.112  23.933  26.137  1.00  0.00     0.323 C 
ATOM     12  N   UNL A   1      39.233  22.982  26.034  1.00  0.00    -0.325 N 
ATOM     13  H   UNL A   1      39.858  23.101  26.832  1.00  0.00     0.347 HD
ATOM     14  H   UNL A   1      39.754  23.151  25.173  1.00  0.00     0.347 HD
BRANCH   7  15
ATOM     15  C   UNL A   1      35.253  22.123  25.566  1.00  0.00     0.303 C 
BRANCH  15  16
ATOM     16  C   UNL A   1      34.464  20.910  25.123  1.00  0.00     0.049 A 
ATOM     17  C   UNL A   1      32.362  14.826  25.435  1.00  0.00     0.044 C 
ATOM     18  C   UNL A   1      33.051  16.117  25.107  1.00  0.00    -0.049 A 
ATOM     19  C   UNL A   1      34.382  16.101  24.694  1.00  0.00     0.004 A 
ATOM     20  C   UNL A   1      32.381  17.351  25.193  1.00  0.00     0.032 A 
ATOM     21  C   UNL A   1      35.050  17.302  24.488  1.00  0.00     0.010 A 
ATOM     22  C   UNL A   1      33.035  18.568  25.010  1.00  0.00     0.073 A 
ATOM     23  C   UNL A   1      34.412  18.524  24.747  1.00  0.00     0.001 A 
ATOM     24  N   UNL A   1      32.370  19.738  25.117  1.00  0.00    -0.230 NA
ATOM     25  C   UNL A   1      35.131  19.717  24.835  1.00  0.00     0.023 A 
ATOM     26  C   UNL A   1      33.061  20.900  25.093  1.00  0.00     0.138 A 
BRANCH  26  27
ATOM     27  N   UNL A   1      32.360  22.093  25.083  1.00  0.00    -0.352 N 
ATOM     28  C   UNL A   1      32.004  22.663  23.775  1.00  0.00     0.146 C 
ATOM     29  C   UNL A   1      31.348  22.350  26.109  1.00  0.00     0.146 C 
ATOM     30  C   UNL A   1      31.814  24.178  23.949  1.00  0.00     0.181 C 
ATOM     31  C   UNL A   1      31.151  23.879  26.204  1.00  0.00     0.181 C 
ATOM     32  O   UNL A   1      30.803  24.463  24.933  1.00  0.00    -0.378 OA
ENDBRANCH  26  27
ENDBRANCH  15  16
ENDBRANCH   7  15
ENDBRANCH   4   6
ENDBRANCH   3   4
ENDBRANCH   2   3
ENDBRANCH   1   2
BRANCH   1  33
ATOM     33  O   UNL A   1      44.218  22.062  26.652  1.00  0.00    -0.374 OA
BRANCH  33  34
ATOM     34  C   UNL A   1      44.530  21.723  25.308  1.00  0.00     0.202 C 
BRANCH  34  35
ATOM     35  C   UNL A   1      44.107  22.698  24.204  1.00  0.00     0.261 C 
BRANCH  35  36
ATOM     36  O   UNL A   1      43.533  23.925  24.668  1.00  0.00    -0.460 OA
BRANCH  36  37
ATOM     37  C   UNL A   1      44.419  24.874  25.055  1.00  0.00     0.338 C 
ATOM     38  O   UNL A   1      45.532  25.086  24.611  1.00  0.00    -0.246 OA
BRANCH  37  39
ATOM     39  C   UNL A   1      43.802  25.690  26.112  1.00  0.00     0.060 A 
ATOM     40  C   UNL A   1      42.721  25.179  26.831  1.00  0.00     0.016 A 
ATOM     41  C   UNL A   1      44.354  26.935  26.433  1.00  0.00     0.016 A 
ATOM     42  C   UNL A   1      42.178  25.929  27.878  1.00  0.00     0.010 A 
ATOM     43  C   UNL A   1      43.810  27.681  27.481  1.00  0.00     0.010 A 
ATOM     44  C   UNL A   1      42.721  27.182  28.214  1.00  0.00    -0.014 A 
BRANCH  44  45
ATOM     45  C   UNL A   1      42.187  27.948  29.368  1.00  0.00     0.031 A 
ATOM     46  C   UNL A   1      42.840  27.858  30.717  1.00  0.00     0.074 A 
ATOM     47  C   UNL A   1      41.082  28.700  29.200  1.00  0.00     0.049 A 
ATOM     48  N   UNL A   1      42.508  28.451  31.836  1.00  0.00    -0.248 NA
ATOM     49  C   UNL A   1      44.012  26.978  30.827  1.00  0.00     0.031 C 
ATOM     50  C   UNL A   1      40.341  28.841  27.946  1.00  0.00     0.029 A 
ATOM     51  N   UNL A   1      40.385  29.479  30.089  1.00  0.00    -0.354 N 
ATOM     52  C   UNL A   1      43.429  28.021  32.783  1.00  0.00     0.074 A 
ATOM     53  C   UNL A   1      44.312  27.088  32.114  1.00  0.00     0.031 C 
ATOM     54  C   UNL A   1      39.295  29.660  28.145  1.00  0.00     0.029 A 
ATOM     55  C   UNL A   1      39.277  30.081  29.543  1.00  0.00     0.049 A 
ATOM     56  H   UNL A   1      40.653  29.595  31.029  1.00  0.00     0.167 HD
ATOM     57  C   UNL A   1      43.532  28.381  34.085  1.00  0.00     0.037 A 
ATOM     58  C   UNL A   1      38.349  30.873  30.109  1.00  0.00     0.037 A 
ATOM     59  C   UNL A   1      42.652  29.312  34.745  1.00  0.00     0.049 A 
ATOM     60  C   UNL A   1      38.471  31.225  31.567  1.00  0.00     0.074 A 
ATOM     61  C   UNL A   1      42.718  29.788  36.044  1.00  0.00     0.029 A 
ATOM     62  N   UNL A   1      41.538  29.896  34.163  1.00  0.00    -0.354 N 
ATOM     63  N   UNL A   1      39.400  30.882  32.426  1.00  0.00    -0.248 NA
ATOM     64  C   UNL A   1      37.417  32.080  32.131  1.00  0.00     0.031 C 
ATOM     65  C   UNL A   1      41.615  30.621  36.262  1.00  0.00     0.029 A 
ATOM     66  C   UNL A   1      40.889  30.701  35.085  1.00  0.00     0.049 A 
ATOM     67  H   UNL A   1      41.251  29.759  33.231  1.00  0.00     0.167 HD
ATOM     68  C   UNL A   1      39.058  31.502  33.621  1.00  0.00     0.074 A 
ATOM     69  C   UNL A   1      37.847  32.255  33.371  1.00  0.00     0.031 C 
ATOM     70  C   UNL A   1      39.687  31.449  34.821  1.00  0.00     0.037 A 
BRANCH  57  71
ATOM     71  C   UNL A   1      44.634  27.760  34.894  1.00  0.00     0.057 A 
ATOM     72  C   UNL A   1      45.915  28.328  34.913  1.00  0.00     0.134 A 
ATOM     73  C   UNL A   1      44.445  26.571  35.608  1.00  0.00     0.134 A 
ATOM     74  F   UNL A   1      46.167  29.463  34.242  1.00  0.00    -0.206 F 
ATOM     75  C   UNL A   1      46.969  27.732  35.608  1.00  0.00     0.040 A 
ATOM     76  C   UNL A   1      45.486  25.977  36.326  1.00  0.00     0.040 A 
ATOM     77  F   UNL A   1      43.242  25.978  35.637  1.00  0.00    -0.206 F 
ATOM     78  C   UNL A   1      46.753  26.555  36.322  1.00  0.00     0.006 A 
ENDBRANCH  57  71
BRANCH  58  79
ATOM     79  C   UNL A   1      37.210  31.391  29.308  1.00  0.00     0.057 A 
ATOM     80  C   UNL A   1      36.063  30.619  29.086  1.00  0.00     0.134 A 
ATOM     81  C   UNL A   1      37.222  32.692  28.791  1.00  0.00     0.134 A 
ATOM     82  F   UNL A   1      35.991  29.364  29.553  1.00  0.00    -0.206 F 
ATOM     83  C   UNL A   1      34.968  31.124  28.385  1.00  0.00     0.040 A 
ATOM     84  C   UNL A   1      36.124  33.219  28.111  1.00  0.00     0.040 A 
ATOM     85  F   UNL A   1      38.284  33.487  28.990  1.00  0.00    -0.206 F 
ATOM     86  C   UNL A   1      34.991  32.433  27.906  1.00  0.00     0.006 A 
ENDBRANCH  58  79
BRANCH  70  87
ATOM     87  C   UNL A   1      39.090  32.254  35.937  1.00  0.00     0.057 A 
ATOM     88  C   UNL A   1      38.189  31.670  36.837  1.00  0.00     0.134 A 
ATOM     89  C   UNL A   1      39.401  33.608  36.120  1.00  0.00     0.134 A 
ATOM     90  F   UNL A   1      37.844  30.380  36.715  1.00  0.00    -0.206 F 
ATOM     91  C   UNL A   1      37.619  32.403  37.879  1.00  0.00     0.040 A 
ATOM     92  C   UNL A   1      38.859  34.344  37.176  1.00  0.00     0.040 A 
ATOM     93  F   UNL A   1      40.270  34.222  35.304  1.00  0.00    -0.206 F 
ATOM     94  C   UNL A   1      37.961  33.742  38.055  1.00  0.00     0.006 A 
ENDBRANCH  70  87
ENDBRANCH  44  45
ENDBRANCH  37  39
ENDBRANCH  36  37
ENDBRANCH  35  36
ENDBRANCH  34  35
ENDBRANCH  33  34
ENDBRANCH   1  33
TORSDOF 17
ENDMDL
MODEL 2
REMARK VINA RESULT:     -11.8      3.821      7.986
REMARK SMILES Cc1ccc2cc(C[N@H+]3CC[NH2+][C@H](C(=O)OCCOCCOC(=O)c4ccc(-c5c6nc(c(-c7c(F)cccc7F)c7ccc([nH]7)c(-c7c(F)cccc7F)c7nc(c(-c8c(F)cccc8F)c8ccc5[nH]8)C=C7)C=C6)cc4)C3)c(N3CCOCC3)nc2c1
REMARK SMILES IDX 18 1 17 2 16 3 14 4 15 5 13 6 9 7 10 8 79 9 11 11 12 12 8 15
REMARK SMILES IDX 7 16 1 17 2 18 3 19 89 20 4 21 88 22 5 23 87 24 6 25 80 26
REMARK SMILES IDX 81 27 82 28 86 29 83 30 85 31 84 32 19 33 20 34 21 35 22 36
REMARK SMILES IDX 23 37 24 38 25 39 26 40 78 41 27 42 77 43 28 44 29 45 30 46
REMARK SMILES IDX 71 47 31 48 76 49 70 50 72 51 32 52 75 53 69 54 68 55 33 57
REMARK SMILES IDX 59 58 42 59 58 60 43 61 46 62 57 63 73 64 44 65 45 66 56 68
REMARK SMILES IDX 74 69 47 70 34 71 35 72 40 73 36 74 37 75 39 76 41 77 38 78
REMARK SMILES IDX 60 79 61 80 66 81 62 82 63 83 65 84 67 85 64 86 48 87 49 88
REMARK SMILES IDX 54 89 50 90 51 91 53 92 55 93 52 94
REMARK H PARENT 9 10 12 13 12 14 72 56 46 67
REMARK Flexibility Score: inf
ROOT
ATOM      1  C   UNL A   1      33.471  19.048  24.804  1.00  0.00     0.202 C 
ENDROOT
BRANCH   1   2
ATOM      2  C   UNL A   1      32.523  19.609  23.734  1.00  0.00     0.261 C 
BRANCH   2   3
ATOM      3  O   UNL A   1      31.935  20.865  24.116  1.00  0.00    -0.459 OA
BRANCH   3   4
ATOM      4  C   UNL A   1      32.249  21.934  23.326  1.00  0.00     0.371 C 
ATOM      5  O   UNL A   1      32.478  21.865  22.124  1.00  0.00    -0.245 OA
BRANCH   4   6
ATOM      6  C   UNL A   1      32.253  23.245  24.130  1.00  0.00     0.348 C 
ATOM      7  N   UNL A   1      33.922  25.128  24.680  1.00  0.00    -0.321 N 
ATOM      8  C   UNL A   1      33.645  24.832  26.090  1.00  0.00     0.324 C 
ATOM      9  C   UNL A   1      33.572  24.005  23.806  1.00  0.00     0.341 C 
ATOM     10  H   UNL A   1      34.937  25.201  24.618  1.00  0.00     0.348 HD
ATOM     11  C   UNL A   1      32.275  24.163  26.357  1.00  0.00     0.323 C 
ATOM     12  N   UNL A   1      32.088  22.929  25.574  1.00  0.00    -0.325 N 
ATOM     13  H   UNL A   1      31.151  22.558  25.737  1.00  0.00     0.347 HD
ATOM     14  H   UNL A   1      32.777  22.232  25.855  1.00  0.00     0.347 HD
BRANCH   7  15
ATOM     15  C   UNL A   1      33.605  26.481  24.203  1.00  0.00     0.303 C 
BRANCH  15  16
ATOM     16  C   UNL A   1      33.415  27.565  25.242  1.00  0.00     0.049 A 
ATOM     17  C   UNL A   1      34.799  33.037  28.350  1.00  0.00     0.044 C 
ATOM     18  C   UNL A   1      34.615  31.616  27.910  1.00  0.00    -0.049 A 
ATOM     19  C   UNL A   1      35.559  30.657  28.268  1.00  0.00     0.004 A 
ATOM     20  C   UNL A   1      33.498  31.221  27.150  1.00  0.00     0.032 A 
ATOM     21  C   UNL A   1      35.443  29.362  27.776  1.00  0.00     0.010 A 
ATOM     22  C   UNL A   1      33.371  29.933  26.630  1.00  0.00     0.073 A 
ATOM     23  C   UNL A   1      34.416  29.033  26.879  1.00  0.00     0.001 A 
ATOM     24  N   UNL A   1      32.297  29.587  25.888  1.00  0.00    -0.230 NA
ATOM     25  C   UNL A   1      34.441  27.845  26.147  1.00  0.00     0.023 A 
ATOM     26  C   UNL A   1      32.278  28.386  25.266  1.00  0.00     0.138 A 
BRANCH  26  27
ATOM     27  N   UNL A   1      31.126  27.994  24.609  1.00  0.00    -0.352 N 
ATOM     28  C   UNL A   1      30.322  26.925  25.221  1.00  0.00     0.146 C 
ATOM     29  C   UNL A   1      30.309  28.991  23.914  1.00  0.00     0.146 C 
ATOM     30  C   UNL A   1      29.504  26.246  24.112  1.00  0.00     0.181 C 
ATOM     31  C   UNL A   1      29.465  28.253  22.853  1.00  0.00     0.181 C 
ATOM     32  O   UNL A   1      28.668  27.198  23.428  1.00  0.00    -0.378 OA
ENDBRANCH  26  27
ENDBRANCH  15  16
ENDBRANCH   7  15
ENDBRANCH   4   6
ENDBRANCH   3   4
ENDBRANCH   2   3
ENDBRANCH   1   2
BRANCH   1  33
ATOM     33  O   UNL A   1      34.870  19.264  24.624  1.00  0.00    -0.374 OA
BRANCH  33  34
ATOM     34  C   UNL A   1      35.397  20.527  25.005  1.00  0.00     0.202 C 
BRANCH  34  35
ATOM     35  C   UNL A   1      36.904  20.755  24.847  1.00  0.00     0.261 C 
BRANCH  35  36
ATOM     36  O   UNL A   1      37.489  21.626  25.822  1.00  0.00    -0.460 OA
BRANCH  36  37
ATOM     37  C   UNL A   1      38.792  21.391  26.108  1.00  0.00     0.338 C 
ATOM     38  O   UNL A   1      39.405  20.345  26.003  1.00  0.00    -0.246 OA
BRANCH  37  39
ATOM     39  C   UNL A   1      39.413  22.651  26.544  1.00  0.00     0.060 A 
ATOM     40  C   UNL A   1      40.512  22.615  27.402  1.00  0.00     0.016 A 
ATOM     41  C   UNL A   1      38.941  23.865  26.034  1.00  0.00     0.016 A 
ATOM     42  C   UNL A   1      41.140  23.809  27.763  1.00  0.00     0.010 A 
ATOM     43  C   UNL A   1      39.571  25.057  26.396  1.00  0.00     0.010 A 
ATOM     44  C   UNL A   1      40.678  25.038  27.260  1.00  0.00    -0.014 A 
BRANCH  44  45
ATOM     45  C   UNL A   1      41.386  26.300  27.590  1.00  0.00     0.031 A 
ATOM     46  C   UNL A   1      42.804  26.525  27.147  1.00  0.00     0.074 A 
ATOM     47  C   UNL A   1      40.753  27.233  28.327  1.00  0.00     0.049 A 
ATOM     48  N   UNL A   1      43.577  27.561  27.348  1.00  0.00    -0.248 NA
ATOM     49  C   UNL A   1      43.438  25.438  26.387  1.00  0.00     0.031 C 
ATOM     50  C   UNL A   1      39.388  27.116  28.843  1.00  0.00     0.029 A 
ATOM     51  N   UNL A   1      41.175  28.458  28.778  1.00  0.00    -0.354 N 
ATOM     52  C   UNL A   1      44.788  27.256  26.741  1.00  0.00     0.074 A 
ATOM     53  C   UNL A   1      44.658  25.922  26.194  1.00  0.00     0.031 C 
ATOM     54  C   UNL A   1      39.085  28.225  29.536  1.00  0.00     0.029 A 
ATOM     55  C   UNL A   1      40.240  29.118  29.536  1.00  0.00     0.049 A 
ATOM     56  H   UNL A   1      42.066  28.828  28.579  1.00  0.00     0.167 HD
ATOM     57  C   UNL A   1      45.900  28.024  26.641  1.00  0.00     0.037 A 
ATOM     58  C   UNL A   1      40.310  30.305  30.167  1.00  0.00     0.037 A 
ATOM     59  C   UNL A   1      46.024  29.353  27.185  1.00  0.00     0.049 A 
ATOM     60  C   UNL A   1      41.572  31.119  30.066  1.00  0.00     0.074 A 
ATOM     61  C   UNL A   1      47.088  30.233  27.077  1.00  0.00     0.029 A 
ATOM     62  N   UNL A   1      45.059  29.987  27.952  1.00  0.00    -0.354 N 
ATOM     63  N   UNL A   1      42.677  30.856  29.411  1.00  0.00    -0.248 NA
ATOM     64  C   UNL A   1      41.593  32.397  30.790  1.00  0.00     0.031 C 
ATOM     65  C   UNL A   1      46.786  31.379  27.821  1.00  0.00     0.029 A 
ATOM     66  C   UNL A   1      45.515  31.232  28.353  1.00  0.00     0.049 A 
ATOM     67  H   UNL A   1      44.179  29.608  28.177  1.00  0.00     0.167 HD
ATOM     68  C   UNL A   1      43.510  31.947  29.621  1.00  0.00     0.074 A 
ATOM     69  C   UNL A   1      42.777  32.881  30.448  1.00  0.00     0.031 C 
ATOM     70  C   UNL A   1      44.772  32.155  29.172  1.00  0.00     0.037 A 
BRANCH  57  71
ATOM     71  C   UNL A   1      47.084  27.446  25.921  1.00  0.00     0.057 A 
ATOM     72  C   UNL A   1      48.077  26.748  26.623  1.00  0.00     0.134 A 
ATOM     73  C   UNL A   1      47.273  27.626  24.546  1.00  0.00     0.134 A 
ATOM     74  F   UNL A   1      47.963  26.548  27.945  1.00  0.00    -0.206 F 
ATOM     75  C   UNL A   1      49.216  26.257  25.983  1.00  0.00     0.040 A 
ATOM     76  C   UNL A   1      48.397  27.120  23.890  1.00  0.00     0.040 A 
ATOM     77  F   UNL A   1      46.357  28.279  23.813  1.00  0.00    -0.206 F 
ATOM     78  C   UNL A   1      49.375  26.438  24.610  1.00  0.00     0.006 A 
ENDBRANCH  57  71
BRANCH  58  79
ATOM     79  C   UNL A   1      39.158  30.808  30.959  1.00  0.00     0.057 A 
ATOM     80  C   UNL A   1      38.976  30.438  32.296  1.00  0.00     0.134 A 
ATOM     81  C   UNL A   1      38.242  31.713  30.409  1.00  0.00     0.134 A 
ATOM     82  F   UNL A   1      39.817  29.572  32.879  1.00  0.00    -0.206 F 
ATOM     83  C   UNL A   1      37.928  30.954  33.060  1.00  0.00     0.040 A 
ATOM     84  C   UNL A   1      37.207  32.258  31.169  1.00  0.00     0.040 A 
ATOM     85  F   UNL A   1      38.377  32.122  29.139  1.00  0.00    -0.206 F 
ATOM     86  C   UNL A   1      37.048  31.877  32.500  1.00  0.00     0.006 A 
ENDBRANCH  58  79
BRANCH  70  87
ATOM     87  C   UNL A   1      45.419  33.457  29.543  1.00  0.00     0.057 A 
ATOM     88  C   UNL A   1      46.187  33.566  30.710  1.00  0.00     0.134 A 
ATOM     89  C   UNL A   1      45.279  34.604  28.751  1.00  0.00     0.134 A 
ATOM     90  F   UNL A   1      46.356  32.508  31.516  1.00  0.00    -0.206 F 
ATOM     91  C   UNL A   1      46.793  34.770  31.075  1.00  0.00     0.040 A 
ATOM     92  C   UNL A   1      45.904  35.805  29.091  1.00  0.00     0.040 A 
ATOM     93  F   UNL A   1      44.572  34.561  27.612  1.00  0.00    -0.206 F 
ATOM     94  C   UNL A   1      46.658  35.891  30.259  1.00  0.00     0.006 A 
ENDBRANCH  70  87
ENDBRANCH  44  45
ENDBRANCH  37  39
ENDBRANCH  36  37
ENDBRANCH  35  36
ENDBRANCH  34  35
ENDBRANCH  33  34
ENDBRANCH   1  33
TORSDOF 17
ENDMDL
MODEL 3
REMARK VINA RESULT:     -11.8      5.052      9.945
REMARK SMILES Cc1ccc2cc(C[N@H+]3CC[NH2+][C@H](C(=O)OCCOCCOC(=O)c4ccc(-c5c6nc(c(-c7c(F)cccc7F)c7ccc([nH]7)c(-c7c(F)cccc7F)c7nc(c(-c8c(F)cccc8F)c8ccc5[nH]8)C=C7)C=C6)cc4)C3)c(N3CCOCC3)nc2c1
REMARK SMILES IDX 18 1 17 2 16 3 14 4 15 5 13 6 9 7 10 8 79 9 11 11 12 12 8 15
REMARK SMILES IDX 7 16 1 17 2 18 3 19 89 20 4 21 88 22 5 23 87 24 6 25 80 26
REMARK SMILES IDX 81 27 82 28 86 29 83 30 85 31 84 32 19 33 20 34 21 35 22 36
REMARK SMILES IDX 23 37 24 38 25 39 26 40 78 41 27 42 77 43 28 44 29 45 30 46
REMARK SMILES IDX 71 47 31 48 76 49 70 50 72 51 32 52 75 53 69 54 68 55 33 57
REMARK SMILES IDX 59 58 42 59 58 60 43 61 46 62 57 63 73 64 44 65 45 66 56 68
REMARK SMILES IDX 74 69 47 70 34 71 35 72 40 73 36 74 37 75 39 76 41 77 38 78
REMARK SMILES IDX 60 79 61 80 66 81 62 82 63 83 65 84 67 85 64 86 48 87 49 88
REMARK SMILES IDX 54 89 50 90 51 91 53 92 55 93 52 94
REMARK H PARENT 9 10 12 13 12 14 72 56 46 67
REMARK Flexibility Score: inf
ROOT
ATOM      1  C   UNL A   1      34.934  32.930  28.194  1.00  0.00     0.202 C 
ENDROOT
BRANCH   1   2
ATOM      2  C   UNL A   1      34.916  31.497  27.642  1.00  0.00     0.261 C 
BRANCH   2   3
ATOM      3  O   UNL A   1      33.709  30.789  27.972  1.00  0.00    -0.459 OA
BRANCH   3   4
ATOM      4  C   UNL A   1      32.716  30.836  27.036  1.00  0.00     0.371 C 
ATOM      5  O   UNL A   1      31.958  31.786  26.876  1.00  0.00    -0.245 OA
BRANCH   4   6
ATOM      6  C   UNL A   1      32.684  29.554  26.187  1.00  0.00     0.348 C 
ATOM      7  N   UNL A   1      33.329  27.077  26.466  1.00  0.00    -0.321 N 
ATOM      8  C   UNL A   1      34.172  27.260  25.280  1.00  0.00     0.324 C 
ATOM      9  C   UNL A   1      33.014  28.351  27.117  1.00  0.00     0.341 C 
ATOM     10  H   UNL A   1      33.916  26.579  27.135  1.00  0.00     0.348 HD
ATOM     11  C   UNL A   1      33.735  28.413  24.344  1.00  0.00     0.323 C 
ATOM     12  N   UNL A   1      33.629  29.703  25.048  1.00  0.00    -0.325 N 
ATOM     13  H   UNL A   1      33.282  30.417  24.407  1.00  0.00     0.347 HD
ATOM     14  H   UNL A   1      34.546  29.984  25.397  1.00  0.00     0.347 HD
BRANCH   7  15
ATOM     15  C   UNL A   1      32.255  26.078  26.378  1.00  0.00     0.303 C 
BRANCH  15  16
ATOM     16  C   UNL A   1      32.472  24.893  25.463  1.00  0.00     0.049 A 
ATOM     17  C   UNL A   1      32.579  18.657  23.841  1.00  0.00     0.044 C 
ATOM     18  C   UNL A   1      32.899  20.068  24.234  1.00  0.00    -0.049 A 
ATOM     19  C   UNL A   1      33.970  20.318  25.090  1.00  0.00     0.004 A 
ATOM     20  C   UNL A   1      32.149  21.155  23.749  1.00  0.00     0.032 A 
ATOM     21  C   UNL A   1      34.204  21.614  25.535  1.00  0.00     0.010 A 
ATOM     22  C   UNL A   1      32.353  22.460  24.196  1.00  0.00     0.073 A 
ATOM     23  C   UNL A   1      33.338  22.656  25.175  1.00  0.00     0.001 A 
ATOM     24  N   UNL A   1      31.606  23.480  23.727  1.00  0.00    -0.230 NA
ATOM     25  C   UNL A   1      33.369  23.888  25.830  1.00  0.00     0.023 A 
ATOM     26  C   UNL A   1      31.718  24.703  24.294  1.00  0.00     0.138 A 
BRANCH  26  27
ATOM     27  N   UNL A   1      31.037  25.766  23.728  1.00  0.00    -0.352 N 
ATOM     28  C   UNL A   1      31.496  26.249  22.417  1.00  0.00     0.146 C 
ATOM     29  C   UNL A   1      29.587  25.875  23.898  1.00  0.00     0.146 C 
ATOM     30  C   UNL A   1      31.063  27.716  22.268  1.00  0.00     0.181 C 
ATOM     31  C   UNL A   1      29.196  27.352  23.681  1.00  0.00     0.181 C 
ATOM     32  O   UNL A   1      29.637  27.850  22.402  1.00  0.00    -0.378 OA
ENDBRANCH  26  27
ENDBRANCH  15  16
ENDBRANCH   7  15
ENDBRANCH   4   6
ENDBRANCH   3   4
ENDBRANCH   2   3
ENDBRANCH   1   2
BRANCH   1  33
ATOM     33  O   UNL A   1      33.976  33.262  29.198  1.00  0.00    -0.374 OA
BRANCH  33  34
ATOM     34  C   UNL A   1      34.461  33.802  30.419  1.00  0.00     0.202 C 
BRANCH  34  35
ATOM     35  C   UNL A   1      34.400  32.919  31.670  1.00  0.00     0.261 C 
BRANCH  35  36
ATOM     36  O   UNL A   1      35.230  31.753  31.629  1.00  0.00    -0.460 OA
BRANCH  36  37
ATOM     37  C   UNL A   1      36.265  31.743  32.503  1.00  0.00     0.338 C 
ATOM     38  O   UNL A   1      36.237  31.953  33.701  1.00  0.00    -0.246 OA
BRANCH  37  39
ATOM     39  C   UNL A   1      37.491  31.377  31.776  1.00  0.00     0.060 A 
ATOM     40  C   UNL A   1      38.552  30.794  32.468  1.00  0.00     0.016 A 
ATOM     41  C   UNL A   1      37.546  31.547  30.388  1.00  0.00     0.016 A 
ATOM     42  C   UNL A   1      39.689  30.388  31.765  1.00  0.00     0.010 A 
ATOM     43  C   UNL A   1      38.683  31.138  29.688  1.00  0.00     0.010 A 
ATOM     44  C   UNL A   1      39.762  30.552  30.371  1.00  0.00    -0.014 A 
BRANCH  44  45
ATOM     45  C   UNL A   1      40.941  30.060  29.615  1.00  0.00     0.031 A 
ATOM     46  C   UNL A   1      40.993  28.647  29.107  1.00  0.00     0.074 A 
ATOM     47  C   UNL A   1      41.986  30.887  29.420  1.00  0.00     0.049 A 
ATOM     48  N   UNL A   1      41.942  28.046  28.434  1.00  0.00    -0.248 NA
ATOM     49  C   UNL A   1      39.832  27.796  29.403  1.00  0.00     0.031 C 
ATOM     50  C   UNL A   1      42.066  32.270  29.894  1.00  0.00     0.029 A 
ATOM     51  N   UNL A   1      43.183  30.683  28.783  1.00  0.00    -0.354 N 
ATOM     52  C   UNL A   1      41.495  26.749  28.223  1.00  0.00     0.074 A 
ATOM     53  C   UNL A   1      40.204  26.639  28.871  1.00  0.00     0.031 C 
ATOM     54  C   UNL A   1      43.248  32.791  29.527  1.00  0.00     0.029 A 
ATOM     55  C   UNL A   1      44.018  31.774  28.816  1.00  0.00     0.049 A 
ATOM     56  H   UNL A   1      43.423  29.835  28.343  1.00  0.00     0.167 HD
ATOM     57  C   UNL A   1      42.102  25.746  27.543  1.00  0.00     0.037 A 
ATOM     58  C   UNL A   1      45.266  31.931  28.337  1.00  0.00     0.037 A 
ATOM     59  C   UNL A   1      43.386  25.861  26.898  1.00  0.00     0.049 A 
ATOM     60  C   UNL A   1      45.927  30.787  27.617  1.00  0.00     0.074 A 
ATOM     61  C   UNL A   1      44.052  24.920  26.129  1.00  0.00     0.029 A 
ATOM     62  N   UNL A   1      44.205  26.978  26.958  1.00  0.00    -0.354 N 
ATOM     63  N   UNL A   1      45.454  29.595  27.346  1.00  0.00    -0.248 NA
ATOM     64  C   UNL A   1      47.295  31.015  27.131  1.00  0.00     0.031 C 
ATOM     65  C   UNL A   1      45.296  25.450  25.768  1.00  0.00     0.029 A 
ATOM     66  C   UNL A   1      45.384  26.738  26.271  1.00  0.00     0.049 A 
ATOM     67  H   UNL A   1      43.981  27.817  27.421  1.00  0.00     0.167 HD
ATOM     68  C   UNL A   1      46.454  28.943  26.636  1.00  0.00     0.074 A 
ATOM     69  C   UNL A   1      47.551  29.878  26.502  1.00  0.00     0.031 C 
ATOM     70  C   UNL A   1      46.465  27.680  26.142  1.00  0.00     0.037 A 
BRANCH  57  71
ATOM     71  C   UNL A   1      41.390  24.427  27.464  1.00  0.00     0.057 A 
ATOM     72  C   UNL A   1      41.824  23.334  28.227  1.00  0.00     0.134 A 
ATOM     73  C   UNL A   1      40.314  24.219  26.594  1.00  0.00     0.134 A 
ATOM     74  F   UNL A   1      42.857  23.462  29.075  1.00  0.00    -0.206 F 
ATOM     75  C   UNL A   1      41.216  22.082  28.122  1.00  0.00     0.040 A 
ATOM     76  C   UNL A   1      39.682  22.977  26.496  1.00  0.00     0.040 A 
ATOM     77  F   UNL A   1      39.845  25.225  25.839  1.00  0.00    -0.206 F 
ATOM     78  C   UNL A   1      40.138  21.903  27.258  1.00  0.00     0.006 A 
ENDBRANCH  57  71
BRANCH  58  79
ATOM     79  C   UNL A   1      45.987  33.217  28.519  1.00  0.00     0.057 A 
ATOM     80  C   UNL A   1      46.787  33.451  29.644  1.00  0.00     0.134 A 
ATOM     81  C   UNL A   1      45.935  34.220  27.544  1.00  0.00     0.134 A 
ATOM     82  F   UNL A   1      46.876  32.530  30.615  1.00  0.00    -0.206 F 
ATOM     83  C   UNL A   1      47.513  34.634  29.790  1.00  0.00     0.040 A 
ATOM     84  C   UNL A   1      46.677  35.396  27.664  1.00  0.00     0.040 A 
ATOM     85  F   UNL A   1      45.203  34.045  26.434  1.00  0.00    -0.206 F 
ATOM     86  C   UNL A   1      47.469  35.605  28.792  1.00  0.00     0.006 A 
ENDBRANCH  58  79
BRANCH  70  87
ATOM     87  C   UNL A   1      47.690  27.258  25.385  1.00  0.00     0.057 A 
ATOM     88  C   UNL A   1      47.781  27.463  24.002  1.00  0.00     0.134 A 
ATOM     89  C   UNL A   1      48.776  26.642  26.020  1.00  0.00     0.134 A 
ATOM     90  F   UNL A   1      46.774  28.042  23.332  1.00  0.00    -0.206 F 
ATOM     91  C   UNL A   1      48.910  27.072  23.279  1.00  0.00     0.040 A 
ATOM     92  C   UNL A   1      49.921  26.272  25.313  1.00  0.00     0.040 A 
ATOM     93  F   UNL A   1      48.759  26.432  27.345  1.00  0.00    -0.206 F 
ATOM     94  C   UNL A   1      49.987  26.483  23.937  1.00  0.00     0.006 A 
ENDBRANCH  70  87
ENDBRANCH  44  45
ENDBRANCH  37  39
ENDBRANCH  36  37
ENDBRANCH  35  36
ENDBRANCH  34  35
ENDBRANCH  33  34
ENDBRANCH   1  33
TORSDOF 17
ENDMDL
