MODEL 1
REMARK VINA RESULT:     -12.4      0.000      0.000
REMARK SMILES CC(=O)Nc1cnc(N2CC=C(c3ccccc3C)CC2)c(C(=O)OCCOCCOC(=O)c2ccc(-c3c4nc(c(-c5c(F)cccc5F)c5ccc([nH]5)c(-c5c(F)cccc5F)c5nc(c(-c6c(F)cccc6F)c6ccc3[nH]6)C=C5)C=C4)cc2)c1
REMARK SMILES IDX 28 1 27 2 26 3 25 4 23 5 24 6 22 7 5 8 6 9 88 10 7 11 8 12
REMARK SMILES IDX 4 13 1 14 2 15 3 16 9 18 10 19 21 20 11 21 20 22 12 23 13 24
REMARK SMILES IDX 14 25 18 26 15 27 17 28 19 29 16 30 29 31 30 32 31 33 32 34
REMARK SMILES IDX 33 35 34 36 35 37 87 38 36 39 86 40 37 41 38 42 39 43 80 44
REMARK SMILES IDX 40 45 85 46 79 47 81 48 41 49 84 50 78 51 77 52 42 54 68 55
REMARK SMILES IDX 51 56 67 57 52 58 55 59 66 60 82 61 53 62 54 63 65 65 83 66
REMARK SMILES IDX 56 67 43 68 44 69 49 70 45 71 46 72 48 73 50 74 47 75 69 76
REMARK SMILES IDX 70 77 75 78 71 79 72 80 74 81 76 82 73 83 57 84 58 85 63 86
REMARK SMILES IDX 59 87 60 88 62 89 64 90 61 91
REMARK H PARENT 4 17 81 53 55 64
REMARK Flexibility Score: inf
ROOT
ATOM      1  O   UNL A   1      37.341  21.871  25.912  1.00  0.00    -0.374 OA
ENDROOT
BRANCH   1   2
ATOM      2  C   UNL A   1      37.414  23.284  25.813  1.00  0.00     0.202 C 
BRANCH   2   3
ATOM      3  C   UNL A   1      36.812  23.575  24.484  1.00  0.00     0.261 C 
BRANCH   3   4
ATOM      4  O   UNL A   1      35.382  23.502  24.586  1.00  0.00    -0.460 OA
BRANCH   4   5
ATOM      5  C   UNL A   1      34.574  22.950  23.630  1.00  0.00     0.342 C 
ATOM      6  O   UNL A   1      34.501  23.252  22.467  1.00  0.00    -0.246 OA
BRANCH   5   7
ATOM      7  C   UNL A   1      33.806  21.892  24.322  1.00  0.00     0.104 A 
ATOM      8  C   UNL A   1      33.868  19.551  24.974  1.00  0.00     0.060 A 
ATOM      9  C   UNL A   1      32.527  19.698  25.273  1.00  0.00     0.139 A 
ATOM     10  C   UNL A   1      34.488  20.681  24.509  1.00  0.00     0.047 A 
ATOM     11  N   UNL A   1      31.847  20.883  25.195  1.00  0.00    -0.236 NA
ATOM     12  C   UNL A   1      32.470  21.992  24.705  1.00  0.00     0.143 A 
BRANCH   8  13
ATOM     13  N   UNL A   1      34.543  18.317  24.999  1.00  0.00    -0.325 N 
ATOM     14  C   UNL A   1      33.585  17.242  22.934  1.00  0.00     0.114 C 
ATOM     15  C   UNL A   1      34.327  17.180  24.253  1.00  0.00     0.221 C 
ATOM     16  O   UNL A   1      34.785  16.108  24.657  1.00  0.00    -0.275 OA
ATOM     17  H   UNL A   1      35.282  18.258  25.646  1.00  0.00     0.169 HD
ENDBRANCH   8  13
BRANCH  12  18
ATOM     18  N   UNL A   1      31.666  23.096  24.531  1.00  0.00    -0.352 N 
ATOM     19  C   UNL A   1      30.946  23.234  23.268  1.00  0.00     0.146 C 
ATOM     20  C   UNL A   1      31.067  23.762  25.680  1.00  0.00     0.123 C 
ATOM     21  C   UNL A   1      30.497  24.669  23.084  1.00  0.00    -0.002 C 
ATOM     22  C   UNL A   1      31.042  25.269  25.435  1.00  0.00     0.057 C 
ATOM     23  C   UNL A   1      30.563  25.614  24.046  1.00  0.00    -0.041 C 
BRANCH  23  24
ATOM     24  C   UNL A   1      30.182  27.023  23.805  1.00  0.00    -0.020 A 
ATOM     25  C   UNL A   1      28.844  27.316  23.489  1.00  0.00     0.008 A 
ATOM     26  C   UNL A   1      31.102  28.086  23.932  1.00  0.00    -0.044 A 
ATOM     27  C   UNL A   1      28.416  28.638  23.332  1.00  0.00     0.001 A 
ATOM     28  C   UNL A   1      30.651  29.410  23.789  1.00  0.00     0.004 A 
ATOM     29  C   UNL A   1      32.558  27.870  24.246  1.00  0.00     0.045 C 
ATOM     30  C   UNL A   1      29.318  29.685  23.491  1.00  0.00     0.000 A 
ENDBRANCH  23  24
ENDBRANCH  12  18
ENDBRANCH   5   7
ENDBRANCH   4   5
ENDBRANCH   3   4
ENDBRANCH   2   3
ENDBRANCH   1   2
BRANCH   1  31
ATOM     31  C   UNL A   1      38.491  21.173  25.500  1.00  0.00     0.202 C 
BRANCH  31  32
ATOM     32  C   UNL A   1      39.757  21.736  26.146  1.00  0.00     0.261 C 
BRANCH  32  33
ATOM     33  O   UNL A   1      40.618  20.644  26.543  1.00  0.00    -0.460 OA
BRANCH  33  34
ATOM     34  C   UNL A   1      41.914  20.717  26.121  1.00  0.00     0.338 C 
ATOM     35  O   UNL A   1      42.461  19.906  25.390  1.00  0.00    -0.246 OA
BRANCH  34  36
ATOM     36  C   UNL A   1      42.660  21.743  26.916  1.00  0.00     0.060 A 
ATOM     37  C   UNL A   1      42.436  21.855  28.304  1.00  0.00     0.016 A 
ATOM     38  C   UNL A   1      43.267  22.789  26.232  1.00  0.00     0.016 A 
ATOM     39  C   UNL A   1      42.644  23.080  28.960  1.00  0.00     0.010 A 
ATOM     40  C   UNL A   1      43.346  24.018  26.853  1.00  0.00     0.010 A 
ATOM     41  C   UNL A   1      42.998  24.194  28.207  1.00  0.00    -0.014 A 
BRANCH  41  42
ATOM     42  C   UNL A   1      43.010  25.594  28.661  1.00  0.00     0.031 A 
ATOM     43  C   UNL A   1      41.807  26.402  28.362  1.00  0.00     0.074 A 
ATOM     44  C   UNL A   1      43.912  26.070  29.559  1.00  0.00     0.049 A 
ATOM     45  N   UNL A   1      41.722  27.670  28.559  1.00  0.00    -0.248 NA
ATOM     46  C   UNL A   1      40.597  25.852  27.756  1.00  0.00     0.031 C 
ATOM     47  C   UNL A   1      43.749  27.174  30.515  1.00  0.00     0.029 A 
ATOM     48  N   UNL A   1      45.201  25.620  29.868  1.00  0.00    -0.354 N 
ATOM     49  C   UNL A   1      40.396  28.018  28.468  1.00  0.00     0.074 A 
ATOM     50  C   UNL A   1      39.773  26.900  27.812  1.00  0.00     0.031 C 
ATOM     51  C   UNL A   1      44.945  27.492  31.049  1.00  0.00     0.029 A 
ATOM     52  C   UNL A   1      45.947  26.712  30.343  1.00  0.00     0.049 A 
ATOM     53  H   UNL A   1      45.529  24.697  29.770  1.00  0.00     0.167 HD
ATOM     54  C   UNL A   1      39.991  29.157  29.099  1.00  0.00     0.037 A 
ATOM     55  C   UNL A   1      47.026  27.148  29.636  1.00  0.00     0.037 A 
ATOM     56  C   UNL A   1      41.157  29.878  29.648  1.00  0.00     0.049 A 
ATOM     57  C   UNL A   1      46.741  28.512  29.071  1.00  0.00     0.074 A 
ATOM     58  C   UNL A   1      41.678  30.074  30.917  1.00  0.00     0.029 A 
ATOM     59  N   UNL A   1      42.163  30.268  28.774  1.00  0.00    -0.354 N 
ATOM     60  N   UNL A   1      45.582  29.093  29.215  1.00  0.00    -0.248 NA
ATOM     61  C   UNL A   1      47.664  29.320  28.289  1.00  0.00     0.031 C 
ATOM     62  C   UNL A   1      43.021  30.554  30.777  1.00  0.00     0.029 A 
ATOM     63  C   UNL A   1      43.308  30.679  29.427  1.00  0.00     0.049 A 
ATOM     64  H   UNL A   1      42.070  30.254  27.794  1.00  0.00     0.167 HD
ATOM     65  C   UNL A   1      45.565  30.290  28.590  1.00  0.00     0.074 A 
ATOM     66  C   UNL A   1      46.886  30.375  27.978  1.00  0.00     0.031 C 
ATOM     67  C   UNL A   1      44.466  31.098  28.635  1.00  0.00     0.037 A 
BRANCH  54  68
ATOM     68  C   UNL A   1      38.552  29.554  29.400  1.00  0.00     0.057 A 
ATOM     69  C   UNL A   1      37.710  29.977  28.350  1.00  0.00     0.134 A 
ATOM     70  C   UNL A   1      37.931  29.601  30.665  1.00  0.00     0.134 A 
ATOM     71  F   UNL A   1      38.115  29.960  27.074  1.00  0.00    -0.206 F 
ATOM     72  C   UNL A   1      36.401  30.443  28.549  1.00  0.00     0.040 A 
ATOM     73  C   UNL A   1      36.621  30.058  30.878  1.00  0.00     0.040 A 
ATOM     74  F   UNL A   1      38.528  29.206  31.788  1.00  0.00    -0.206 F 
ATOM     75  C   UNL A   1      35.851  30.492  29.818  1.00  0.00     0.006 A 
ENDBRANCH  54  68
BRANCH  55  76
ATOM     76  C   UNL A   1      47.748  26.006  28.992  1.00  0.00     0.057 A 
ATOM     77  C   UNL A   1      47.490  25.754  27.626  1.00  0.00     0.134 A 
ATOM     78  C   UNL A   1      48.979  25.562  29.487  1.00  0.00     0.134 A 
ATOM     79  F   UNL A   1      46.342  26.172  27.069  1.00  0.00    -0.206 F 
ATOM     80  C   UNL A   1      48.462  25.222  26.770  1.00  0.00     0.040 A 
ATOM     81  C   UNL A   1      49.964  25.043  28.634  1.00  0.00     0.040 A 
ATOM     82  F   UNL A   1      49.310  25.775  30.768  1.00  0.00    -0.206 F 
ATOM     83  C   UNL A   1      49.726  24.917  27.266  1.00  0.00     0.006 A 
ENDBRANCH  55  76
BRANCH  67  84
ATOM     84  C   UNL A   1      44.423  32.377  27.874  1.00  0.00     0.057 A 
ATOM     85  C   UNL A   1      44.658  33.613  28.484  1.00  0.00     0.134 A 
ATOM     86  C   UNL A   1      44.110  32.410  26.503  1.00  0.00     0.134 A 
ATOM     87  F   UNL A   1      44.845  33.707  29.810  1.00  0.00    -0.206 F 
ATOM     88  C   UNL A   1      44.711  34.797  27.749  1.00  0.00     0.040 A 
ATOM     89  C   UNL A   1      44.087  33.594  25.772  1.00  0.00     0.040 A 
ATOM     90  F   UNL A   1      43.854  31.297  25.802  1.00  0.00    -0.206 F 
ATOM     91  C   UNL A   1      44.427  34.788  26.388  1.00  0.00     0.006 A 
ENDBRANCH  67  84
ENDBRANCH  41  42
ENDBRANCH  34  36
ENDBRANCH  33  34
ENDBRANCH  32  33
ENDBRANCH  31  32
ENDBRANCH   1  31
TORSDOF 17
ENDMDL
MODEL 2
REMARK VINA RESULT:     -12.2      3.805      9.081
REMARK SMILES CC(=O)Nc1cnc(N2CC=C(c3ccccc3C)CC2)c(C(=O)OCCOCCOC(=O)c2ccc(-c3c4nc(c(-c5c(F)cccc5F)c5ccc([nH]5)c(-c5c(F)cccc5F)c5nc(c(-c6c(F)cccc6F)c6ccc3[nH]6)C=C5)C=C4)cc2)c1
REMARK SMILES IDX 28 1 27 2 26 3 25 4 23 5 24 6 22 7 5 8 6 9 88 10 7 11 8 12
REMARK SMILES IDX 4 13 1 14 2 15 3 16 9 18 10 19 21 20 11 21 20 22 12 23 13 24
REMARK SMILES IDX 14 25 18 26 15 27 17 28 19 29 16 30 29 31 30 32 31 33 32 34
REMARK SMILES IDX 33 35 34 36 35 37 87 38 36 39 86 40 37 41 38 42 39 43 80 44
REMARK SMILES IDX 40 45 85 46 79 47 81 48 41 49 84 50 78 51 77 52 42 54 68 55
REMARK SMILES IDX 51 56 67 57 52 58 55 59 66 60 82 61 53 62 54 63 65 65 83 66
REMARK SMILES IDX 56 67 43 68 44 69 49 70 45 71 46 72 48 73 50 74 47 75 69 76
REMARK SMILES IDX 70 77 75 78 71 79 72 80 74 81 76 82 73 83 57 84 58 85 63 86
REMARK SMILES IDX 59 87 60 88 62 89 64 90 61 91
REMARK H PARENT 4 17 81 53 55 64
REMARK Flexibility Score: inf
ROOT
ATOM      1  O   UNL A   1      32.456  29.994  27.053  1.00  0.00    -0.374 OA
ENDROOT
BRANCH   1   2
ATOM      2  C   UNL A   1      32.114  29.810  25.689  1.00  0.00     0.202 C 
BRANCH   2   3
ATOM      3  C   UNL A   1      33.259  29.033  25.141  1.00  0.00     0.261 C 
BRANCH   3   4
ATOM      4  O   UNL A   1      33.319  29.218  23.719  1.00  0.00    -0.460 OA
BRANCH   4   5
ATOM      5  C   UNL A   1      32.972  28.260  22.807  1.00  0.00     0.342 C 
ATOM      6  O   UNL A   1      33.701  27.491  22.236  1.00  0.00    -0.246 OA
BRANCH   5   7
ATOM      7  C   UNL A   1      31.502  28.357  22.670  1.00  0.00     0.104 A 
ATOM      8  C   UNL A   1      29.691  29.899  22.167  1.00  0.00     0.060 A 
ATOM      9  C   UNL A   1      28.846  28.907  22.626  1.00  0.00     0.139 A 
ATOM     10  C   UNL A   1      31.025  29.585  22.189  1.00  0.00     0.047 A 
ATOM     11  N   UNL A   1      29.262  27.663  23.016  1.00  0.00    -0.236 NA
ATOM     12  C   UNL A   1      30.593  27.374  23.058  1.00  0.00     0.143 A 
BRANCH   8  13
ATOM     13  N   UNL A   1      29.262  31.195  21.827  1.00  0.00    -0.325 N 
ATOM     14  C   UNL A   1      27.612  31.620  23.681  1.00  0.00     0.114 C 
ATOM     15  C   UNL A   1      28.213  31.935  22.326  1.00  0.00     0.221 C 
ATOM     16  O   UNL A   1      27.794  32.890  21.668  1.00  0.00    -0.275 OA
ATOM     17  H   UNL A   1      29.792  31.641  21.128  1.00  0.00     0.169 HD
ENDBRANCH   8  13
BRANCH  12  18
ATOM     18  N   UNL A   1      30.918  26.149  23.597  1.00  0.00    -0.352 N 
ATOM     19  C   UNL A   1      31.283  26.092  25.010  1.00  0.00     0.146 C 
ATOM     20  C   UNL A   1      30.369  24.925  23.031  1.00  0.00     0.123 C 
ATOM     21  C   UNL A   1      32.020  24.800  25.300  1.00  0.00    -0.002 C 
ATOM     22  C   UNL A   1      31.422  23.821  23.093  1.00  0.00     0.057 C 
ATOM     23  C   UNL A   1      32.121  23.772  24.431  1.00  0.00    -0.041 C 
BRANCH  23  24
ATOM     24  C   UNL A   1      32.909  22.556  24.724  1.00  0.00    -0.020 A 
ATOM     25  C   UNL A   1      32.256  21.445  25.285  1.00  0.00     0.008 A 
ATOM     26  C   UNL A   1      34.284  22.455  24.414  1.00  0.00    -0.044 A 
ATOM     27  C   UNL A   1      32.939  20.245  25.506  1.00  0.00     0.001 A 
ATOM     28  C   UNL A   1      34.950  21.235  24.626  1.00  0.00     0.004 A 
ATOM     29  C   UNL A   1      35.073  23.596  23.832  1.00  0.00     0.045 C 
ATOM     30  C   UNL A   1      34.284  20.138  25.168  1.00  0.00     0.000 A 
ENDBRANCH  23  24
ENDBRANCH  12  18
ENDBRANCH   5   7
ENDBRANCH   4   5
ENDBRANCH   3   4
ENDBRANCH   2   3
ENDBRANCH   1   2
BRANCH   1  31
ATOM     31  C   UNL A   1      33.833  30.053  27.330  1.00  0.00     0.202 C 
BRANCH  31  32
ATOM     32  C   UNL A   1      34.242  31.419  27.882  1.00  0.00     0.261 C 
BRANCH  32  33
ATOM     33  O   UNL A   1      35.103  31.233  29.029  1.00  0.00    -0.460 OA
BRANCH  33  34
ATOM     34  C   UNL A   1      36.428  31.497  28.835  1.00  0.00     0.338 C 
ATOM     35  O   UNL A   1      36.883  32.560  28.443  1.00  0.00    -0.246 OA
BRANCH  34  36
ATOM     36  C   UNL A   1      37.218  30.225  28.863  1.00  0.00     0.060 A 
ATOM     37  C   UNL A   1      37.199  29.412  30.015  1.00  0.00     0.016 A 
ATOM     38  C   UNL A   1      38.226  30.057  27.922  1.00  0.00     0.016 A 
ATOM     39  C   UNL A   1      38.287  28.574  30.311  1.00  0.00     0.010 A 
ATOM     40  C   UNL A   1      39.343  29.333  28.281  1.00  0.00     0.010 A 
ATOM     41  C   UNL A   1      39.410  28.618  29.492  1.00  0.00    -0.014 A 
BRANCH  41  42
ATOM     42  C   UNL A   1      40.726  28.021  29.774  1.00  0.00     0.031 A 
ATOM     43  C   UNL A   1      41.010  26.709  29.150  1.00  0.00     0.074 A 
ATOM     44  C   UNL A   1      41.754  28.725  30.316  1.00  0.00     0.049 A 
ATOM     45  N   UNL A   1      42.046  25.994  29.414  1.00  0.00    -0.248 NA
ATOM     46  C   UNL A   1      40.112  26.057  28.200  1.00  0.00     0.031 C 
ATOM     47  C   UNL A   1      43.197  28.509  30.141  1.00  0.00     0.029 A 
ATOM     48  N   UNL A   1      41.738  29.866  31.127  1.00  0.00    -0.354 N 
ATOM     49  C   UNL A   1      42.139  25.023  28.447  1.00  0.00     0.074 A 
ATOM     50  C   UNL A   1      40.842  25.005  27.827  1.00  0.00     0.031 C 
ATOM     51  C   UNL A   1      43.879  29.256  31.032  1.00  0.00     0.029 A 
ATOM     52  C   UNL A   1      42.899  29.860  31.919  1.00  0.00     0.049 A 
ATOM     53  H   UNL A   1      41.035  30.554  31.141  1.00  0.00     0.167 HD
ATOM     54  C   UNL A   1      43.364  24.469  28.215  1.00  0.00     0.037 A 
ATOM     55  C   UNL A   1      42.790  29.753  33.272  1.00  0.00     0.037 A 
ATOM     56  C   UNL A   1      44.341  24.959  29.209  1.00  0.00     0.049 A 
ATOM     57  C   UNL A   1      43.348  28.430  33.719  1.00  0.00     0.074 A 
ATOM     58  C   UNL A   1      45.402  25.849  29.180  1.00  0.00     0.029 A 
ATOM     59  N   UNL A   1      44.078  24.744  30.555  1.00  0.00    -0.354 N 
ATOM     60  N   UNL A   1      43.783  27.539  32.871  1.00  0.00    -0.248 NA
ATOM     61  C   UNL A   1      43.441  27.966  35.095  1.00  0.00     0.031 C 
ATOM     62  C   UNL A   1      45.738  26.183  30.533  1.00  0.00     0.029 A 
ATOM     63  C   UNL A   1      44.905  25.476  31.383  1.00  0.00     0.049 A 
ATOM     64  H   UNL A   1      43.377  24.136  30.884  1.00  0.00     0.167 HD
ATOM     65  C   UNL A   1      44.199  26.428  33.514  1.00  0.00     0.074 A 
ATOM     66  C   UNL A   1      43.923  26.720  34.916  1.00  0.00     0.031 C 
ATOM     67  C   UNL A   1      44.730  25.370  32.833  1.00  0.00     0.037 A 
BRANCH  54  68
ATOM     68  C   UNL A   1      43.758  23.635  27.004  1.00  0.00     0.057 A 
ATOM     69  C   UNL A   1      44.470  24.234  25.945  1.00  0.00     0.134 A 
ATOM     70  C   UNL A   1      43.446  22.279  26.769  1.00  0.00     0.134 A 
ATOM     71  F   UNL A   1      44.888  25.505  26.009  1.00  0.00    -0.206 F 
ATOM     72  C   UNL A   1      44.795  23.564  24.754  1.00  0.00     0.040 A 
ATOM     73  C   UNL A   1      43.771  21.595  25.588  1.00  0.00     0.040 A 
ATOM     74  F   UNL A   1      42.816  21.510  27.654  1.00  0.00    -0.206 F 
ATOM     75  C   UNL A   1      44.441  22.240  24.567  1.00  0.00     0.006 A 
ENDBRANCH  54  68
BRANCH  55  76
ATOM     76  C   UNL A   1      41.576  30.469  33.775  1.00  0.00     0.057 A 
ATOM     77  C   UNL A   1      41.626  31.879  33.836  1.00  0.00     0.134 A 
ATOM     78  C   UNL A   1      40.305  29.892  33.669  1.00  0.00     0.134 A 
ATOM     79  F   UNL A   1      42.809  32.509  33.912  1.00  0.00    -0.206 F 
ATOM     80  C   UNL A   1      40.486  32.673  33.655  1.00  0.00     0.040 A 
ATOM     81  C   UNL A   1      39.161  30.680  33.471  1.00  0.00     0.040 A 
ATOM     82  F   UNL A   1      40.171  28.562  33.590  1.00  0.00    -0.206 F 
ATOM     83  C   UNL A   1      39.255  32.070  33.415  1.00  0.00     0.006 A 
ENDBRANCH  55  76
BRANCH  67  84
ATOM     84  C   UNL A   1      45.107  24.115  33.540  1.00  0.00     0.057 A 
ATOM     85  C   UNL A   1      44.166  23.130  33.859  1.00  0.00     0.134 A 
ATOM     86  C   UNL A   1      46.428  23.871  33.955  1.00  0.00     0.134 A 
ATOM     87  F   UNL A   1      42.859  23.317  33.618  1.00  0.00    -0.206 F 
ATOM     88  C   UNL A   1      44.541  21.917  34.435  1.00  0.00     0.040 A 
ATOM     89  C   UNL A   1      46.801  22.694  34.598  1.00  0.00     0.040 A 
ATOM     90  F   UNL A   1      47.423  24.738  33.721  1.00  0.00    -0.206 F 
ATOM     91  C   UNL A   1      45.863  21.696  34.804  1.00  0.00     0.006 A 
ENDBRANCH  67  84
ENDBRANCH  41  42
ENDBRANCH  34  36
ENDBRANCH  33  34
ENDBRANCH  32  33
ENDBRANCH  31  32
ENDBRANCH   1  31
TORSDOF 17
ENDMDL
MODEL 3
REMARK VINA RESULT:     -12.2      3.835      9.041
REMARK SMILES CC(=O)Nc1cnc(N2CC=C(c3ccccc3C)CC2)c(C(=O)OCCOCCOC(=O)c2ccc(-c3c4nc(c(-c5c(F)cccc5F)c5ccc([nH]5)c(-c5c(F)cccc5F)c5nc(c(-c6c(F)cccc6F)c6ccc3[nH]6)C=C5)C=C4)cc2)c1
REMARK SMILES IDX 28 1 27 2 26 3 25 4 23 5 24 6 22 7 5 8 6 9 88 10 7 11 8 12
REMARK SMILES IDX 4 13 1 14 2 15 3 16 9 18 10 19 21 20 11 21 20 22 12 23 13 24
REMARK SMILES IDX 14 25 18 26 15 27 17 28 19 29 16 30 29 31 30 32 31 33 32 34
REMARK SMILES IDX 33 35 34 36 35 37 87 38 36 39 86 40 37 41 38 42 39 43 80 44
REMARK SMILES IDX 40 45 85 46 79 47 81 48 41 49 84 50 78 51 77 52 42 54 68 55
REMARK SMILES IDX 51 56 67 57 52 58 55 59 66 60 82 61 53 62 54 63 65 65 83 66
REMARK SMILES IDX 56 67 43 68 44 69 49 70 45 71 46 72 48 73 50 74 47 75 69 76
REMARK SMILES IDX 70 77 75 78 71 79 72 80 74 81 76 82 73 83 57 84 58 85 63 86
REMARK SMILES IDX 59 87 60 88 62 89 64 90 61 91
REMARK H PARENT 4 17 81 53 55 64
REMARK Flexibility Score: inf
ROOT
ATOM      1  O   UNL A   1      32.557  29.887  27.179  1.00  0.00    -0.374 OA
ENDROOT
BRANCH   1   2
ATOM      2  C   UNL A   1      31.907  28.981  26.304  1.00  0.00     0.202 C 
BRANCH   2   3
ATOM      3  C   UNL A   1      32.975  28.593  25.344  1.00  0.00     0.261 C 
BRANCH   3   4
ATOM      4  O   UNL A   1      32.590  28.992  24.020  1.00  0.00    -0.460 OA
BRANCH   4   5
ATOM      5  C   UNL A   1      32.363  28.118  22.993  1.00  0.00     0.342 C 
ATOM      6  O   UNL A   1      33.150  27.735  22.166  1.00  0.00    -0.246 OA
BRANCH   5   7
ATOM      7  C   UNL A   1      30.940  27.731  23.109  1.00  0.00     0.104 A 
ATOM      8  C   UNL A   1      28.674  28.613  23.085  1.00  0.00     0.060 A 
ATOM      9  C   UNL A   1      28.289  27.375  23.562  1.00  0.00     0.139 A 
ATOM     10  C   UNL A   1      30.017  28.757  22.853  1.00  0.00     0.047 A 
ATOM     11  N   UNL A   1      29.142  26.319  23.737  1.00  0.00    -0.236 NA
ATOM     12  C   UNL A   1      30.479  26.485  23.528  1.00  0.00     0.143 A 
BRANCH   8  13
ATOM     13  N   UNL A   1      27.801  29.711  22.967  1.00  0.00    -0.325 N 
ATOM     14  C   UNL A   1      29.222  31.523  23.984  1.00  0.00     0.114 C 
ATOM     15  C   UNL A   1      27.892  30.970  23.515  1.00  0.00     0.221 C 
ATOM     16  O   UNL A   1      26.874  31.664  23.581  1.00  0.00    -0.275 OA
ATOM     17  H   UNL A   1      27.007  29.554  22.408  1.00  0.00     0.169 HD
ENDBRANCH   8  13
BRANCH  12  18
ATOM     18  N   UNL A   1      31.270  25.410  23.866  1.00  0.00    -0.352 N 
ATOM     19  C   UNL A   1      31.717  25.290  25.251  1.00  0.00     0.146 C 
ATOM     20  C   UNL A   1      31.184  24.164  23.116  1.00  0.00     0.123 C 
ATOM     21  C   UNL A   1      32.899  24.345  25.332  1.00  0.00    -0.002 C 
ATOM     22  C   UNL A   1      32.575  23.545  23.000  1.00  0.00     0.057 C 
ATOM     23  C   UNL A   1      33.322  23.570  24.311  1.00  0.00    -0.041 C 
BRANCH  23  24
ATOM     24  C   UNL A   1      34.524  22.714  24.407  1.00  0.00    -0.020 A 
ATOM     25  C   UNL A   1      35.782  23.282  24.138  1.00  0.00     0.008 A 
ATOM     26  C   UNL A   1      34.458  21.362  24.809  1.00  0.00    -0.044 A 
ATOM     27  C   UNL A   1      36.955  22.537  24.293  1.00  0.00     0.001 A 
ATOM     28  C   UNL A   1      35.648  20.633  24.977  1.00  0.00     0.004 A 
ATOM     29  C   UNL A   1      33.157  20.661  25.098  1.00  0.00     0.045 C 
ATOM     30  C   UNL A   1      36.887  21.215  24.721  1.00  0.00     0.000 A 
ENDBRANCH  23  24
ENDBRANCH  12  18
ENDBRANCH   5   7
ENDBRANCH   4   5
ENDBRANCH   3   4
ENDBRANCH   2   3
ENDBRANCH   1   2
BRANCH   1  31
ATOM     31  C   UNL A   1      33.961  29.817  27.192  1.00  0.00     0.202 C 
BRANCH  31  32
ATOM     32  C   UNL A   1      34.592  31.166  27.538  1.00  0.00     0.261 C 
BRANCH  32  33
ATOM     33  O   UNL A   1      35.276  31.063  28.808  1.00  0.00    -0.460 OA
BRANCH  33  34
ATOM     34  C   UNL A   1      36.612  31.347  28.796  1.00  0.00     0.338 C 
ATOM     35  O   UNL A   1      37.094  32.444  28.562  1.00  0.00    -0.246 OA
BRANCH  34  36
ATOM     36  C   UNL A   1      37.410  30.081  28.799  1.00  0.00     0.060 A 
ATOM     37  C   UNL A   1      37.353  29.217  29.912  1.00  0.00     0.016 A 
ATOM     38  C   UNL A   1      38.455  29.962  27.891  1.00  0.00     0.016 A 
ATOM     39  C   UNL A   1      38.436  28.374  30.212  1.00  0.00     0.010 A 
ATOM     40  C   UNL A   1      39.564  29.230  28.261  1.00  0.00     0.010 A 
ATOM     41  C   UNL A   1      39.590  28.462  29.442  1.00  0.00    -0.014 A 
BRANCH  41  42
ATOM     42  C   UNL A   1      40.899  27.861  29.747  1.00  0.00     0.031 A 
ATOM     43  C   UNL A   1      41.191  26.549  29.129  1.00  0.00     0.074 A 
ATOM     44  C   UNL A   1      41.919  28.563  30.308  1.00  0.00     0.049 A 
ATOM     45  N   UNL A   1      42.219  25.831  29.414  1.00  0.00    -0.248 NA
ATOM     46  C   UNL A   1      40.309  25.898  28.164  1.00  0.00     0.031 C 
ATOM     47  C   UNL A   1      43.364  28.343  30.160  1.00  0.00     0.029 A 
ATOM     48  N   UNL A   1      41.891  29.704  31.118  1.00  0.00    -0.354 N 
ATOM     49  C   UNL A   1      42.328  24.859  28.448  1.00  0.00     0.074 A 
ATOM     50  C   UNL A   1      41.042  24.844  27.804  1.00  0.00     0.031 C 
ATOM     51  C   UNL A   1      44.031  29.089  31.063  1.00  0.00     0.029 A 
ATOM     52  C   UNL A   1      43.037  29.696  31.931  1.00  0.00     0.049 A 
ATOM     53  H   UNL A   1      41.189  30.395  31.118  1.00  0.00     0.167 HD
ATOM     54  C   UNL A   1      43.555  24.301  28.240  1.00  0.00     0.037 A 
ATOM     55  C   UNL A   1      42.903  29.590  33.282  1.00  0.00     0.037 A 
ATOM     56  C   UNL A   1      44.515  24.789  29.251  1.00  0.00     0.049 A 
ATOM     57  C   UNL A   1      43.449  28.266  33.739  1.00  0.00     0.074 A 
ATOM     58  C   UNL A   1      45.579  25.677  29.241  1.00  0.00     0.029 A 
ATOM     59  N   UNL A   1      44.226  24.576  30.592  1.00  0.00    -0.354 N 
ATOM     60  N   UNL A   1      43.896  27.374  32.900  1.00  0.00    -0.248 NA
ATOM     61  C   UNL A   1      43.516  27.803  35.117  1.00  0.00     0.031 C 
ATOM     62  C   UNL A   1      45.891  26.010  30.600  1.00  0.00     0.029 A 
ATOM     63  C   UNL A   1      45.040  25.306  31.435  1.00  0.00     0.049 A 
ATOM     64  H   UNL A   1      43.518  23.970  30.908  1.00  0.00     0.167 HD
ATOM     65  C   UNL A   1      44.298  26.261  33.552  1.00  0.00     0.074 A 
ATOM     66  C   UNL A   1      43.997  26.555  34.948  1.00  0.00     0.031 C 
ATOM     67  C   UNL A   1      44.838  25.202  32.881  1.00  0.00     0.037 A 
BRANCH  54  68
ATOM     68  C   UNL A   1      43.969  23.465  27.037  1.00  0.00     0.057 A 
ATOM     69  C   UNL A   1      43.422  22.177  26.859  1.00  0.00     0.134 A 
ATOM     70  C   UNL A   1      44.913  23.810  26.047  1.00  0.00     0.134 A 
ATOM     71  F   UNL A   1      42.479  21.695  27.678  1.00  0.00    -0.206 F 
ATOM     72  C   UNL A   1      43.813  21.306  25.830  1.00  0.00     0.040 A 
ATOM     73  C   UNL A   1      45.308  22.952  25.009  1.00  0.00     0.040 A 
ATOM     74  F   UNL A   1      45.520  24.994  25.998  1.00  0.00    -0.206 F 
ATOM     75  C   UNL A   1      44.764  21.688  24.901  1.00  0.00     0.006 A 
ENDBRANCH  54  68
BRANCH  55  76
ATOM     76  C   UNL A   1      41.682  30.310  33.762  1.00  0.00     0.057 A 
ATOM     77  C   UNL A   1      41.725  31.721  33.801  1.00  0.00     0.134 A 
ATOM     78  C   UNL A   1      40.414  29.727  33.654  1.00  0.00     0.134 A 
ATOM     79  F   UNL A   1      42.906  32.357  33.877  1.00  0.00    -0.206 F 
ATOM     80  C   UNL A   1      40.585  32.508  33.596  1.00  0.00     0.040 A 
ATOM     81  C   UNL A   1      39.269  30.507  33.432  1.00  0.00     0.040 A 
ATOM     82  F   UNL A   1      40.284  28.394  33.594  1.00  0.00    -0.206 F 
ATOM     83  C   UNL A   1      39.359  31.897  33.355  1.00  0.00     0.006 A 
ENDBRANCH  55  76
BRANCH  67  84
ATOM     84  C   UNL A   1      45.199  23.946  33.596  1.00  0.00     0.057 A 
ATOM     85  C   UNL A   1      46.501  23.691  34.040  1.00  0.00     0.134 A 
ATOM     86  C   UNL A   1      44.252  22.934  33.831  1.00  0.00     0.134 A 
ATOM     87  F   UNL A   1      47.506  24.535  33.760  1.00  0.00    -0.206 F 
ATOM     88  C   UNL A   1      46.811  22.558  34.790  1.00  0.00     0.040 A 
ATOM     89  C   UNL A   1      44.567  21.764  34.515  1.00  0.00     0.040 A 
ATOM     90  F   UNL A   1      42.973  23.048  33.448  1.00  0.00    -0.206 F 
ATOM     91  C   UNL A   1      45.842  21.591  35.032  1.00  0.00     0.006 A 
ENDBRANCH  67  84
ENDBRANCH  41  42
ENDBRANCH  34  36
ENDBRANCH  33  34
ENDBRANCH  32  33
ENDBRANCH  31  32
ENDBRANCH   1  31
TORSDOF 17
ENDMDL
