MODEL 1
REMARK VINA RESULT:     -13.4      0.000      0.000
REMARK SMILES CC[C@](C)(NC(=O)[C@H]1C[NH2+]Cc2ccccc21)C(=O)OCCOCCOC(=O)c1ccc(-c2c3nc(c(-c4c(F)cccc4F)c4ccc([nH]4)c(-c4c(F)cccc4F)c4nc(c(-c5c(F)cccc5F)c5ccc2[nH]5)C=C4)C=C3)cc1
REMARK SMILES IDX 23 1 22 2 21 3 20 4 18 5 19 6 3 7 4 8 2 9 1 10 5 11 6 12
REMARK SMILES IDX 7 14 8 15 9 16 17 17 10 18 12 19 16 20 11 21 13 24 15 25
REMARK SMILES IDX 14 26 24 27 25 28 26 29 27 30 28 31 29 32 30 33 82 34 31 35
REMARK SMILES IDX 81 36 32 37 33 38 34 39 75 40 35 41 80 42 74 43 76 44 36 45
REMARK SMILES IDX 79 46 73 47 72 48 37 50 63 51 46 52 62 53 47 54 50 55 61 56
REMARK SMILES IDX 77 57 48 58 49 59 60 61 78 62 51 63 38 64 39 65 44 66 40 67
REMARK SMILES IDX 41 68 43 69 45 70 42 71 64 72 65 73 70 74 66 75 67 76 69 77
REMARK SMILES IDX 71 78 68 79 52 80 53 81 58 82 54 83 55 84 57 85 59 86 56 87
REMARK H PARENT 5 13 10 22 10 23 76 49 50 60
REMARK Flexibility Score: inf
ROOT
ATOM      1  O   UNL A   1      39.352  21.587  26.133  1.00  0.00    -0.374 OA
ENDROOT
BRANCH   1   2
ATOM      2  C   UNL A   1      38.165  21.401  25.334  1.00  0.00     0.202 C 
BRANCH   2   3
ATOM      3  C   UNL A   1      36.817  22.041  25.801  1.00  0.00     0.261 C 
BRANCH   3   4
ATOM      4  O   UNL A   1      35.756  21.792  24.913  1.00  0.00    -0.462 OA
BRANCH   4   5
ATOM      5  C   UNL A   1      34.584  21.792  25.591  1.00  0.00     0.331 C 
ATOM      6  O   UNL A   1      34.453  21.363  26.737  1.00  0.00    -0.249 OA
BRANCH   5   7
ATOM      7  C   UNL A   1      33.493  22.452  24.758  1.00  0.00     0.135 C 
ATOM      8  C   UNL A   1      32.309  22.752  25.718  1.00  0.00     0.047 C 
BRANCH   7   9
ATOM      9  C   UNL A   1      32.977  21.406  23.731  1.00  0.00     0.037 C 
ATOM     10  C   UNL A   1      32.469  20.110  24.349  1.00  0.00     0.007 C 
ENDBRANCH   7   9
BRANCH   7  11
ATOM     11  N   UNL A   1      34.046  23.646  24.014  1.00  0.00    -0.340 N 
ATOM     12  C   UNL A   1      33.451  24.357  23.020  1.00  0.00     0.234 C 
ATOM     13  H   UNL A   1      34.946  23.944  24.282  1.00  0.00     0.164 HD
ATOM     14  O   UNL A   1      33.826  23.812  21.962  1.00  0.00    -0.274 OA
BRANCH  12  15
ATOM     15  C   UNL A   1      32.813  25.979  23.110  1.00  0.00     0.164 C 
ATOM     16  C   UNL A   1      31.108  25.041  22.826  1.00  0.00     0.279 C 
ATOM     17  C   UNL A   1      32.890  27.174  24.727  1.00  0.00    -0.021 A 
ATOM     18  N   UNL A   1      29.837  24.969  24.147  1.00  0.00    -0.342 N 
ATOM     19  C   UNL A   1      31.629  27.018  25.981  1.00  0.00     0.010 A 
ATOM     20  C   UNL A   1      33.820  28.138  25.116  1.00  0.00     0.005 A 
ATOM     21  C   UNL A   1      30.091  25.958  25.676  1.00  0.00     0.297 C 
ATOM     22  H   UNL A   1      29.755  23.993  24.432  1.00  0.00     0.346 HD
ATOM     23  H   UNL A   1      29.011  25.386  23.717  1.00  0.00     0.346 HD
ATOM     24  C   UNL A   1      31.611  27.669  27.200  1.00  0.00     0.010 A 
ATOM     25  C   UNL A   1      33.736  28.693  26.442  1.00  0.00     0.000 A 
ATOM     26  C   UNL A   1      32.714  28.474  27.422  1.00  0.00     0.001 A 
ENDBRANCH  12  15
ENDBRANCH   7  11
ENDBRANCH   5   7
ENDBRANCH   4   5
ENDBRANCH   3   4
ENDBRANCH   2   3
ENDBRANCH   1   2
BRANCH   1  27
ATOM     27  C   UNL A   1      40.325  20.532  26.513  1.00  0.00     0.202 C 
BRANCH  27  28
ATOM     28  C   UNL A   1      42.028  20.467  26.053  1.00  0.00     0.261 C 
BRANCH  28  29
ATOM     29  O   UNL A   1      42.863  21.897  25.306  1.00  0.00    -0.460 OA
BRANCH  29  30
ATOM     30  C   UNL A   1      43.197  23.680  25.392  1.00  0.00     0.338 C 
ATOM     31  O   UNL A   1      43.968  24.341  24.652  1.00  0.00    -0.246 OA
BRANCH  30  32
ATOM     32  C   UNL A   1      42.575  24.763  26.229  1.00  0.00     0.060 A 
ATOM     33  C   UNL A   1      43.126  26.059  26.111  1.00  0.00     0.016 A 
ATOM     34  C   UNL A   1      41.707  24.487  27.286  1.00  0.00     0.016 A 
ATOM     35  C   UNL A   1      42.784  27.062  27.015  1.00  0.00     0.010 A 
ATOM     36  C   UNL A   1      41.267  25.515  28.104  1.00  0.00     0.010 A 
ATOM     37  C   UNL A   1      41.843  26.794  28.011  1.00  0.00    -0.014 A 
BRANCH  37  38
ATOM     38  C   UNL A   1      41.533  27.761  29.084  1.00  0.00     0.031 A 
ATOM     39  C   UNL A   1      42.317  27.666  30.364  1.00  0.00     0.074 A 
ATOM     40  C   UNL A   1      40.504  28.616  28.952  1.00  0.00     0.049 A 
ATOM     41  N   UNL A   1      42.046  28.152  31.545  1.00  0.00    -0.248 NA
ATOM     42  C   UNL A   1      43.539  26.845  30.316  1.00  0.00     0.031 C 
ATOM     43  C   UNL A   1      39.687  28.783  27.749  1.00  0.00     0.029 A 
ATOM     44  N   UNL A   1      39.953  29.483  29.856  1.00  0.00    -0.354 N 
ATOM     45  C   UNL A   1      43.015  27.626  32.392  1.00  0.00     0.074 A 
ATOM     46  C   UNL A   1      43.847  26.750  31.598  1.00  0.00     0.031 C 
ATOM     47  C   UNL A   1      38.739  29.702  27.988  1.00  0.00     0.029 A 
ATOM     48  C   UNL A   1      38.847  30.140  29.375  1.00  0.00     0.049 A 
ATOM     49  H   UNL A   1      40.313  29.621  30.761  1.00  0.00     0.167 HD
ATOM     50  C   UNL A   1      43.197  27.869  33.710  1.00  0.00     0.037 A 
ATOM     51  C   UNL A   1      38.006  30.979  30.005  1.00  0.00     0.037 A 
ATOM     52  C   UNL A   1      42.394  28.807  34.447  1.00  0.00     0.049 A 
ATOM     53  C   UNL A   1      38.253  31.277  31.458  1.00  0.00     0.074 A 
ATOM     54  C   UNL A   1      42.514  29.208  35.763  1.00  0.00     0.029 A 
ATOM     55  N   UNL A   1      41.324  29.510  33.905  1.00  0.00    -0.354 N 
ATOM     56  N   UNL A   1      39.174  30.787  32.256  1.00  0.00    -0.248 NA
ATOM     57  C   UNL A   1      37.353  32.242  32.097  1.00  0.00     0.031 C 
ATOM     58  C   UNL A   1      41.497  30.133  36.026  1.00  0.00     0.029 A 
ATOM     59  C   UNL A   1      40.773  30.343  34.862  1.00  0.00     0.049 A 
ATOM     60  H   UNL A   1      41.005  29.428  32.977  1.00  0.00     0.167 HD
ATOM     61  C   UNL A   1      38.984  31.405  33.484  1.00  0.00     0.074 A 
ATOM     62  C   UNL A   1      37.865  32.314  33.318  1.00  0.00     0.031 C 
ATOM     63  C   UNL A   1      39.665  31.241  34.645  1.00  0.00     0.037 A 
BRANCH  50  64
ATOM     64  C   UNL A   1      44.289  27.110  34.413  1.00  0.00     0.057 A 
ATOM     65  C   UNL A   1      45.610  27.577  34.472  1.00  0.00     0.134 A 
ATOM     66  C   UNL A   1      44.022  25.877  35.023  1.00  0.00     0.134 A 
ATOM     67  F   UNL A   1      45.944  28.744  33.899  1.00  0.00    -0.206 F 
ATOM     68  C   UNL A   1      46.631  26.826  35.059  1.00  0.00     0.040 A 
ATOM     69  C   UNL A   1      45.027  25.133  35.647  1.00  0.00     0.040 A 
ATOM     70  F   UNL A   1      42.780  25.366  35.016  1.00  0.00    -0.206 F 
ATOM     71  C   UNL A   1      46.339  25.601  35.652  1.00  0.00     0.006 A 
ENDBRANCH  50  64
BRANCH  51  72
ATOM     72  C   UNL A   1      36.891  31.610  29.257  1.00  0.00     0.057 A 
ATOM     73  C   UNL A   1      37.002  32.924  28.785  1.00  0.00     0.134 A 
ATOM     74  C   UNL A   1      35.712  30.918  28.957  1.00  0.00     0.134 A 
ATOM     75  F   UNL A   1      38.103  33.642  29.047  1.00  0.00    -0.206 F 
ATOM     76  C   UNL A   1      35.980  33.530  28.054  1.00  0.00     0.040 A 
ATOM     77  C   UNL A   1      34.690  31.504  28.207  1.00  0.00     0.040 A 
ATOM     78  F   UNL A   1      35.546  29.651  29.366  1.00  0.00    -0.206 F 
ATOM     79  C   UNL A   1      34.820  32.816  27.757  1.00  0.00     0.006 A 
ENDBRANCH  51  72
BRANCH  63  80
ATOM     80  C   UNL A   1      39.245  32.097  35.802  1.00  0.00     0.057 A 
ATOM     81  C   UNL A   1      39.716  33.405  35.963  1.00  0.00     0.134 A 
ATOM     82  C   UNL A   1      38.319  31.617  36.737  1.00  0.00     0.134 A 
ATOM     83  F   UNL A   1      40.614  33.916  35.107  1.00  0.00    -0.206 F 
ATOM     84  C   UNL A   1      39.297  34.201  37.029  1.00  0.00     0.040 A 
ATOM     85  C   UNL A   1      37.870  32.413  37.790  1.00  0.00     0.040 A 
ATOM     86  F   UNL A   1      37.824  30.375  36.630  1.00  0.00    -0.206 F 
ATOM     87  C   UNL A   1      38.364  33.707  37.942  1.00  0.00     0.006 A 
ENDBRANCH  63  80
ENDBRANCH  37  38
ENDBRANCH  30  32
ENDBRANCH  29  30
ENDBRANCH  28  29
ENDBRANCH  27  28
ENDBRANCH   1  27
TORSDOF 17
ENDMDL
MODEL 2
REMARK VINA RESULT:     -13.2      4.685      9.645
REMARK SMILES CC[C@](C)(NC(=O)[C@H]1C[NH2+]Cc2ccccc21)C(=O)OCCOCCOC(=O)c1ccc(-c2c3nc(c(-c4c(F)cccc4F)c4ccc([nH]4)c(-c4c(F)cccc4F)c4nc(c(-c5c(F)cccc5F)c5ccc2[nH]5)C=C4)C=C3)cc1
REMARK SMILES IDX 23 1 22 2 21 3 20 4 18 5 19 6 3 7 4 8 2 9 1 10 5 11 6 12
REMARK SMILES IDX 7 14 8 15 9 16 17 17 10 18 12 19 16 20 11 21 13 24 15 25
REMARK SMILES IDX 14 26 24 27 25 28 26 29 27 30 28 31 29 32 30 33 82 34 31 35
REMARK SMILES IDX 81 36 32 37 33 38 34 39 75 40 35 41 80 42 74 43 76 44 36 45
REMARK SMILES IDX 79 46 73 47 72 48 37 50 63 51 46 52 62 53 47 54 50 55 61 56
REMARK SMILES IDX 77 57 48 58 49 59 60 61 78 62 51 63 38 64 39 65 44 66 40 67
REMARK SMILES IDX 41 68 43 69 45 70 42 71 64 72 65 73 70 74 66 75 67 76 69 77
REMARK SMILES IDX 71 78 68 79 52 80 53 81 58 82 54 83 55 84 57 85 59 86 56 87
REMARK H PARENT 5 13 10 22 10 23 76 49 50 60
REMARK Flexibility Score: inf
ROOT
ATOM      1  O   UNL A   1      33.850  32.136  27.970  1.00  0.00    -0.374 OA
ENDROOT
BRANCH   1   2
ATOM      2  C   UNL A   1      33.044  31.275  27.138  1.00  0.00     0.202 C 
BRANCH   2   3
ATOM      3  C   UNL A   1      33.188  29.724  27.275  1.00  0.00     0.261 C 
BRANCH   3   4
ATOM      4  O   UNL A   1      32.456  29.018  26.303  1.00  0.00    -0.462 OA
BRANCH   4   5
ATOM      5  C   UNL A   1      31.938  27.893  26.849  1.00  0.00     0.331 C 
ATOM      6  O   UNL A   1      31.488  27.828  27.991  1.00  0.00    -0.249 OA
BRANCH   5   7
ATOM      7  C   UNL A   1      31.938  26.763  25.827  1.00  0.00     0.135 C 
ATOM      8  C   UNL A   1      33.091  27.055  24.828  1.00  0.00     0.047 C 
BRANCH   7   9
ATOM      9  C   UNL A   1      30.615  26.852  25.017  1.00  0.00     0.037 C 
ATOM     10  C   UNL A   1      30.784  27.323  23.578  1.00  0.00     0.007 C 
ENDBRANCH   7   9
BRANCH   7  11
ATOM     11  N   UNL A   1      32.004  25.422  26.523  1.00  0.00    -0.340 N 
ATOM     12  C   UNL A   1      31.307  24.293  26.224  1.00  0.00     0.234 C 
ATOM     13  H   UNL A   1      32.625  25.359  27.284  1.00  0.00     0.164 HD
ATOM     14  O   UNL A   1      30.278  24.351  26.927  1.00  0.00    -0.274 OA
BRANCH  12  15
ATOM     15  C   UNL A   1      31.922  22.823  25.512  1.00  0.00     0.164 C 
ATOM     16  C   UNL A   1      30.907  23.465  23.955  1.00  0.00     0.279 C 
ATOM     17  C   UNL A   1      33.863  22.414  25.177  1.00  0.00    -0.021 A 
ATOM     18  N   UNL A   1      31.763  24.010  22.427  1.00  0.00    -0.342 N 
ATOM     19  C   UNL A   1      34.628  23.008  23.678  1.00  0.00     0.010 A 
ATOM     20  C   UNL A   1      34.812  21.750  25.955  1.00  0.00     0.005 A 
ATOM     21  C   UNL A   1      33.580  23.759  22.292  1.00  0.00     0.297 C 
ATOM     22  H   UNL A   1      31.591  25.009  22.326  1.00  0.00     0.346 HD
ATOM     23  H   UNL A   1      31.377  23.407  21.700  1.00  0.00     0.346 HD
ATOM     24  C   UNL A   1      35.971  22.921  23.362  1.00  0.00     0.010 A 
ATOM     25  C   UNL A   1      36.195  21.792  25.556  1.00  0.00     0.000 A 
ATOM     26  C   UNL A   1      36.743  22.343  24.352  1.00  0.00     0.001 A 
ENDBRANCH  12  15
ENDBRANCH   7  11
ENDBRANCH   5   7
ENDBRANCH   4   5
ENDBRANCH   3   4
ENDBRANCH   2   3
ENDBRANCH   1   2
BRANCH   1  27
ATOM     27  C   UNL A   1      33.672  33.600  28.142  1.00  0.00     0.202 C 
BRANCH  27  28
ATOM     28  C   UNL A   1      33.791  34.494  29.660  1.00  0.00     0.261 C 
BRANCH  28  29
ATOM     29  O   UNL A   1      34.845  33.915  31.021  1.00  0.00    -0.460 OA
BRANCH  29  30
ATOM     30  C   UNL A   1      35.746  32.523  31.763  1.00  0.00     0.338 C 
ATOM     31  O   UNL A   1      35.539  32.003  32.887  1.00  0.00    -0.246 OA
BRANCH  30  32
ATOM     32  C   UNL A   1      36.807  31.620  31.199  1.00  0.00     0.060 A 
ATOM     33  C   UNL A   1      37.645  30.962  32.127  1.00  0.00     0.016 A 
ATOM     34  C   UNL A   1      37.166  31.639  29.851  1.00  0.00     0.016 A 
ATOM     35  C   UNL A   1      38.799  30.306  31.702  1.00  0.00     0.010 A 
ATOM     36  C   UNL A   1      38.240  30.879  29.413  1.00  0.00     0.010 A 
ATOM     37  C   UNL A   1      39.094  30.255  30.338  1.00  0.00    -0.014 A 
BRANCH  37  38
ATOM     38  C   UNL A   1      40.364  29.699  29.826  1.00  0.00     0.031 A 
ATOM     39  C   UNL A   1      41.521  30.642  29.644  1.00  0.00     0.074 A 
ATOM     40  C   UNL A   1      40.433  28.417  29.431  1.00  0.00     0.049 A 
ATOM     41  N   UNL A   1      42.607  30.501  28.933  1.00  0.00    -0.248 NA
ATOM     42  C   UNL A   1      41.395  31.956  30.298  1.00  0.00     0.031 C 
ATOM     43  C   UNL A   1      39.366  27.426  29.570  1.00  0.00     0.029 A 
ATOM     44  N   UNL A   1      41.442  27.738  28.803  1.00  0.00    -0.354 N 
ATOM     45  C   UNL A   1      43.247  31.734  28.989  1.00  0.00     0.074 A 
ATOM     46  C   UNL A   1      42.405  32.620  29.760  1.00  0.00     0.031 C 
ATOM     47  C   UNL A   1      39.778  26.261  29.044  1.00  0.00     0.029 A 
ATOM     48  C   UNL A   1      41.111  26.445  28.481  1.00  0.00     0.049 A 
ATOM     49  H   UNL A   1      42.318  28.138  28.600  1.00  0.00     0.167 HD
ATOM     50  C   UNL A   1      44.439  32.083  28.452  1.00  0.00     0.037 A 
ATOM     51  C   UNL A   1      41.806  25.528  27.784  1.00  0.00     0.037 A 
ATOM     52  C   UNL A   1      45.284  31.150  27.756  1.00  0.00     0.049 A 
ATOM     53  C   UNL A   1      43.151  25.919  27.239  1.00  0.00     0.074 A 
ATOM     54  C   UNL A   1      46.546  31.346  27.230  1.00  0.00     0.029 A 
ATOM     55  N   UNL A   1      44.945  29.824  27.513  1.00  0.00    -0.354 N 
ATOM     56  N   UNL A   1      43.761  27.081  27.299  1.00  0.00    -0.248 NA
ATOM     57  C   UNL A   1      43.907  24.878  26.536  1.00  0.00     0.031 C 
ATOM     58  C   UNL A   1      46.958  30.144  26.642  1.00  0.00     0.029 A 
ATOM     59  C   UNL A   1      45.973  29.188  26.842  1.00  0.00     0.049 A 
ATOM     60  H   UNL A   1      44.096  29.400  27.779  1.00  0.00     0.167 HD
ATOM     61  C   UNL A   1      44.983  26.905  26.666  1.00  0.00     0.074 A 
ATOM     62  C   UNL A   1      45.030  25.518  26.242  1.00  0.00     0.031 C 
ATOM     63  C   UNL A   1      45.979  27.800  26.452  1.00  0.00     0.037 A 
BRANCH  50  64
ATOM     64  C   UNL A   1      44.875  33.515  28.600  1.00  0.00     0.057 A 
ATOM     65  C   UNL A   1      44.562  34.497  27.648  1.00  0.00     0.134 A 
ATOM     66  C   UNL A   1      45.643  33.917  29.701  1.00  0.00     0.134 A 
ATOM     67  F   UNL A   1      43.841  34.184  26.561  1.00  0.00    -0.206 F 
ATOM     68  C   UNL A   1      45.039  35.805  27.756  1.00  0.00     0.040 A 
ATOM     69  C   UNL A   1      46.095  35.232  29.840  1.00  0.00     0.040 A 
ATOM     70  F   UNL A   1      45.978  33.038  30.658  1.00  0.00    -0.206 F 
ATOM     71  C   UNL A   1      45.806  36.177  28.858  1.00  0.00     0.006 A 
ENDBRANCH  50  64
BRANCH  51  72
ATOM     72  C   UNL A   1      41.254  24.163  27.601  1.00  0.00     0.057 A 
ATOM     73  C   UNL A   1      40.248  23.921  26.658  1.00  0.00     0.134 A 
ATOM     74  C   UNL A   1      41.737  23.064  28.320  1.00  0.00     0.134 A 
ATOM     75  F   UNL A   1      39.737  24.934  25.943  1.00  0.00    -0.206 F 
ATOM     76  C   UNL A   1      39.733  22.642  26.446  1.00  0.00     0.040 A 
ATOM     77  C   UNL A   1      41.248  21.775  28.103  1.00  0.00     0.040 A 
ATOM     78  F   UNL A   1      42.712  23.223  29.229  1.00  0.00    -0.206 F 
ATOM     79  C   UNL A   1      40.240  21.561  27.167  1.00  0.00     0.006 A 
ENDBRANCH  51  72
BRANCH  63  80
ATOM     80  C   UNL A   1      47.213  27.288  25.772  1.00  0.00     0.057 A 
ATOM     81  C   UNL A   1      47.414  27.436  24.396  1.00  0.00     0.134 A 
ATOM     82  C   UNL A   1      48.232  26.683  26.519  1.00  0.00     0.134 A 
ATOM     83  F   UNL A   1      46.469  27.997  23.626  1.00  0.00    -0.206 F 
ATOM     84  C   UNL A   1      48.579  26.980  23.779  1.00  0.00     0.040 A 
ATOM     85  C   UNL A   1      49.413  26.248  25.919  1.00  0.00     0.040 A 
ATOM     86  F   UNL A   1      48.102  26.522  27.844  1.00  0.00    -0.206 F 
ATOM     87  C   UNL A   1      49.586  26.391  24.543  1.00  0.00     0.006 A 
ENDBRANCH  63  80
ENDBRANCH  37  38
ENDBRANCH  30  32
ENDBRANCH  29  30
ENDBRANCH  28  29
ENDBRANCH  27  28
ENDBRANCH   1  27
TORSDOF 17
ENDMDL
MODEL 3
REMARK VINA RESULT:     -12.9      4.249      8.213
REMARK SMILES CC[C@](C)(NC(=O)[C@H]1C[NH2+]Cc2ccccc21)C(=O)OCCOCCOC(=O)c1ccc(-c2c3nc(c(-c4c(F)cccc4F)c4ccc([nH]4)c(-c4c(F)cccc4F)c4nc(c(-c5c(F)cccc5F)c5ccc2[nH]5)C=C4)C=C3)cc1
REMARK SMILES IDX 23 1 22 2 21 3 20 4 18 5 19 6 3 7 4 8 2 9 1 10 5 11 6 12
REMARK SMILES IDX 7 14 8 15 9 16 17 17 10 18 12 19 16 20 11 21 13 24 15 25
REMARK SMILES IDX 14 26 24 27 25 28 26 29 27 30 28 31 29 32 30 33 82 34 31 35
REMARK SMILES IDX 81 36 32 37 33 38 34 39 75 40 35 41 80 42 74 43 76 44 36 45
REMARK SMILES IDX 79 46 73 47 72 48 37 50 63 51 46 52 62 53 47 54 50 55 61 56
REMARK SMILES IDX 77 57 48 58 49 59 60 61 78 62 51 63 38 64 39 65 44 66 40 67
REMARK SMILES IDX 41 68 43 69 45 70 42 71 64 72 65 73 70 74 66 75 67 76 69 77
REMARK SMILES IDX 71 78 68 79 52 80 53 81 58 82 54 83 55 84 57 85 59 86 56 87
REMARK H PARENT 5 13 10 22 10 23 76 49 50 60
REMARK Flexibility Score: inf
ROOT
ATOM      1  O   UNL A   1      34.975  20.716  25.740  1.00  0.00    -0.374 OA
ENDROOT
BRANCH   1   2
ATOM      2  C   UNL A   1      33.556  20.637  25.490  1.00  0.00     0.202 C 
BRANCH   2   3
ATOM      3  C   UNL A   1      32.637  21.833  25.901  1.00  0.00     0.261 C 
BRANCH   3   4
ATOM      4  O   UNL A   1      32.484  22.784  24.877  1.00  0.00    -0.462 OA
BRANCH   4   5
ATOM      5  C   UNL A   1      33.418  23.754  25.011  1.00  0.00     0.331 C 
ATOM      6  O   UNL A   1      33.646  24.347  26.065  1.00  0.00    -0.249 OA
BRANCH   5   7
ATOM      7  C   UNL A   1      34.173  23.945  23.702  1.00  0.00     0.135 C 
ATOM      8  C   UNL A   1      33.622  22.890  22.704  1.00  0.00     0.047 C 
BRANCH   7   9
ATOM      9  C   UNL A   1      35.663  23.583  23.953  1.00  0.00     0.037 C 
ATOM     10  C   UNL A   1      36.378  22.978  22.752  1.00  0.00     0.007 C 
ENDBRANCH   7   9
BRANCH   7  11
ATOM     11  N   UNL A   1      34.082  25.383  23.245  1.00  0.00    -0.340 N 
ATOM     12  C   UNL A   1      33.134  25.947  22.450  1.00  0.00     0.234 C 
ATOM     13  H   UNL A   1      34.796  25.984  23.560  1.00  0.00     0.164 HD
ATOM     14  O   UNL A   1      33.580  25.845  21.290  1.00  0.00    -0.274 OA
BRANCH  12  15
ATOM     15  C   UNL A   1      31.886  27.072  22.921  1.00  0.00     0.164 C 
ATOM     16  C   UNL A   1      30.810  25.429  23.023  1.00  0.00     0.279 C 
ATOM     17  C   UNL A   1      31.905  28.204  24.584  1.00  0.00    -0.021 A 
ATOM     18  N   UNL A   1      30.197  24.798  24.633  1.00  0.00    -0.342 N 
ATOM     19  C   UNL A   1      31.318  27.503  26.118  1.00  0.00     0.010 A 
ATOM     20  C   UNL A   1      32.357  29.505  24.809  1.00  0.00     0.005 A 
ATOM     21  C   UNL A   1      30.430  25.831  26.136  1.00  0.00     0.297 C 
ATOM     22  H   UNL A   1      30.666  23.909  24.805  1.00  0.00     0.346 HD
ATOM     23  H   UNL A   1      29.185  24.761  24.513  1.00  0.00     0.346 HD
ATOM     24  C   UNL A   1      31.383  28.101  27.362  1.00  0.00     0.010 A 
ATOM     25  C   UNL A   1      32.445  29.990  26.161  1.00  0.00     0.000 A 
ATOM     26  C   UNL A   1      32.000  29.338  27.357  1.00  0.00     0.001 A 
ENDBRANCH  12  15
ENDBRANCH   7  11
ENDBRANCH   5   7
ENDBRANCH   4   5
ENDBRANCH   3   4
ENDBRANCH   2   3
ENDBRANCH   1   2
BRANCH   1  27
ATOM     27  C   UNL A   1      36.033  19.974  25.010  1.00  0.00     0.202 C 
BRANCH  27  28
ATOM     28  C   UNL A   1      37.701  20.502  24.769  1.00  0.00     0.261 C 
BRANCH  28  29
ATOM     29  O   UNL A   1      39.086  19.678  25.607  1.00  0.00    -0.460 OA
BRANCH  29  30
ATOM     30  C   UNL A   1      40.861  19.695  25.989  1.00  0.00     0.338 C 
ATOM     31  O   UNL A   1      41.657  18.725  25.926  1.00  0.00    -0.246 OA
BRANCH  30  32
ATOM     32  C   UNL A   1      41.789  20.829  26.327  1.00  0.00     0.060 A 
ATOM     33  C   UNL A   1      42.134  20.988  27.688  1.00  0.00     0.016 A 
ATOM     34  C   UNL A   1      42.070  21.859  25.429  1.00  0.00     0.016 A 
ATOM     35  C   UNL A   1      42.781  22.141  28.128  1.00  0.00     0.010 A 
ATOM     36  C   UNL A   1      42.827  22.945  25.840  1.00  0.00     0.010 A 
ATOM     37  C   UNL A   1      43.139  23.121  27.199  1.00  0.00    -0.014 A 
BRANCH  37  38
ATOM     38  C   UNL A   1      43.702  24.425  27.606  1.00  0.00     0.031 A 
ATOM     39  C   UNL A   1      42.748  25.478  28.099  1.00  0.00     0.074 A 
ATOM     40  C   UNL A   1      45.007  24.687  27.427  1.00  0.00     0.049 A 
ATOM     41  N   UNL A   1      42.916  26.769  28.208  1.00  0.00    -0.248 NA
ATOM     42  C   UNL A   1      41.394  25.016  28.447  1.00  0.00     0.031 C 
ATOM     43  C   UNL A   1      46.010  23.730  26.957  1.00  0.00     0.029 A 
ATOM     44  N   UNL A   1      45.706  25.852  27.591  1.00  0.00    -0.354 N 
ATOM     45  C   UNL A   1      41.668  27.275  28.553  1.00  0.00     0.074 A 
ATOM     46  C   UNL A   1      40.749  26.161  28.588  1.00  0.00     0.031 C 
ATOM     47  C   UNL A   1      47.199  24.346  26.875  1.00  0.00     0.029 A 
ATOM     48  C   UNL A   1      47.027  25.751  27.228  1.00  0.00     0.049 A 
ATOM     49  H   UNL A   1      45.303  26.681  27.936  1.00  0.00     0.167 HD
ATOM     50  C   UNL A   1      41.332  28.556  28.830  1.00  0.00     0.037 A 
ATOM     51  C   UNL A   1      47.975  26.702  27.164  1.00  0.00     0.037 A 
ATOM     52  C   UNL A   1      42.293  29.625  28.859  1.00  0.00     0.049 A 
ATOM     53  C   UNL A   1      47.595  28.111  27.524  1.00  0.00     0.074 A 
ATOM     54  C   UNL A   1      42.107  30.952  29.197  1.00  0.00     0.029 A 
ATOM     55  N   UNL A   1      43.641  29.470  28.554  1.00  0.00    -0.354 N 
ATOM     56  N   UNL A   1      46.418  28.589  27.859  1.00  0.00    -0.248 NA
ATOM     57  C   UNL A   1      48.667  29.112  27.501  1.00  0.00     0.031 C 
ATOM     58  C   UNL A   1      43.339  31.605  29.067  1.00  0.00     0.029 A 
ATOM     59  C   UNL A   1      44.300  30.677  28.694  1.00  0.00     0.049 A 
ATOM     60  H   UNL A   1      44.063  28.623  28.279  1.00  0.00     0.167 HD
ATOM     61  C   UNL A   1      46.612  29.939  28.115  1.00  0.00     0.074 A 
ATOM     62  C   UNL A   1      48.025  30.198  27.907  1.00  0.00     0.031 C 
ATOM     63  C   UNL A   1      45.712  30.883  28.488  1.00  0.00     0.037 A 
BRANCH  50  64
ATOM     64  C   UNL A   1      39.883  28.850  29.110  1.00  0.00     0.057 A 
ATOM     65  C   UNL A   1      39.333  28.749  30.397  1.00  0.00     0.134 A 
ATOM     66  C   UNL A   1      39.016  29.216  28.073  1.00  0.00     0.134 A 
ATOM     67  F   UNL A   1      40.100  28.390  31.438  1.00  0.00    -0.206 F 
ATOM     68  C   UNL A   1      37.970  28.947  30.631  1.00  0.00     0.040 A 
ATOM     69  C   UNL A   1      37.658  29.454  28.301  1.00  0.00     0.040 A 
ATOM     70  F   UNL A   1      39.468  29.342  26.816  1.00  0.00    -0.206 F 
ATOM     71  C   UNL A   1      37.129  29.305  29.581  1.00  0.00     0.006 A 
ENDBRANCH  50  64
BRANCH  51  72
ATOM     72  C   UNL A   1      49.363  26.341  26.780  1.00  0.00     0.057 A 
ATOM     73  C   UNL A   1      49.817  26.548  25.473  1.00  0.00     0.134 A 
ATOM     74  C   UNL A   1      50.278  25.824  27.704  1.00  0.00     0.134 A 
ATOM     75  F   UNL A   1      48.986  27.032  24.539  1.00  0.00    -0.206 F 
ATOM     76  C   UNL A   1      51.125  26.243  25.094  1.00  0.00     0.040 A 
ATOM     77  C   UNL A   1      51.596  25.536  27.346  1.00  0.00     0.040 A 
ATOM     78  F   UNL A   1      49.911  25.615  28.978  1.00  0.00    -0.206 F 
ATOM     79  C   UNL A   1      52.022  25.741  26.036  1.00  0.00     0.006 A 
ENDBRANCH  51  72
BRANCH  63  80
ATOM     80  C   UNL A   1      46.244  32.262  28.737  1.00  0.00     0.057 A 
ATOM     81  C   UNL A   1      46.289  33.230  27.729  1.00  0.00     0.134 A 
ATOM     82  C   UNL A   1      46.670  32.634  30.019  1.00  0.00     0.134 A 
ATOM     83  F   UNL A   1      45.906  32.930  26.478  1.00  0.00    -0.206 F 
ATOM     84  C   UNL A   1      46.761  34.519  27.980  1.00  0.00     0.040 A 
ATOM     85  C   UNL A   1      47.117  33.927  30.289  1.00  0.00     0.040 A 
ATOM     86  F   UNL A   1      46.641  31.753  31.030  1.00  0.00    -0.206 F 
ATOM     87  C   UNL A   1      47.169  34.872  29.266  1.00  0.00     0.006 A 
ENDBRANCH  63  80
ENDBRANCH  37  38
ENDBRANCH  30  32
ENDBRANCH  29  30
ENDBRANCH  28  29
ENDBRANCH  27  28
ENDBRANCH   1  27
TORSDOF 17
ENDMDL
