MODEL 1
REMARK VINA RESULT:     -12.1      0.000      0.000
REMARK SMILES O=C(OCCOCCOC(=O)c1ccc(-c2c3nc(c(-c4c(F)cccc4F)c4ccc([nH]4)c(-c4c(F)cccc4F)c4nc(c(-c5c(F)cccc5F)c5ccc2[nH]5)C=C4)C=C3)cc1)C1=NN(c2ccc(S(=O)(=O)[O-])cc2)C(=O)/C1=C/Nc1ccccc1
REMARK SMILES IDX 6 1 5 2 4 3 3 4 2 5 1 6 66 7 67 8 81 9 68 10 79 11 82 12
REMARK SMILES IDX 80 13 69 14 70 15 78 16 71 17 77 18 72 19 73 20 74 21 75 22
REMARK SMILES IDX 76 23 83 24 84 26 85 27 89 28 86 29 88 30 87 31 7 32 8 33
REMARK SMILES IDX 9 34 10 35 11 36 12 37 13 38 65 39 14 40 64 41 15 42 16 43
REMARK SMILES IDX 17 44 58 45 18 46 63 47 57 48 59 49 19 50 62 51 56 52 55 53
REMARK SMILES IDX 20 55 46 56 29 57 45 58 30 59 33 60 44 61 60 62 31 63 32 64
REMARK SMILES IDX 43 66 61 67 34 68 21 69 22 70 27 71 23 72 24 73 26 74 28 75
REMARK SMILES IDX 25 76 47 77 48 78 53 79 49 80 50 81 52 82 54 83 51 84 35 85
REMARK SMILES IDX 36 86 41 87 37 88 38 89 40 90 42 91 39 92
REMARK H PARENT 83 25 59 54 33 65
REMARK Flexibility Score: inf
ROOT
ATOM      1  O   UNL A   1      33.995  27.745  24.235  1.00  0.00    -0.374 OA
ENDROOT
BRANCH   1   2
ATOM      2  C   UNL A   1      34.060  28.303  22.917  1.00  0.00     0.202 C 
BRANCH   2   3
ATOM      3  C   UNL A   1      33.478  27.349  21.884  1.00  0.00     0.261 C 
BRANCH   3   4
ATOM      4  O   UNL A   1      33.932  26.010  22.099  1.00  0.00    -0.458 OA
BRANCH   4   5
ATOM      5  C   UNL A   1      33.027  25.009  22.144  1.00  0.00     0.359 C 
ATOM      6  O   UNL A   1      33.179  23.964  21.522  1.00  0.00    -0.244 OA
BRANCH   5   7
ATOM      7  C   UNL A   1      31.999  25.022  23.246  1.00  0.00     0.183 C 
ATOM      8  N   UNL A   1      30.871  25.549  22.844  1.00  0.00    -0.157 NA
ATOM      9  C   UNL A   1      32.080  24.901  24.744  1.00  0.00     0.093 C 
ATOM     10  N   UNL A   1      30.258  26.032  23.965  1.00  0.00    -0.196 N 
ATOM     11  C   UNL A   1      30.797  25.561  25.163  1.00  0.00     0.282 C 
ATOM     12  C   UNL A   1      32.828  24.527  25.805  1.00  0.00     0.099 C 
ATOM     13  O   UNL A   1      30.402  25.722  26.306  1.00  0.00    -0.267 OA
BRANCH  10  14
ATOM     14  C   UNL A   1      29.705  27.328  23.794  1.00  0.00     0.069 A 
ATOM     15  C   UNL A   1      28.355  27.469  23.426  1.00  0.00     0.030 A 
ATOM     16  C   UNL A   1      30.530  28.462  23.786  1.00  0.00     0.030 A 
ATOM     17  C   UNL A   1      27.834  28.717  23.084  1.00  0.00     0.021 A 
ATOM     18  C   UNL A   1      30.021  29.709  23.428  1.00  0.00     0.021 A 
ATOM     19  C   UNL A   1      28.673  29.832  23.100  1.00  0.00     0.054 A 
BRANCH  19  20
ATOM     20  S   UNL A   1      27.990  31.412  22.716  1.00  0.00     0.124 S 
ATOM     21  O   UNL A   1      27.780  31.479  21.288  1.00  0.00    -0.237 OA
ATOM     22  O   UNL A   1      26.921  31.662  23.658  1.00  0.00    -0.237 OA
ATOM     23  O   UNL A   1      29.140  32.486  23.076  1.00  0.00    -0.744 OA
ENDBRANCH  19  20
ENDBRANCH  10  14
BRANCH  12  24
ATOM     24  N   UNL A   1      34.084  23.994  25.962  1.00  0.00    -0.361 N 
ATOM     25  H   UNL A   1      34.543  24.242  26.797  1.00  0.00     0.166 HD
BRANCH  24  26
ATOM     26  C   UNL A   1      34.829  23.127  25.082  1.00  0.00     0.038 A 
ATOM     27  C   UNL A   1      34.946  21.775  25.468  1.00  0.00     0.026 A 
ATOM     28  C   UNL A   1      35.823  23.649  24.237  1.00  0.00     0.026 A 
ATOM     29  C   UNL A   1      36.083  21.018  25.151  1.00  0.00     0.002 A 
ATOM     30  C   UNL A   1      36.957  22.883  23.906  1.00  0.00     0.002 A 
ATOM     31  C   UNL A   1      37.106  21.585  24.397  1.00  0.00     0.000 A 
ENDBRANCH  24  26
ENDBRANCH  12  24
ENDBRANCH   5   7
ENDBRANCH   4   5
ENDBRANCH   3   4
ENDBRANCH   2   3
ENDBRANCH   1   2
BRANCH   1  32
ATOM     32  C   UNL A   1      33.741  28.670  25.302  1.00  0.00     0.202 C 
BRANCH  32  33
ATOM     33  C   UNL A   1      34.262  28.115  26.623  1.00  0.00     0.261 C 
BRANCH  33  34
ATOM     34  O   UNL A   1      34.007  29.009  27.706  1.00  0.00    -0.460 OA
BRANCH  34  35
ATOM     35  C   UNL A   1      34.702  30.161  27.704  1.00  0.00     0.338 C 
ATOM     36  O   UNL A   1      34.301  31.307  27.599  1.00  0.00    -0.246 OA
BRANCH  35  37
ATOM     37  C   UNL A   1      36.052  29.952  28.144  1.00  0.00     0.060 A 
ATOM     38  C   UNL A   1      36.225  29.531  29.477  1.00  0.00     0.016 A 
ATOM     39  C   UNL A   1      37.093  30.082  27.237  1.00  0.00     0.016 A 
ATOM     40  C   UNL A   1      37.478  29.183  29.908  1.00  0.00     0.010 A 
ATOM     41  C   UNL A   1      38.338  29.705  27.657  1.00  0.00     0.010 A 
ATOM     42  C   UNL A   1      38.513  29.256  28.981  1.00  0.00    -0.014 A 
BRANCH  42  43
ATOM     43  C   UNL A   1      39.868  28.906  29.362  1.00  0.00     0.031 A 
ATOM     44  C   UNL A   1      40.735  30.024  29.802  1.00  0.00     0.074 A 
ATOM     45  C   UNL A   1      40.275  27.666  29.067  1.00  0.00     0.049 A 
ATOM     46  N   UNL A   1      42.031  30.084  29.833  1.00  0.00    -0.248 NA
ATOM     47  C   UNL A   1      40.044  31.270  30.186  1.00  0.00     0.031 C 
ATOM     48  C   UNL A   1      39.409  26.578  28.602  1.00  0.00     0.029 A 
ATOM     49  N   UNL A   1      41.531  27.144  29.034  1.00  0.00    -0.354 N 
ATOM     50  C   UNL A   1      42.319  31.388  30.202  1.00  0.00     0.074 A 
ATOM     51  C   UNL A   1      41.066  32.093  30.346  1.00  0.00     0.031 C 
ATOM     52  C   UNL A   1      40.173  25.524  28.281  1.00  0.00     0.029 A 
ATOM     53  C   UNL A   1      41.569  25.898  28.466  1.00  0.00     0.049 A 
ATOM     54  H   UNL A   1      42.325  27.610  29.381  1.00  0.00     0.167 HD
ATOM     55  C   UNL A   1      43.543  31.924  30.388  1.00  0.00     0.037 A 
ATOM     56  C   UNL A   1      42.635  25.178  28.084  1.00  0.00     0.037 A 
ATOM     57  C   UNL A   1      44.742  31.156  30.192  1.00  0.00     0.049 A 
ATOM     58  C   UNL A   1      43.987  25.789  28.307  1.00  0.00     0.074 A 
ATOM     59  C   UNL A   1      46.053  31.529  30.396  1.00  0.00     0.029 A 
ATOM     60  N   UNL A   1      44.760  29.844  29.721  1.00  0.00    -0.354 N 
ATOM     61  N   UNL A   1      44.281  27.000  28.726  1.00  0.00    -0.248 NA
ATOM     62  C   UNL A   1      45.147  24.946  28.023  1.00  0.00     0.031 C 
ATOM     63  C   UNL A   1      46.865  30.462  29.996  1.00  0.00     0.029 A 
ATOM     64  C   UNL A   1      46.061  29.397  29.607  1.00  0.00     0.049 A 
ATOM     65  H   UNL A   1      43.959  29.313  29.503  1.00  0.00     0.167 HD
ATOM     66  C   UNL A   1      45.664  27.057  28.792  1.00  0.00     0.074 A 
ATOM     67  C   UNL A   1      46.143  25.753  28.363  1.00  0.00     0.031 C 
ATOM     68  C   UNL A   1      46.469  28.080  29.175  1.00  0.00     0.037 A 
BRANCH  55  69
ATOM     69  C   UNL A   1      43.605  33.373  30.763  1.00  0.00     0.057 A 
ATOM     70  C   UNL A   1      43.598  33.800  32.100  1.00  0.00     0.134 A 
ATOM     71  C   UNL A   1      43.615  34.364  29.774  1.00  0.00     0.134 A 
ATOM     72  F   UNL A   1      43.561  32.906  33.100  1.00  0.00    -0.206 F 
ATOM     73  C   UNL A   1      43.555  35.155  32.437  1.00  0.00     0.040 A 
ATOM     74  C   UNL A   1      43.606  35.722  30.099  1.00  0.00     0.040 A 
ATOM     75  F   UNL A   1      43.610  34.031  28.475  1.00  0.00    -0.206 F 
ATOM     76  C   UNL A   1      43.563  36.121  31.434  1.00  0.00     0.006 A 
ENDBRANCH  55  69
BRANCH  56  77
ATOM     77  C   UNL A   1      42.432  23.836  27.495  1.00  0.00     0.057 A 
ATOM     78  C   UNL A   1      42.416  23.663  26.108  1.00  0.00     0.134 A 
ATOM     79  C   UNL A   1      42.359  22.686  28.292  1.00  0.00     0.134 A 
ATOM     80  F   UNL A   1      42.492  24.728  25.297  1.00  0.00    -0.206 F 
ATOM     81  C   UNL A   1      42.327  22.396  25.531  1.00  0.00     0.040 A 
ATOM     82  C   UNL A   1      42.290  21.411  27.728  1.00  0.00     0.040 A 
ATOM     83  F   UNL A   1      42.406  22.782  29.629  1.00  0.00    -0.206 F 
ATOM     84  C   UNL A   1      42.271  21.264  26.343  1.00  0.00     0.006 A 
ENDBRANCH  56  77
BRANCH  68  85
ATOM     85  C   UNL A   1      47.940  27.801  29.193  1.00  0.00     0.057 A 
ATOM     86  C   UNL A   1      48.582  27.280  30.322  1.00  0.00     0.134 A 
ATOM     87  C   UNL A   1      48.702  27.987  28.033  1.00  0.00     0.134 A 
ATOM     88  F   UNL A   1      47.905  27.095  31.466  1.00  0.00    -0.206 F 
ATOM     89  C   UNL A   1      49.940  26.965  30.299  1.00  0.00     0.040 A 
ATOM     90  C   UNL A   1      50.051  27.645  27.988  1.00  0.00     0.040 A 
ATOM     91  F   UNL A   1      48.137  28.474  26.918  1.00  0.00    -0.206 F 
ATOM     92  C   UNL A   1      50.674  27.136  29.126  1.00  0.00     0.006 A 
ENDBRANCH  68  85
ENDBRANCH  42  43
ENDBRANCH  35  37
ENDBRANCH  34  35
ENDBRANCH  33  34
ENDBRANCH  32  33
ENDBRANCH   1  32
TORSDOF 18
ENDMDL
MODEL 2
REMARK VINA RESULT:     -12.1      3.141      6.515
REMARK SMILES O=C(OCCOCCOC(=O)c1ccc(-c2c3nc(c(-c4c(F)cccc4F)c4ccc([nH]4)c(-c4c(F)cccc4F)c4nc(c(-c5c(F)cccc5F)c5ccc2[nH]5)C=C4)C=C3)cc1)C1=NN(c2ccc(S(=O)(=O)[O-])cc2)C(=O)/C1=C/Nc1ccccc1
REMARK SMILES IDX 6 1 5 2 4 3 3 4 2 5 1 6 66 7 67 8 81 9 68 10 79 11 82 12
REMARK SMILES IDX 80 13 69 14 70 15 78 16 71 17 77 18 72 19 73 20 74 21 75 22
REMARK SMILES IDX 76 23 83 24 84 26 85 27 89 28 86 29 88 30 87 31 7 32 8 33
REMARK SMILES IDX 9 34 10 35 11 36 12 37 13 38 65 39 14 40 64 41 15 42 16 43
REMARK SMILES IDX 17 44 58 45 18 46 63 47 57 48 59 49 19 50 62 51 56 52 55 53
REMARK SMILES IDX 20 55 46 56 29 57 45 58 30 59 33 60 44 61 60 62 31 63 32 64
REMARK SMILES IDX 43 66 61 67 34 68 21 69 22 70 27 71 23 72 24 73 26 74 28 75
REMARK SMILES IDX 25 76 47 77 48 78 53 79 49 80 50 81 52 82 54 83 51 84 35 85
REMARK SMILES IDX 36 86 41 87 37 88 38 89 40 90 42 91 39 92
REMARK H PARENT 83 25 59 54 33 65
REMARK Flexibility Score: inf
ROOT
ATOM      1  O   UNL A   1      33.749  29.331  23.456  1.00  0.00    -0.374 OA
ENDROOT
BRANCH   1   2
ATOM      2  C   UNL A   1      33.970  28.386  22.402  1.00  0.00     0.202 C 
BRANCH   2   3
ATOM      3  C   UNL A   1      33.952  26.958  22.928  1.00  0.00     0.261 C 
BRANCH   3   4
ATOM      4  O   UNL A   1      33.690  26.022  21.878  1.00  0.00    -0.458 OA
BRANCH   4   5
ATOM      5  C   UNL A   1      33.082  24.854  22.176  1.00  0.00     0.359 C 
ATOM      6  O   UNL A   1      33.612  23.770  21.962  1.00  0.00    -0.244 OA
BRANCH   5   7
ATOM      7  C   UNL A   1      31.898  24.881  23.107  1.00  0.00     0.183 C 
ATOM      8  N   UNL A   1      30.842  25.391  22.528  1.00  0.00    -0.157 NA
ATOM      9  C   UNL A   1      31.750  24.789  24.603  1.00  0.00     0.093 C 
ATOM     10  N   UNL A   1      30.063  25.890  23.532  1.00  0.00    -0.196 N 
ATOM     11  C   UNL A   1      30.415  25.447  24.808  1.00  0.00     0.282 C 
ATOM     12  C   UNL A   1      32.329  24.442  25.773  1.00  0.00     0.099 C 
ATOM     13  O   UNL A   1      29.849  25.627  25.874  1.00  0.00    -0.267 OA
BRANCH  10  14
ATOM     14  C   UNL A   1      29.535  27.178  23.252  1.00  0.00     0.069 A 
ATOM     15  C   UNL A   1      30.403  28.226  22.895  1.00  0.00     0.030 A 
ATOM     16  C   UNL A   1      28.192  27.474  23.522  1.00  0.00     0.030 A 
ATOM     17  C   UNL A   1      29.934  29.535  22.783  1.00  0.00     0.021 A 
ATOM     18  C   UNL A   1      27.719  28.782  23.431  1.00  0.00     0.021 A 
ATOM     19  C   UNL A   1      28.588  29.800  23.042  1.00  0.00     0.054 A 
BRANCH  19  20
ATOM     20  S   UNL A   1      27.996  31.450  22.848  1.00  0.00     0.124 S 
ATOM     21  O   UNL A   1      27.935  31.744  21.434  1.00  0.00    -0.237 OA
ATOM     22  O   UNL A   1      26.846  31.603  23.712  1.00  0.00    -0.237 OA
ATOM     23  O   UNL A   1      29.137  32.401  23.480  1.00  0.00    -0.744 OA
ENDBRANCH  19  20
ENDBRANCH  10  14
BRANCH  12  24
ATOM     24  N   UNL A   1      33.549  23.923  26.130  1.00  0.00    -0.361 N 
ATOM     25  H   UNL A   1      33.737  23.921  27.097  1.00  0.00     0.166 HD
BRANCH  24  26
ATOM     26  C   UNL A   1      34.595  23.381  25.297  1.00  0.00     0.038 A 
ATOM     27  C   UNL A   1      34.684  21.975  25.217  1.00  0.00     0.026 A 
ATOM     28  C   UNL A   1      35.764  24.120  25.047  1.00  0.00     0.026 A 
ATOM     29  C   UNL A   1      35.915  21.326  25.045  1.00  0.00     0.002 A 
ATOM     30  C   UNL A   1      36.997  23.467  24.859  1.00  0.00     0.002 A 
ATOM     31  C   UNL A   1      37.078  22.075  24.900  1.00  0.00     0.000 A 
ENDBRANCH  24  26
ENDBRANCH  12  24
ENDBRANCH   5   7
ENDBRANCH   4   5
ENDBRANCH   3   4
ENDBRANCH   2   3
ENDBRANCH   1   2
BRANCH   1  32
ATOM     32  C   UNL A   1      33.510  28.780  24.760  1.00  0.00     0.202 C 
BRANCH  32  33
ATOM     33  C   UNL A   1      32.543  29.662  25.541  1.00  0.00     0.261 C 
BRANCH  33  34
ATOM     34  O   UNL A   1      32.946  29.807  26.903  1.00  0.00    -0.460 OA
BRANCH  34  35
ATOM     35  C   UNL A   1      33.466  30.999  27.247  1.00  0.00     0.338 C 
ATOM     36  O   UNL A   1      32.913  32.077  27.373  1.00  0.00    -0.246 OA
BRANCH  35  37
ATOM     37  C   UNL A   1      34.796  30.853  27.766  1.00  0.00     0.060 A 
ATOM     38  C   UNL A   1      35.586  32.018  27.817  1.00  0.00     0.016 A 
ATOM     39  C   UNL A   1      35.204  29.625  28.264  1.00  0.00     0.016 A 
ATOM     40  C   UNL A   1      36.810  31.965  28.430  1.00  0.00     0.010 A 
ATOM     41  C   UNL A   1      36.411  29.579  28.903  1.00  0.00     0.010 A 
ATOM     42  C   UNL A   1      37.194  30.747  28.983  1.00  0.00    -0.014 A 
BRANCH  42  43
ATOM     43  C   UNL A   1      38.476  30.612  29.646  1.00  0.00     0.031 A 
ATOM     44  C   UNL A   1      39.433  29.658  29.037  1.00  0.00     0.074 A 
ATOM     45  C   UNL A   1      38.591  31.175  30.855  1.00  0.00     0.049 A 
ATOM     46  N   UNL A   1      40.449  29.064  29.584  1.00  0.00    -0.248 NA
ATOM     47  C   UNL A   1      39.157  29.262  27.643  1.00  0.00     0.031 C 
ATOM     48  C   UNL A   1      37.621  32.093  31.458  1.00  0.00     0.029 A 
ATOM     49  N   UNL A   1      39.532  30.987  31.820  1.00  0.00    -0.354 N 
ATOM     50  C   UNL A   1      40.916  28.191  28.615  1.00  0.00     0.074 A 
ATOM     51  C   UNL A   1      40.050  28.305  27.465  1.00  0.00     0.031 C 
ATOM     52  C   UNL A   1      37.994  32.351  32.719  1.00  0.00     0.029 A 
ATOM     53  C   UNL A   1      39.188  31.570  33.011  1.00  0.00     0.049 A 
ATOM     54  H   UNL A   1      40.368  30.487  31.677  1.00  0.00     0.167 HD
ATOM     55  C   UNL A   1      41.979  27.367  28.715  1.00  0.00     0.037 A 
ATOM     56  C   UNL A   1      39.758  31.421  34.217  1.00  0.00     0.037 A 
ATOM     57  C   UNL A   1      42.770  27.294  29.913  1.00  0.00     0.049 A 
ATOM     58  C   UNL A   1      40.944  30.506  34.304  1.00  0.00     0.074 A 
ATOM     59  C   UNL A   1      43.911  26.560  30.156  1.00  0.00     0.029 A 
ATOM     60  N   UNL A   1      42.472  27.986  31.087  1.00  0.00    -0.354 N 
ATOM     61  N   UNL A   1      41.448  29.724  33.375  1.00  0.00    -0.248 NA
ATOM     62  C   UNL A   1      41.648  30.459  35.585  1.00  0.00     0.031 C 
ATOM     63  C   UNL A   1      44.271  26.765  31.492  1.00  0.00     0.029 A 
ATOM     64  C   UNL A   1      43.396  27.680  32.066  1.00  0.00     0.049 A 
ATOM     65  H   UNL A   1      41.714  28.604  31.200  1.00  0.00     0.167 HD
ATOM     66  C   UNL A   1      42.552  29.114  33.945  1.00  0.00     0.074 A 
ATOM     67  C   UNL A   1      42.636  29.620  35.305  1.00  0.00     0.031 C 
ATOM     68  C   UNL A   1      43.424  28.225  33.404  1.00  0.00     0.037 A 
BRANCH  55  69
ATOM     69  C   UNL A   1      42.277  26.490  27.538  1.00  0.00     0.057 A 
ATOM     70  C   UNL A   1      41.800  25.173  27.446  1.00  0.00     0.134 A 
ATOM     71  C   UNL A   1      43.101  26.945  26.501  1.00  0.00     0.134 A 
ATOM     72  F   UNL A   1      41.028  24.660  28.417  1.00  0.00    -0.206 F 
ATOM     73  C   UNL A   1      42.167  24.331  26.394  1.00  0.00     0.040 A 
ATOM     74  C   UNL A   1      43.447  26.124  25.427  1.00  0.00     0.040 A 
ATOM     75  F   UNL A   1      43.604  28.188  26.526  1.00  0.00    -0.206 F 
ATOM     76  C   UNL A   1      42.990  24.809  25.377  1.00  0.00     0.006 A 
ENDBRANCH  55  69
BRANCH  56  77
ATOM     77  C   UNL A   1      39.216  32.168  35.373  1.00  0.00     0.057 A 
ATOM     78  C   UNL A   1      38.381  31.536  36.299  1.00  0.00     0.134 A 
ATOM     79  C   UNL A   1      39.599  33.489  35.642  1.00  0.00     0.134 A 
ATOM     80  F   UNL A   1      37.990  30.269  36.098  1.00  0.00    -0.206 F 
ATOM     81  C   UNL A   1      37.940  32.190  37.450  1.00  0.00     0.040 A 
ATOM     82  C   UNL A   1      39.181  34.148  36.799  1.00  0.00     0.040 A 
ATOM     83  F   UNL A   1      40.427  34.137  34.811  1.00  0.00    -0.206 F 
ATOM     84  C   UNL A   1      38.346  33.499  37.706  1.00  0.00     0.006 A 
ENDBRANCH  56  77
BRANCH  68  85
ATOM     85  C   UNL A   1      44.564  27.794  34.274  1.00  0.00     0.057 A 
ATOM     86  C   UNL A   1      45.760  28.516  34.340  1.00  0.00     0.134 A 
ATOM     87  C   UNL A   1      44.423  26.681  35.112  1.00  0.00     0.134 A 
ATOM     88  F   UNL A   1      45.957  29.583  33.549  1.00  0.00    -0.206 F 
ATOM     89  C   UNL A   1      46.786  28.137  35.205  1.00  0.00     0.040 A 
ATOM     90  C   UNL A   1      45.427  26.312  36.003  1.00  0.00     0.040 A 
ATOM     91  F   UNL A   1      43.293  25.957  35.098  1.00  0.00    -0.206 F 
ATOM     92  C   UNL A   1      46.614  27.039  36.048  1.00  0.00     0.006 A 
ENDBRANCH  68  85
ENDBRANCH  42  43
ENDBRANCH  35  37
ENDBRANCH  34  35
ENDBRANCH  33  34
ENDBRANCH  32  33
ENDBRANCH   1  32
TORSDOF 18
ENDMDL
MODEL 3
REMARK VINA RESULT:     -11.7      3.844      8.229
REMARK SMILES O=C(OCCOCCOC(=O)c1ccc(-c2c3nc(c(-c4c(F)cccc4F)c4ccc([nH]4)c(-c4c(F)cccc4F)c4nc(c(-c5c(F)cccc5F)c5ccc2[nH]5)C=C4)C=C3)cc1)C1=NN(c2ccc(S(=O)(=O)[O-])cc2)C(=O)/C1=C/Nc1ccccc1
REMARK SMILES IDX 6 1 5 2 4 3 3 4 2 5 1 6 66 7 67 8 81 9 68 10 79 11 82 12
REMARK SMILES IDX 80 13 69 14 70 15 78 16 71 17 77 18 72 19 73 20 74 21 75 22
REMARK SMILES IDX 76 23 83 24 84 26 85 27 89 28 86 29 88 30 87 31 7 32 8 33
REMARK SMILES IDX 9 34 10 35 11 36 12 37 13 38 65 39 14 40 64 41 15 42 16 43
REMARK SMILES IDX 17 44 58 45 18 46 63 47 57 48 59 49 19 50 62 51 56 52 55 53
REMARK SMILES IDX 20 55 46 56 29 57 45 58 30 59 33 60 44 61 60 62 31 63 32 64
REMARK SMILES IDX 43 66 61 67 34 68 21 69 22 70 27 71 23 72 24 73 26 74 28 75
REMARK SMILES IDX 25 76 47 77 48 78 53 79 49 80 50 81 52 82 54 83 51 84 35 85
REMARK SMILES IDX 36 86 41 87 37 88 38 89 40 90 42 91 39 92
REMARK H PARENT 83 25 59 54 33 65
REMARK Flexibility Score: inf
ROOT
ATOM      1  O   UNL A   1      32.663  27.664  26.151  1.00  0.00    -0.374 OA
ENDROOT
BRANCH   1   2
ATOM      2  C   UNL A   1      32.070  26.363  26.075  1.00  0.00     0.202 C 
BRANCH   2   3
ATOM      3  C   UNL A   1      30.560  26.432  26.252  1.00  0.00     0.261 C 
BRANCH   3   4
ATOM      4  O   UNL A   1      29.885  25.627  25.281  1.00  0.00    -0.458 OA
BRANCH   4   5
ATOM      5  C   UNL A   1      29.589  26.161  24.077  1.00  0.00     0.359 C 
ATOM      6  O   UNL A   1      28.639  26.920  23.916  1.00  0.00    -0.244 OA
BRANCH   5   7
ATOM      7  C   UNL A   1      30.638  26.116  22.995  1.00  0.00     0.183 C 
ATOM      8  N   UNL A   1      31.022  24.891  22.749  1.00  0.00    -0.157 NA
ATOM      9  C   UNL A   1      31.568  27.144  22.407  1.00  0.00     0.093 C 
ATOM     10  N   UNL A   1      32.285  24.984  22.240  1.00  0.00    -0.196 N 
ATOM     11  C   UNL A   1      32.649  26.271  21.837  1.00  0.00     0.282 C 
ATOM     12  C   UNL A   1      31.845  28.457  22.256  1.00  0.00     0.099 C 
ATOM     13  O   UNL A   1      33.653  26.644  21.253  1.00  0.00    -0.267 OA
BRANCH  10  14
ATOM     14  C   UNL A   1      33.187  24.034  22.786  1.00  0.00     0.069 A 
ATOM     15  C   UNL A   1      32.796  22.689  22.909  1.00  0.00     0.030 A 
ATOM     16  C   UNL A   1      34.382  24.450  23.392  1.00  0.00     0.030 A 
ATOM     17  C   UNL A   1      33.592  21.773  23.597  1.00  0.00     0.021 A 
ATOM     18  C   UNL A   1      35.174  23.545  24.097  1.00  0.00     0.021 A 
ATOM     19  C   UNL A   1      34.784  22.209  24.177  1.00  0.00     0.054 A 
BRANCH  19  20
ATOM     20  S   UNL A   1      35.807  21.031  25.000  1.00  0.00     0.124 S 
ATOM     21  O   UNL A   1      35.173  19.736  24.902  1.00  0.00    -0.237 OA
ATOM     22  O   UNL A   1      37.166  21.251  24.555  1.00  0.00    -0.237 OA
ATOM     23  O   UNL A   1      35.792  21.450  26.558  1.00  0.00    -0.744 OA
ENDBRANCH  19  20
ENDBRANCH  10  14
BRANCH  12  24
ATOM     24  N   UNL A   1      31.254  29.624  22.676  1.00  0.00    -0.361 N 
ATOM     25  H   UNL A   1      31.877  30.336  22.945  1.00  0.00     0.166 HD
BRANCH  24  26
ATOM     26  C   UNL A   1      29.854  29.957  22.779  1.00  0.00     0.038 A 
ATOM     27  C   UNL A   1      29.121  30.015  21.576  1.00  0.00     0.026 A 
ATOM     28  C   UNL A   1      29.377  30.710  23.866  1.00  0.00     0.026 A 
ATOM     29  C   UNL A   1      28.047  30.902  21.413  1.00  0.00     0.002 A 
ATOM     30  C   UNL A   1      28.289  31.588  23.707  1.00  0.00     0.002 A 
ATOM     31  C   UNL A   1      27.653  31.714  22.471  1.00  0.00     0.000 A 
ENDBRANCH  24  26
ENDBRANCH  12  24
ENDBRANCH   5   7
ENDBRANCH   4   5
ENDBRANCH   3   4
ENDBRANCH   2   3
ENDBRANCH   1   2
BRANCH   1  32
ATOM     32  C   UNL A   1      31.779  28.776  25.943  1.00  0.00     0.202 C 
BRANCH  32  33
ATOM     33  C   UNL A   1      32.541  30.090  26.059  1.00  0.00     0.261 C 
BRANCH  33  34
ATOM     34  O   UNL A   1      33.024  30.303  27.386  1.00  0.00    -0.460 OA
BRANCH  34  35
ATOM     35  C   UNL A   1      33.685  31.454  27.603  1.00  0.00     0.338 C 
ATOM     36  O   UNL A   1      33.265  32.597  27.624  1.00  0.00    -0.246 OA
BRANCH  35  37
ATOM     37  C   UNL A   1      35.000  31.204  28.122  1.00  0.00     0.060 A 
ATOM     38  C   UNL A   1      35.908  32.280  28.087  1.00  0.00     0.016 A 
ATOM     39  C   UNL A   1      35.284  29.977  28.701  1.00  0.00     0.016 A 
ATOM     40  C   UNL A   1      37.129  32.141  28.694  1.00  0.00     0.010 A 
ATOM     41  C   UNL A   1      36.489  29.848  29.333  1.00  0.00     0.010 A 
ATOM     42  C   UNL A   1      37.391  30.930  29.327  1.00  0.00    -0.014 A 
BRANCH  42  43
ATOM     43  C   UNL A   1      38.661  30.706  29.989  1.00  0.00     0.031 A 
ATOM     44  C   UNL A   1      39.569  29.725  29.352  1.00  0.00     0.074 A 
ATOM     45  C   UNL A   1      38.799  31.222  31.217  1.00  0.00     0.049 A 
ATOM     46  N   UNL A   1      40.551  29.061  29.882  1.00  0.00    -0.248 NA
ATOM     47  C   UNL A   1      39.280  29.391  27.945  1.00  0.00     0.031 C 
ATOM     48  C   UNL A   1      37.874  32.169  31.847  1.00  0.00     0.029 A 
ATOM     49  N   UNL A   1      39.724  30.953  32.178  1.00  0.00    -0.354 N 
ATOM     50  C   UNL A   1      40.977  28.197  28.886  1.00  0.00     0.074 A 
ATOM     51  C   UNL A   1      40.123  28.394  27.737  1.00  0.00     0.031 C 
ATOM     52  C   UNL A   1      38.254  32.365  33.118  1.00  0.00     0.029 A 
ATOM     53  C   UNL A   1      39.405  31.513  33.387  1.00  0.00     0.049 A 
ATOM     54  H   UNL A   1      40.533  30.415  32.022  1.00  0.00     0.167 HD
ATOM     55  C   UNL A   1      41.995  27.317  28.961  1.00  0.00     0.037 A 
ATOM     56  C   UNL A   1      39.960  31.294  34.589  1.00  0.00     0.037 A 
ATOM     57  C   UNL A   1      42.775  27.163  30.159  1.00  0.00     0.049 A 
ATOM     58  C   UNL A   1      41.097  30.317  34.649  1.00  0.00     0.074 A 
ATOM     59  C   UNL A   1      43.875  26.362  30.381  1.00  0.00     0.029 A 
ATOM     60  N   UNL A   1      42.508  27.829  31.354  1.00  0.00    -0.354 N 
ATOM     61  N   UNL A   1      41.564  29.542  33.696  1.00  0.00    -0.248 NA
ATOM     62  C   UNL A   1      41.791  30.190  35.930  1.00  0.00     0.031 C 
ATOM     63  C   UNL A   1      44.239  26.504  31.724  1.00  0.00     0.029 A 
ATOM     64  C   UNL A   1      43.410  27.443  32.325  1.00  0.00     0.049 A 
ATOM     65  H   UNL A   1      41.782  28.482  31.485  1.00  0.00     0.167 HD
ATOM     66  C   UNL A   1      42.632  28.855  34.249  1.00  0.00     0.074 A 
ATOM     67  C   UNL A   1      42.736  29.311  35.626  1.00  0.00     0.031 C 
ATOM     68  C   UNL A   1      43.460  27.941  33.681  1.00  0.00     0.037 A 
BRANCH  55  69
ATOM     69  C   UNL A   1      42.254  26.465  27.756  1.00  0.00     0.057 A 
ATOM     70  C   UNL A   1      43.088  26.885  26.709  1.00  0.00     0.134 A 
ATOM     71  C   UNL A   1      41.615  25.228  27.608  1.00  0.00     0.134 A 
ATOM     72  F   UNL A   1      43.711  28.073  26.769  1.00  0.00    -0.206 F 
ATOM     73  C   UNL A   1      43.243  26.129  25.545  1.00  0.00     0.040 A 
ATOM     74  C   UNL A   1      41.789  24.447  26.464  1.00  0.00     0.040 A 
ATOM     75  F   UNL A   1      40.794  24.767  28.563  1.00  0.00    -0.206 F 
ATOM     76  C   UNL A   1      42.594  24.903  25.423  1.00  0.00     0.006 A 
ENDBRANCH  55  69
BRANCH  56  77
ATOM     77  C   UNL A   1      39.452  32.029  35.768  1.00  0.00     0.057 A 
ATOM     78  C   UNL A   1      39.979  33.278  36.109  1.00  0.00     0.134 A 
ATOM     79  C   UNL A   1      38.362  31.561  36.515  1.00  0.00     0.134 A 
ATOM     80  F   UNL A   1      41.015  33.781  35.423  1.00  0.00    -0.206 F 
ATOM     81  C   UNL A   1      39.447  34.034  37.154  1.00  0.00     0.040 A 
ATOM     82  C   UNL A   1      37.808  32.316  37.549  1.00  0.00     0.040 A 
ATOM     83  F   UNL A   1      37.789  30.386  36.214  1.00  0.00    -0.206 F 
ATOM     84  C   UNL A   1      38.353  33.556  37.873  1.00  0.00     0.006 A 
ENDBRANCH  56  77
BRANCH  68  85
ATOM     85  C   UNL A   1      44.571  27.422  34.540  1.00  0.00     0.057 A 
ATOM     86  C   UNL A   1      45.816  28.058  34.605  1.00  0.00     0.134 A 
ATOM     87  C   UNL A   1      44.357  26.314  35.368  1.00  0.00     0.134 A 
ATOM     88  F   UNL A   1      46.082  29.116  33.823  1.00  0.00    -0.206 F 
ATOM     89  C   UNL A   1      46.817  27.600  35.460  1.00  0.00     0.040 A 
ATOM     90  C   UNL A   1      45.337  25.867  36.250  1.00  0.00     0.040 A 
ATOM     91  F   UNL A   1      43.179  25.671  35.355  1.00  0.00    -0.206 F 
ATOM     92  C   UNL A   1      46.573  26.509  36.294  1.00  0.00     0.006 A 
ENDBRANCH  68  85
ENDBRANCH  42  43
ENDBRANCH  35  37
ENDBRANCH  34  35
ENDBRANCH  33  34
ENDBRANCH  32  33
ENDBRANCH   1  32
TORSDOF 18
ENDMDL
