MODEL 1
REMARK VINA RESULT:     -11.6      0.000      0.000
REMARK SMILES COc1ccc2c(c1)c(CC(=O)OCCOCCOC(=O)c1ccc(-c3c4nc(c(-c5c(F)cccc5F)c5ccc([nH]5)c(-c5c(F)cccc5F)c5nc(c(-c6c(F)cccc6F)c6ccc3[nH]6)C=C5)C=C4)cc1)c(C(F)(F)F)n2C(=O)c1ccc(Cl)cc1
REMARK SMILES IDX 15 1 14 2 13 3 11 4 12 5 10 6 9 7 3 8 4 9 8 10 5 11 7 12
REMARK SMILES IDX 6 13 81 14 76 15 2 16 1 17 82 18 83 19 84 20 85 21 90 22
REMARK SMILES IDX 86 23 89 24 87 25 88 26 77 27 78 28 79 29 80 30 16 31 17 32
REMARK SMILES IDX 18 33 19 34 20 35 21 36 22 37 23 38 75 39 24 40 74 41 25 42
REMARK SMILES IDX 26 43 27 44 68 45 28 46 73 47 67 48 69 49 29 50 72 51 66 52
REMARK SMILES IDX 65 53 30 55 56 56 39 57 55 58 40 59 43 60 54 61 70 62 41 63
REMARK SMILES IDX 42 64 53 66 71 67 44 68 31 69 32 70 37 71 33 72 34 73 36 74
REMARK SMILES IDX 38 75 35 76 57 77 58 78 63 79 59 80 60 81 62 82 64 83 61 84
REMARK SMILES IDX 45 85 46 86 51 87 47 88 48 89 50 90 52 91 49 92
REMARK H PARENT 69 54 43 65
REMARK Flexibility Score: inf
ROOT
ATOM      1  C   UNL A   1      41.558  20.688  26.208  1.00  0.00     0.202 C 
ENDROOT
BRANCH   1   2
ATOM      2  C   UNL A   1      40.119  20.916  26.697  1.00  0.00     0.261 C 
BRANCH   2   3
ATOM      3  O   UNL A   1      39.239  21.520  25.734  1.00  0.00    -0.463 OA
BRANCH   3   4
ATOM      4  C   UNL A   1      38.385  20.645  25.141  1.00  0.00     0.310 C 
ATOM      5  O   UNL A   1      38.514  19.424  25.182  1.00  0.00    -0.252 OA
BRANCH   4   6
ATOM      6  C   UNL A   1      37.219  21.264  24.400  1.00  0.00     0.161 C 
BRANCH   6   7
ATOM      7  C   UNL A   1      35.834  21.255  25.011  1.00  0.00     0.002 A 
ATOM      8  C   UNL A   1      33.935  17.953  24.613  1.00  0.00     0.119 A 
ATOM      9  C   UNL A   1      32.786  18.365  25.256  1.00  0.00     0.048 A 
ATOM     10  C   UNL A   1      34.956  18.884  24.393  1.00  0.00     0.057 A 
ATOM     11  C   UNL A   1      32.652  19.688  25.694  1.00  0.00     0.031 A 
ATOM     12  C   UNL A   1      34.897  20.188  24.943  1.00  0.00     0.008 A 
ATOM     13  C   UNL A   1      33.725  20.601  25.582  1.00  0.00     0.057 A 
ATOM     14  N   UNL A   1      33.876  21.956  25.951  1.00  0.00    -0.271 N 
ATOM     15  C   UNL A   1      35.188  22.337  25.617  1.00  0.00     0.135 A 
BRANCH   8  16
ATOM     16  O   UNL A   1      34.244  16.674  24.249  1.00  0.00    -0.497 OA
ATOM     17  C   UNL A   1      34.556  15.746  25.281  1.00  0.00     0.278 C 
ENDBRANCH   8  16
BRANCH  14  18
ATOM     18  C   UNL A   1      32.842  22.781  26.489  1.00  0.00     0.262 C 
ATOM     19  O   UNL A   1      32.728  22.868  27.706  1.00  0.00    -0.268 OA
BRANCH  18  20
ATOM     20  C   UNL A   1      31.930  23.648  25.722  1.00  0.00     0.040 A 
ATOM     21  C   UNL A   1      31.972  23.697  24.323  1.00  0.00     0.015 A 
ATOM     22  C   UNL A   1      31.023  24.442  26.437  1.00  0.00     0.015 A 
ATOM     23  C   UNL A   1      31.170  24.623  23.649  1.00  0.00     0.021 A 
ATOM     24  C   UNL A   1      30.216  25.355  25.756  1.00  0.00     0.021 A 
ATOM     25  C   UNL A   1      30.311  25.458  24.368  1.00  0.00     0.041 A 
ATOM     26  Cl  UNL A   1      29.377  26.642  23.539  1.00  0.00    -0.084 Cl
ENDBRANCH  18  20
ENDBRANCH  14  18
BRANCH  15  27
ATOM     27  C   UNL A   1      35.822  23.685  25.806  1.00  0.00     0.432 C 
ATOM     28  F   UNL A   1      34.842  24.632  25.878  1.00  0.00    -0.165 F 
ATOM     29  F   UNL A   1      36.457  23.729  27.011  1.00  0.00    -0.165 F 
ATOM     30  F   UNL A   1      36.692  24.142  24.893  1.00  0.00    -0.165 F 
ENDBRANCH  15  27
ENDBRANCH   6   7
ENDBRANCH   4   6
ENDBRANCH   3   4
ENDBRANCH   2   3
ENDBRANCH   1   2
BRANCH   1  31
ATOM     31  O   UNL A   1      41.890  19.598  25.365  1.00  0.00    -0.374 OA
BRANCH  31  32
ATOM     32  C   UNL A   1      43.155  18.980  25.568  1.00  0.00     0.202 C 
BRANCH  32  33
ATOM     33  C   UNL A   1      44.343  19.330  24.649  1.00  0.00     0.261 C 
BRANCH  33  34
ATOM     34  O   UNL A   1      44.301  20.667  24.154  1.00  0.00    -0.460 OA
BRANCH  34  35
ATOM     35  C   UNL A   1      45.321  21.454  24.609  1.00  0.00     0.338 C 
ATOM     36  O   UNL A   1      46.437  21.561  24.170  1.00  0.00    -0.246 OA
BRANCH  35  37
ATOM     37  C   UNL A   1      44.625  22.453  25.440  1.00  0.00     0.060 A 
ATOM     38  C   UNL A   1      43.741  23.357  24.846  1.00  0.00     0.016 A 
ATOM     39  C   UNL A   1      45.217  22.701  26.689  1.00  0.00     0.016 A 
ATOM     40  C   UNL A   1      43.537  24.580  25.466  1.00  0.00     0.010 A 
ATOM     41  C   UNL A   1      45.037  23.939  27.285  1.00  0.00     0.010 A 
ATOM     42  C   UNL A   1      44.233  24.889  26.650  1.00  0.00    -0.014 A 
BRANCH  42  43
ATOM     43  C   UNL A   1      43.851  26.107  27.362  1.00  0.00     0.031 A 
ATOM     44  C   UNL A   1      44.819  27.190  27.043  1.00  0.00     0.074 A 
ATOM     45  C   UNL A   1      42.714  26.301  28.064  1.00  0.00     0.049 A 
ATOM     46  N   UNL A   1      45.687  27.734  27.829  1.00  0.00    -0.248 NA
ATOM     47  C   UNL A   1      45.008  27.532  25.619  1.00  0.00     0.031 C 
ATOM     48  C   UNL A   1      41.574  25.393  28.186  1.00  0.00     0.029 A 
ATOM     49  N   UNL A   1      42.283  27.409  28.745  1.00  0.00    -0.354 N 
ATOM     50  C   UNL A   1      46.363  28.661  27.037  1.00  0.00     0.074 A 
ATOM     51  C   UNL A   1      46.084  28.316  25.675  1.00  0.00     0.031 C 
ATOM     52  C   UNL A   1      40.508  26.055  28.688  1.00  0.00     0.029 A 
ATOM     53  C   UNL A   1      40.919  27.400  29.038  1.00  0.00     0.049 A 
ATOM     54  H   UNL A   1      42.883  28.145  29.004  1.00  0.00     0.167 HD
ATOM     55  C   UNL A   1      46.789  29.837  27.571  1.00  0.00     0.037 A 
ATOM     56  C   UNL A   1      40.173  28.446  29.478  1.00  0.00     0.037 A 
ATOM     57  C   UNL A   1      46.801  29.760  29.008  1.00  0.00     0.049 A 
ATOM     58  C   UNL A   1      41.102  29.438  30.058  1.00  0.00     0.074 A 
ATOM     59  C   UNL A   1      47.577  29.172  29.980  1.00  0.00     0.029 A 
ATOM     60  N   UNL A   1      45.593  30.068  29.572  1.00  0.00    -0.354 N 
ATOM     61  N   UNL A   1      41.794  29.226  31.142  1.00  0.00    -0.248 NA
ATOM     62  C   UNL A   1      41.569  30.539  29.223  1.00  0.00     0.031 C 
ATOM     63  C   UNL A   1      46.718  28.981  31.104  1.00  0.00     0.029 A 
ATOM     64  C   UNL A   1      45.460  29.501  30.805  1.00  0.00     0.049 A 
ATOM     65  H   UNL A   1      44.906  30.628  29.142  1.00  0.00     0.167 HD
ATOM     66  C   UNL A   1      43.001  29.857  30.909  1.00  0.00     0.074 A 
ATOM     67  C   UNL A   1      42.749  30.776  29.805  1.00  0.00     0.031 C 
ATOM     68  C   UNL A   1      44.158  29.343  31.414  1.00  0.00     0.037 A 
BRANCH  55  69
ATOM     69  C   UNL A   1      46.628  31.180  26.877  1.00  0.00     0.057 A 
ATOM     70  C   UNL A   1      45.392  31.777  26.546  1.00  0.00     0.134 A 
ATOM     71  C   UNL A   1      47.729  32.057  26.857  1.00  0.00     0.134 A 
ATOM     72  F   UNL A   1      44.231  31.117  26.579  1.00  0.00    -0.206 F 
ATOM     73  C   UNL A   1      45.254  33.137  26.258  1.00  0.00     0.040 A 
ATOM     74  C   UNL A   1      47.594  33.431  26.615  1.00  0.00     0.040 A 
ATOM     75  F   UNL A   1      48.962  31.620  27.159  1.00  0.00    -0.206 F 
ATOM     76  C   UNL A   1      46.351  33.978  26.326  1.00  0.00     0.006 A 
ENDBRANCH  55  69
BRANCH  56  77
ATOM     77  C   UNL A   1      38.764  28.778  29.156  1.00  0.00     0.057 A 
ATOM     78  C   UNL A   1      38.417  29.318  27.904  1.00  0.00     0.134 A 
ATOM     79  C   UNL A   1      37.770  28.843  30.145  1.00  0.00     0.134 A 
ATOM     80  F   UNL A   1      39.316  29.386  26.912  1.00  0.00    -0.206 F 
ATOM     81  C   UNL A   1      37.168  29.895  27.652  1.00  0.00     0.040 A 
ATOM     82  C   UNL A   1      36.513  29.421  29.907  1.00  0.00     0.040 A 
ATOM     83  F   UNL A   1      38.017  28.403  31.387  1.00  0.00    -0.206 F 
ATOM     84  C   UNL A   1      36.213  29.959  28.658  1.00  0.00     0.006 A 
ENDBRANCH  56  77
BRANCH  68  85
ATOM     85  C   UNL A   1      44.057  28.423  32.589  1.00  0.00     0.057 A 
ATOM     86  C   UNL A   1      44.204  28.981  33.863  1.00  0.00     0.134 A 
ATOM     87  C   UNL A   1      43.941  27.030  32.507  1.00  0.00     0.134 A 
ATOM     88  F   UNL A   1      44.361  30.308  34.004  1.00  0.00    -0.206 F 
ATOM     89  C   UNL A   1      44.246  28.194  35.011  1.00  0.00     0.040 A 
ATOM     90  C   UNL A   1      43.948  26.231  33.654  1.00  0.00     0.040 A 
ATOM     91  F   UNL A   1      43.869  26.409  31.321  1.00  0.00    -0.206 F 
ATOM     92  C   UNL A   1      44.110  26.812  34.910  1.00  0.00     0.006 A 
ENDBRANCH  68  85
ENDBRANCH  42  43
ENDBRANCH  35  37
ENDBRANCH  34  35
ENDBRANCH  33  34
ENDBRANCH  32  33
ENDBRANCH  31  32
ENDBRANCH   1  31
TORSDOF 19
ENDMDL
MODEL 2
REMARK VINA RESULT:     -11.3      3.129      5.883
REMARK SMILES COc1ccc2c(c1)c(CC(=O)OCCOCCOC(=O)c1ccc(-c3c4nc(c(-c5c(F)cccc5F)c5ccc([nH]5)c(-c5c(F)cccc5F)c5nc(c(-c6c(F)cccc6F)c6ccc3[nH]6)C=C5)C=C4)cc1)c(C(F)(F)F)n2C(=O)c1ccc(Cl)cc1
REMARK SMILES IDX 15 1 14 2 13 3 11 4 12 5 10 6 9 7 3 8 4 9 8 10 5 11 7 12
REMARK SMILES IDX 6 13 81 14 76 15 2 16 1 17 82 18 83 19 84 20 85 21 90 22
REMARK SMILES IDX 86 23 89 24 87 25 88 26 77 27 78 28 79 29 80 30 16 31 17 32
REMARK SMILES IDX 18 33 19 34 20 35 21 36 22 37 23 38 75 39 24 40 74 41 25 42
REMARK SMILES IDX 26 43 27 44 68 45 28 46 73 47 67 48 69 49 29 50 72 51 66 52
REMARK SMILES IDX 65 53 30 55 56 56 39 57 55 58 40 59 43 60 54 61 70 62 41 63
REMARK SMILES IDX 42 64 53 66 71 67 44 68 31 69 32 70 37 71 33 72 34 73 36 74
REMARK SMILES IDX 38 75 35 76 57 77 58 78 63 79 59 80 60 81 62 82 64 83 61 84
REMARK SMILES IDX 45 85 46 86 51 87 47 88 48 89 50 90 52 91 49 92
REMARK H PARENT 69 54 43 65
REMARK Flexibility Score: inf
ROOT
ATOM      1  C   UNL A   1      34.774  22.935  23.147  1.00  0.00     0.202 C 
ENDROOT
BRANCH   1   2
ATOM      2  C   UNL A   1      33.376  23.151  22.547  1.00  0.00     0.261 C 
BRANCH   2   3
ATOM      3  O   UNL A   1      33.327  24.059  21.433  1.00  0.00    -0.463 OA
BRANCH   3   4
ATOM      4  C   UNL A   1      32.911  25.311  21.758  1.00  0.00     0.310 C 
ATOM      5  O   UNL A   1      33.511  26.337  21.447  1.00  0.00    -0.252 OA
BRANCH   4   6
ATOM      6  C   UNL A   1      31.623  25.391  22.550  1.00  0.00     0.161 C 
BRANCH   6   7
ATOM      7  C   UNL A   1      31.417  26.495  23.565  1.00  0.00     0.002 A 
ATOM      8  C   UNL A   1      29.870  29.699  22.149  1.00  0.00     0.119 A 
ATOM      9  C   UNL A   1      29.876  30.403  23.335  1.00  0.00     0.048 A 
ATOM     10  C   UNL A   1      30.463  28.432  22.112  1.00  0.00     0.057 A 
ATOM     11  C   UNL A   1      30.453  29.852  24.486  1.00  0.00     0.031 A 
ATOM     12  C   UNL A   1      30.931  27.802  23.292  1.00  0.00     0.008 A 
ATOM     13  C   UNL A   1      30.945  28.527  24.486  1.00  0.00     0.057 A 
ATOM     14  N   UNL A   1      31.543  27.724  25.483  1.00  0.00    -0.271 N 
ATOM     15  C   UNL A   1      31.804  26.468  24.909  1.00  0.00     0.135 A 
BRANCH   8  16
ATOM     16  O   UNL A   1      29.238  30.063  20.995  1.00  0.00    -0.497 OA
ATOM     17  C   UNL A   1      27.941  30.639  21.101  1.00  0.00     0.278 C 
ENDBRANCH   8  16
BRANCH  14  18
ATOM     18  C   UNL A   1      31.877  28.164  26.800  1.00  0.00     0.262 C 
ATOM     19  O   UNL A   1      31.287  27.675  27.756  1.00  0.00    -0.268 OA
BRANCH  18  20
ATOM     20  C   UNL A   1      32.960  29.098  27.159  1.00  0.00     0.040 A 
ATOM     21  C   UNL A   1      32.708  30.458  27.378  1.00  0.00     0.015 A 
ATOM     22  C   UNL A   1      34.260  28.588  27.260  1.00  0.00     0.015 A 
ATOM     23  C   UNL A   1      33.785  31.323  27.597  1.00  0.00     0.021 A 
ATOM     24  C   UNL A   1      35.329  29.455  27.493  1.00  0.00     0.021 A 
ATOM     25  C   UNL A   1      35.088  30.822  27.637  1.00  0.00     0.041 A 
ATOM     26  Cl  UNL A   1      36.413  31.900  27.839  1.00  0.00    -0.084 Cl
ENDBRANCH  18  20
ENDBRANCH  14  18
BRANCH  15  27
ATOM     27  C   UNL A   1      32.441  25.279  25.568  1.00  0.00     0.432 C 
ATOM     28  F   UNL A   1      31.843  24.142  25.108  1.00  0.00    -0.165 F 
ATOM     29  F   UNL A   1      33.745  25.184  25.184  1.00  0.00    -0.165 F 
ATOM     30  F   UNL A   1      32.423  25.173  26.906  1.00  0.00    -0.165 F 
ENDBRANCH  15  27
ENDBRANCH   6   7
ENDBRANCH   4   6
ENDBRANCH   3   4
ENDBRANCH   2   3
ENDBRANCH   1   2
BRANCH   1  31
ATOM     31  O   UNL A   1      34.995  22.010  24.198  1.00  0.00    -0.374 OA
BRANCH  31  32
ATOM     32  C   UNL A   1      35.920  22.385  25.211  1.00  0.00     0.202 C 
BRANCH  32  33
ATOM     33  C   UNL A   1      37.398  21.958  25.106  1.00  0.00     0.261 C 
BRANCH  33  34
ATOM     34  O   UNL A   1      38.311  22.971  25.526  1.00  0.00    -0.460 OA
BRANCH  34  35
ATOM     35  C   UNL A   1      39.348  22.499  26.280  1.00  0.00     0.338 C 
ATOM     36  O   UNL A   1      40.146  21.641  26.001  1.00  0.00    -0.246 OA
BRANCH  35  37
ATOM     37  C   UNL A   1      39.544  23.563  27.279  1.00  0.00     0.060 A 
ATOM     38  C   UNL A   1      38.747  24.710  27.240  1.00  0.00     0.016 A 
ATOM     39  C   UNL A   1      40.788  23.544  27.930  1.00  0.00     0.016 A 
ATOM     40  C   UNL A   1      39.259  25.886  27.765  1.00  0.00     0.010 A 
ATOM     41  C   UNL A   1      41.309  24.730  28.422  1.00  0.00     0.010 A 
ATOM     42  C   UNL A   1      40.562  25.904  28.298  1.00  0.00    -0.014 A 
BRANCH  42  43
ATOM     43  C   UNL A   1      40.989  27.111  29.003  1.00  0.00     0.031 A 
ATOM     44  C   UNL A   1      42.174  27.691  28.317  1.00  0.00     0.074 A 
ATOM     45  C   UNL A   1      40.332  27.725  30.011  1.00  0.00     0.049 A 
ATOM     46  N   UNL A   1      43.390  27.747  28.748  1.00  0.00    -0.248 NA
ATOM     47  C   UNL A   1      42.034  28.021  26.885  1.00  0.00     0.031 C 
ATOM     48  C   UNL A   1      39.015  27.392  30.552  1.00  0.00     0.029 A 
ATOM     49  N   UNL A   1      40.661  28.857  30.709  1.00  0.00    -0.354 N 
ATOM     50  C   UNL A   1      44.113  28.347  27.717  1.00  0.00     0.074 A 
ATOM     51  C   UNL A   1      43.300  28.257  26.541  1.00  0.00     0.031 C 
ATOM     52  C   UNL A   1      38.558  28.411  31.313  1.00  0.00     0.029 A 
ATOM     53  C   UNL A   1      39.596  29.417  31.416  1.00  0.00     0.049 A 
ATOM     54  H   UNL A   1      41.567  29.241  30.711  1.00  0.00     0.167 HD
ATOM     55  C   UNL A   1      45.149  29.181  28.001  1.00  0.00     0.037 A 
ATOM     56  C   UNL A   1      39.555  30.647  31.990  1.00  0.00     0.037 A 
ATOM     57  C   UNL A   1      45.578  29.001  29.363  1.00  0.00     0.049 A 
ATOM     58  C   UNL A   1      40.952  31.095  32.173  1.00  0.00     0.074 A 
ATOM     59  C   UNL A   1      46.286  28.066  30.083  1.00  0.00     0.029 A 
ATOM     60  N   UNL A   1      44.867  29.758  30.254  1.00  0.00    -0.354 N 
ATOM     61  N   UNL A   1      41.786  30.526  32.997  1.00  0.00    -0.248 NA
ATOM     62  C   UNL A   1      41.560  31.945  31.155  1.00  0.00     0.031 C 
ATOM     63  C   UNL A   1      45.831  28.182  31.430  1.00  0.00     0.029 A 
ATOM     64  C   UNL A   1      44.898  29.215  31.505  1.00  0.00     0.049 A 
ATOM     65  H   UNL A   1      44.393  30.589  30.023  1.00  0.00     0.167 HD
ATOM     66  C   UNL A   1      43.005  30.589  32.351  1.00  0.00     0.074 A 
ATOM     67  C   UNL A   1      42.841  31.605  31.318  1.00  0.00     0.031 C 
ATOM     68  C   UNL A   1      43.921  29.590  32.502  1.00  0.00     0.037 A 
BRANCH  55  69
ATOM     69  C   UNL A   1      45.374  30.509  27.297  1.00  0.00     0.057 A 
ATOM     70  C   UNL A   1      44.490  31.609  27.341  1.00  0.00     0.134 A 
ATOM     71  C   UNL A   1      46.674  30.816  26.850  1.00  0.00     0.134 A 
ATOM     72  F   UNL A   1      43.239  31.522  27.801  1.00  0.00    -0.206 F 
ATOM     73  C   UNL A   1      44.875  32.911  27.009  1.00  0.00     0.040 A 
ATOM     74  C   UNL A   1      47.082  32.125  26.561  1.00  0.00     0.040 A 
ATOM     75  F   UNL A   1      47.615  29.862  26.767  1.00  0.00    -0.206 F 
ATOM     76  C   UNL A   1      46.184  33.180  26.651  1.00  0.00     0.006 A 
ENDBRANCH  55  69
BRANCH  56  77
ATOM     77  C   UNL A   1      38.407  31.578  32.104  1.00  0.00     0.057 A 
ATOM     78  C   UNL A   1      37.519  31.500  33.193  1.00  0.00     0.134 A 
ATOM     79  C   UNL A   1      37.984  32.374  31.028  1.00  0.00     0.134 A 
ATOM     80  F   UNL A   1      37.781  30.703  34.238  1.00  0.00    -0.206 F 
ATOM     81  C   UNL A   1      36.286  32.161  33.208  1.00  0.00     0.040 A 
ATOM     82  C   UNL A   1      36.749  33.040  31.029  1.00  0.00     0.040 A 
ATOM     83  F   UNL A   1      38.733  32.473  29.920  1.00  0.00    -0.206 F 
ATOM     84  C   UNL A   1      35.891  32.926  32.119  1.00  0.00     0.006 A 
ENDBRANCH  56  77
BRANCH  68  85
ATOM     85  C   UNL A   1      43.807  28.721  33.714  1.00  0.00     0.057 A 
ATOM     86  C   UNL A   1      43.118  27.511  33.581  1.00  0.00     0.134 A 
ATOM     87  C   UNL A   1      44.237  29.078  34.998  1.00  0.00     0.134 A 
ATOM     88  F   UNL A   1      42.645  27.132  32.382  1.00  0.00    -0.206 F 
ATOM     89  C   UNL A   1      42.854  26.690  34.674  1.00  0.00     0.040 A 
ATOM     90  C   UNL A   1      44.008  28.247  36.099  1.00  0.00     0.040 A 
ATOM     91  F   UNL A   1      44.840  30.253  35.225  1.00  0.00    -0.206 F 
ATOM     92  C   UNL A   1      43.306  27.054  35.940  1.00  0.00     0.006 A 
ENDBRANCH  68  85
ENDBRANCH  42  43
ENDBRANCH  35  37
ENDBRANCH  34  35
ENDBRANCH  33  34
ENDBRANCH  32  33
ENDBRANCH  31  32
ENDBRANCH   1  31
TORSDOF 19
ENDMDL
MODEL 3
REMARK VINA RESULT:     -11.0      3.263      5.487
REMARK SMILES COc1ccc2c(c1)c(CC(=O)OCCOCCOC(=O)c1ccc(-c3c4nc(c(-c5c(F)cccc5F)c5ccc([nH]5)c(-c5c(F)cccc5F)c5nc(c(-c6c(F)cccc6F)c6ccc3[nH]6)C=C5)C=C4)cc1)c(C(F)(F)F)n2C(=O)c1ccc(Cl)cc1
REMARK SMILES IDX 15 1 14 2 13 3 11 4 12 5 10 6 9 7 3 8 4 9 8 10 5 11 7 12
REMARK SMILES IDX 6 13 81 14 76 15 2 16 1 17 82 18 83 19 84 20 85 21 90 22
REMARK SMILES IDX 86 23 89 24 87 25 88 26 77 27 78 28 79 29 80 30 16 31 17 32
REMARK SMILES IDX 18 33 19 34 20 35 21 36 22 37 23 38 75 39 24 40 74 41 25 42
REMARK SMILES IDX 26 43 27 44 68 45 28 46 73 47 67 48 69 49 29 50 72 51 66 52
REMARK SMILES IDX 65 53 30 55 56 56 39 57 55 58 40 59 43 60 54 61 70 62 41 63
REMARK SMILES IDX 42 64 53 66 71 67 44 68 31 69 32 70 37 71 33 72 34 73 36 74
REMARK SMILES IDX 38 75 35 76 57 77 58 78 63 79 59 80 60 81 62 82 64 83 61 84
REMARK SMILES IDX 45 85 46 86 51 87 47 88 48 89 50 90 52 91 49 92
REMARK H PARENT 69 54 43 65
REMARK Flexibility Score: inf
ROOT
ATOM      1  C   UNL A   1      37.375  22.284  24.415  1.00  0.00     0.202 C 
ENDROOT
BRANCH   1   2
ATOM      2  C   UNL A   1      36.606  23.565  24.775  1.00  0.00     0.261 C 
BRANCH   2   3
ATOM      3  O   UNL A   1      35.765  23.462  25.936  1.00  0.00    -0.463 OA
BRANCH   3   4
ATOM      4  C   UNL A   1      34.527  23.997  25.772  1.00  0.00     0.310 C 
ATOM      5  O   UNL A   1      33.559  23.720  26.478  1.00  0.00    -0.252 OA
BRANCH   4   6
ATOM      6  C   UNL A   1      34.384  24.989  24.639  1.00  0.00     0.161 C 
BRANCH   6   7
ATOM      7  C   UNL A   1      33.255  25.998  24.644  1.00  0.00     0.002 A 
ATOM      8  C   UNL A   1      33.696  28.875  27.133  1.00  0.00     0.119 A 
ATOM      9  C   UNL A   1      32.507  29.509  26.838  1.00  0.00     0.048 A 
ATOM     10  C   UNL A   1      33.973  27.644  26.527  1.00  0.00     0.057 A 
ATOM     11  C   UNL A   1      31.601  28.937  25.936  1.00  0.00     0.031 A 
ATOM     12  C   UNL A   1      33.136  27.115  25.515  1.00  0.00     0.008 A 
ATOM     13  C   UNL A   1      31.928  27.756  25.232  1.00  0.00     0.057 A 
ATOM     14  N   UNL A   1      31.234  26.989  24.269  1.00  0.00    -0.271 N 
ATOM     15  C   UNL A   1      32.075  25.925  23.898  1.00  0.00     0.135 A 
BRANCH   8  16
ATOM     16  O   UNL A   1      34.714  29.377  27.891  1.00  0.00    -0.497 OA
ATOM     17  C   UNL A   1      35.147  30.706  27.626  1.00  0.00     0.278 C 
ENDBRANCH   8  16
BRANCH  14  18
ATOM     18  C   UNL A   1      29.897  27.233  23.834  1.00  0.00     0.262 C 
ATOM     19  O   UNL A   1      29.019  26.435  24.143  1.00  0.00    -0.268 OA
BRANCH  18  20
ATOM     20  C   UNL A   1      29.417  28.428  23.116  1.00  0.00     0.040 A 
ATOM     21  C   UNL A   1      28.070  28.810  23.153  1.00  0.00     0.015 A 
ATOM     22  C   UNL A   1      30.349  29.169  22.378  1.00  0.00     0.015 A 
ATOM     23  C   UNL A   1      27.643  29.880  22.360  1.00  0.00     0.021 A 
ATOM     24  C   UNL A   1      29.918  30.244  21.600  1.00  0.00     0.021 A 
ATOM     25  C   UNL A   1      28.564  30.580  21.576  1.00  0.00     0.041 A 
ATOM     26  Cl  UNL A   1      28.022  31.851  20.552  1.00  0.00    -0.084 Cl
ENDBRANCH  18  20
ENDBRANCH  14  18
BRANCH  15  27
ATOM     27  C   UNL A   1      31.780  24.833  22.910  1.00  0.00     0.432 C 
ATOM     28  F   UNL A   1      30.760  24.063  23.389  1.00  0.00    -0.165 F 
ATOM     29  F   UNL A   1      31.313  25.375  21.751  1.00  0.00    -0.165 F 
ATOM     30  F   UNL A   1      32.749  23.968  22.571  1.00  0.00    -0.165 F 
ENDBRANCH  15  27
ENDBRANCH   6   7
ENDBRANCH   4   6
ENDBRANCH   3   4
ENDBRANCH   2   3
ENDBRANCH   1   2
BRANCH   1  31
ATOM     31  O   UNL A   1      37.724  21.327  25.400  1.00  0.00    -0.374 OA
BRANCH  31  32
ATOM     32  C   UNL A   1      39.109  21.088  25.614  1.00  0.00     0.202 C 
BRANCH  32  33
ATOM     33  C   UNL A   1      39.849  21.799  26.765  1.00  0.00     0.261 C 
BRANCH  33  34
ATOM     34  O   UNL A   1      39.843  23.221  26.648  1.00  0.00    -0.460 OA
BRANCH  34  35
ATOM     35  C   UNL A   1      41.084  23.785  26.737  1.00  0.00     0.338 C 
ATOM     36  O   UNL A   1      42.044  23.600  26.033  1.00  0.00    -0.246 OA
BRANCH  35  37
ATOM     37  C   UNL A   1      40.848  24.977  27.571  1.00  0.00     0.060 A 
ATOM     38  C   UNL A   1      39.863  25.898  27.206  1.00  0.00     0.016 A 
ATOM     39  C   UNL A   1      41.905  25.318  28.430  1.00  0.00     0.016 A 
ATOM     40  C   UNL A   1      40.007  27.213  27.619  1.00  0.00     0.010 A 
ATOM     41  C   UNL A   1      42.063  26.641  28.811  1.00  0.00     0.010 A 
ATOM     42  C   UNL A   1      41.138  27.591  28.367  1.00  0.00    -0.014 A 
BRANCH  42  43
ATOM     43  C   UNL A   1      41.157  28.939  28.934  1.00  0.00     0.031 A 
ATOM     44  C   UNL A   1      42.352  29.669  28.434  1.00  0.00     0.074 A 
ATOM     45  C   UNL A   1      40.172  29.517  29.657  1.00  0.00     0.049 A 
ATOM     46  N   UNL A   1      43.394  30.034  29.103  1.00  0.00    -0.248 NA
ATOM     47  C   UNL A   1      42.513  29.784  26.971  1.00  0.00     0.031 C 
ATOM     48  C   UNL A   1      38.844  28.980  29.946  1.00  0.00     0.029 A 
ATOM     49  N   UNL A   1      40.112  30.769  30.208  1.00  0.00    -0.354 N 
ATOM     50  C   UNL A   1      44.230  30.643  28.169  1.00  0.00     0.074 A 
ATOM     51  C   UNL A   1      43.761  30.240  26.876  1.00  0.00     0.031 C 
ATOM     52  C   UNL A   1      38.039  29.963  30.407  1.00  0.00     0.029 A 
ATOM     53  C   UNL A   1      38.823  31.172  30.561  1.00  0.00     0.049 A 
ATOM     54  H   UNL A   1      40.907  31.335  30.342  1.00  0.00     0.167 HD
ATOM     55  C   UNL A   1      44.998  31.707  28.526  1.00  0.00     0.037 A 
ATOM     56  C   UNL A   1      38.424  32.425  30.897  1.00  0.00     0.037 A 
ATOM     57  C   UNL A   1      45.102  31.790  29.959  1.00  0.00     0.049 A 
ATOM     58  C   UNL A   1      39.630  33.180  31.301  1.00  0.00     0.074 A 
ATOM     59  C   UNL A   1      45.766  31.122  30.963  1.00  0.00     0.029 A 
ATOM     60  N   UNL A   1      44.071  32.481  30.534  1.00  0.00    -0.354 N 
ATOM     61  N   UNL A   1      40.322  32.906  32.371  1.00  0.00    -0.248 NA
ATOM     62  C   UNL A   1      40.309  34.008  30.311  1.00  0.00     0.031 C 
ATOM     63  C   UNL A   1      44.979  31.303  32.140  1.00  0.00     0.029 A 
ATOM     64  C   UNL A   1      43.888  32.115  31.835  1.00  0.00     0.049 A 
ATOM     65  H   UNL A   1      43.528  33.158  30.067  1.00  0.00     0.167 HD
ATOM     66  C   UNL A   1      41.632  33.147  32.004  1.00  0.00     0.074 A 
ATOM     67  C   UNL A   1      41.550  33.971  30.803  1.00  0.00     0.031 C 
ATOM     68  C   UNL A   1      42.644  32.392  32.517  1.00  0.00     0.037 A 
BRANCH  55  69
ATOM     69  C   UNL A   1      45.150  32.956  27.674  1.00  0.00     0.057 A 
ATOM     70  C   UNL A   1      44.173  33.966  27.535  1.00  0.00     0.134 A 
ATOM     71  C   UNL A   1      46.444  33.328  27.259  1.00  0.00     0.134 A 
ATOM     72  F   UNL A   1      42.908  33.818  27.939  1.00  0.00    -0.206 F 
ATOM     73  C   UNL A   1      44.463  35.249  27.064  1.00  0.00     0.040 A 
ATOM     74  C   UNL A   1      46.753  34.625  26.830  1.00  0.00     0.040 A 
ATOM     75  F   UNL A   1      47.467  32.464  27.344  1.00  0.00    -0.206 F 
ATOM     76  C   UNL A   1      45.763  35.595  26.742  1.00  0.00     0.006 A 
ENDBRANCH  55  69
BRANCH  56  77
ATOM     77  C   UNL A   1      37.136  33.098  30.599  1.00  0.00     0.057 A 
ATOM     78  C   UNL A   1      36.058  33.024  31.500  1.00  0.00     0.134 A 
ATOM     79  C   UNL A   1      36.830  33.588  29.320  1.00  0.00     0.134 A 
ATOM     80  F   UNL A   1      36.217  32.494  32.721  1.00  0.00    -0.206 F 
ATOM     81  C   UNL A   1      34.757  33.401  31.150  1.00  0.00     0.040 A 
ATOM     82  C   UNL A   1      35.529  33.967  28.955  1.00  0.00     0.040 A 
ATOM     83  F   UNL A   1      37.776  33.649  28.372  1.00  0.00    -0.206 F 
ATOM     84  C   UNL A   1      34.485  33.865  29.870  1.00  0.00     0.006 A 
ENDBRANCH  56  77
BRANCH  68  85
ATOM     85  C   UNL A   1      42.392  31.673  33.804  1.00  0.00     0.057 A 
ATOM     86  C   UNL A   1      42.773  32.312  34.988  1.00  0.00     0.134 A 
ATOM     87  C   UNL A   1      41.910  30.362  33.907  1.00  0.00     0.134 A 
ATOM     88  F   UNL A   1      43.282  33.555  34.951  1.00  0.00    -0.206 F 
ATOM     89  C   UNL A   1      42.692  31.678  36.226  1.00  0.00     0.040 A 
ATOM     90  C   UNL A   1      41.792  29.726  35.147  1.00  0.00     0.040 A 
ATOM     91  F   UNL A   1      41.592  29.653  32.816  1.00  0.00    -0.206 F 
ATOM     92  C   UNL A   1      42.193  30.382  36.309  1.00  0.00     0.006 A 
ENDBRANCH  68  85
ENDBRANCH  42  43
ENDBRANCH  35  37
ENDBRANCH  34  35
ENDBRANCH  33  34
ENDBRANCH  32  33
ENDBRANCH  31  32
ENDBRANCH   1  31
TORSDOF 19
ENDMDL
