MODEL 1
REMARK VINA RESULT:     -11.2      0.000      0.000
REMARK SMILES CC1(C)NC(=O)N(CCC(=O)N2CCC[C@H]2C(=O)OCCOCCOC(=O)c2ccc(-c3c4nc(c(-c5c(F)cccc5F)c5ccc([nH]5)c(-c5c(F)cccc5F)c5nc(c(-c6c(F)cccc6F)c6ccc3[nH]6)C=C5)C=C4)cc2)C1=O
REMARK SMILES IDX 21 1 20 2 19 3 17 4 18 5 16 6 12 7 13 8 14 9 15 10 10 11
REMARK SMILES IDX 11 12 9 13 8 14 7 15 1 16 2 17 3 18 4 19 82 20 5 21 83 23
REMARK SMILES IDX 6 24 22 25 23 26 24 27 25 28 26 29 27 30 28 31 29 32 81 33
REMARK SMILES IDX 30 34 80 35 31 36 32 37 33 38 74 39 34 40 79 41 73 42 75 43
REMARK SMILES IDX 35 44 78 45 72 46 71 47 36 49 62 50 45 51 61 52 46 53 49 54
REMARK SMILES IDX 60 55 76 56 47 57 48 58 59 60 77 61 50 62 37 63 38 64 43 65
REMARK SMILES IDX 39 66 40 67 42 68 44 69 41 70 63 71 64 72 69 73 65 74 66 75
REMARK SMILES IDX 68 76 70 77 67 78 51 79 52 80 57 81 53 82 54 83 56 84 58 85
REMARK SMILES IDX 55 86
REMARK H PARENT 4 22 75 48 49 59
REMARK Flexibility Score: inf
ROOT
ATOM      1  C   UNL A   1      33.228  29.495  26.540  1.00  0.00     0.202 C 
ENDROOT
BRANCH   1   2
ATOM      2  C   UNL A   1      32.983  28.012  26.188  1.00  0.00     0.261 C 
BRANCH   2   3
ATOM      3  O   UNL A   1      33.236  27.499  24.852  1.00  0.00    -0.462 OA
BRANCH   3   4
ATOM      4  C   UNL A   1      33.313  26.165  24.688  1.00  0.00     0.328 C 
ATOM      5  O   UNL A   1      33.828  25.620  23.729  1.00  0.00    -0.250 OA
BRANCH   4   6
ATOM      6  C   UNL A   1      32.723  25.283  25.760  1.00  0.00     0.195 C 
ATOM      7  N   UNL A   1      31.375  24.878  25.418  1.00  0.00    -0.329 N 
ATOM      8  C   UNL A   1      31.391  23.447  25.152  1.00  0.00     0.120 C 
ATOM      9  C   UNL A   1      32.440  22.920  26.116  1.00  0.00     0.024 C 
ATOM     10  C   UNL A   1      33.492  24.023  26.145  1.00  0.00     0.039 C 
BRANCH   7  11
ATOM     11  C   UNL A   1      30.200  25.580  25.567  1.00  0.00     0.225 C 
ATOM     12  O   UNL A   1      29.549  25.403  26.610  1.00  0.00    -0.275 OA
BRANCH  11  13
ATOM     13  C   UNL A   1      29.486  26.373  24.446  1.00  0.00     0.122 C 
BRANCH  13  14
ATOM     14  C   UNL A   1      29.888  26.997  23.090  1.00  0.00     0.140 C 
BRANCH  14  15
ATOM     15  N   UNL A   1      29.640  28.381  22.728  1.00  0.00    -0.262 N 
ATOM     16  C   UNL A   1      28.016  31.513  23.211  1.00  0.00     0.045 C 
ATOM     17  C   UNL A   1      28.607  30.477  22.268  1.00  0.00     0.115 C 
ATOM     18  C   UNL A   1      28.037  30.691  20.869  1.00  0.00     0.045 C 
ATOM     19  N   UNL A   1      30.053  30.516  22.244  1.00  0.00    -0.324 N 
ATOM     20  C   UNL A   1      28.425  29.033  22.804  1.00  0.00     0.255 C 
ATOM     21  C   UNL A   1      30.621  29.300  22.543  1.00  0.00     0.325 C 
ATOM     22  H   UNL A   1      30.572  31.326  22.036  1.00  0.00     0.166 HD
ATOM     23  O   UNL A   1      27.381  28.583  23.260  1.00  0.00    -0.272 OA
ATOM     24  O   UNL A   1      31.825  29.111  22.602  1.00  0.00    -0.248 OA
ENDBRANCH  14  15
ENDBRANCH  13  14
ENDBRANCH  11  13
ENDBRANCH   7  11
ENDBRANCH   4   6
ENDBRANCH   3   4
ENDBRANCH   2   3
ENDBRANCH   1   2
BRANCH   1  25
ATOM     25  O   UNL A   1      32.135  30.186  27.112  1.00  0.00    -0.374 OA
BRANCH  25  26
ATOM     26  C   UNL A   1      31.675  31.377  26.445  1.00  0.00     0.202 C 
BRANCH  26  27
ATOM     27  C   UNL A   1      31.743  32.713  27.220  1.00  0.00     0.261 C 
BRANCH  27  28
ATOM     28  O   UNL A   1      33.010  33.370  27.207  1.00  0.00    -0.460 OA
BRANCH  28  29
ATOM     29  C   UNL A   1      33.419  33.872  28.386  1.00  0.00     0.338 C 
ATOM     30  O   UNL A   1      32.792  34.561  29.172  1.00  0.00    -0.246 OA
BRANCH  29  31
ATOM     31  C   UNL A   1      34.657  33.143  28.690  1.00  0.00     0.060 A 
ATOM     32  C   UNL A   1      34.548  31.774  28.962  1.00  0.00     0.016 A 
ATOM     33  C   UNL A   1      35.901  33.771  28.569  1.00  0.00     0.016 A 
ATOM     34  C   UNL A   1      35.697  31.033  29.181  1.00  0.00     0.010 A 
ATOM     35  C   UNL A   1      37.051  33.032  28.807  1.00  0.00     0.010 A 
ATOM     36  C   UNL A   1      36.939  31.678  29.166  1.00  0.00    -0.014 A 
BRANCH  36  37
ATOM     37  C   UNL A   1      38.075  31.012  29.822  1.00  0.00     0.031 A 
ATOM     38  C   UNL A   1      38.307  31.338  31.269  1.00  0.00     0.074 A 
ATOM     39  C   UNL A   1      38.821  30.117  29.162  1.00  0.00     0.049 A 
ATOM     40  N   UNL A   1      39.221  30.890  32.085  1.00  0.00    -0.248 NA
ATOM     41  C   UNL A   1      37.378  32.309  31.878  1.00  0.00     0.031 C 
ATOM     42  C   UNL A   1      38.625  29.710  27.772  1.00  0.00     0.029 A 
ATOM     43  N   UNL A   1      39.893  29.381  29.586  1.00  0.00    -0.354 N 
ATOM     44  C   UNL A   1      38.976  31.523  33.297  1.00  0.00     0.074 A 
ATOM     45  C   UNL A   1      37.864  32.422  33.102  1.00  0.00     0.031 C 
ATOM     46  C   UNL A   1      39.551  28.787  27.457  1.00  0.00     0.029 A 
ATOM     47  C   UNL A   1      40.416  28.568  28.614  1.00  0.00     0.049 A 
ATOM     48  H   UNL A   1      40.253  29.430  30.502  1.00  0.00     0.167 HD
ATOM     49  C   UNL A   1      39.619  31.355  34.475  1.00  0.00     0.037 A 
ATOM     50  C   UNL A   1      41.485  27.753  28.667  1.00  0.00     0.037 A 
ATOM     51  C   UNL A   1      40.735  30.465  34.637  1.00  0.00     0.049 A 
ATOM     52  C   UNL A   1      42.245  27.653  29.965  1.00  0.00     0.074 A 
ATOM     53  C   UNL A   1      41.477  30.206  35.773  1.00  0.00     0.029 A 
ATOM     54  N   UNL A   1      41.277  29.696  33.615  1.00  0.00    -0.354 N 
ATOM     55  N   UNL A   1      41.999  28.234  31.116  1.00  0.00    -0.248 NA
ATOM     56  C   UNL A   1      43.426  26.783  29.971  1.00  0.00     0.031 C 
ATOM     57  C   UNL A   1      42.506  29.326  35.423  1.00  0.00     0.029 A 
ATOM     58  C   UNL A   1      42.364  28.984  34.086  1.00  0.00     0.049 A 
ATOM     59  H   UNL A   1      40.937  29.664  32.691  1.00  0.00     0.167 HD
ATOM     60  C   UNL A   1      42.972  27.774  31.994  1.00  0.00     0.074 A 
ATOM     61  C   UNL A   1      43.804  26.857  31.239  1.00  0.00     0.031 C 
ATOM     62  C   UNL A   1      43.165  28.075  33.302  1.00  0.00     0.037 A 
BRANCH  49  63
ATOM     63  C   UNL A   1      39.153  32.183  35.637  1.00  0.00     0.057 A 
ATOM     64  C   UNL A   1      39.584  33.504  35.832  1.00  0.00     0.134 A 
ATOM     65  C   UNL A   1      38.281  31.644  36.589  1.00  0.00     0.134 A 
ATOM     66  F   UNL A   1      40.442  34.075  34.973  1.00  0.00    -0.206 F 
ATOM     67  C   UNL A   1      39.191  34.243  36.950  1.00  0.00     0.040 A 
ATOM     68  C   UNL A   1      37.855  32.384  37.693  1.00  0.00     0.040 A 
ATOM     69  F   UNL A   1      37.834  30.385  36.469  1.00  0.00    -0.206 F 
ATOM     70  C   UNL A   1      38.318  33.685  37.882  1.00  0.00     0.006 A 
ENDBRANCH  49  63
BRANCH  50  71
ATOM     71  C   UNL A   1      41.890  26.971  27.472  1.00  0.00     0.057 A 
ATOM     72  C   UNL A   1      41.502  25.636  27.316  1.00  0.00     0.134 A 
ATOM     73  C   UNL A   1      42.676  27.535  26.459  1.00  0.00     0.134 A 
ATOM     74  F   UNL A   1      40.760  25.034  28.258  1.00  0.00    -0.206 F 
ATOM     75  C   UNL A   1      41.895  24.884  26.208  1.00  0.00     0.040 A 
ATOM     76  C   UNL A   1      43.054  26.803  25.333  1.00  0.00     0.040 A 
ATOM     77  F   UNL A   1      43.075  28.812  26.543  1.00  0.00    -0.206 F 
ATOM     78  C   UNL A   1      42.670  25.470  25.208  1.00  0.00     0.006 A 
ENDBRANCH  50  71
BRANCH  62  79
ATOM     79  C   UNL A   1      44.290  27.371  34.005  1.00  0.00     0.057 A 
ATOM     80  C   UNL A   1      45.570  27.929  34.103  1.00  0.00     0.134 A 
ATOM     81  C   UNL A   1      44.070  26.137  34.632  1.00  0.00     0.134 A 
ATOM     82  F   UNL A   1      45.847  29.104  33.516  1.00  0.00    -0.206 F 
ATOM     83  C   UNL A   1      46.601  27.270  34.774  1.00  0.00     0.040 A 
ATOM     84  C   UNL A   1      45.084  25.485  35.333  1.00  0.00     0.040 A 
ATOM     85  F   UNL A   1      42.863  25.555  34.588  1.00  0.00    -0.206 F 
ATOM     86  C   UNL A   1      46.356  26.048  35.398  1.00  0.00     0.006 A 
ENDBRANCH  62  79
ENDBRANCH  36  37
ENDBRANCH  29  31
ENDBRANCH  28  29
ENDBRANCH  27  28
ENDBRANCH  26  27
ENDBRANCH  25  26
ENDBRANCH   1  25
TORSDOF 18
ENDMDL
MODEL 2
REMARK VINA RESULT:     -10.9      5.053      9.227
REMARK SMILES CC1(C)NC(=O)N(CCC(=O)N2CCC[C@H]2C(=O)OCCOCCOC(=O)c2ccc(-c3c4nc(c(-c5c(F)cccc5F)c5ccc([nH]5)c(-c5c(F)cccc5F)c5nc(c(-c6c(F)cccc6F)c6ccc3[nH]6)C=C5)C=C4)cc2)C1=O
REMARK SMILES IDX 21 1 20 2 19 3 17 4 18 5 16 6 12 7 13 8 14 9 15 10 10 11
REMARK SMILES IDX 11 12 9 13 8 14 7 15 1 16 2 17 3 18 4 19 82 20 5 21 83 23
REMARK SMILES IDX 6 24 22 25 23 26 24 27 25 28 26 29 27 30 28 31 29 32 81 33
REMARK SMILES IDX 30 34 80 35 31 36 32 37 33 38 74 39 34 40 79 41 73 42 75 43
REMARK SMILES IDX 35 44 78 45 72 46 71 47 36 49 62 50 45 51 61 52 46 53 49 54
REMARK SMILES IDX 60 55 76 56 47 57 48 58 59 60 77 61 50 62 37 63 38 64 43 65
REMARK SMILES IDX 39 66 40 67 42 68 44 69 41 70 63 71 64 72 69 73 65 74 66 75
REMARK SMILES IDX 68 76 70 77 67 78 51 79 52 80 57 81 53 82 54 83 56 84 58 85
REMARK SMILES IDX 55 86
REMARK H PARENT 4 22 75 48 49 59
REMARK Flexibility Score: inf
ROOT
ATOM      1  C   UNL A   1      37.172  21.800  24.540  1.00  0.00     0.202 C 
ENDROOT
BRANCH   1   2
ATOM      2  C   UNL A   1      36.083  22.603  25.284  1.00  0.00     0.261 C 
BRANCH   2   3
ATOM      3  O   UNL A   1      35.704  23.940  24.857  1.00  0.00    -0.462 OA
BRANCH   3   4
ATOM      4  C   UNL A   1      34.761  24.057  23.904  1.00  0.00     0.328 C 
ATOM      5  O   UNL A   1      34.939  23.801  22.728  1.00  0.00    -0.250 OA
BRANCH   4   6
ATOM      6  C   UNL A   1      33.392  24.540  24.316  1.00  0.00     0.195 C 
ATOM      7  N   UNL A   1      32.807  23.662  25.308  1.00  0.00    -0.329 N 
ATOM      8  C   UNL A   1      32.735  24.393  26.565  1.00  0.00     0.120 C 
ATOM      9  C   UNL A   1      32.466  25.823  26.129  1.00  0.00     0.024 C 
ATOM     10  C   UNL A   1      33.272  25.966  24.843  1.00  0.00     0.039 C 
BRANCH   7  11
ATOM     11  C   UNL A   1      32.157  22.463  25.122  1.00  0.00     0.225 C 
ATOM     12  O   UNL A   1      31.107  22.269  25.758  1.00  0.00    -0.275 OA
BRANCH  11  13
ATOM     13  C   UNL A   1      32.747  21.232  24.392  1.00  0.00     0.122 C 
BRANCH  13  14
ATOM     14  C   UNL A   1      32.183  20.006  23.638  1.00  0.00     0.140 C 
BRANCH  14  15
ATOM     15  N   UNL A   1      32.648  18.645  23.839  1.00  0.00    -0.262 N 
ATOM     16  C   UNL A   1      32.602  15.532  25.567  1.00  0.00     0.045 C 
ATOM     17  C   UNL A   1      33.379  16.596  24.807  1.00  0.00     0.115 C 
ATOM     18  C   UNL A   1      34.864  16.457  25.129  1.00  0.00     0.045 C 
ATOM     19  N   UNL A   1      33.156  16.525  23.380  1.00  0.00    -0.324 N 
ATOM     20  C   UNL A   1      32.813  18.018  25.058  1.00  0.00     0.255 C 
ATOM     21  C   UNL A   1      32.705  17.714  22.854  1.00  0.00     0.325 C 
ATOM     22  H   UNL A   1      33.309  15.714  22.845  1.00  0.00     0.166 HD
ATOM     23  O   UNL A   1      32.523  18.470  26.159  1.00  0.00    -0.272 OA
ATOM     24  O   UNL A   1      32.431  17.872  21.676  1.00  0.00    -0.248 OA
ENDBRANCH  14  15
ENDBRANCH  13  14
ENDBRANCH  11  13
ENDBRANCH   7  11
ENDBRANCH   4   6
ENDBRANCH   3   4
ENDBRANCH   2   3
ENDBRANCH   1   2
BRANCH   1  25
ATOM     25  O   UNL A   1      38.212  21.274  25.341  1.00  0.00    -0.374 OA
BRANCH  25  26
ATOM     26  C   UNL A   1      38.591  19.901  25.128  1.00  0.00     0.202 C 
BRANCH  26  27
ATOM     27  C   UNL A   1      39.687  19.303  26.039  1.00  0.00     0.261 C 
BRANCH  27  28
ATOM     28  O   UNL A   1      40.966  19.126  25.433  1.00  0.00    -0.460 OA
BRANCH  28  29
ATOM     29  C   UNL A   1      42.015  19.119  26.273  1.00  0.00     0.338 C 
ATOM     30  O   UNL A   1      42.812  18.219  26.480  1.00  0.00    -0.246 OA
BRANCH  29  31
ATOM     31  C   UNL A   1      42.207  20.527  26.641  1.00  0.00     0.060 A 
ATOM     32  C   UNL A   1      42.288  21.460  25.599  1.00  0.00     0.016 A 
ATOM     33  C   UNL A   1      42.163  20.926  27.981  1.00  0.00     0.016 A 
ATOM     34  C   UNL A   1      42.395  22.807  25.901  1.00  0.00     0.010 A 
ATOM     35  C   UNL A   1      42.288  22.274  28.284  1.00  0.00     0.010 A 
ATOM     36  C   UNL A   1      42.459  23.203  27.243  1.00  0.00    -0.014 A 
BRANCH  36  37
ATOM     37  C   UNL A   1      43.008  24.533  27.547  1.00  0.00     0.031 A 
ATOM     38  C   UNL A   1      42.027  25.593  27.959  1.00  0.00     0.074 A 
ATOM     39  C   UNL A   1      44.328  24.756  27.511  1.00  0.00     0.049 A 
ATOM     40  N   UNL A   1      42.239  26.836  28.290  1.00  0.00    -0.248 NA
ATOM     41  C   UNL A   1      40.608  25.191  27.998  1.00  0.00     0.031 C 
ATOM     42  C   UNL A   1      45.346  23.764  27.171  1.00  0.00     0.029 A 
ATOM     43  N   UNL A   1      45.036  25.896  27.774  1.00  0.00    -0.354 N 
ATOM     44  C   UNL A   1      40.985  27.361  28.575  1.00  0.00     0.074 A 
ATOM     45  C   UNL A   1      40.013  26.322  28.331  1.00  0.00     0.031 C 
ATOM     46  C   UNL A   1      46.558  24.342  27.252  1.00  0.00     0.029 A 
ATOM     47  C   UNL A   1      46.390  25.746  27.617  1.00  0.00     0.049 A 
ATOM     48  H   UNL A   1      44.614  26.742  28.051  1.00  0.00     0.167 HD
ATOM     49  C   UNL A   1      40.676  28.602  29.015  1.00  0.00     0.037 A 
ATOM     50  C   UNL A   1      47.370  26.659  27.746  1.00  0.00     0.037 A 
ATOM     51  C   UNL A   1      41.663  29.622  29.234  1.00  0.00     0.049 A 
ATOM     52  C   UNL A   1      46.992  28.062  28.147  1.00  0.00     0.074 A 
ATOM     53  C   UNL A   1      41.484  30.919  29.674  1.00  0.00     0.029 A 
ATOM     54  N   UNL A   1      43.024  29.455  29.010  1.00  0.00    -0.354 N 
ATOM     55  N   UNL A   1      45.809  28.552  28.438  1.00  0.00    -0.248 NA
ATOM     56  C   UNL A   1      48.085  29.037  28.241  1.00  0.00     0.031 C 
ATOM     57  C   UNL A   1      42.729  31.555  29.658  1.00  0.00     0.029 A 
ATOM     58  C   UNL A   1      43.694  30.635  29.274  1.00  0.00     0.049 A 
ATOM     59  H   UNL A   1      43.448  28.619  28.709  1.00  0.00     0.167 HD
ATOM     60  C   UNL A   1      46.018  29.881  28.783  1.00  0.00     0.074 A 
ATOM     61  C   UNL A   1      47.445  30.113  28.674  1.00  0.00     0.031 C 
ATOM     62  C   UNL A   1      45.119  30.825  29.159  1.00  0.00     0.037 A 
BRANCH  49  63
ATOM     63  C   UNL A   1      39.224  28.913  29.234  1.00  0.00     0.057 A 
ATOM     64  C   UNL A   1      38.404  29.407  28.208  1.00  0.00     0.134 A 
ATOM     65  C   UNL A   1      38.642  28.739  30.495  1.00  0.00     0.134 A 
ATOM     66  F   UNL A   1      38.902  29.622  26.981  1.00  0.00    -0.206 F 
ATOM     67  C   UNL A   1      37.070  29.749  28.440  1.00  0.00     0.040 A 
ATOM     68  C   UNL A   1      37.301  29.047  30.731  1.00  0.00     0.040 A 
ATOM     69  F   UNL A   1      39.369  28.277  31.523  1.00  0.00    -0.206 F 
ATOM     70  C   UNL A   1      36.514  29.563  29.704  1.00  0.00     0.006 A 
ENDBRANCH  49  63
BRANCH  50  71
ATOM     71  C   UNL A   1      48.784  26.278  27.505  1.00  0.00     0.057 A 
ATOM     72  C   UNL A   1      49.337  26.324  26.221  1.00  0.00     0.134 A 
ATOM     73  C   UNL A   1      49.616  25.856  28.550  1.00  0.00     0.134 A 
ATOM     74  F   UNL A   1      48.587  26.707  25.177  1.00  0.00    -0.206 F 
ATOM     75  C   UNL A   1      50.659  25.946  25.980  1.00  0.00     0.040 A 
ATOM     76  C   UNL A   1      50.948  25.500  28.327  1.00  0.00     0.040 A 
ATOM     77  F   UNL A   1      49.152  25.796  29.806  1.00  0.00    -0.206 F 
ATOM     78  C   UNL A   1      51.471  25.538  27.036  1.00  0.00     0.006 A 
ENDBRANCH  50  71
BRANCH  62  79
ATOM     79  C   UNL A   1      45.663  32.177  29.520  1.00  0.00     0.057 A 
ATOM     80  C   UNL A   1      46.126  32.472  30.808  1.00  0.00     0.134 A 
ATOM     81  C   UNL A   1      45.766  33.181  28.548  1.00  0.00     0.134 A 
ATOM     82  F   UNL A   1      46.045  31.557  31.787  1.00  0.00    -0.206 F 
ATOM     83  C   UNL A   1      46.643  33.729  31.124  1.00  0.00     0.040 A 
ATOM     84  C   UNL A   1      46.313  34.430  28.844  1.00  0.00     0.040 A 
ATOM     85  F   UNL A   1      45.355  32.958  27.291  1.00  0.00    -0.206 F 
ATOM     86  C   UNL A   1      46.745  34.709  30.138  1.00  0.00     0.006 A 
ENDBRANCH  62  79
ENDBRANCH  36  37
ENDBRANCH  29  31
ENDBRANCH  28  29
ENDBRANCH  27  28
ENDBRANCH  26  27
ENDBRANCH  25  26
ENDBRANCH   1  25
TORSDOF 18
ENDMDL
MODEL 3
REMARK VINA RESULT:     -10.9      4.989      9.903
REMARK SMILES CC1(C)NC(=O)N(CCC(=O)N2CCC[C@H]2C(=O)OCCOCCOC(=O)c2ccc(-c3c4nc(c(-c5c(F)cccc5F)c5ccc([nH]5)c(-c5c(F)cccc5F)c5nc(c(-c6c(F)cccc6F)c6ccc3[nH]6)C=C5)C=C4)cc2)C1=O
REMARK SMILES IDX 21 1 20 2 19 3 17 4 18 5 16 6 12 7 13 8 14 9 15 10 10 11
REMARK SMILES IDX 11 12 9 13 8 14 7 15 1 16 2 17 3 18 4 19 82 20 5 21 83 23
REMARK SMILES IDX 6 24 22 25 23 26 24 27 25 28 26 29 27 30 28 31 29 32 81 33
REMARK SMILES IDX 30 34 80 35 31 36 32 37 33 38 74 39 34 40 79 41 73 42 75 43
REMARK SMILES IDX 35 44 78 45 72 46 71 47 36 49 62 50 45 51 61 52 46 53 49 54
REMARK SMILES IDX 60 55 76 56 47 57 48 58 59 60 77 61 50 62 37 63 38 64 43 65
REMARK SMILES IDX 39 66 40 67 42 68 44 69 41 70 63 71 64 72 69 73 65 74 66 75
REMARK SMILES IDX 68 76 70 77 67 78 51 79 52 80 57 81 53 82 54 83 56 84 58 85
REMARK SMILES IDX 55 86
REMARK H PARENT 4 22 75 48 49 59
REMARK Flexibility Score: inf
ROOT
ATOM      1  C   UNL A   1      37.062  23.303  24.789  1.00  0.00     0.202 C 
ENDROOT
BRANCH   1   2
ATOM      2  C   UNL A   1      36.010  23.023  23.694  1.00  0.00     0.261 C 
BRANCH   2   3
ATOM      3  O   UNL A   1      35.223  24.096  23.109  1.00  0.00    -0.462 OA
BRANCH   3   4
ATOM      4  C   UNL A   1      33.954  23.828  22.748  1.00  0.00     0.328 C 
ATOM      5  O   UNL A   1      33.630  23.363  21.671  1.00  0.00    -0.250 OA
BRANCH   4   6
ATOM      6  C   UNL A   1      32.857  24.123  23.740  1.00  0.00     0.195 C 
ATOM      7  N   UNL A   1      32.720  23.047  24.701  1.00  0.00    -0.329 N 
ATOM      8  C   UNL A   1      33.146  23.550  25.999  1.00  0.00     0.120 C 
ATOM      9  C   UNL A   1      32.714  25.006  25.975  1.00  0.00     0.024 C 
ATOM     10  C   UNL A   1      32.944  25.427  24.527  1.00  0.00     0.039 C 
BRANCH   7  11
ATOM     11  C   UNL A   1      32.059  21.848  24.563  1.00  0.00     0.225 C 
ATOM     12  O   UNL A   1      31.115  21.615  25.336  1.00  0.00    -0.275 OA
BRANCH  11  13
ATOM     13  C   UNL A   1      32.546  20.654  23.706  1.00  0.00     0.122 C 
BRANCH  13  14
ATOM     14  C   UNL A   1      32.160  19.166  23.543  1.00  0.00     0.140 C 
BRANCH  14  15
ATOM     15  N   UNL A   1      32.691  18.095  24.366  1.00  0.00    -0.262 N 
ATOM     16  C   UNL A   1      35.141  15.618  25.103  1.00  0.00     0.045 C 
ATOM     17  C   UNL A   1      33.689  16.068  25.122  1.00  0.00     0.115 C 
ATOM     18  C   UNL A   1      32.786  14.845  25.258  1.00  0.00     0.045 C 
ATOM     19  N   UNL A   1      33.423  17.021  26.176  1.00  0.00    -0.324 N 
ATOM     20  C   UNL A   1      33.344  16.969  23.906  1.00  0.00     0.255 C 
ATOM     21  C   UNL A   1      32.875  18.193  25.707  1.00  0.00     0.325 C 
ATOM     22  H   UNL A   1      33.613  16.849  27.126  1.00  0.00     0.166 HD
ATOM     23  O   UNL A   1      33.654  16.724  22.746  1.00  0.00    -0.272 OA
ATOM     24  O   UNL A   1      32.593  19.142  26.420  1.00  0.00    -0.248 OA
ENDBRANCH  14  15
ENDBRANCH  13  14
ENDBRANCH  11  13
ENDBRANCH   7  11
ENDBRANCH   4   6
ENDBRANCH   3   4
ENDBRANCH   2   3
ENDBRANCH   1   2
BRANCH   1  25
ATOM     25  O   UNL A   1      37.602  22.167  25.435  1.00  0.00    -0.374 OA
BRANCH  25  26
ATOM     26  C   UNL A   1      37.514  20.904  24.750  1.00  0.00     0.202 C 
BRANCH  26  27
ATOM     27  C   UNL A   1      38.516  19.795  25.145  1.00  0.00     0.261 C 
BRANCH  27  28
ATOM     28  O   UNL A   1      39.278  20.043  26.326  1.00  0.00    -0.460 OA
BRANCH  28  29
ATOM     29  C   UNL A   1      40.601  19.825  26.223  1.00  0.00     0.338 C 
ATOM     30  O   UNL A   1      41.174  18.908  25.659  1.00  0.00    -0.246 OA
BRANCH  29  31
ATOM     31  C   UNL A   1      41.220  21.090  26.637  1.00  0.00     0.060 A 
ATOM     32  C   UNL A   1      41.304  21.347  28.011  1.00  0.00     0.016 A 
ATOM     33  C   UNL A   1      41.825  21.929  25.695  1.00  0.00     0.016 A 
ATOM     34  C   UNL A   1      41.946  22.493  28.449  1.00  0.00     0.010 A 
ATOM     35  C   UNL A   1      42.452  23.087  26.133  1.00  0.00     0.010 A 
ATOM     36  C   UNL A   1      42.461  23.390  27.506  1.00  0.00    -0.014 A 
BRANCH  36  37
ATOM     37  C   UNL A   1      42.726  24.771  27.935  1.00  0.00     0.031 A 
ATOM     38  C   UNL A   1      44.167  25.176  28.062  1.00  0.00     0.074 A 
ATOM     39  C   UNL A   1      41.721  25.632  28.144  1.00  0.00     0.049 A 
ATOM     40  N   UNL A   1      44.679  26.325  28.408  1.00  0.00    -0.248 NA
ATOM     41  C   UNL A   1      45.167  24.136  27.757  1.00  0.00     0.031 C 
ATOM     42  C   UNL A   1      40.300  25.327  27.991  1.00  0.00     0.029 A 
ATOM     43  N   UNL A   1      41.751  26.945  28.522  1.00  0.00    -0.354 N 
ATOM     44  C   UNL A   1      46.056  26.143  28.363  1.00  0.00     0.074 A 
ATOM     45  C   UNL A   1      46.302  24.766  28.006  1.00  0.00     0.031 C 
ATOM     46  C   UNL A   1      39.588  26.434  28.272  1.00  0.00     0.029 A 
ATOM     47  C   UNL A   1      40.506  27.504  28.650  1.00  0.00     0.049 A 
ATOM     48  H   UNL A   1      42.586  27.441  28.686  1.00  0.00     0.167 HD
ATOM     49  C   UNL A   1      47.029  27.055  28.588  1.00  0.00     0.037 A 
ATOM     50  C   UNL A   1      40.164  28.745  29.044  1.00  0.00     0.037 A 
ATOM     51  C   UNL A   1      46.755  28.415  28.959  1.00  0.00     0.049 A 
ATOM     52  C   UNL A   1      41.265  29.717  29.382  1.00  0.00     0.074 A 
ATOM     53  C   UNL A   1      47.647  29.437  29.219  1.00  0.00     0.029 A 
ATOM     54  N   UNL A   1      45.479  28.937  29.136  1.00  0.00    -0.354 N 
ATOM     55  N   UNL A   1      42.566  29.552  29.317  1.00  0.00    -0.248 NA
ATOM     56  C   UNL A   1      40.851  31.047  29.843  1.00  0.00     0.031 C 
ATOM     57  C   UNL A   1      46.912  30.560  29.613  1.00  0.00     0.029 A 
ATOM     58  C   UNL A   1      45.561  30.258  29.532  1.00  0.00     0.049 A 
ATOM     59  H   UNL A   1      44.642  28.438  28.999  1.00  0.00     0.167 HD
ATOM     60  C   UNL A   1      43.126  30.766  29.694  1.00  0.00     0.074 A 
ATOM     61  C   UNL A   1      42.019  31.658  29.976  1.00  0.00     0.031 C 
ATOM     62  C   UNL A   1      44.433  31.117  29.798  1.00  0.00     0.037 A 
BRANCH  49  63
ATOM     63  C   UNL A   1      48.450  26.584  28.483  1.00  0.00     0.057 A 
ATOM     64  C   UNL A   1      49.146  26.058  29.582  1.00  0.00     0.134 A 
ATOM     65  C   UNL A   1      49.142  26.680  27.271  1.00  0.00     0.134 A 
ATOM     66  F   UNL A   1      48.552  25.962  30.781  1.00  0.00    -0.206 F 
ATOM     67  C   UNL A   1      50.487  25.680  29.486  1.00  0.00     0.040 A 
ATOM     68  C   UNL A   1      50.473  26.275  27.154  1.00  0.00     0.040 A 
ATOM     69  F   UNL A   1      48.541  27.179  26.180  1.00  0.00    -0.206 F 
ATOM     70  C   UNL A   1      51.152  25.783  28.266  1.00  0.00     0.006 A 
ENDBRANCH  49  63
BRANCH  50  71
ATOM     71  C   UNL A   1      38.735  29.135  29.132  1.00  0.00     0.057 A 
ATOM     72  C   UNL A   1      38.041  29.597  28.008  1.00  0.00     0.134 A 
ATOM     73  C   UNL A   1      38.028  29.059  30.338  1.00  0.00     0.134 A 
ATOM     74  F   UNL A   1      38.666  29.706  26.827  1.00  0.00    -0.206 F 
ATOM     75  C   UNL A   1      36.703  29.988  28.084  1.00  0.00     0.040 A 
ATOM     76  C   UNL A   1      36.682  29.421  30.422  1.00  0.00     0.040 A 
ATOM     77  F   UNL A   1      38.630  28.617  31.452  1.00  0.00    -0.206 F 
ATOM     78  C   UNL A   1      36.018  29.896  29.293  1.00  0.00     0.006 A 
ENDBRANCH  50  71
BRANCH  62  79
ATOM     79  C   UNL A   1      44.727  32.536  30.190  1.00  0.00     0.057 A 
ATOM     80  C   UNL A   1      44.828  33.563  29.243  1.00  0.00     0.134 A 
ATOM     81  C   UNL A   1      44.866  32.883  31.540  1.00  0.00     0.134 A 
ATOM     82  F   UNL A   1      44.715  33.295  27.933  1.00  0.00    -0.206 F 
ATOM     83  C   UNL A   1      45.086  34.880  29.624  1.00  0.00     0.040 A 
ATOM     84  C   UNL A   1      45.091  34.202  31.935  1.00  0.00     0.040 A 
ATOM     85  F   UNL A   1      44.766  31.949  32.498  1.00  0.00    -0.206 F 
ATOM     86  C   UNL A   1      45.210  35.203  30.974  1.00  0.00     0.006 A 
ENDBRANCH  62  79
ENDBRANCH  36  37
ENDBRANCH  29  31
ENDBRANCH  28  29
ENDBRANCH  27  28
ENDBRANCH  26  27
ENDBRANCH  25  26
ENDBRANCH   1  25
TORSDOF 18
ENDMDL
