MODEL 1
REMARK VINA RESULT:     -11.1      0.000      0.000
REMARK SMILES O=C(OCCOCCOC(=O)c1cncnc1N1CC[C@H]2[NH2+]CCC[C@]2(CO)C1)c1ccc(-c2c3nc(c(-c4c(F)cccc4F)c4ccc([nH]4)c(-c4c(F)cccc4F)c4nc(c(-c5c(F)cccc5F)c5ccc2[nH]5)C=C4)C=C3)cc1
REMARK SMILES IDX 7 1 6 2 5 3 4 4 3 5 2 6 1 7 30 8 31 9 83 10 32 11 82 12
REMARK SMILES IDX 33 13 34 14 35 15 76 16 36 17 81 18 75 19 77 20 37 21 80 22
REMARK SMILES IDX 74 23 73 24 38 26 64 27 47 28 63 29 48 30 51 31 62 32 78 33
REMARK SMILES IDX 49 34 50 35 61 37 79 38 52 39 39 40 40 41 45 42 41 43 42 44
REMARK SMILES IDX 44 45 46 46 43 47 65 48 66 49 71 50 67 51 68 52 70 53 72 54
REMARK SMILES IDX 69 55 53 56 54 57 59 58 55 59 56 60 58 61 60 62 57 63 8 64
REMARK SMILES IDX 9 65 10 66 11 67 12 68 13 69 17 70 14 71 16 72 15 73 18 74
REMARK SMILES IDX 19 75 29 76 20 77 26 78 21 79 25 80 22 81 24 82 23 83 27 86
REMARK SMILES IDX 28 87
REMARK H PARENT 77 25 51 36 22 84 22 85 28 88
REMARK Flexibility Score: inf
ROOT
ATOM      1  C   UNL A   1      38.481  21.832  25.761  1.00  0.00     0.202 C 
ENDROOT
BRANCH   1   2
ATOM      2  O   UNL A   1      39.607  21.780  26.619  1.00  0.00    -0.374 OA
BRANCH   2   3
ATOM      3  C   UNL A   1      40.436  20.636  26.490  1.00  0.00     0.202 C 
BRANCH   3   4
ATOM      4  C   UNL A   1      41.895  20.953  26.149  1.00  0.00     0.261 C 
BRANCH   4   5
ATOM      5  O   UNL A   1      42.030  22.188  25.422  1.00  0.00    -0.460 OA
BRANCH   5   6
ATOM      6  C   UNL A   1      42.950  23.133  25.764  1.00  0.00     0.338 C 
ATOM      7  O   UNL A   1      44.130  23.006  25.459  1.00  0.00    -0.246 OA
BRANCH   6   8
ATOM      8  C   UNL A   1      42.519  24.314  26.561  1.00  0.00     0.060 A 
ATOM      9  C   UNL A   1      41.710  24.162  27.680  1.00  0.00     0.016 A 
ATOM     10  C   UNL A   1      42.996  25.591  26.266  1.00  0.00     0.016 A 
ATOM     11  C   UNL A   1      41.242  25.228  28.415  1.00  0.00     0.010 A 
ATOM     12  C   UNL A   1      42.681  26.661  27.115  1.00  0.00     0.010 A 
ATOM     13  C   UNL A   1      41.818  26.471  28.211  1.00  0.00    -0.014 A 
BRANCH  13  14
ATOM     14  C   UNL A   1      41.593  27.513  29.231  1.00  0.00     0.031 A 
ATOM     15  C   UNL A   1      42.473  27.562  30.430  1.00  0.00     0.074 A 
ATOM     16  C   UNL A   1      40.595  28.405  29.049  1.00  0.00     0.049 A 
ATOM     17  N   UNL A   1      42.297  28.204  31.551  1.00  0.00    -0.248 NA
ATOM     18  C   UNL A   1      43.712  26.770  30.368  1.00  0.00     0.031 C 
ATOM     19  C   UNL A   1      39.738  28.498  27.859  1.00  0.00     0.029 A 
ATOM     20  N   UNL A   1      40.128  29.408  29.858  1.00  0.00    -0.354 N 
ATOM     21  C   UNL A   1      43.360  27.834  32.359  1.00  0.00     0.074 A 
ATOM     22  C   UNL A   1      44.196  26.937  31.590  1.00  0.00     0.031 C 
ATOM     23  C   UNL A   1      38.878  29.516  28.004  1.00  0.00     0.029 A 
ATOM     24  C   UNL A   1      39.033  30.061  29.341  1.00  0.00     0.049 A 
ATOM     25  H   UNL A   1      40.538  29.639  30.723  1.00  0.00     0.167 HD
ATOM     26  C   UNL A   1      43.584  28.200  33.641  1.00  0.00     0.037 A 
ATOM     27  C   UNL A   1      38.194  30.941  29.915  1.00  0.00     0.037 A 
ATOM     28  C   UNL A   1      42.738  29.118  34.355  1.00  0.00     0.049 A 
ATOM     29  C   UNL A   1      38.435  31.286  31.356  1.00  0.00     0.074 A 
ATOM     30  C   UNL A   1      42.846  29.561  35.660  1.00  0.00     0.029 A 
ATOM     31  N   UNL A   1      41.622  29.741  33.807  1.00  0.00    -0.354 N 
ATOM     32  N   UNL A   1      39.401  30.884  32.147  1.00  0.00    -0.248 NA
ATOM     33  C   UNL A   1      37.456  32.170  31.996  1.00  0.00     0.031 C 
ATOM     34  C   UNL A   1      41.772  30.422  35.912  1.00  0.00     0.029 A 
ATOM     35  C   UNL A   1      41.019  30.549  34.754  1.00  0.00     0.049 A 
ATOM     36  H   UNL A   1      41.307  29.624  32.882  1.00  0.00     0.167 HD
ATOM     37  C   UNL A   1      39.150  31.468  33.378  1.00  0.00     0.074 A 
ATOM     38  C   UNL A   1      37.954  32.273  33.219  1.00  0.00     0.031 C 
ATOM     39  C   UNL A   1      39.835  31.343  34.541  1.00  0.00     0.037 A 
BRANCH  26  40
ATOM     40  C   UNL A   1      44.724  27.539  34.353  1.00  0.00     0.057 A 
ATOM     41  C   UNL A   1      44.607  26.281  34.957  1.00  0.00     0.134 A 
ATOM     42  C   UNL A   1      45.958  28.194  34.458  1.00  0.00     0.134 A 
ATOM     43  F   UNL A   1      43.443  25.614  34.918  1.00  0.00    -0.206 F 
ATOM     44  C   UNL A   1      45.668  25.710  35.663  1.00  0.00     0.040 A 
ATOM     45  C   UNL A   1      47.033  27.623  35.141  1.00  0.00     0.040 A 
ATOM     46  F   UNL A   1      46.135  29.405  33.908  1.00  0.00    -0.206 F 
ATOM     47  C   UNL A   1      46.887  26.381  35.752  1.00  0.00     0.006 A 
ENDBRANCH  26  40
BRANCH  27  48
ATOM     48  C   UNL A   1      37.019  31.468  29.172  1.00  0.00     0.057 A 
ATOM     49  C   UNL A   1      37.006  32.771  28.665  1.00  0.00     0.134 A 
ATOM     50  C   UNL A   1      35.875  30.685  28.957  1.00  0.00     0.134 A 
ATOM     51  F   UNL A   1      38.061  33.578  28.851  1.00  0.00    -0.206 F 
ATOM     52  C   UNL A   1      35.897  33.282  27.987  1.00  0.00     0.040 A 
ATOM     53  C   UNL A   1      34.772  31.173  28.255  1.00  0.00     0.040 A 
ATOM     54  F   UNL A   1      35.818  29.424  29.412  1.00  0.00    -0.206 F 
ATOM     55  C   UNL A   1      34.777  32.480  27.775  1.00  0.00     0.006 A 
ENDBRANCH  27  48
BRANCH  39  56
ATOM     56  C   UNL A   1      39.314  32.118  35.709  1.00  0.00     0.057 A 
ATOM     57  C   UNL A   1      39.700  33.443  35.941  1.00  0.00     0.134 A 
ATOM     58  C   UNL A   1      38.374  31.548  36.575  1.00  0.00     0.134 A 
ATOM     59  F   UNL A   1      40.613  34.033  35.155  1.00  0.00    -0.206 F 
ATOM     60  C   UNL A   1      39.173  34.174  37.004  1.00  0.00     0.040 A 
ATOM     61  C   UNL A   1      37.822  32.277  37.627  1.00  0.00     0.040 A 
ATOM     62  F   UNL A   1      37.965  30.282  36.399  1.00  0.00    -0.206 F 
ATOM     63  C   UNL A   1      38.223  33.593  37.843  1.00  0.00     0.006 A 
ENDBRANCH  39  56
ENDBRANCH  13  14
ENDBRANCH   6   8
ENDBRANCH   5   6
ENDBRANCH   4   5
ENDBRANCH   3   4
ENDBRANCH   2   3
ENDBRANCH   1   2
BRANCH   1  64
ATOM     64  C   UNL A   1      38.020  23.282  25.656  1.00  0.00     0.261 C 
BRANCH  64  65
ATOM     65  O   UNL A   1      36.586  23.318  25.527  1.00  0.00    -0.460 OA
BRANCH  65  66
ATOM     66  C   UNL A   1      36.048  23.153  24.279  1.00  0.00     0.343 C 
ATOM     67  O   UNL A   1      36.609  23.290  23.216  1.00  0.00    -0.246 OA
BRANCH  66  68
ATOM     68  C   UNL A   1      34.650  22.731  24.489  1.00  0.00     0.120 A 
ATOM     69  C   UNL A   1      34.395  21.369  24.531  1.00  0.00     0.132 A 
ATOM     70  C   UNL A   1      33.541  23.568  24.568  1.00  0.00     0.146 A 
ATOM     71  N   UNL A   1      33.167  20.826  24.630  1.00  0.00    -0.244 NA
ATOM     72  N   UNL A   1      32.293  23.042  24.650  1.00  0.00    -0.219 NA
ATOM     73  C   UNL A   1      32.168  21.707  24.684  1.00  0.00     0.224 A 
BRANCH  70  74
ATOM     74  N   UNL A   1      33.596  24.977  24.541  1.00  0.00    -0.355 N 
ATOM     75  C   UNL A   1      33.164  25.532  23.258  1.00  0.00     0.124 C 
ATOM     76  C   UNL A   1      32.974  25.556  25.762  1.00  0.00     0.133 C 
ATOM     77  C   UNL A   1      33.344  27.054  23.198  1.00  0.00     0.087 C 
ATOM     78  C   UNL A   1      32.341  26.965  25.548  1.00  0.00     0.063 C 
ATOM     79  C   UNL A   1      33.229  27.751  24.562  1.00  0.00     0.194 C 
ATOM     80  C   UNL A   1      32.338  27.730  26.903  1.00  0.00     0.023 C 
ATOM     81  N   UNL A   1      32.767  29.141  24.374  1.00  0.00    -0.343 N 
ATOM     82  C   UNL A   1      31.933  29.197  26.730  1.00  0.00     0.062 C 
ATOM     83  C   UNL A   1      32.752  29.885  25.639  1.00  0.00     0.260 C 
ATOM     84  H   UNL A   1      31.824  29.126  23.989  1.00  0.00     0.346 HD
ATOM     85  H   UNL A   1      33.415  29.607  23.740  1.00  0.00     0.346 HD
BRANCH  78  86
ATOM     86  C   UNL A   1      30.876  26.854  25.037  1.00  0.00     0.171 C 
BRANCH  86  87
ATOM     87  O   UNL A   1      30.387  25.521  25.153  1.00  0.00    -0.395 OA
ATOM     88  H   UNL A   1      29.756  25.345  24.437  1.00  0.00     0.210 HD
ENDBRANCH  86  87
ENDBRANCH  78  86
ENDBRANCH  70  74
ENDBRANCH  66  68
ENDBRANCH  65  66
ENDBRANCH  64  65
ENDBRANCH   1  64
TORSDOF 17
ENDMDL
MODEL 2
REMARK VINA RESULT:     -11.1      4.557      9.463
REMARK SMILES O=C(OCCOCCOC(=O)c1cncnc1N1CC[C@H]2[NH2+]CCC[C@]2(CO)C1)c1ccc(-c2c3nc(c(-c4c(F)cccc4F)c4ccc([nH]4)c(-c4c(F)cccc4F)c4nc(c(-c5c(F)cccc5F)c5ccc2[nH]5)C=C4)C=C3)cc1
REMARK SMILES IDX 7 1 6 2 5 3 4 4 3 5 2 6 1 7 30 8 31 9 83 10 32 11 82 12
REMARK SMILES IDX 33 13 34 14 35 15 76 16 36 17 81 18 75 19 77 20 37 21 80 22
REMARK SMILES IDX 74 23 73 24 38 26 64 27 47 28 63 29 48 30 51 31 62 32 78 33
REMARK SMILES IDX 49 34 50 35 61 37 79 38 52 39 39 40 40 41 45 42 41 43 42 44
REMARK SMILES IDX 44 45 46 46 43 47 65 48 66 49 71 50 67 51 68 52 70 53 72 54
REMARK SMILES IDX 69 55 53 56 54 57 59 58 55 59 56 60 58 61 60 62 57 63 8 64
REMARK SMILES IDX 9 65 10 66 11 67 12 68 13 69 17 70 14 71 16 72 15 73 18 74
REMARK SMILES IDX 19 75 29 76 20 77 26 78 21 79 25 80 22 81 24 82 23 83 27 86
REMARK SMILES IDX 28 87
REMARK H PARENT 77 25 51 36 22 84 22 85 28 88
REMARK Flexibility Score: inf
ROOT
ATOM      1  C   UNL A   1      34.262  31.057  27.726  1.00  0.00     0.202 C 
ENDROOT
BRANCH   1   2
ATOM      2  O   UNL A   1      34.555  32.436  27.583  1.00  0.00    -0.374 OA
BRANCH   2   3
ATOM      3  C   UNL A   1      33.726  33.327  28.311  1.00  0.00     0.202 C 
BRANCH   3   4
ATOM      4  C   UNL A   1      34.276  33.712  29.689  1.00  0.00     0.261 C 
BRANCH   4   5
ATOM      5  O   UNL A   1      34.429  32.571  30.554  1.00  0.00    -0.460 OA
BRANCH   5   6
ATOM      6  C   UNL A   1      35.507  32.424  31.374  1.00  0.00     0.338 C 
ATOM      7  O   UNL A   1      35.556  32.986  32.461  1.00  0.00    -0.246 OA
BRANCH   6   8
ATOM      8  C   UNL A   1      36.661  31.601  30.918  1.00  0.00     0.060 A 
ATOM      9  C   UNL A   1      37.208  31.780  29.653  1.00  0.00     0.016 A 
ATOM     10  C   UNL A   1      37.287  30.703  31.781  1.00  0.00     0.016 A 
ATOM     11  C   UNL A   1      38.240  31.008  29.169  1.00  0.00     0.010 A 
ATOM     12  C   UNL A   1      38.454  30.044  31.368  1.00  0.00     0.010 A 
ATOM     13  C   UNL A   1      38.946  30.219  30.061  1.00  0.00    -0.014 A 
BRANCH  13  14
ATOM     14  C   UNL A   1      40.255  29.691  29.631  1.00  0.00     0.031 A 
ATOM     15  C   UNL A   1      41.430  30.604  29.589  1.00  0.00     0.074 A 
ATOM     16  C   UNL A   1      40.359  28.388  29.292  1.00  0.00     0.049 A 
ATOM     17  N   UNL A   1      42.583  30.430  29.006  1.00  0.00    -0.248 NA
ATOM     18  C   UNL A   1      41.285  31.894  30.283  1.00  0.00     0.031 C 
ATOM     19  C   UNL A   1      39.285  27.390  29.393  1.00  0.00     0.029 A 
ATOM     20  N   UNL A   1      41.416  27.671  28.797  1.00  0.00    -0.354 N 
ATOM     21  C   UNL A   1      43.274  31.616  29.192  1.00  0.00     0.074 A 
ATOM     22  C   UNL A   1      42.426  32.493  29.971  1.00  0.00     0.031 C 
ATOM     23  C   UNL A   1      39.746  26.194  29.004  1.00  0.00     0.029 A 
ATOM     24  C   UNL A   1      41.100  26.363  28.506  1.00  0.00     0.049 A 
ATOM     25  H   UNL A   1      42.313  28.053  28.664  1.00  0.00     0.167 HD
ATOM     26  C   UNL A   1      44.499  31.937  28.719  1.00  0.00     0.037 A 
ATOM     27  C   UNL A   1      41.796  25.429  27.834  1.00  0.00     0.037 A 
ATOM     28  C   UNL A   1      45.317  31.020  27.972  1.00  0.00     0.049 A 
ATOM     29  C   UNL A   1      43.129  25.830  27.273  1.00  0.00     0.074 A 
ATOM     30  C   UNL A   1      46.570  31.223  27.425  1.00  0.00     0.029 A 
ATOM     31  N   UNL A   1      44.954  29.712  27.675  1.00  0.00    -0.354 N 
ATOM     32  N   UNL A   1      43.757  26.976  27.388  1.00  0.00    -0.248 NA
ATOM     33  C   UNL A   1      43.830  24.833  26.460  1.00  0.00     0.031 C 
ATOM     34  C   UNL A   1      46.947  30.050  26.763  1.00  0.00     0.029 A 
ATOM     35  C   UNL A   1      45.949  29.101  26.934  1.00  0.00     0.049 A 
ATOM     36  H   UNL A   1      44.112  29.282  27.951  1.00  0.00     0.167 HD
ATOM     37  C   UNL A   1      44.932  26.838  26.665  1.00  0.00     0.074 A 
ATOM     38  C   UNL A   1      44.937  25.486  26.139  1.00  0.00     0.031 C 
ATOM     39  C   UNL A   1      45.912  27.746  26.443  1.00  0.00     0.037 A 
BRANCH  26  40
ATOM     40  C   UNL A   1      44.966  33.345  28.925  1.00  0.00     0.057 A 
ATOM     41  C   UNL A   1      44.634  34.384  28.047  1.00  0.00     0.134 A 
ATOM     42  C   UNL A   1      45.790  33.657  30.014  1.00  0.00     0.134 A 
ATOM     43  F   UNL A   1      43.873  34.146  26.968  1.00  0.00    -0.206 F 
ATOM     44  C   UNL A   1      45.128  35.678  28.230  1.00  0.00     0.040 A 
ATOM     45  C   UNL A   1      46.270  34.952  30.220  1.00  0.00     0.040 A 
ATOM     46  F   UNL A   1      46.152  32.707  30.889  1.00  0.00    -0.206 F 
ATOM     47  C   UNL A   1      45.945  35.965  29.322  1.00  0.00     0.006 A 
ENDBRANCH  26  40
BRANCH  27  48
ATOM     48  C   UNL A   1      41.213  24.086  27.577  1.00  0.00     0.057 A 
ATOM     49  C   UNL A   1      41.676  22.952  28.253  1.00  0.00     0.134 A 
ATOM     50  C   UNL A   1      40.184  23.898  26.643  1.00  0.00     0.134 A 
ATOM     51  F   UNL A   1      42.671  23.060  29.146  1.00  0.00    -0.206 F 
ATOM     52  C   UNL A   1      41.151  21.683  28.000  1.00  0.00     0.040 A 
ATOM     53  C   UNL A   1      39.629  22.640  26.403  1.00  0.00     0.040 A 
ATOM     54  F   UNL A   1      39.687  24.940  25.960  1.00  0.00    -0.206 F 
ATOM     55  C   UNL A   1      40.120  21.524  27.076  1.00  0.00     0.006 A 
ENDBRANCH  27  48
BRANCH  39  56
ATOM     56  C   UNL A   1      47.074  27.286  25.621  1.00  0.00     0.057 A 
ATOM     57  C   UNL A   1      47.162  27.570  24.254  1.00  0.00     0.134 A 
ATOM     58  C   UNL A   1      48.139  26.603  26.219  1.00  0.00     0.134 A 
ATOM     59  F   UNL A   1      46.162  28.204  23.624  1.00  0.00    -0.206 F 
ATOM     60  C   UNL A   1      48.272  27.180  23.505  1.00  0.00     0.040 A 
ATOM     61  C   UNL A   1      49.264  26.230  25.486  1.00  0.00     0.040 A 
ATOM     62  F   UNL A   1      48.110  26.307  27.528  1.00  0.00    -0.206 F 
ATOM     63  C   UNL A   1      49.331  26.518  24.125  1.00  0.00     0.006 A 
ENDBRANCH  39  56
ENDBRANCH  13  14
ENDBRANCH   6   8
ENDBRANCH   5   6
ENDBRANCH   4   5
ENDBRANCH   3   4
ENDBRANCH   2   3
ENDBRANCH   1   2
BRANCH   1  64
ATOM     64  C   UNL A   1      32.881  30.793  27.135  1.00  0.00     0.261 C 
BRANCH  64  65
ATOM     65  O   UNL A   1      32.914  29.572  26.372  1.00  0.00    -0.460 OA
BRANCH  65  66
ATOM     66  C   UNL A   1      31.884  28.685  26.531  1.00  0.00     0.343 C 
ATOM     67  O   UNL A   1      31.430  28.268  27.572  1.00  0.00    -0.246 OA
BRANCH  66  68
ATOM     68  C   UNL A   1      31.403  28.370  25.172  1.00  0.00     0.120 A 
ATOM     69  C   UNL A   1      30.960  29.427  24.391  1.00  0.00     0.132 A 
ATOM     70  C   UNL A   1      31.272  27.099  24.620  1.00  0.00     0.146 A 
ATOM     71  N   UNL A   1      30.414  29.294  23.168  1.00  0.00    -0.244 NA
ATOM     72  N   UNL A   1      30.708  26.941  23.396  1.00  0.00    -0.219 NA
ATOM     73  C   UNL A   1      30.317  28.038  22.731  1.00  0.00     0.224 A 
BRANCH  70  74
ATOM     74  N   UNL A   1      31.663  25.904  25.258  1.00  0.00    -0.355 N 
ATOM     75  C   UNL A   1      30.530  25.177  25.833  1.00  0.00     0.124 C 
ATOM     76  C   UNL A   1      32.590  25.122  24.396  1.00  0.00     0.133 C 
ATOM     77  C   UNL A   1      30.980  23.945  26.627  1.00  0.00     0.087 C 
ATOM     78  C   UNL A   1      32.517  23.579  24.617  1.00  0.00     0.063 C 
ATOM     79  C   UNL A   1      32.286  23.315  26.119  1.00  0.00     0.194 C 
ATOM     80  C   UNL A   1      33.884  22.946  24.226  1.00  0.00     0.023 C 
ATOM     81  N   UNL A   1      32.306  21.876  26.447  1.00  0.00    -0.343 N 
ATOM     82  C   UNL A   1      33.963  21.468  24.620  1.00  0.00     0.062 C 
ATOM     83  C   UNL A   1      33.585  21.252  26.084  1.00  0.00     0.260 C 
ATOM     84  H   UNL A   1      31.556  21.411  25.937  1.00  0.00     0.346 HD
ATOM     85  H   UNL A   1      32.180  21.778  27.454  1.00  0.00     0.346 HD
BRANCH  78  86
ATOM     86  C   UNL A   1      31.403  22.936  23.744  1.00  0.00     0.171 C 
BRANCH  86  87
ATOM     87  O   UNL A   1      30.934  23.844  22.751  1.00  0.00    -0.395 OA
ATOM     88  H   UNL A   1      31.035  24.754  23.071  1.00  0.00     0.210 HD
ENDBRANCH  86  87
ENDBRANCH  78  86
ENDBRANCH  70  74
ENDBRANCH  66  68
ENDBRANCH  65  66
ENDBRANCH  64  65
ENDBRANCH   1  64
TORSDOF 17
ENDMDL
MODEL 3
REMARK VINA RESULT:     -11.1      2.783      7.535
REMARK SMILES O=C(OCCOCCOC(=O)c1cncnc1N1CC[C@H]2[NH2+]CCC[C@]2(CO)C1)c1ccc(-c2c3nc(c(-c4c(F)cccc4F)c4ccc([nH]4)c(-c4c(F)cccc4F)c4nc(c(-c5c(F)cccc5F)c5ccc2[nH]5)C=C4)C=C3)cc1
REMARK SMILES IDX 7 1 6 2 5 3 4 4 3 5 2 6 1 7 30 8 31 9 83 10 32 11 82 12
REMARK SMILES IDX 33 13 34 14 35 15 76 16 36 17 81 18 75 19 77 20 37 21 80 22
REMARK SMILES IDX 74 23 73 24 38 26 64 27 47 28 63 29 48 30 51 31 62 32 78 33
REMARK SMILES IDX 49 34 50 35 61 37 79 38 52 39 39 40 40 41 45 42 41 43 42 44
REMARK SMILES IDX 44 45 46 46 43 47 65 48 66 49 71 50 67 51 68 52 70 53 72 54
REMARK SMILES IDX 69 55 53 56 54 57 59 58 55 59 56 60 58 61 60 62 57 63 8 64
REMARK SMILES IDX 9 65 10 66 11 67 12 68 13 69 17 70 14 71 16 72 15 73 18 74
REMARK SMILES IDX 19 75 29 76 20 77 26 78 21 79 25 80 22 81 24 82 23 83 27 86
REMARK SMILES IDX 28 87
REMARK H PARENT 77 25 51 36 22 84 22 85 28 88
REMARK Flexibility Score: inf
ROOT
ATOM      1  C   UNL A   1      33.497  29.153  24.387  1.00  0.00     0.202 C 
ENDROOT
BRANCH   1   2
ATOM      2  O   UNL A   1      32.684  28.448  25.309  1.00  0.00    -0.374 OA
BRANCH   2   3
ATOM      3  C   UNL A   1      31.466  29.078  25.674  1.00  0.00     0.202 C 
BRANCH   3   4
ATOM      4  C   UNL A   1      31.593  30.582  25.938  1.00  0.00     0.261 C 
BRANCH   4   5
ATOM      5  O   UNL A   1      32.124  30.864  27.247  1.00  0.00    -0.460 OA
BRANCH   5   6
ATOM      6  C   UNL A   1      33.077  31.815  27.451  1.00  0.00     0.338 C 
ATOM      7  O   UNL A   1      32.848  32.998  27.231  1.00  0.00    -0.246 OA
BRANCH   6   8
ATOM      8  C   UNL A   1      34.433  31.401  27.906  1.00  0.00     0.060 A 
ATOM      9  C   UNL A   1      35.388  32.348  28.255  1.00  0.00     0.016 A 
ATOM     10  C   UNL A   1      34.748  30.055  28.090  1.00  0.00     0.016 A 
ATOM     11  C   UNL A   1      36.671  32.014  28.629  1.00  0.00     0.010 A 
ATOM     12  C   UNL A   1      35.985  29.703  28.648  1.00  0.00     0.010 A 
ATOM     13  C   UNL A   1      36.941  30.693  28.942  1.00  0.00    -0.014 A 
BRANCH  13  14
ATOM     14  C   UNL A   1      38.182  30.400  29.686  1.00  0.00     0.031 A 
ATOM     15  C   UNL A   1      39.229  29.554  29.051  1.00  0.00     0.074 A 
ATOM     16  C   UNL A   1      38.342  30.913  30.925  1.00  0.00     0.049 A 
ATOM     17  N   UNL A   1      40.251  28.963  29.604  1.00  0.00    -0.248 NA
ATOM     18  C   UNL A   1      39.103  29.328  27.602  1.00  0.00     0.031 C 
ATOM     19  C   UNL A   1      37.413  31.834  31.595  1.00  0.00     0.029 A 
ATOM     20  N   UNL A   1      39.341  30.741  31.846  1.00  0.00    -0.354 N 
ATOM     21  C   UNL A   1      40.847  28.230  28.589  1.00  0.00     0.074 A 
ATOM     22  C   UNL A   1      40.092  28.476  27.379  1.00  0.00     0.031 C 
ATOM     23  C   UNL A   1      37.900  32.165  32.798  1.00  0.00     0.029 A 
ATOM     24  C   UNL A   1      39.102  31.386  33.038  1.00  0.00     0.049 A 
ATOM     25  H   UNL A   1      40.151  30.210  31.671  1.00  0.00     0.167 HD
ATOM     26  C   UNL A   1      41.914  27.406  28.688  1.00  0.00     0.037 A 
ATOM     27  C   UNL A   1      39.735  31.290  34.220  1.00  0.00     0.037 A 
ATOM     28  C   UNL A   1      42.649  27.216  29.910  1.00  0.00     0.049 A 
ATOM     29  C   UNL A   1      40.881  30.326  34.315  1.00  0.00     0.074 A 
ATOM     30  C   UNL A   1      43.739  26.401  30.148  1.00  0.00     0.029 A 
ATOM     31  N   UNL A   1      42.363  27.866  31.104  1.00  0.00    -0.354 N 
ATOM     32  N   UNL A   1      41.405  29.578  33.374  1.00  0.00    -0.248 NA
ATOM     33  C   UNL A   1      41.497  30.161  35.635  1.00  0.00     0.031 C 
ATOM     34  C   UNL A   1      44.087  26.529  31.497  1.00  0.00     0.029 A 
ATOM     35  C   UNL A   1      43.242  27.456  32.089  1.00  0.00     0.049 A 
ATOM     36  H   UNL A   1      41.640  28.523  31.231  1.00  0.00     0.167 HD
ATOM     37  C   UNL A   1      42.416  28.854  33.985  1.00  0.00     0.074 A 
ATOM     38  C   UNL A   1      42.447  29.275  35.373  1.00  0.00     0.031 C 
ATOM     39  C   UNL A   1      43.239  27.916  33.456  1.00  0.00     0.037 A 
BRANCH  26  40
ATOM     40  C   UNL A   1      42.273  26.602  27.476  1.00  0.00     0.057 A 
ATOM     41  C   UNL A   1      41.760  25.320  27.244  1.00  0.00     0.134 A 
ATOM     42  C   UNL A   1      43.176  27.117  26.538  1.00  0.00     0.134 A 
ATOM     43  F   UNL A   1      40.914  24.757  28.120  1.00  0.00    -0.206 F 
ATOM     44  C   UNL A   1      42.154  24.568  26.135  1.00  0.00     0.040 A 
ATOM     45  C   UNL A   1      43.559  26.384  25.413  1.00  0.00     0.040 A 
ATOM     46  F   UNL A   1      43.711  28.337  26.704  1.00  0.00    -0.206 F 
ATOM     47  C   UNL A   1      43.053  25.103  25.214  1.00  0.00     0.006 A 
ENDBRANCH  26  40
BRANCH  27  48
ATOM     48  C   UNL A   1      39.246  32.041  35.407  1.00  0.00     0.057 A 
ATOM     49  C   UNL A   1      39.725  33.321  35.704  1.00  0.00     0.134 A 
ATOM     50  C   UNL A   1      38.293  31.496  36.280  1.00  0.00     0.134 A 
ATOM     51  F   UNL A   1      40.650  33.893  34.920  1.00  0.00    -0.206 F 
ATOM     52  C   UNL A   1      39.289  34.024  36.830  1.00  0.00     0.040 A 
ATOM     53  C   UNL A   1      37.826  32.199  37.392  1.00  0.00     0.040 A 
ATOM     54  F   UNL A   1      37.786  30.274  36.056  1.00  0.00    -0.206 F 
ATOM     55  C   UNL A   1      38.332  33.464  37.675  1.00  0.00     0.006 A 
ENDBRANCH  27  48
BRANCH  39  56
ATOM     56  C   UNL A   1      44.249  27.315  34.380  1.00  0.00     0.057 A 
ATOM     57  C   UNL A   1      45.492  27.919  34.601  1.00  0.00     0.134 A 
ATOM     58  C   UNL A   1      43.949  26.151  35.097  1.00  0.00     0.134 A 
ATOM     59  F   UNL A   1      45.841  29.025  33.925  1.00  0.00    -0.206 F 
ATOM     60  C   UNL A   1      46.408  27.379  35.501  1.00  0.00     0.040 A 
ATOM     61  C   UNL A   1      44.847  25.615  36.018  1.00  0.00     0.040 A 
ATOM     62  F   UNL A   1      42.771  25.531  34.929  1.00  0.00    -0.206 F 
ATOM     63  C   UNL A   1      46.082  26.230  36.220  1.00  0.00     0.006 A 
ENDBRANCH  39  56
ENDBRANCH  13  14
ENDBRANCH   6   8
ENDBRANCH   5   6
ENDBRANCH   4   5
ENDBRANCH   3   4
ENDBRANCH   2   3
ENDBRANCH   1   2
BRANCH   1  64
ATOM     64  C   UNL A   1      34.145  28.143  23.445  1.00  0.00     0.261 C 
BRANCH  64  65
ATOM     65  O   UNL A   1      33.344  28.021  22.255  1.00  0.00    -0.460 OA
BRANCH  65  66
ATOM     66  C   UNL A   1      32.895  26.776  21.904  1.00  0.00     0.343 C 
ATOM     67  O   UNL A   1      33.428  25.991  21.155  1.00  0.00    -0.246 OA
BRANCH  66  68
ATOM     68  C   UNL A   1      31.647  26.563  22.662  1.00  0.00     0.120 A 
ATOM     69  C   UNL A   1      30.612  27.462  22.452  1.00  0.00     0.132 A 
ATOM     70  C   UNL A   1      31.431  25.591  23.634  1.00  0.00     0.146 A 
ATOM     71  N   UNL A   1      29.448  27.454  23.126  1.00  0.00    -0.244 NA
ATOM     72  N   UNL A   1      30.271  25.576  24.338  1.00  0.00    -0.219 NA
ATOM     73  C   UNL A   1      29.340  26.496  24.047  1.00  0.00     0.224 A 
BRANCH  70  74
ATOM     74  N   UNL A   1      32.361  24.592  23.990  1.00  0.00    -0.355 N 
ATOM     75  C   UNL A   1      32.874  24.762  25.351  1.00  0.00     0.124 C 
ATOM     76  C   UNL A   1      31.852  23.242  23.632  1.00  0.00     0.133 C 
ATOM     77  C   UNL A   1      33.972  23.744  25.683  1.00  0.00     0.087 C 
ATOM     78  C   UNL A   1      32.374  22.098  24.556  1.00  0.00     0.063 C 
ATOM     79  C   UNL A   1      33.836  22.410  24.935  1.00  0.00     0.194 C 
ATOM     80  C   UNL A   1      32.362  20.760  23.762  1.00  0.00     0.023 C 
ATOM     81  N   UNL A   1      34.455  21.329  25.727  1.00  0.00    -0.343 N 
ATOM     82  C   UNL A   1      33.062  19.634  24.528  1.00  0.00     0.062 C 
ATOM     83  C   UNL A   1      34.453  20.053  25.001  1.00  0.00     0.260 C 
ATOM     84  H   UNL A   1      33.933  21.215  26.595  1.00  0.00     0.346 HD
ATOM     85  H   UNL A   1      35.424  21.586  25.913  1.00  0.00     0.346 HD
BRANCH  78  86
ATOM     86  C   UNL A   1      31.477  21.937  25.816  1.00  0.00     0.171 C 
BRANCH  86  87
ATOM     87  O   UNL A   1      30.279  22.700  25.701  1.00  0.00    -0.395 OA
ATOM     88  H   UNL A   1      29.638  22.215  25.158  1.00  0.00     0.210 HD
ENDBRANCH  86  87
ENDBRANCH  78  86
ENDBRANCH  70  74
ENDBRANCH  66  68
ENDBRANCH  65  66
ENDBRANCH  64  65
ENDBRANCH   1  64
TORSDOF 17
ENDMDL
