MODEL 1
REMARK VINA RESULT:     -12.6      0.000      0.000
REMARK SMILES CC1(C)[C@@]2(C(=O)OCCOCCOC(=O)c3ccc(-c4c5nc(c(-c6c(F)cccc6F)c6ccc([nH]6)c(-c6c(F)cccc6F)c6nc(c(-c7c(F)cccc7F)c7ccc4[nH]7)C=C6)C=C5)cc3)CC[C@]1(C)/C(=N/NC(=O)c1ccc(Cl)cc1)C2
REMARK SMILES IDX 10 1 9 2 8 3 7 4 5 5 6 6 4 7 1 8 2 9 3 10 72 11 70 12 86 13
REMARK SMILES IDX 71 14 73 15 74 16 75 17 76 18 77 19 78 21 79 22 80 23 85 24
REMARK SMILES IDX 81 25 84 26 82 27 83 28 11 29 12 30 13 31 14 32 15 33 16 34
REMARK SMILES IDX 17 35 69 36 18 37 68 38 19 39 20 40 21 41 62 42 22 43 67 44
REMARK SMILES IDX 61 45 63 46 23 47 66 48 60 49 59 50 24 52 50 53 33 54 49 55
REMARK SMILES IDX 34 56 37 57 48 58 64 59 35 60 36 61 47 63 65 64 38 65 25 66
REMARK SMILES IDX 26 67 31 68 27 69 28 70 30 71 32 72 29 73 51 74 52 75 57 76
REMARK SMILES IDX 53 77 54 78 56 79 58 80 55 81 39 82 40 83 45 84 41 85 42 86
REMARK SMILES IDX 44 87 46 88 43 89
REMARK H PARENT 76 20 63 51 37 62
REMARK Flexibility Score: inf
ROOT
ATOM      1  O   UNL A   1      41.145  21.191  25.511  1.00  0.00    -0.374 OA
ENDROOT
BRANCH   1   2
ATOM      2  C   UNL A   1      40.031  21.184  26.407  1.00  0.00     0.202 C 
BRANCH   2   3
ATOM      3  C   UNL A   1      39.089  22.386  26.291  1.00  0.00     0.261 C 
BRANCH   3   4
ATOM      4  O   UNL A   1      37.797  21.995  25.789  1.00  0.00    -0.463 OA
BRANCH   4   5
ATOM      5  C   UNL A   1      36.858  22.981  25.729  1.00  0.00     0.313 C 
ATOM      6  O   UNL A   1      37.017  24.124  26.128  1.00  0.00    -0.252 OA
BRANCH   5   7
ATOM      7  C   UNL A   1      35.575  22.461  25.112  1.00  0.00     0.079 C 
ATOM      8  C   UNL A   1      34.450  21.753  27.339  1.00  0.00     0.013 C 
ATOM      9  C   UNL A   1      34.303  22.515  26.002  1.00  0.00    -0.008 C 
ATOM     10  C   UNL A   1      33.806  23.939  26.336  1.00  0.00     0.013 C 
ATOM     11  C   UNL A   1      33.445  21.777  24.919  1.00  0.00     0.014 C 
ATOM     12  C   UNL A   1      35.692  20.945  24.752  1.00  0.00     0.021 C 
ATOM     13  C   UNL A   1      35.125  23.217  23.837  1.00  0.00     0.073 C 
ATOM     14  C   UNL A   1      34.225  20.472  24.677  1.00  0.00     0.014 C 
ATOM     15  C   UNL A   1      31.971  21.622  25.221  1.00  0.00     0.018 C 
ATOM     16  C   UNL A   1      33.762  22.614  23.660  1.00  0.00     0.046 C 
ATOM     17  N   UNL A   1      32.897  22.719  22.702  1.00  0.00    -0.181 NA
BRANCH  17  18
ATOM     18  N   UNL A   1      33.010  23.504  21.598  1.00  0.00    -0.243 N 
ATOM     19  C   UNL A   1      32.904  24.855  21.340  1.00  0.00     0.271 C 
ATOM     20  H   UNL A   1      33.219  22.985  20.788  1.00  0.00     0.194 HD
ATOM     21  O   UNL A   1      32.987  25.269  20.184  1.00  0.00    -0.267 OA
BRANCH  19  22
ATOM     22  C   UNL A   1      32.689  25.845  22.401  1.00  0.00     0.041 A 
ATOM     23  C   UNL A   1      31.371  26.035  22.844  1.00  0.00     0.015 A 
ATOM     24  C   UNL A   1      33.750  26.522  23.009  1.00  0.00     0.015 A 
ATOM     25  C   UNL A   1      31.134  26.809  23.980  1.00  0.00     0.021 A 
ATOM     26  C   UNL A   1      33.495  27.328  24.125  1.00  0.00     0.021 A 
ATOM     27  C   UNL A   1      32.196  27.439  24.624  1.00  0.00     0.041 A 
ATOM     28  Cl  UNL A   1      31.900  28.299  26.085  1.00  0.00    -0.084 Cl
ENDBRANCH  19  22
ENDBRANCH  17  18
ENDBRANCH   5   7
ENDBRANCH   4   5
ENDBRANCH   3   4
ENDBRANCH   2   3
ENDBRANCH   1   2
BRANCH   1  29
ATOM     29  C   UNL A   1      42.421  21.000  26.117  1.00  0.00     0.202 C 
BRANCH  29  30
ATOM     30  C   UNL A   1      43.586  21.737  25.452  1.00  0.00     0.261 C 
BRANCH  30  31
ATOM     31  O   UNL A   1      43.130  22.931  24.787  1.00  0.00    -0.460 OA
BRANCH  31  32
ATOM     32  C   UNL A   1      43.893  24.027  25.004  1.00  0.00     0.338 C 
ATOM     33  O   UNL A   1      44.945  24.316  24.457  1.00  0.00    -0.246 OA
BRANCH  32  34
ATOM     34  C   UNL A   1      43.171  24.961  25.891  1.00  0.00     0.060 A 
ATOM     35  C   UNL A   1      43.729  26.230  26.084  1.00  0.00     0.016 A 
ATOM     36  C   UNL A   1      41.987  24.603  26.540  1.00  0.00     0.016 A 
ATOM     37  C   UNL A   1      43.137  27.126  26.973  1.00  0.00     0.010 A 
ATOM     38  C   UNL A   1      41.379  25.515  27.411  1.00  0.00     0.010 A 
ATOM     39  C   UNL A   1      41.979  26.761  27.673  1.00  0.00    -0.014 A 
BRANCH  39  40
ATOM     40  C   UNL A   1      41.527  27.586  28.824  1.00  0.00     0.031 A 
ATOM     41  C   UNL A   1      42.289  27.491  30.121  1.00  0.00     0.074 A 
ATOM     42  C   UNL A   1      40.496  28.445  28.716  1.00  0.00     0.049 A 
ATOM     43  N   UNL A   1      42.074  28.099  31.260  1.00  0.00    -0.248 NA
ATOM     44  C   UNL A   1      43.446  26.580  30.135  1.00  0.00     0.031 C 
ATOM     45  C   UNL A   1      39.696  28.666  27.514  1.00  0.00     0.029 A 
ATOM     46  N   UNL A   1      39.947  29.293  29.648  1.00  0.00    -0.354 N 
ATOM     47  C   UNL A   1      43.059  27.635  32.124  1.00  0.00     0.074 A 
ATOM     48  C   UNL A   1      43.843  26.664  31.395  1.00  0.00     0.031 C 
ATOM     49  C   UNL A   1      38.758  29.592  27.780  1.00  0.00     0.029 A 
ATOM     50  C   UNL A   1      38.869  30.004  29.179  1.00  0.00     0.049 A 
ATOM     51  H   UNL A   1      40.294  29.384  30.563  1.00  0.00     0.167 HD
ATOM     52  C   UNL A   1      43.304  27.996  33.405  1.00  0.00     0.037 A 
ATOM     53  C   UNL A   1      38.055  30.873  29.812  1.00  0.00     0.037 A 
ATOM     54  C   UNL A   1      42.538  28.972  34.133  1.00  0.00     0.049 A 
ATOM     55  C   UNL A   1      38.303  31.206  31.262  1.00  0.00     0.074 A 
ATOM     56  C   UNL A   1      42.728  29.424  35.427  1.00  0.00     0.029 A 
ATOM     57  N   UNL A   1      41.432  29.640  33.633  1.00  0.00    -0.354 N 
ATOM     58  N   UNL A   1      39.256  30.786  32.059  1.00  0.00    -0.248 NA
ATOM     59  C   UNL A   1      37.359  32.137  31.900  1.00  0.00     0.031 C 
ATOM     60  C   UNL A   1      41.700  30.322  35.731  1.00  0.00     0.029 A 
ATOM     61  C   UNL A   1      40.910  30.479  34.605  1.00  0.00     0.049 A 
ATOM     62  H   UNL A   1      41.071  29.536  32.724  1.00  0.00     0.167 HD
ATOM     63  C   UNL A   1      39.047  31.427  33.276  1.00  0.00     0.074 A 
ATOM     64  C   UNL A   1      37.884  32.271  33.110  1.00  0.00     0.031 C 
ATOM     65  C   UNL A   1      39.758  31.327  34.427  1.00  0.00     0.037 A 
BRANCH  52  66
ATOM     66  C   UNL A   1      44.438  27.312  34.112  1.00  0.00     0.057 A 
ATOM     67  C   UNL A   1      45.716  27.880  34.190  1.00  0.00     0.134 A 
ATOM     68  C   UNL A   1      44.238  26.080  34.748  1.00  0.00     0.134 A 
ATOM     69  F   UNL A   1      45.979  29.051  33.590  1.00  0.00    -0.206 F 
ATOM     70  C   UNL A   1      46.762  27.234  34.852  1.00  0.00     0.040 A 
ATOM     71  C   UNL A   1      45.268  25.439  35.439  1.00  0.00     0.040 A 
ATOM     72  F   UNL A   1      43.037  25.483  34.716  1.00  0.00    -0.206 F 
ATOM     73  C   UNL A   1      46.536  26.013  35.486  1.00  0.00     0.006 A 
ENDBRANCH  52  66
BRANCH  53  74
ATOM     74  C   UNL A   1      36.912  31.490  29.088  1.00  0.00     0.057 A 
ATOM     75  C   UNL A   1      36.957  32.819  28.652  1.00  0.00     0.134 A 
ATOM     76  C   UNL A   1      35.733  30.774  28.849  1.00  0.00     0.134 A 
ATOM     77  F   UNL A   1      38.050  33.566  28.875  1.00  0.00    -0.206 F 
ATOM     78  C   UNL A   1      35.865  33.423  28.025  1.00  0.00     0.040 A 
ATOM     79  C   UNL A   1      34.643  31.356  28.197  1.00  0.00     0.040 A 
ATOM     80  F   UNL A   1      35.622  29.498  29.243  1.00  0.00    -0.206 F 
ATOM     81  C   UNL A   1      34.705  32.687  27.792  1.00  0.00     0.006 A 
ENDBRANCH  53  74
BRANCH  65  82
ATOM     82  C   UNL A   1      39.333  32.180  35.588  1.00  0.00     0.057 A 
ATOM     83  C   UNL A   1      38.440  31.719  36.564  1.00  0.00     0.134 A 
ATOM     84  C   UNL A   1      39.871  33.462  35.761  1.00  0.00     0.134 A 
ATOM     85  F   UNL A   1      37.879  30.505  36.454  1.00  0.00    -0.206 F 
ATOM     86  C   UNL A   1      38.080  32.511  37.657  1.00  0.00     0.040 A 
ATOM     87  C   UNL A   1      39.544  34.251  36.866  1.00  0.00     0.040 A 
ATOM     88  F   UNL A   1      40.743  33.962  34.873  1.00  0.00    -0.206 F 
ATOM     89  C   UNL A   1      38.641  33.777  37.814  1.00  0.00     0.006 A 
ENDBRANCH  65  82
ENDBRANCH  39  40
ENDBRANCH  32  34
ENDBRANCH  31  32
ENDBRANCH  30  31
ENDBRANCH  29  30
ENDBRANCH   1  29
TORSDOF 16
ENDMDL
MODEL 2
REMARK VINA RESULT:     -12.1      0.523      5.992
REMARK SMILES CC1(C)[C@@]2(C(=O)OCCOCCOC(=O)c3ccc(-c4c5nc(c(-c6c(F)cccc6F)c6ccc([nH]6)c(-c6c(F)cccc6F)c6nc(c(-c7c(F)cccc7F)c7ccc4[nH]7)C=C6)C=C5)cc3)CC[C@]1(C)/C(=N/NC(=O)c1ccc(Cl)cc1)C2
REMARK SMILES IDX 10 1 9 2 8 3 7 4 5 5 6 6 4 7 1 8 2 9 3 10 72 11 70 12 86 13
REMARK SMILES IDX 71 14 73 15 74 16 75 17 76 18 77 19 78 21 79 22 80 23 85 24
REMARK SMILES IDX 81 25 84 26 82 27 83 28 11 29 12 30 13 31 14 32 15 33 16 34
REMARK SMILES IDX 17 35 69 36 18 37 68 38 19 39 20 40 21 41 62 42 22 43 67 44
REMARK SMILES IDX 61 45 63 46 23 47 66 48 60 49 59 50 24 52 50 53 33 54 49 55
REMARK SMILES IDX 34 56 37 57 48 58 64 59 35 60 36 61 47 63 65 64 38 65 25 66
REMARK SMILES IDX 26 67 31 68 27 69 28 70 30 71 32 72 29 73 51 74 52 75 57 76
REMARK SMILES IDX 53 77 54 78 56 79 58 80 55 81 39 82 40 83 45 84 41 85 42 86
REMARK SMILES IDX 44 87 46 88 43 89
REMARK H PARENT 76 20 63 51 37 62
REMARK Flexibility Score: inf
ROOT
ATOM      1  O   UNL A   1      41.278  20.607  25.650  1.00  0.00    -0.374 OA
ENDROOT
BRANCH   1   2
ATOM      2  C   UNL A   1      39.966  20.583  26.216  1.00  0.00     0.202 C 
BRANCH   2   3
ATOM      3  C   UNL A   1      39.154  21.870  26.044  1.00  0.00     0.261 C 
BRANCH   3   4
ATOM      4  O   UNL A   1      37.798  21.588  25.649  1.00  0.00    -0.463 OA
BRANCH   4   5
ATOM      5  C   UNL A   1      36.937  22.643  25.678  1.00  0.00     0.313 C 
ATOM      6  O   UNL A   1      37.205  23.754  26.112  1.00  0.00    -0.252 OA
BRANCH   5   7
ATOM      7  C   UNL A   1      35.588  22.250  25.113  1.00  0.00     0.079 C 
ATOM      8  C   UNL A   1      34.456  21.744  27.392  1.00  0.00     0.013 C 
ATOM      9  C   UNL A   1      34.356  22.474  26.032  1.00  0.00    -0.008 C 
ATOM     10  C   UNL A   1      34.028  23.954  26.327  1.00  0.00     0.013 C 
ATOM     11  C   UNL A   1      33.391  21.800  24.998  1.00  0.00     0.014 C 
ATOM     12  C   UNL A   1      35.527  20.719  24.805  1.00  0.00     0.021 C 
ATOM     13  C   UNL A   1      35.187  23.008  23.823  1.00  0.00     0.073 C 
ATOM     14  C   UNL A   1      34.015  20.410  24.783  1.00  0.00     0.014 C 
ATOM     15  C   UNL A   1      31.918  21.819  25.343  1.00  0.00     0.018 C 
ATOM     16  C   UNL A   1      33.762  22.555  23.703  1.00  0.00     0.046 C 
ATOM     17  N   UNL A   1      32.886  22.723  22.764  1.00  0.00    -0.181 NA
BRANCH  17  18
ATOM     18  N   UNL A   1      33.053  23.455  21.629  1.00  0.00    -0.243 N 
ATOM     19  C   UNL A   1      32.967  24.791  21.303  1.00  0.00     0.271 C 
ATOM     20  H   UNL A   1      33.293  22.896  20.855  1.00  0.00     0.194 HD
ATOM     21  O   UNL A   1      33.104  25.150  20.133  1.00  0.00    -0.267 OA
BRANCH  19  22
ATOM     22  C   UNL A   1      32.712  25.832  22.305  1.00  0.00     0.041 A 
ATOM     23  C   UNL A   1      31.388  26.275  22.448  1.00  0.00     0.015 A 
ATOM     24  C   UNL A   1      33.720  26.317  23.143  1.00  0.00     0.015 A 
ATOM     25  C   UNL A   1      31.055  27.110  23.515  1.00  0.00     0.021 A 
ATOM     26  C   UNL A   1      33.381  27.186  24.187  1.00  0.00     0.021 A 
ATOM     27  C   UNL A   1      32.048  27.549  24.388  1.00  0.00     0.041 A 
ATOM     28  Cl  UNL A   1      31.604  28.487  25.760  1.00  0.00    -0.084 Cl
ENDBRANCH  19  22
ENDBRANCH  17  18
ENDBRANCH   5   7
ENDBRANCH   4   5
ENDBRANCH   3   4
ENDBRANCH   2   3
ENDBRANCH   1   2
BRANCH   1  29
ATOM     29  C   UNL A   1      42.207  21.478  26.290  1.00  0.00     0.202 C 
BRANCH  29  30
ATOM     30  C   UNL A   1      43.258  22.113  25.376  1.00  0.00     0.261 C 
BRANCH  30  31
ATOM     31  O   UNL A   1      42.822  23.405  24.909  1.00  0.00    -0.460 OA
BRANCH  31  32
ATOM     32  C   UNL A   1      43.656  24.427  25.212  1.00  0.00     0.338 C 
ATOM     33  O   UNL A   1      44.717  24.700  24.675  1.00  0.00    -0.246 OA
BRANCH  32  34
ATOM     34  C   UNL A   1      43.005  25.317  26.194  1.00  0.00     0.060 A 
ATOM     35  C   UNL A   1      43.542  26.599  26.360  1.00  0.00     0.016 A 
ATOM     36  C   UNL A   1      41.907  24.907  26.956  1.00  0.00     0.016 A 
ATOM     37  C   UNL A   1      43.021  27.456  27.329  1.00  0.00     0.010 A 
ATOM     38  C   UNL A   1      41.369  25.779  27.909  1.00  0.00     0.010 A 
ATOM     39  C   UNL A   1      41.956  27.037  28.138  1.00  0.00    -0.014 A 
BRANCH  39  40
ATOM     40  C   UNL A   1      41.604  27.822  29.351  1.00  0.00     0.031 A 
ATOM     41  C   UNL A   1      40.404  28.732  29.294  1.00  0.00     0.074 A 
ATOM     42  C   UNL A   1      42.295  27.698  30.499  1.00  0.00     0.049 A 
ATOM     43  N   UNL A   1      39.914  29.522  30.216  1.00  0.00    -0.248 NA
ATOM     44  C   UNL A   1      39.661  28.758  28.023  1.00  0.00     0.031 C 
ATOM     45  C   UNL A   1      43.451  26.828  30.705  1.00  0.00     0.029 A 
ATOM     46  N   UNL A   1      42.116  28.315  31.713  1.00  0.00    -0.354 N 
ATOM     47  C   UNL A   1      38.818  30.145  29.631  1.00  0.00     0.074 A 
ATOM     48  C   UNL A   1      38.740  29.677  28.265  1.00  0.00     0.031 C 
ATOM     49  C   UNL A   1      43.878  26.967  31.973  1.00  0.00     0.029 A 
ATOM     50  C   UNL A   1      43.049  27.958  32.657  1.00  0.00     0.049 A 
ATOM     51  H   UNL A   1      41.388  28.953  31.891  1.00  0.00     0.167 HD
ATOM     52  C   UNL A   1      37.940  31.015  30.183  1.00  0.00     0.037 A 
ATOM     53  C   UNL A   1      43.223  28.396  33.920  1.00  0.00     0.037 A 
ATOM     54  C   UNL A   1      38.002  31.474  31.545  1.00  0.00     0.049 A 
ATOM     55  C   UNL A   1      42.275  29.421  34.492  1.00  0.00     0.074 A 
ATOM     56  C   UNL A   1      37.140  32.335  32.202  1.00  0.00     0.029 A 
ATOM     57  N   UNL A   1      38.984  31.117  32.455  1.00  0.00    -0.354 N 
ATOM     58  N   UNL A   1      41.224  29.977  33.941  1.00  0.00    -0.248 NA
ATOM     59  C   UNL A   1      42.540  29.877  35.865  1.00  0.00     0.031 C 
ATOM     60  C   UNL A   1      37.635  32.545  33.493  1.00  0.00     0.029 A 
ATOM     61  C   UNL A   1      38.767  31.765  33.660  1.00  0.00     0.049 A 
ATOM     62  H   UNL A   1      39.724  30.495  32.273  1.00  0.00     0.167 HD
ATOM     63  C   UNL A   1      40.685  30.819  34.909  1.00  0.00     0.074 A 
ATOM     64  C   UNL A   1      41.519  30.693  36.085  1.00  0.00     0.031 C 
ATOM     65  C   UNL A   1      39.595  31.623  34.831  1.00  0.00     0.037 A 
BRANCH  52  66
ATOM     66  C   UNL A   1      36.847  31.548  29.303  1.00  0.00     0.057 A 
ATOM     67  C   UNL A   1      35.712  30.789  28.985  1.00  0.00     0.134 A 
ATOM     68  C   UNL A   1      36.919  32.849  28.788  1.00  0.00     0.134 A 
ATOM     69  F   UNL A   1      35.587  29.531  29.432  1.00  0.00    -0.206 F 
ATOM     70  C   UNL A   1      34.701  31.297  28.167  1.00  0.00     0.040 A 
ATOM     71  C   UNL A   1      35.901  33.378  27.995  1.00  0.00     0.040 A 
ATOM     72  F   UNL A   1      37.977  33.630  29.058  1.00  0.00    -0.206 F 
ATOM     73  C   UNL A   1      34.791  32.599  27.676  1.00  0.00     0.006 A 
ENDBRANCH  52  66
BRANCH  53  74
ATOM     74  C   UNL A   1      44.350  27.879  34.741  1.00  0.00     0.057 A 
ATOM     75  C   UNL A   1      45.592  28.521  34.760  1.00  0.00     0.134 A 
ATOM     76  C   UNL A   1      44.220  26.707  35.497  1.00  0.00     0.134 A 
ATOM     77  F   UNL A   1      45.788  29.634  34.036  1.00  0.00    -0.206 F 
ATOM     78  C   UNL A   1      46.673  28.008  35.481  1.00  0.00     0.040 A 
ATOM     79  C   UNL A   1      45.283  26.198  36.245  1.00  0.00     0.040 A 
ATOM     80  F   UNL A   1      43.058  26.040  35.520  1.00  0.00    -0.206 F 
ATOM     81  C   UNL A   1      46.516  26.844  36.231  1.00  0.00     0.006 A 
ENDBRANCH  53  74
BRANCH  65  82
ATOM     82  C   UNL A   1      39.207  32.396  36.059  1.00  0.00     0.057 A 
ATOM     83  C   UNL A   1      38.335  31.875  37.023  1.00  0.00     0.134 A 
ATOM     84  C   UNL A   1      39.761  33.660  36.307  1.00  0.00     0.134 A 
ATOM     85  F   UNL A   1      37.761  30.675  36.843  1.00  0.00    -0.206 F 
ATOM     86  C   UNL A   1      38.010  32.591  38.177  1.00  0.00     0.040 A 
ATOM     87  C   UNL A   1      39.468  34.372  37.471  1.00  0.00     0.040 A 
ATOM     88  F   UNL A   1      40.614  34.214  35.433  1.00  0.00    -0.206 F 
ATOM     89  C   UNL A   1      38.586  33.839  38.408  1.00  0.00     0.006 A 
ENDBRANCH  65  82
ENDBRANCH  39  40
ENDBRANCH  32  34
ENDBRANCH  31  32
ENDBRANCH  30  31
ENDBRANCH  29  30
ENDBRANCH   1  29
TORSDOF 16
ENDMDL
MODEL 3
REMARK VINA RESULT:     -12.1      4.541      9.639
REMARK SMILES CC1(C)[C@@]2(C(=O)OCCOCCOC(=O)c3ccc(-c4c5nc(c(-c6c(F)cccc6F)c6ccc([nH]6)c(-c6c(F)cccc6F)c6nc(c(-c7c(F)cccc7F)c7ccc4[nH]7)C=C6)C=C5)cc3)CC[C@]1(C)/C(=N/NC(=O)c1ccc(Cl)cc1)C2
REMARK SMILES IDX 10 1 9 2 8 3 7 4 5 5 6 6 4 7 1 8 2 9 3 10 72 11 70 12 86 13
REMARK SMILES IDX 71 14 73 15 74 16 75 17 76 18 77 19 78 21 79 22 80 23 85 24
REMARK SMILES IDX 81 25 84 26 82 27 83 28 11 29 12 30 13 31 14 32 15 33 16 34
REMARK SMILES IDX 17 35 69 36 18 37 68 38 19 39 20 40 21 41 62 42 22 43 67 44
REMARK SMILES IDX 61 45 63 46 23 47 66 48 60 49 59 50 24 52 50 53 33 54 49 55
REMARK SMILES IDX 34 56 37 57 48 58 64 59 35 60 36 61 47 63 65 64 38 65 25 66
REMARK SMILES IDX 26 67 31 68 27 69 28 70 30 71 32 72 29 73 51 74 52 75 57 76
REMARK SMILES IDX 53 77 54 78 56 79 58 80 55 81 39 82 40 83 45 84 41 85 42 86
REMARK SMILES IDX 44 87 46 88 43 89
REMARK H PARENT 76 20 63 51 37 62
REMARK Flexibility Score: inf
ROOT
ATOM      1  O   UNL A   1      34.858  33.225  29.062  1.00  0.00    -0.374 OA
ENDROOT
BRANCH   1   2
ATOM      2  C   UNL A   1      33.959  32.547  28.182  1.00  0.00     0.202 C 
BRANCH   2   3
ATOM      3  C   UNL A   1      34.199  31.042  28.033  1.00  0.00     0.261 C 
BRANCH   3   4
ATOM      4  O   UNL A   1      33.417  30.489  26.957  1.00  0.00    -0.463 OA
BRANCH   4   5
ATOM      5  C   UNL A   1      33.711  29.206  26.604  1.00  0.00     0.313 C 
ATOM      6  O   UNL A   1      34.743  28.620  26.894  1.00  0.00    -0.252 OA
BRANCH   5   7
ATOM      7  C   UNL A   1      32.588  28.605  25.784  1.00  0.00     0.079 C 
ATOM      8  C   UNL A   1      33.619  29.122  23.461  1.00  0.00     0.013 C 
ATOM      9  C   UNL A   1      32.966  28.063  24.379  1.00  0.00    -0.008 C 
ATOM     10  C   UNL A   1      33.893  26.827  24.388  1.00  0.00     0.013 C 
ATOM     11  C   UNL A   1      31.471  27.736  24.041  1.00  0.00     0.014 C 
ATOM     12  C   UNL A   1      31.485  29.667  25.470  1.00  0.00     0.021 C 
ATOM     13  C   UNL A   1      31.896  27.385  26.441  1.00  0.00     0.073 C 
ATOM     14  C   UNL A   1      30.759  29.086  24.237  1.00  0.00     0.014 C 
ATOM     15  C   UNL A   1      31.218  27.039  22.722  1.00  0.00     0.018 C 
ATOM     16  C   UNL A   1      31.048  26.932  25.289  1.00  0.00     0.046 C 
ATOM     17  N   UNL A   1      30.124  26.028  25.210  1.00  0.00    -0.181 NA
BRANCH  17  18
ATOM     18  N   UNL A   1      29.736  25.183  26.204  1.00  0.00    -0.243 N 
ATOM     19  C   UNL A   1      30.180  23.971  26.688  1.00  0.00     0.271 C 
ATOM     20  H   UNL A   1      28.952  25.518  26.695  1.00  0.00     0.194 HD
ATOM     21  O   UNL A   1      29.553  23.399  27.580  1.00  0.00    -0.267 OA
BRANCH  19  22
ATOM     22  C   UNL A   1      31.388  23.313  26.180  1.00  0.00     0.041 A 
ATOM     23  C   UNL A   1      32.622  23.779  26.658  1.00  0.00     0.015 A 
ATOM     24  C   UNL A   1      31.327  22.217  25.315  1.00  0.00     0.015 A 
ATOM     25  C   UNL A   1      33.785  23.065  26.368  1.00  0.00     0.021 A 
ATOM     26  C   UNL A   1      32.505  21.530  24.999  1.00  0.00     0.021 A 
ATOM     27  C   UNL A   1      33.720  21.937  25.554  1.00  0.00     0.041 A 
ATOM     28  Cl  UNL A   1      35.144  21.006  25.296  1.00  0.00    -0.084 Cl
ENDBRANCH  19  22
ENDBRANCH  17  18
ENDBRANCH   5   7
ENDBRANCH   4   5
ENDBRANCH   3   4
ENDBRANCH   2   3
ENDBRANCH   1   2
BRANCH   1  29
ATOM     29  C   UNL A   1      34.245  33.994  30.094  1.00  0.00     0.202 C 
BRANCH  29  30
ATOM     30  C   UNL A   1      34.560  33.551  31.526  1.00  0.00     0.261 C 
BRANCH  30  31
ATOM     31  O   UNL A   1      34.972  32.172  31.560  1.00  0.00    -0.460 OA
BRANCH  31  32
ATOM     32  C   UNL A   1      35.963  31.898  32.440  1.00  0.00     0.338 C 
ATOM     33  O   UNL A   1      35.940  32.050  33.651  1.00  0.00    -0.246 OA
BRANCH  32  34
ATOM     34  C   UNL A   1      37.057  31.192  31.745  1.00  0.00     0.060 A 
ATOM     35  C   UNL A   1      38.204  30.887  32.487  1.00  0.00     0.016 A 
ATOM     36  C   UNL A   1      36.980  30.850  30.392  1.00  0.00     0.016 A 
ATOM     37  C   UNL A   1      39.302  30.293  31.866  1.00  0.00     0.010 A 
ATOM     38  C   UNL A   1      38.072  30.228  29.777  1.00  0.00     0.010 A 
ATOM     39  C   UNL A   1      39.259  29.996  30.497  1.00  0.00    -0.014 A 
BRANCH  39  40
ATOM     40  C   UNL A   1      40.515  29.645  29.783  1.00  0.00     0.031 A 
ATOM     41  C   UNL A   1      40.653  28.257  29.210  1.00  0.00     0.074 A 
ATOM     42  C   UNL A   1      41.496  30.546  29.594  1.00  0.00     0.049 A 
ATOM     43  N   UNL A   1      41.656  27.719  28.564  1.00  0.00    -0.248 NA
ATOM     44  C   UNL A   1      39.506  27.354  29.400  1.00  0.00     0.031 C 
ATOM     45  C   UNL A   1      41.480  31.931  30.059  1.00  0.00     0.029 A 
ATOM     46  N   UNL A   1      42.706  30.420  28.954  1.00  0.00    -0.354 N 
ATOM     47  C   UNL A   1      41.264  26.415  28.283  1.00  0.00     0.074 A 
ATOM     48  C   UNL A   1      39.954  26.229  28.866  1.00  0.00     0.031 C 
ATOM     49  C   UNL A   1      42.626  32.528  29.688  1.00  0.00     0.029 A 
ATOM     50  C   UNL A   1      43.471  31.560  28.990  1.00  0.00     0.049 A 
ATOM     51  H   UNL A   1      42.997  29.591  28.512  1.00  0.00     0.167 HD
ATOM     52  C   UNL A   1      41.924  25.461  27.586  1.00  0.00     0.037 A 
ATOM     53  C   UNL A   1      44.717  31.789  28.528  1.00  0.00     0.037 A 
ATOM     54  C   UNL A   1      43.221  25.643  26.990  1.00  0.00     0.049 A 
ATOM     55  C   UNL A   1      45.464  30.688  27.818  1.00  0.00     0.074 A 
ATOM     56  C   UNL A   1      43.957  24.743  26.241  1.00  0.00     0.029 A 
ATOM     57  N   UNL A   1      43.976  26.801  27.082  1.00  0.00    -0.354 N 
ATOM     58  N   UNL A   1      45.071  29.471  27.530  1.00  0.00    -0.248 NA
ATOM     59  C   UNL A   1      46.830  30.996  27.367  1.00  0.00     0.031 C 
ATOM     60  C   UNL A   1      45.185  25.336  25.931  1.00  0.00     0.029 A 
ATOM     61  C   UNL A   1      45.186  26.627  26.429  1.00  0.00     0.049 A 
ATOM     62  H   UNL A   1      43.695  27.625  27.541  1.00  0.00     0.167 HD
ATOM     63  C   UNL A   1      46.124  28.883  26.836  1.00  0.00     0.074 A 
ATOM     64  C   UNL A   1      47.169  29.879  26.737  1.00  0.00     0.031 C 
ATOM     65  C   UNL A   1      46.216  27.630  26.325  1.00  0.00     0.037 A 
BRANCH  52  66
ATOM     66  C   UNL A   1      41.262  24.121  27.450  1.00  0.00     0.057 A 
ATOM     67  C   UNL A   1      40.197  23.904  26.565  1.00  0.00     0.134 A 
ATOM     68  C   UNL A   1      41.716  23.025  28.195  1.00  0.00     0.134 A 
ATOM     69  F   UNL A   1      39.704  24.914  25.833  1.00  0.00    -0.206 F 
ATOM     70  C   UNL A   1      39.591  22.652  26.446  1.00  0.00     0.040 A 
ATOM     71  C   UNL A   1      41.138  21.762  28.063  1.00  0.00     0.040 A 
ATOM     72  F   UNL A   1      42.735  23.163  29.058  1.00  0.00    -0.206 F 
ATOM     73  C   UNL A   1      40.068  21.574  27.192  1.00  0.00     0.006 A 
ENDBRANCH  52  66
BRANCH  53  74
ATOM     74  C   UNL A   1      45.356  33.117  28.729  1.00  0.00     0.057 A 
ATOM     75  C   UNL A   1      45.205  34.147  27.794  1.00  0.00     0.134 A 
ATOM     76  C   UNL A   1      46.165  33.373  29.844  1.00  0.00     0.134 A 
ATOM     77  F   UNL A   1      44.465  33.956  26.692  1.00  0.00    -0.206 F 
ATOM     78  C   UNL A   1      45.851  35.376  27.946  1.00  0.00     0.040 A 
ATOM     79  C   UNL A   1      46.793  34.607  30.023  1.00  0.00     0.040 A 
ATOM     80  F   UNL A   1      46.354  32.428  30.775  1.00  0.00    -0.206 F 
ATOM     81  C   UNL A   1      46.644  35.609  29.068  1.00  0.00     0.006 A 
ENDBRANCH  53  74
BRANCH  65  82
ATOM     82  C   UNL A   1      47.465  27.272  25.571  1.00  0.00     0.057 A 
ATOM     83  C   UNL A   1      47.624  27.566  24.211  1.00  0.00     0.134 A 
ATOM     84  C   UNL A   1      48.547  26.674  26.232  1.00  0.00     0.134 A 
ATOM     85  F   UNL A   1      46.624  28.128  23.514  1.00  0.00    -0.206 F 
ATOM     86  C   UNL A   1      48.806  27.259  23.531  1.00  0.00     0.040 A 
ATOM     87  C   UNL A   1      49.743  26.391  25.572  1.00  0.00     0.040 A 
ATOM     88  F   UNL A   1      48.468  26.378  27.538  1.00  0.00    -0.206 F 
ATOM     89  C   UNL A   1      49.872  26.678  24.215  1.00  0.00     0.006 A 
ENDBRANCH  65  82
ENDBRANCH  39  40
ENDBRANCH  32  34
ENDBRANCH  31  32
ENDBRANCH  30  31
ENDBRANCH  29  30
ENDBRANCH   1  29
TORSDOF 16
ENDMDL
