MODEL 1
REMARK VINA RESULT:     -11.6      0.000      0.000
REMARK SMILES O=C(OCCOCCOC(=O)[C@H]1Cc2[nH]cnc2CN1C(=O)c1ccncc1Cl)c1ccc(-c2c3nc(c(-c4c(F)cccc4F)c4ccc([nH]4)c(-c4c(F)cccc4F)c4nc(c(-c5c(F)cccc5F)c5ccc2[nH]5)C=C4)C=C3)cc1
REMARK SMILES IDX 6 1 5 2 4 3 3 4 2 5 1 6 30 7 31 8 83 9 32 10 82 11 33 12
REMARK SMILES IDX 34 13 35 14 76 15 36 16 81 17 75 18 77 19 37 20 80 21 74 22
REMARK SMILES IDX 73 23 38 25 64 26 47 27 63 28 48 29 51 30 62 31 78 32 49 33
REMARK SMILES IDX 50 34 61 36 79 37 52 38 39 39 40 40 45 41 41 42 42 43 44 44
REMARK SMILES IDX 46 45 43 46 65 47 66 48 71 49 67 50 68 51 70 52 72 53 69 54
REMARK SMILES IDX 53 55 54 56 59 57 55 58 56 59 58 60 60 61 57 62 7 63 8 64
REMARK SMILES IDX 9 65 10 66 11 67 12 68 13 69 20 70 14 71 19 72 15 73 18 74
REMARK SMILES IDX 16 75 17 77 21 78 22 79 23 80 24 81 28 82 25 83 27 84 29 85
REMARK SMILES IDX 26 86
REMARK H PARENT 77 24 51 35 15 76
REMARK Flexibility Score: inf
ROOT
ATOM      1  O   UNL A   1      41.491  20.471  26.171  1.00  0.00    -0.374 OA
ENDROOT
BRANCH   1   2
ATOM      2  C   UNL A   1      42.012  19.217  26.610  1.00  0.00     0.202 C 
BRANCH   2   3
ATOM      3  C   UNL A   1      43.211  18.694  25.831  1.00  0.00     0.261 C 
BRANCH   3   4
ATOM      4  O   UNL A   1      43.503  19.511  24.680  1.00  0.00    -0.460 OA
BRANCH   4   5
ATOM      5  C   UNL A   1      44.696  20.135  24.624  1.00  0.00     0.338 C 
ATOM      6  O   UNL A   1      45.684  19.759  24.004  1.00  0.00    -0.246 OA
BRANCH   5   7
ATOM      7  C   UNL A   1      44.644  21.527  24.999  1.00  0.00     0.060 A 
ATOM      8  C   UNL A   1      43.764  22.419  24.401  1.00  0.00     0.016 A 
ATOM      9  C   UNL A   1      45.475  21.877  26.078  1.00  0.00     0.016 A 
ATOM     10  C   UNL A   1      43.701  23.684  24.920  1.00  0.00     0.010 A 
ATOM     11  C   UNL A   1      45.404  23.135  26.604  1.00  0.00     0.010 A 
ATOM     12  C   UNL A   1      44.501  24.012  26.026  1.00  0.00    -0.014 A 
BRANCH  12  13
ATOM     13  C   UNL A   1      44.164  25.236  26.695  1.00  0.00     0.031 A 
ATOM     14  C   UNL A   1      45.187  26.301  26.531  1.00  0.00     0.074 A 
ATOM     15  C   UNL A   1      43.025  25.404  27.372  1.00  0.00     0.049 A 
ATOM     16  N   UNL A   1      46.004  26.740  27.428  1.00  0.00    -0.248 NA
ATOM     17  C   UNL A   1      45.453  26.802  25.173  1.00  0.00     0.031 C 
ATOM     18  C   UNL A   1      41.804  24.604  27.379  1.00  0.00     0.029 A 
ATOM     19  N   UNL A   1      42.744  26.433  28.198  1.00  0.00    -0.354 N 
ATOM     20  C   UNL A   1      46.790  27.696  26.796  1.00  0.00     0.074 A 
ATOM     21  C   UNL A   1      46.495  27.607  25.390  1.00  0.00     0.031 C 
ATOM     22  C   UNL A   1      40.838  25.295  28.028  1.00  0.00     0.029 A 
ATOM     23  C   UNL A   1      41.430  26.492  28.603  1.00  0.00     0.049 A 
ATOM     24  H   UNL A   1      43.421  27.087  28.486  1.00  0.00     0.167 HD
ATOM     25  C   UNL A   1      47.497  28.610  27.513  1.00  0.00     0.037 A 
ATOM     26  C   UNL A   1      40.889  27.514  29.301  1.00  0.00     0.037 A 
ATOM     27  C   UNL A   1      47.700  28.167  28.869  1.00  0.00     0.049 A 
ATOM     28  C   UNL A   1      42.005  28.234  29.979  1.00  0.00     0.074 A 
ATOM     29  C   UNL A   1      48.351  27.091  29.440  1.00  0.00     0.029 A 
ATOM     30  N   UNL A   1      46.862  28.652  29.844  1.00  0.00    -0.354 N 
ATOM     31  N   UNL A   1      42.722  27.715  30.940  1.00  0.00    -0.248 NA
ATOM     32  C   UNL A   1      42.629  29.346  29.273  1.00  0.00     0.031 C 
ATOM     33  C   UNL A   1      47.515  26.688  30.522  1.00  0.00     0.029 A 
ATOM     34  C   UNL A   1      46.435  27.571  30.574  1.00  0.00     0.049 A 
ATOM     35  H   UNL A   1      46.615  29.594  29.989  1.00  0.00     0.167 HD
ATOM     36  C   UNL A   1      44.018  28.157  30.706  1.00  0.00     0.074 A 
ATOM     37  C   UNL A   1      43.884  29.222  29.716  1.00  0.00     0.031 C 
ATOM     38  C   UNL A   1      45.106  27.444  31.127  1.00  0.00     0.037 A 
BRANCH  25  39
ATOM     39  C   UNL A   1      47.694  30.038  27.082  1.00  0.00     0.057 A 
ATOM     40  C   UNL A   1      48.980  30.603  27.134  1.00  0.00     0.134 A 
ATOM     41  C   UNL A   1      46.639  30.957  26.908  1.00  0.00     0.134 A 
ATOM     42  F   UNL A   1      50.066  29.834  27.304  1.00  0.00    -0.206 F 
ATOM     43  C   UNL A   1      49.191  31.987  27.099  1.00  0.00     0.040 A 
ATOM     44  C   UNL A   1      46.843  32.336  26.826  1.00  0.00     0.040 A 
ATOM     45  F   UNL A   1      45.354  30.585  26.912  1.00  0.00    -0.206 F 
ATOM     46  C   UNL A   1      48.119  32.859  26.956  1.00  0.00     0.006 A 
ENDBRANCH  25  39
BRANCH  26  47
ATOM     47  C   UNL A   1      39.549  28.093  29.099  1.00  0.00     0.057 A 
ATOM     48  C   UNL A   1      38.625  28.146  30.146  1.00  0.00     0.134 A 
ATOM     49  C   UNL A   1      39.236  28.842  27.948  1.00  0.00     0.134 A 
ATOM     50  F   UNL A   1      38.865  27.497  31.294  1.00  0.00    -0.206 F 
ATOM     51  C   UNL A   1      37.459  28.915  30.064  1.00  0.00     0.040 A 
ATOM     52  C   UNL A   1      38.073  29.609  27.850  1.00  0.00     0.040 A 
ATOM     53  F   UNL A   1      40.090  28.926  26.918  1.00  0.00    -0.206 F 
ATOM     54  C   UNL A   1      37.185  29.658  28.917  1.00  0.00     0.006 A 
ENDBRANCH  26  47
BRANCH  38  55
ATOM     55  C   UNL A   1      44.873  26.271  32.038  1.00  0.00     0.057 A 
ATOM     56  C   UNL A   1      44.691  26.386  33.425  1.00  0.00     0.134 A 
ATOM     57  C   UNL A   1      44.643  25.011  31.474  1.00  0.00     0.134 A 
ATOM     58  F   UNL A   1      44.783  27.572  34.040  1.00  0.00    -0.206 F 
ATOM     59  C   UNL A   1      44.338  25.288  34.217  1.00  0.00     0.040 A 
ATOM     60  C   UNL A   1      44.258  23.915  32.248  1.00  0.00     0.040 A 
ATOM     61  F   UNL A   1      44.735  24.839  30.145  1.00  0.00    -0.206 F 
ATOM     62  C   UNL A   1      44.113  24.049  33.627  1.00  0.00     0.006 A 
ENDBRANCH  38  55
ENDBRANCH  12  13
ENDBRANCH   5   7
ENDBRANCH   4   5
ENDBRANCH   3   4
ENDBRANCH   2   3
ENDBRANCH   1   2
BRANCH   1  63
ATOM     63  C   UNL A   1      40.064  20.559  26.205  1.00  0.00     0.202 C 
BRANCH  63  64
ATOM     64  C   UNL A   1      39.448  21.939  26.049  1.00  0.00     0.261 C 
BRANCH  64  65
ATOM     65  O   UNL A   1      38.129  21.750  25.465  1.00  0.00    -0.462 OA
BRANCH  65  66
ATOM     66  C   UNL A   1      37.264  22.752  25.683  1.00  0.00     0.329 C 
ATOM     67  O   UNL A   1      37.603  23.843  26.142  1.00  0.00    -0.250 OA
BRANCH  66  68
ATOM     68  C   UNL A   1      35.829  22.518  25.168  1.00  0.00     0.201 C 
ATOM     69  C   UNL A   1      35.166  21.514  26.188  1.00  0.00     0.093 C 
ATOM     70  N   UNL A   1      34.729  23.349  24.515  1.00  0.00    -0.318 N 
ATOM     71  C   UNL A   1      34.089  20.796  25.482  1.00  0.00     0.042 A 
ATOM     72  C   UNL A   1      33.876  22.500  23.608  1.00  0.00     0.179 C 
ATOM     73  N   UNL A   1      33.525  19.596  25.785  1.00  0.00    -0.348 N 
ATOM     74  C   UNL A   1      33.481  21.241  24.333  1.00  0.00     0.081 A 
ATOM     75  C   UNL A   1      32.591  19.359  24.813  1.00  0.00     0.197 A 
ATOM     76  H   UNL A   1      33.746  19.015  26.549  1.00  0.00     0.167 HD
ATOM     77  N   UNL A   1      32.549  20.327  23.918  1.00  0.00    -0.240 NA
BRANCH  70  78
ATOM     78  C   UNL A   1      34.047  24.497  24.949  1.00  0.00     0.256 C 
ATOM     79  O   UNL A   1      34.662  25.415  25.511  1.00  0.00    -0.269 OA
BRANCH  78  80
ATOM     80  C   UNL A   1      32.590  24.753  24.940  1.00  0.00     0.061 A 
ATOM     81  C   UNL A   1      32.192  25.834  24.122  1.00  0.00     0.035 A 
ATOM     82  C   UNL A   1      31.713  24.342  25.941  1.00  0.00     0.072 A 
ATOM     83  C   UNL A   1      30.963  26.441  24.322  1.00  0.00     0.112 A 
ATOM     84  C   UNL A   1      30.468  24.974  26.015  1.00  0.00     0.132 A 
ATOM     85  Cl  UNL A   1      32.142  23.261  27.211  1.00  0.00    -0.082 Cl
ATOM     86  N   UNL A   1      30.079  26.024  25.244  1.00  0.00    -0.263 NA
ENDBRANCH  78  80
ENDBRANCH  70  78
ENDBRANCH  66  68
ENDBRANCH  65  66
ENDBRANCH  64  65
ENDBRANCH  63  64
ENDBRANCH   1  63
TORSDOF 16
ENDMDL
MODEL 2
REMARK VINA RESULT:     -11.6      1.132      2.577
REMARK SMILES O=C(OCCOCCOC(=O)[C@H]1Cc2[nH]cnc2CN1C(=O)c1ccncc1Cl)c1ccc(-c2c3nc(c(-c4c(F)cccc4F)c4ccc([nH]4)c(-c4c(F)cccc4F)c4nc(c(-c5c(F)cccc5F)c5ccc2[nH]5)C=C4)C=C3)cc1
REMARK SMILES IDX 6 1 5 2 4 3 3 4 2 5 1 6 30 7 31 8 83 9 32 10 82 11 33 12
REMARK SMILES IDX 34 13 35 14 76 15 36 16 81 17 75 18 77 19 37 20 80 21 74 22
REMARK SMILES IDX 73 23 38 25 64 26 47 27 63 28 48 29 51 30 62 31 78 32 49 33
REMARK SMILES IDX 50 34 61 36 79 37 52 38 39 39 40 40 45 41 41 42 42 43 44 44
REMARK SMILES IDX 46 45 43 46 65 47 66 48 71 49 67 50 68 51 70 52 72 53 69 54
REMARK SMILES IDX 53 55 54 56 59 57 55 58 56 59 58 60 60 61 57 62 7 63 8 64
REMARK SMILES IDX 9 65 10 66 11 67 12 68 13 69 20 70 14 71 19 72 15 73 18 74
REMARK SMILES IDX 16 75 17 77 21 78 22 79 23 80 24 81 28 82 25 83 27 84 29 85
REMARK SMILES IDX 26 86
REMARK H PARENT 77 24 51 35 15 76
REMARK Flexibility Score: inf
ROOT
ATOM      1  O   UNL A   1      41.377  20.428  26.503  1.00  0.00    -0.374 OA
ENDROOT
BRANCH   1   2
ATOM      2  C   UNL A   1      41.784  19.117  26.113  1.00  0.00     0.202 C 
BRANCH   2   3
ATOM      3  C   UNL A   1      43.260  18.961  25.773  1.00  0.00     0.261 C 
BRANCH   3   4
ATOM      4  O   UNL A   1      43.640  19.768  24.641  1.00  0.00    -0.460 OA
BRANCH   4   5
ATOM      5  C   UNL A   1      44.818  20.422  24.688  1.00  0.00     0.338 C 
ATOM      6  O   UNL A   1      45.869  20.062  24.169  1.00  0.00    -0.246 OA
BRANCH   5   7
ATOM      7  C   UNL A   1      44.698  21.817  25.035  1.00  0.00     0.060 A 
ATOM      8  C   UNL A   1      43.719  22.632  24.483  1.00  0.00     0.016 A 
ATOM      9  C   UNL A   1      45.577  22.250  26.043  1.00  0.00     0.016 A 
ATOM     10  C   UNL A   1      43.607  23.904  24.976  1.00  0.00     0.010 A 
ATOM     11  C   UNL A   1      45.458  23.514  26.545  1.00  0.00     0.010 A 
ATOM     12  C   UNL A   1      44.460  24.313  26.014  1.00  0.00    -0.014 A 
BRANCH  12  13
ATOM     13  C   UNL A   1      44.088  25.530  26.679  1.00  0.00     0.031 A 
ATOM     14  C   UNL A   1      45.079  26.623  26.508  1.00  0.00     0.074 A 
ATOM     15  C   UNL A   1      42.946  25.667  27.358  1.00  0.00     0.049 A 
ATOM     16  N   UNL A   1      45.885  27.090  27.401  1.00  0.00    -0.248 NA
ATOM     17  C   UNL A   1      45.327  27.126  25.147  1.00  0.00     0.031 C 
ATOM     18  C   UNL A   1      41.749  24.832  27.372  1.00  0.00     0.029 A 
ATOM     19  N   UNL A   1      42.637  26.691  28.180  1.00  0.00    -0.354 N 
ATOM     20  C   UNL A   1      46.641  28.067  26.763  1.00  0.00     0.074 A 
ATOM     21  C   UNL A   1      46.345  27.963  25.358  1.00  0.00     0.031 C 
ATOM     22  C   UNL A   1      40.764  25.497  28.020  1.00  0.00     0.029 A 
ATOM     23  C   UNL A   1      41.323  26.713  28.588  1.00  0.00     0.049 A 
ATOM     24  H   UNL A   1      43.295  27.366  28.463  1.00  0.00     0.167 HD
ATOM     25  C   UNL A   1      47.322  29.005  27.474  1.00  0.00     0.037 A 
ATOM     26  C   UNL A   1      40.753  27.722  29.283  1.00  0.00     0.037 A 
ATOM     27  C   UNL A   1      47.541  28.574  28.831  1.00  0.00     0.049 A 
ATOM     28  C   UNL A   1      41.849  28.477  29.955  1.00  0.00     0.074 A 
ATOM     29  C   UNL A   1      48.225  27.519  29.406  1.00  0.00     0.029 A 
ATOM     30  N   UNL A   1      46.692  29.038  29.806  1.00  0.00    -0.354 N 
ATOM     31  N   UNL A   1      42.583  27.984  30.916  1.00  0.00    -0.248 NA
ATOM     32  C   UNL A   1      42.438  29.604  29.243  1.00  0.00     0.031 C 
ATOM     33  C   UNL A   1      47.404  27.096  30.491  1.00  0.00     0.029 A 
ATOM     34  C   UNL A   1      46.298  27.948  30.542  1.00  0.00     0.049 A 
ATOM     35  H   UNL A   1      46.418  29.972  29.948  1.00  0.00     0.167 HD
ATOM     36  C   UNL A   1      43.866  28.462  30.678  1.00  0.00     0.074 A 
ATOM     37  C   UNL A   1      43.698  29.519  29.683  1.00  0.00     0.031 C 
ATOM     38  C   UNL A   1      44.975  27.784  31.099  1.00  0.00     0.037 A 
BRANCH  25  39
ATOM     39  C   UNL A   1      47.476  30.435  27.037  1.00  0.00     0.057 A 
ATOM     40  C   UNL A   1      48.737  31.050  27.117  1.00  0.00     0.134 A 
ATOM     41  C   UNL A   1      46.392  31.312  26.827  1.00  0.00     0.134 A 
ATOM     42  F   UNL A   1      49.847  30.324  27.322  1.00  0.00    -0.206 F 
ATOM     43  C   UNL A   1      48.896  32.440  27.076  1.00  0.00     0.040 A 
ATOM     44  C   UNL A   1      46.545  32.697  26.739  1.00  0.00     0.040 A 
ATOM     45  F   UNL A   1      45.122  30.891  26.800  1.00  0.00    -0.206 F 
ATOM     46  C   UNL A   1      47.796  33.269  26.898  1.00  0.00     0.006 A 
ENDBRANCH  25  39
BRANCH  26  47
ATOM     47  C   UNL A   1      39.396  28.260  29.082  1.00  0.00     0.057 A 
ATOM     48  C   UNL A   1      38.468  28.272  30.126  1.00  0.00     0.134 A 
ATOM     49  C   UNL A   1      39.064  29.012  27.938  1.00  0.00     0.134 A 
ATOM     50  F   UNL A   1      38.723  27.618  31.267  1.00  0.00    -0.206 F 
ATOM     51  C   UNL A   1      37.278  29.005  30.047  1.00  0.00     0.040 A 
ATOM     52  C   UNL A   1      37.878  29.742  27.844  1.00  0.00     0.040 A 
ATOM     53  F   UNL A   1      39.919  29.134  26.912  1.00  0.00    -0.206 F 
ATOM     54  C   UNL A   1      36.985  29.751  28.908  1.00  0.00     0.006 A 
ENDBRANCH  26  47
BRANCH  38  55
ATOM     55  C   UNL A   1      44.778  26.608  32.016  1.00  0.00     0.057 A 
ATOM     56  C   UNL A   1      44.554  25.298  31.566  1.00  0.00     0.134 A 
ATOM     57  C   UNL A   1      45.003  26.775  33.387  1.00  0.00     0.134 A 
ATOM     58  F   UNL A   1      44.435  25.025  30.260  1.00  0.00    -0.206 F 
ATOM     59  C   UNL A   1      44.516  24.211  32.446  1.00  0.00     0.040 A 
ATOM     60  C   UNL A   1      44.999  25.695  34.272  1.00  0.00     0.040 A 
ATOM     61  F   UNL A   1      45.287  27.991  33.882  1.00  0.00    -0.206 F 
ATOM     62  C   UNL A   1      44.747  24.408  33.803  1.00  0.00     0.006 A 
ENDBRANCH  38  55
ENDBRANCH  12  13
ENDBRANCH   5   7
ENDBRANCH   4   5
ENDBRANCH   3   4
ENDBRANCH   2   3
ENDBRANCH   1   2
BRANCH   1  63
ATOM     63  C   UNL A   1      40.034  20.759  26.138  1.00  0.00     0.202 C 
BRANCH  63  64
ATOM     64  C   UNL A   1      39.539  22.151  26.497  1.00  0.00     0.261 C 
BRANCH  64  65
ATOM     65  O   UNL A   1      38.349  22.395  25.696  1.00  0.00    -0.462 OA
BRANCH  65  66
ATOM     66  C   UNL A   1      37.524  23.335  26.181  1.00  0.00     0.329 C 
ATOM     67  O   UNL A   1      37.881  24.492  26.401  1.00  0.00    -0.250 OA
BRANCH  66  68
ATOM     68  C   UNL A   1      36.041  22.926  26.296  1.00  0.00     0.201 C 
ATOM     69  C   UNL A   1      35.228  24.037  25.525  1.00  0.00     0.093 C 
ATOM     70  N   UNL A   1      35.237  21.629  26.274  1.00  0.00    -0.318 N 
ATOM     71  C   UNL A   1      33.863  24.065  26.079  1.00  0.00     0.042 A 
ATOM     72  C   UNL A   1      33.995  21.750  27.118  1.00  0.00     0.179 C 
ATOM     73  N   UNL A   1      32.951  25.074  26.045  1.00  0.00    -0.348 N 
ATOM     74  C   UNL A   1      33.285  23.032  26.777  1.00  0.00     0.081 A 
ATOM     75  C   UNL A   1      31.850  24.614  26.718  1.00  0.00     0.197 A 
ATOM     76  H   UNL A   1      33.061  25.957  25.623  1.00  0.00     0.167 HD
ATOM     77  N   UNL A   1      32.026  23.392  27.180  1.00  0.00    -0.240 NA
BRANCH  70  78
ATOM     78  C   UNL A   1      35.111  20.628  25.298  1.00  0.00     0.256 C 
ATOM     79  O   UNL A   1      36.115  20.189  24.719  1.00  0.00    -0.269 OA
BRANCH  78  80
ATOM     80  C   UNL A   1      33.870  20.052  24.734  1.00  0.00     0.061 A 
ATOM     81  C   UNL A   1      33.746  18.655  24.902  1.00  0.00     0.035 A 
ATOM     82  C   UNL A   1      33.105  20.655  23.740  1.00  0.00     0.072 A 
ATOM     83  C   UNL A   1      32.879  17.933  24.098  1.00  0.00     0.112 A 
ATOM     84  C   UNL A   1      32.210  19.849  23.029  1.00  0.00     0.132 A 
ATOM     85  Cl  UNL A   1      33.341  22.270  23.191  1.00  0.00    -0.082 Cl
ATOM     86  N   UNL A   1      32.091  18.503  23.171  1.00  0.00    -0.263 NA
ENDBRANCH  78  80
ENDBRANCH  70  78
ENDBRANCH  66  68
ENDBRANCH  65  66
ENDBRANCH  64  65
ENDBRANCH  63  64
ENDBRANCH   1  63
TORSDOF 16
ENDMDL
MODEL 3
REMARK VINA RESULT:     -11.5      2.856      7.381
REMARK SMILES O=C(OCCOCCOC(=O)[C@H]1Cc2[nH]cnc2CN1C(=O)c1ccncc1Cl)c1ccc(-c2c3nc(c(-c4c(F)cccc4F)c4ccc([nH]4)c(-c4c(F)cccc4F)c4nc(c(-c5c(F)cccc5F)c5ccc2[nH]5)C=C4)C=C3)cc1
REMARK SMILES IDX 6 1 5 2 4 3 3 4 2 5 1 6 30 7 31 8 83 9 32 10 82 11 33 12
REMARK SMILES IDX 34 13 35 14 76 15 36 16 81 17 75 18 77 19 37 20 80 21 74 22
REMARK SMILES IDX 73 23 38 25 64 26 47 27 63 28 48 29 51 30 62 31 78 32 49 33
REMARK SMILES IDX 50 34 61 36 79 37 52 38 39 39 40 40 45 41 41 42 42 43 44 44
REMARK SMILES IDX 46 45 43 46 65 47 66 48 71 49 67 50 68 51 70 52 72 53 69 54
REMARK SMILES IDX 53 55 54 56 59 57 55 58 56 59 58 60 60 61 57 62 7 63 8 64
REMARK SMILES IDX 9 65 10 66 11 67 12 68 13 69 20 70 14 71 19 72 15 73 18 74
REMARK SMILES IDX 16 75 17 77 21 78 22 79 23 80 24 81 28 82 25 83 27 84 29 85
REMARK SMILES IDX 26 86
REMARK H PARENT 77 24 51 35 15 76
REMARK Flexibility Score: inf
ROOT
ATOM      1  O   UNL A   1      33.958  29.152  25.883  1.00  0.00    -0.374 OA
ENDROOT
BRANCH   1   2
ATOM      2  C   UNL A   1      33.695  30.147  26.872  1.00  0.00     0.202 C 
BRANCH   2   3
ATOM      3  C   UNL A   1      34.879  30.534  27.748  1.00  0.00     0.261 C 
BRANCH   3   4
ATOM      4  O   UNL A   1      35.588  29.378  28.236  1.00  0.00    -0.460 OA
BRANCH   4   5
ATOM      5  C   UNL A   1      36.570  29.564  29.140  1.00  0.00     0.338 C 
ATOM      6  O   UNL A   1      36.422  29.810  30.332  1.00  0.00    -0.246 OA
BRANCH   5   7
ATOM      7  C   UNL A   1      37.849  29.039  28.729  1.00  0.00     0.060 A 
ATOM      8  C   UNL A   1      38.497  29.487  27.586  1.00  0.00     0.016 A 
ATOM      9  C   UNL A   1      38.424  28.122  29.626  1.00  0.00     0.016 A 
ATOM     10  C   UNL A   1      39.764  29.022  27.357  1.00  0.00     0.010 A 
ATOM     11  C   UNL A   1      39.692  27.666  29.405  1.00  0.00     0.010 A 
ATOM     12  C   UNL A   1      40.348  28.141  28.282  1.00  0.00    -0.014 A 
BRANCH  12  13
ATOM     13  C   UNL A   1      41.762  27.941  28.140  1.00  0.00     0.031 A 
ATOM     14  C   UNL A   1      42.112  26.692  27.415  1.00  0.00     0.074 A 
ATOM     15  C   UNL A   1      42.668  28.811  28.592  1.00  0.00     0.049 A 
ATOM     16  N   UNL A   1      42.619  25.617  27.916  1.00  0.00    -0.248 NA
ATOM     17  C   UNL A   1      41.680  26.562  26.013  1.00  0.00     0.031 C 
ATOM     18  C   UNL A   1      42.511  30.193  29.037  1.00  0.00     0.029 A 
ATOM     19  N   UNL A   1      43.995  28.588  28.690  1.00  0.00    -0.354 N 
ATOM     20  C   UNL A   1      42.727  24.717  26.863  1.00  0.00     0.074 A 
ATOM     21  C   UNL A   1      42.027  25.300  25.749  1.00  0.00     0.031 C 
ATOM     22  C   UNL A   1      43.739  30.746  29.172  1.00  0.00     0.029 A 
ATOM     23  C   UNL A   1      44.739  29.709  28.978  1.00  0.00     0.049 A 
ATOM     24  H   UNL A   1      44.397  27.698  28.566  1.00  0.00     0.167 HD
ATOM     25  C   UNL A   1      43.544  23.632  26.947  1.00  0.00     0.037 A 
ATOM     26  C   UNL A   1      46.089  29.755  28.972  1.00  0.00     0.037 A 
ATOM     27  C   UNL A   1      43.845  23.310  28.318  1.00  0.00     0.049 A 
ATOM     28  C   UNL A   1      46.585  28.359  29.137  1.00  0.00     0.074 A 
ATOM     29  C   UNL A   1      43.083  22.924  29.404  1.00  0.00     0.029 A 
ATOM     30  N   UNL A   1      45.040  23.742  28.840  1.00  0.00    -0.354 N 
ATOM     31  N   UNL A   1      46.430  27.661  30.230  1.00  0.00    -0.248 NA
ATOM     32  C   UNL A   1      46.833  27.575  27.934  1.00  0.00     0.031 C 
ATOM     33  C   UNL A   1      43.653  23.609  30.515  1.00  0.00     0.029 A 
ATOM     34  C   UNL A   1      44.756  24.328  30.049  1.00  0.00     0.049 A 
ATOM     35  H   UNL A   1      45.928  23.650  28.427  1.00  0.00     0.167 HD
ATOM     36  C   UNL A   1      46.166  26.366  29.802  1.00  0.00     0.074 A 
ATOM     37  C   UNL A   1      46.508  26.358  28.383  1.00  0.00     0.031 C 
ATOM     38  C   UNL A   1      45.441  25.492  30.563  1.00  0.00     0.037 A 
BRANCH  25  39
ATOM     39  C   UNL A   1      44.336  23.092  25.788  1.00  0.00     0.057 A 
ATOM     40  C   UNL A   1      44.281  21.719  25.494  1.00  0.00     0.134 A 
ATOM     41  C   UNL A   1      45.370  23.804  25.146  1.00  0.00     0.134 A 
ATOM     42  F   UNL A   1      43.346  20.931  26.049  1.00  0.00    -0.206 F 
ATOM     43  C   UNL A   1      45.235  21.087  24.687  1.00  0.00     0.040 A 
ATOM     44  C   UNL A   1      46.299  23.191  24.303  1.00  0.00     0.040 A 
ATOM     45  F   UNL A   1      45.601  25.101  25.377  1.00  0.00    -0.206 F 
ATOM     46  C   UNL A   1      46.255  21.822  24.098  1.00  0.00     0.006 A 
ENDBRANCH  25  39
BRANCH  26  47
ATOM     47  C   UNL A   1      46.920  30.861  28.464  1.00  0.00     0.057 A 
ATOM     48  C   UNL A   1      46.856  31.249  27.123  1.00  0.00     0.134 A 
ATOM     49  C   UNL A   1      47.603  31.730  29.337  1.00  0.00     0.134 A 
ATOM     50  F   UNL A   1      46.189  30.501  26.233  1.00  0.00    -0.206 F 
ATOM     51  C   UNL A   1      47.424  32.446  26.674  1.00  0.00     0.040 A 
ATOM     52  C   UNL A   1      48.180  32.924  28.900  1.00  0.00     0.040 A 
ATOM     53  F   UNL A   1      47.655  31.493  30.656  1.00  0.00    -0.206 F 
ATOM     54  C   UNL A   1      48.079  33.293  27.565  1.00  0.00     0.006 A 
ENDBRANCH  26  47
BRANCH  38  55
ATOM     55  C   UNL A   1      45.110  25.891  31.975  1.00  0.00     0.057 A 
ATOM     56  C   UNL A   1      45.974  25.691  33.063  1.00  0.00     0.134 A 
ATOM     57  C   UNL A   1      43.966  26.661  32.210  1.00  0.00     0.134 A 
ATOM     58  F   UNL A   1      47.144  25.059  32.912  1.00  0.00    -0.206 F 
ATOM     59  C   UNL A   1      45.689  26.201  34.334  1.00  0.00     0.040 A 
ATOM     60  C   UNL A   1      43.687  27.204  33.466  1.00  0.00     0.040 A 
ATOM     61  F   UNL A   1      43.126  26.948  31.202  1.00  0.00    -0.206 F 
ATOM     62  C   UNL A   1      44.546  26.967  34.537  1.00  0.00     0.006 A 
ENDBRANCH  38  55
ENDBRANCH  12  13
ENDBRANCH   5   7
ENDBRANCH   4   5
ENDBRANCH   3   4
ENDBRANCH   2   3
ENDBRANCH   1   2
BRANCH   1  63
ATOM     63  C   UNL A   1      32.987  29.093  24.836  1.00  0.00     0.202 C 
BRANCH  63  64
ATOM     64  C   UNL A   1      33.503  28.933  23.415  1.00  0.00     0.261 C 
BRANCH  64  65
ATOM     65  O   UNL A   1      32.591  28.028  22.733  1.00  0.00    -0.462 OA
BRANCH  65  66
ATOM     66  C   UNL A   1      33.099  26.820  22.448  1.00  0.00     0.329 C 
ATOM     67  O   UNL A   1      33.657  26.561  21.382  1.00  0.00    -0.250 OA
BRANCH  66  68
ATOM     68  C   UNL A   1      33.092  25.803  23.608  1.00  0.00     0.201 C 
ATOM     69  C   UNL A   1      31.694  25.075  23.532  1.00  0.00     0.093 C 
ATOM     70  N   UNL A   1      34.094  24.867  24.278  1.00  0.00    -0.318 N 
ATOM     71  C   UNL A   1      31.371  24.573  24.879  1.00  0.00     0.042 A 
ATOM     72  C   UNL A   1      33.762  24.674  25.734  1.00  0.00     0.179 C 
ATOM     73  N   UNL A   1      30.156  24.258  25.402  1.00  0.00    -0.348 N 
ATOM     74  C   UNL A   1      32.296  24.362  25.874  1.00  0.00     0.081 A 
ATOM     75  C   UNL A   1      30.387  23.863  26.693  1.00  0.00     0.197 A 
ATOM     76  H   UNL A   1      29.285  24.307  24.945  1.00  0.00     0.167 HD
ATOM     77  N   UNL A   1      31.666  23.925  27.008  1.00  0.00    -0.240 NA
BRANCH  70  78
ATOM     78  C   UNL A   1      34.859  23.805  23.771  1.00  0.00     0.256 C 
ATOM     79  O   UNL A   1      34.940  23.621  22.547  1.00  0.00    -0.269 OA
BRANCH  78  80
ATOM     80  C   UNL A   1      35.542  22.729  24.522  1.00  0.00     0.061 A 
ATOM     81  C   UNL A   1      36.939  22.901  24.648  1.00  0.00     0.035 A 
ATOM     82  C   UNL A   1      35.028  21.448  24.701  1.00  0.00     0.072 A 
ATOM     83  C   UNL A   1      37.747  21.818  24.950  1.00  0.00     0.112 A 
ATOM     84  C   UNL A   1      35.920  20.436  25.071  1.00  0.00     0.132 A 
ATOM     85  Cl  UNL A   1      33.419  20.991  24.295  1.00  0.00    -0.082 Cl
ATOM     86  N   UNL A   1      37.266  20.584  25.181  1.00  0.00    -0.263 NA
ENDBRANCH  78  80
ENDBRANCH  70  78
ENDBRANCH  66  68
ENDBRANCH  65  66
ENDBRANCH  64  65
ENDBRANCH  63  64
ENDBRANCH   1  63
TORSDOF 16
ENDMDL
