MODEL 1
REMARK VINA RESULT:     -10.8      0.000      0.000
REMARK SMILES CSCC[C@H](NC(=O)Cc1c(C)c2ccc(O)cc2oc1=O)C(=O)OCCOCCOC(=O)c1ccc(-c2c3nc(c(-c4c(F)cccc4F)c4ccc([nH]4)c(-c4c(F)cccc4F)c4nc(c(-c5c(F)cccc5F)c5ccc2[nH]5)C=C4)C=C3)cc1
REMARK SMILES IDX 27 1 26 2 25 3 23 4 24 5 5 6 4 7 3 8 2 9 1 10 6 11 7 12 8 14
REMARK SMILES IDX 9 15 10 16 11 17 21 18 12 19 13 20 20 21 22 22 14 23 19 24
REMARK SMILES IDX 15 25 18 26 16 27 17 28 28 30 29 31 30 32 31 33 32 34 33 35
REMARK SMILES IDX 34 36 35 37 87 38 36 39 86 40 37 41 38 42 39 43 80 44 40 45
REMARK SMILES IDX 85 46 79 47 81 48 41 49 84 50 78 51 77 52 42 54 68 55 51 56
REMARK SMILES IDX 67 57 52 58 55 59 66 60 82 61 53 62 54 63 65 65 83 66 56 67
REMARK SMILES IDX 43 68 44 69 49 70 45 71 46 72 48 73 50 74 47 75 69 76 70 77
REMARK SMILES IDX 75 78 71 79 72 80 74 81 76 82 73 83 57 84 58 85 63 86 59 87
REMARK SMILES IDX 60 88 62 89 64 90 61 91
REMARK H PARENT 6 13 17 29 81 53 55 64
REMARK Flexibility Score: inf
ROOT
ATOM      1  C   UNL A   1      33.578  27.079  26.130  1.00  0.00     0.202 C 
ENDROOT
BRANCH   1   2
ATOM      2  C   UNL A   1      34.099  26.165  25.025  1.00  0.00     0.261 C 
BRANCH   2   3
ATOM      3  O   UNL A   1      34.582  24.943  25.624  1.00  0.00    -0.462 OA
BRANCH   3   4
ATOM      4  C   UNL A   1      34.835  23.936  24.764  1.00  0.00     0.328 C 
ATOM      5  O   UNL A   1      35.114  24.114  23.583  1.00  0.00    -0.250 OA
BRANCH   4   6
ATOM      6  C   UNL A   1      34.845  22.537  25.422  1.00  0.00     0.193 C 
BRANCH   6   7
ATOM      7  C   UNL A   1      34.746  21.374  24.430  1.00  0.00     0.048 C 
BRANCH   7   8
ATOM      8  C   UNL A   1      34.707  19.946  24.964  1.00  0.00     0.072 C 
BRANCH   8   9
ATOM      9  S   UNL A   1      33.295  18.961  24.396  1.00  0.00    -0.165 SA
ATOM     10  C   UNL A   1      34.157  17.474  23.836  1.00  0.00     0.085 C 
ENDBRANCH   8   9
ENDBRANCH   7   8
ENDBRANCH   6   7
BRANCH   6  11
ATOM     11  N   UNL A   1      34.212  22.285  26.721  1.00  0.00    -0.342 N 
ATOM     12  C   UNL A   1      32.879  22.355  27.054  1.00  0.00     0.225 C 
ATOM     13  H   UNL A   1      34.822  22.034  27.452  1.00  0.00     0.164 HD
ATOM     14  O   UNL A   1      32.615  22.542  28.243  1.00  0.00    -0.275 OA
BRANCH  12  15
ATOM     15  C   UNL A   1      31.773  22.121  26.007  1.00  0.00     0.143 C 
BRANCH  15  16
ATOM     16  C   UNL A   1      31.331  23.365  25.264  1.00  0.00     0.051 A 
ATOM     17  C   UNL A   1      31.499  23.581  23.942  1.00  0.00    -0.029 A 
ATOM     18  C   UNL A   1      30.448  24.312  26.022  1.00  0.00     0.340 A 
ATOM     19  C   UNL A   1      31.819  22.547  22.899  1.00  0.00     0.046 C 
ATOM     20  C   UNL A   1      31.291  24.926  23.420  1.00  0.00     0.021 A 
ATOM     21  O   UNL A   1      29.854  25.353  25.302  1.00  0.00    -0.422 OA
ATOM     22  O   UNL A   1      30.138  24.104  27.190  1.00  0.00    -0.246 OA
ATOM     23  C   UNL A   1      31.980  25.417  22.302  1.00  0.00     0.016 A 
ATOM     24  C   UNL A   1      30.368  25.737  24.054  1.00  0.00     0.142 A 
ATOM     25  C   UNL A   1      31.644  26.654  21.761  1.00  0.00     0.047 A 
ATOM     26  C   UNL A   1      29.973  26.947  23.494  1.00  0.00     0.094 A 
ATOM     27  C   UNL A   1      30.607  27.384  22.332  1.00  0.00     0.119 A 
BRANCH  27  28
ATOM     28  O   UNL A   1      30.197  28.557  21.773  1.00  0.00    -0.508 OA
ATOM     29  H   UNL A   1      30.775  29.295  21.757  1.00  0.00     0.293 HD
ENDBRANCH  27  28
ENDBRANCH  15  16
ENDBRANCH  12  15
ENDBRANCH   6  11
ENDBRANCH   4   6
ENDBRANCH   3   4
ENDBRANCH   2   3
ENDBRANCH   1   2
BRANCH   1  30
ATOM     30  O   UNL A   1      32.406  27.832  25.826  1.00  0.00    -0.374 OA
BRANCH  30  31
ATOM     31  C   UNL A   1      32.567  29.079  25.154  1.00  0.00     0.202 C 
BRANCH  31  32
ATOM     32  C   UNL A   1      31.901  30.309  25.785  1.00  0.00     0.261 C 
BRANCH  32  33
ATOM     33  O   UNL A   1      32.359  30.553  27.127  1.00  0.00    -0.460 OA
BRANCH  33  34
ATOM     34  C   UNL A   1      33.043  31.711  27.285  1.00  0.00     0.338 C 
ATOM     35  O   UNL A   1      32.594  32.848  27.264  1.00  0.00    -0.246 OA
BRANCH  34  36
ATOM     36  C   UNL A   1      34.422  31.411  27.713  1.00  0.00     0.060 A 
ATOM     37  C   UNL A   1      34.770  30.068  27.918  1.00  0.00     0.016 A 
ATOM     38  C   UNL A   1      35.344  32.430  27.957  1.00  0.00     0.016 A 
ATOM     39  C   UNL A   1      36.026  29.738  28.424  1.00  0.00     0.010 A 
ATOM     40  C   UNL A   1      36.600  32.099  28.470  1.00  0.00     0.010 A 
ATOM     41  C   UNL A   1      36.929  30.757  28.749  1.00  0.00    -0.014 A 
BRANCH  41  42
ATOM     42  C   UNL A   1      38.113  30.459  29.589  1.00  0.00     0.031 A 
ATOM     43  C   UNL A   1      39.165  29.544  29.022  1.00  0.00     0.074 A 
ATOM     44  C   UNL A   1      38.262  30.981  30.819  1.00  0.00     0.049 A 
ATOM     45  N   UNL A   1      40.219  29.029  29.598  1.00  0.00    -0.248 NA
ATOM     46  C   UNL A   1      38.993  29.148  27.614  1.00  0.00     0.031 C 
ATOM     47  C   UNL A   1      37.348  31.924  31.459  1.00  0.00     0.029 A 
ATOM     48  N   UNL A   1      39.242  30.770  31.757  1.00  0.00    -0.354 N 
ATOM     49  C   UNL A   1      40.820  28.230  28.632  1.00  0.00     0.074 A 
ATOM     50  C   UNL A   1      39.998  28.304  27.445  1.00  0.00     0.031 C 
ATOM     51  C   UNL A   1      37.801  32.197  32.695  1.00  0.00     0.029 A 
ATOM     52  C   UNL A   1      39.012  31.415  32.947  1.00  0.00     0.049 A 
ATOM     53  H   UNL A   1      40.035  30.209  31.592  1.00  0.00     0.167 HD
ATOM     54  C   UNL A   1      41.959  27.505  28.723  1.00  0.00     0.037 A 
ATOM     55  C   UNL A   1      39.684  31.352  34.115  1.00  0.00     0.037 A 
ATOM     56  C   UNL A   1      42.779  27.442  29.902  1.00  0.00     0.049 A 
ATOM     57  C   UNL A   1      40.906  30.473  34.221  1.00  0.00     0.074 A 
ATOM     58  C   UNL A   1      43.959  26.746  30.093  1.00  0.00     0.029 A 
ATOM     59  N   UNL A   1      42.501  28.099  31.091  1.00  0.00    -0.354 N 
ATOM     60  N   UNL A   1      41.471  29.726  33.303  1.00  0.00    -0.248 NA
ATOM     61  C   UNL A   1      41.584  30.428  35.525  1.00  0.00     0.031 C 
ATOM     62  C   UNL A   1      44.366  26.935  31.416  1.00  0.00     0.029 A 
ATOM     63  C   UNL A   1      43.477  27.806  32.027  1.00  0.00     0.049 A 
ATOM     64  H   UNL A   1      41.726  28.685  31.246  1.00  0.00     0.167 HD
ATOM     65  C   UNL A   1      42.592  29.163  33.903  1.00  0.00     0.074 A 
ATOM     66  C   UNL A   1      42.625  29.650  35.265  1.00  0.00     0.031 C 
ATOM     67  C   UNL A   1      43.516  28.326  33.370  1.00  0.00     0.037 A 
BRANCH  54  68
ATOM     68  C   UNL A   1      42.364  26.697  27.526  1.00  0.00     0.057 A 
ATOM     69  C   UNL A   1      43.173  27.224  26.511  1.00  0.00     0.134 A 
ATOM     70  C   UNL A   1      41.961  25.361  27.402  1.00  0.00     0.134 A 
ATOM     71  F   UNL A   1      43.581  28.501  26.559  1.00  0.00    -0.206 F 
ATOM     72  C   UNL A   1      43.544  26.459  25.403  1.00  0.00     0.040 A 
ATOM     73  C   UNL A   1      42.352  24.577  26.316  1.00  0.00     0.040 A 
ATOM     74  F   UNL A   1      41.189  24.792  28.340  1.00  0.00    -0.206 F 
ATOM     75  C   UNL A   1      43.139  25.129  25.308  1.00  0.00     0.006 A 
ENDBRANCH  54  68
BRANCH  55  76
ATOM     76  C   UNL A   1      39.211  32.126  35.291  1.00  0.00     0.057 A 
ATOM     77  C   UNL A   1      38.371  31.546  36.251  1.00  0.00     0.134 A 
ATOM     78  C   UNL A   1      39.558  33.470  35.471  1.00  0.00     0.134 A 
ATOM     79  F   UNL A   1      37.981  30.270  36.124  1.00  0.00    -0.206 F 
ATOM     80  C   UNL A   1      37.877  32.282  37.331  1.00  0.00     0.040 A 
ATOM     81  C   UNL A   1      39.097  34.209  36.561  1.00  0.00     0.040 A 
ATOM     82  F   UNL A   1      40.360  34.087  34.587  1.00  0.00    -0.206 F 
ATOM     83  C   UNL A   1      38.244  33.615  37.491  1.00  0.00     0.006 A 
ENDBRANCH  55  76
BRANCH  67  84
ATOM     84  C   UNL A   1      44.690  27.936  34.221  1.00  0.00     0.057 A 
ATOM     85  C   UNL A   1      44.711  26.755  34.971  1.00  0.00     0.134 A 
ATOM     86  C   UNL A   1      45.855  28.716  34.210  1.00  0.00     0.134 A 
ATOM     87  F   UNL A   1      43.627  25.967  35.033  1.00  0.00    -0.206 F 
ATOM     88  C   UNL A   1      45.847  26.367  35.685  1.00  0.00     0.040 A 
ATOM     89  C   UNL A   1      47.005  28.325  34.896  1.00  0.00     0.040 A 
ATOM     90  F   UNL A   1      45.904  29.855  33.501  1.00  0.00    -0.206 F 
ATOM     91  C   UNL A   1      47.002  27.147  35.639  1.00  0.00     0.006 A 
ENDBRANCH  67  84
ENDBRANCH  41  42
ENDBRANCH  34  36
ENDBRANCH  33  34
ENDBRANCH  32  33
ENDBRANCH  31  32
ENDBRANCH  30  31
ENDBRANCH   1  30
TORSDOF 21
ENDMDL
MODEL 2
REMARK VINA RESULT:     -10.6      1.618      3.937
REMARK SMILES CSCC[C@H](NC(=O)Cc1c(C)c2ccc(O)cc2oc1=O)C(=O)OCCOCCOC(=O)c1ccc(-c2c3nc(c(-c4c(F)cccc4F)c4ccc([nH]4)c(-c4c(F)cccc4F)c4nc(c(-c5c(F)cccc5F)c5ccc2[nH]5)C=C4)C=C3)cc1
REMARK SMILES IDX 27 1 26 2 25 3 23 4 24 5 5 6 4 7 3 8 2 9 1 10 6 11 7 12 8 14
REMARK SMILES IDX 9 15 10 16 11 17 21 18 12 19 13 20 20 21 22 22 14 23 19 24
REMARK SMILES IDX 15 25 18 26 16 27 17 28 28 30 29 31 30 32 31 33 32 34 33 35
REMARK SMILES IDX 34 36 35 37 87 38 36 39 86 40 37 41 38 42 39 43 80 44 40 45
REMARK SMILES IDX 85 46 79 47 81 48 41 49 84 50 78 51 77 52 42 54 68 55 51 56
REMARK SMILES IDX 67 57 52 58 55 59 66 60 82 61 53 62 54 63 65 65 83 66 56 67
REMARK SMILES IDX 43 68 44 69 49 70 45 71 46 72 48 73 50 74 47 75 69 76 70 77
REMARK SMILES IDX 75 78 71 79 72 80 74 81 76 82 73 83 57 84 58 85 63 86 59 87
REMARK SMILES IDX 60 88 62 89 64 90 61 91
REMARK H PARENT 6 13 17 29 81 53 55 64
REMARK Flexibility Score: inf
ROOT
ATOM      1  C   UNL A   1      32.484  28.928  22.723  1.00  0.00     0.202 C 
ENDROOT
BRANCH   1   2
ATOM      2  C   UNL A   1      33.814  28.183  22.672  1.00  0.00     0.261 C 
BRANCH   2   3
ATOM      3  O   UNL A   1      33.953  27.399  23.876  1.00  0.00    -0.462 OA
BRANCH   3   4
ATOM      4  C   UNL A   1      33.669  26.087  23.749  1.00  0.00     0.328 C 
ATOM      5  O   UNL A   1      33.608  25.513  22.667  1.00  0.00    -0.250 OA
BRANCH   4   6
ATOM      6  C   UNL A   1      33.527  25.343  25.098  1.00  0.00     0.193 C 
BRANCH   6   7
ATOM      7  C   UNL A   1      32.616  26.044  26.111  1.00  0.00     0.048 C 
BRANCH   7   8
ATOM      8  C   UNL A   1      31.116  26.091  25.848  1.00  0.00     0.072 C 
BRANCH   8   9
ATOM      9  S   UNL A   1      30.588  25.290  24.310  1.00  0.00    -0.165 SA
ATOM     10  C   UNL A   1      29.193  26.351  23.867  1.00  0.00     0.085 C 
ENDBRANCH   8   9
ENDBRANCH   7   8
ENDBRANCH   6   7
BRANCH   6  11
ATOM     11  N   UNL A   1      34.641  24.598  25.694  1.00  0.00    -0.342 N 
ATOM     12  C   UNL A   1      34.954  23.266  25.553  1.00  0.00     0.225 C 
ATOM     13  H   UNL A   1      35.242  25.119  26.274  1.00  0.00     0.164 HD
ATOM     14  O   UNL A   1      35.628  22.758  26.451  1.00  0.00    -0.275 OA
BRANCH  12  15
ATOM     15  C   UNL A   1      34.561  22.473  24.292  1.00  0.00     0.143 C 
BRANCH  15  16
ATOM     16  C   UNL A   1      34.038  21.077  24.559  1.00  0.00     0.051 A 
ATOM     17  C   UNL A   1      34.802  19.969  24.669  1.00  0.00    -0.029 A 
ATOM     18  C   UNL A   1      32.593  20.973  24.948  1.00  0.00     0.340 A 
ATOM     19  C   UNL A   1      36.286  19.923  24.896  1.00  0.00     0.046 C 
ATOM     20  C   UNL A   1      34.152  18.664  24.637  1.00  0.00     0.021 A 
ATOM     21  O   UNL A   1      32.138  19.732  25.406  1.00  0.00    -0.422 OA
ATOM     22  O   UNL A   1      31.872  21.964  25.006  1.00  0.00    -0.246 OA
ATOM     23  C   UNL A   1      34.784  17.517  24.138  1.00  0.00     0.016 A 
ATOM     24  C   UNL A   1      32.864  18.565  25.131  1.00  0.00     0.142 A 
ATOM     25  C   UNL A   1      34.175  16.273  24.259  1.00  0.00     0.047 A 
ATOM     26  C   UNL A   1      32.263  17.324  25.318  1.00  0.00     0.094 A 
ATOM     27  C   UNL A   1      32.941  16.182  24.895  1.00  0.00     0.119 A 
BRANCH  27  28
ATOM     28  O   UNL A   1      32.359  14.969  25.107  1.00  0.00    -0.508 OA
ATOM     29  H   UNL A   1      32.030  14.749  25.957  1.00  0.00     0.293 HD
ENDBRANCH  27  28
ENDBRANCH  15  16
ENDBRANCH  12  15
ENDBRANCH   6  11
ENDBRANCH   4   6
ENDBRANCH   3   4
ENDBRANCH   2   3
ENDBRANCH   1   2
BRANCH   1  30
ATOM     30  O   UNL A   1      31.873  29.043  24.007  1.00  0.00    -0.374 OA
BRANCH  30  31
ATOM     31  C   UNL A   1      32.590  29.732  25.030  1.00  0.00     0.202 C 
BRANCH  31  32
ATOM     32  C   UNL A   1      31.773  30.590  26.005  1.00  0.00     0.261 C 
BRANCH  32  33
ATOM     33  O   UNL A   1      32.412  30.722  27.287  1.00  0.00    -0.460 OA
BRANCH  33  34
ATOM     34  C   UNL A   1      33.171  31.836  27.423  1.00  0.00     0.338 C 
ATOM     35  O   UNL A   1      32.795  32.999  27.393  1.00  0.00    -0.246 OA
BRANCH  34  36
ATOM     36  C   UNL A   1      34.533  31.453  27.839  1.00  0.00     0.060 A 
ATOM     37  C   UNL A   1      34.777  30.103  28.131  1.00  0.00     0.016 A 
ATOM     38  C   UNL A   1      35.542  32.406  27.988  1.00  0.00     0.016 A 
ATOM     39  C   UNL A   1      36.015  29.706  28.632  1.00  0.00     0.010 A 
ATOM     40  C   UNL A   1      36.781  32.008  28.495  1.00  0.00     0.010 A 
ATOM     41  C   UNL A   1      37.007  30.667  28.862  1.00  0.00    -0.014 A 
BRANCH  41  42
ATOM     42  C   UNL A   1      38.187  30.330  29.694  1.00  0.00     0.031 A 
ATOM     43  C   UNL A   1      39.207  29.386  29.117  1.00  0.00     0.074 A 
ATOM     44  C   UNL A   1      38.360  30.844  30.924  1.00  0.00     0.049 A 
ATOM     45  N   UNL A   1      40.249  28.837  29.685  1.00  0.00    -0.248 NA
ATOM     46  C   UNL A   1      39.015  28.999  27.709  1.00  0.00     0.031 C 
ATOM     47  C   UNL A   1      37.479  31.812  31.572  1.00  0.00     0.029 A 
ATOM     48  N   UNL A   1      39.339  30.600  31.855  1.00  0.00    -0.354 N 
ATOM     49  C   UNL A   1      40.819  28.024  28.713  1.00  0.00     0.074 A 
ATOM     50  C   UNL A   1      39.992  28.126  27.531  1.00  0.00     0.031 C 
ATOM     51  C   UNL A   1      37.948  32.068  32.806  1.00  0.00     0.029 A 
ATOM     52  C   UNL A   1      39.135  31.249  33.049  1.00  0.00     0.049 A 
ATOM     53  H   UNL A   1      40.113  30.017  31.684  1.00  0.00     0.167 HD
ATOM     54  C   UNL A   1      41.936  27.263  28.795  1.00  0.00     0.037 A 
ATOM     55  C   UNL A   1      39.812  31.162  34.212  1.00  0.00     0.037 A 
ATOM     56  C   UNL A   1      42.761  27.172  29.968  1.00  0.00     0.049 A 
ATOM     57  C   UNL A   1      41.008  30.246  34.307  1.00  0.00     0.074 A 
ATOM     58  C   UNL A   1      43.921  26.441  30.150  1.00  0.00     0.029 A 
ATOM     59  N   UNL A   1      42.511  27.834  31.161  1.00  0.00    -0.354 N 
ATOM     60  N   UNL A   1      41.544  29.485  33.384  1.00  0.00    -0.248 NA
ATOM     61  C   UNL A   1      41.693  30.177  35.607  1.00  0.00     0.031 C 
ATOM     62  C   UNL A   1      44.341  26.613  31.471  1.00  0.00     0.029 A 
ATOM     63  C   UNL A   1      43.483  27.508  32.090  1.00  0.00     0.049 A 
ATOM     64  H   UNL A   1      41.755  28.443  31.322  1.00  0.00     0.167 HD
ATOM     65  C   UNL A   1      42.651  28.886  33.976  1.00  0.00     0.074 A 
ATOM     66  C   UNL A   1      42.708  29.368  35.339  1.00  0.00     0.031 C 
ATOM     67  C   UNL A   1      43.546  28.024  33.434  1.00  0.00     0.037 A 
BRANCH  54  68
ATOM     68  C   UNL A   1      42.309  26.447  27.593  1.00  0.00     0.057 A 
ATOM     69  C   UNL A   1      41.848  25.138  27.409  1.00  0.00     0.134 A 
ATOM     70  C   UNL A   1      43.120  26.994  26.589  1.00  0.00     0.134 A 
ATOM     71  F   UNL A   1      41.081  24.549  28.339  1.00  0.00    -0.206 F 
ATOM     72  C   UNL A   1      42.203  24.391  26.284  1.00  0.00     0.040 A 
ATOM     73  C   UNL A   1      43.454  26.269  25.445  1.00  0.00     0.040 A 
ATOM     74  F   UNL A   1      43.592  28.244  26.700  1.00  0.00    -0.206 F 
ATOM     75  C   UNL A   1      43.002  24.960  25.294  1.00  0.00     0.006 A 
ENDBRANCH  54  68
BRANCH  55  76
ATOM     76  C   UNL A   1      39.370  31.946  35.393  1.00  0.00     0.057 A 
ATOM     77  C   UNL A   1      38.378  31.462  36.255  1.00  0.00     0.134 A 
ATOM     78  C   UNL A   1      39.904  33.210  35.674  1.00  0.00     0.134 A 
ATOM     79  F   UNL A   1      37.808  30.270  36.028  1.00  0.00    -0.206 F 
ATOM     80  C   UNL A   1      37.917  32.216  37.337  1.00  0.00     0.040 A 
ATOM     81  C   UNL A   1      39.474  33.961  36.768  1.00  0.00     0.040 A 
ATOM     82  F   UNL A   1      40.858  33.732  34.887  1.00  0.00    -0.206 F 
ATOM     83  C   UNL A   1      38.470  33.467  37.599  1.00  0.00     0.006 A 
ENDBRANCH  55  76
BRANCH  67  84
ATOM     84  C   UNL A   1      44.713  27.596  34.277  1.00  0.00     0.057 A 
ATOM     85  C   UNL A   1      45.887  28.351  34.369  1.00  0.00     0.134 A 
ATOM     86  C   UNL A   1      44.614  26.453  35.083  1.00  0.00     0.134 A 
ATOM     87  F   UNL A   1      46.050  29.452  33.618  1.00  0.00    -0.206 F 
ATOM     88  C   UNL A   1      46.925  27.981  35.227  1.00  0.00     0.040 A 
ATOM     89  C   UNL A   1      45.633  26.089  35.965  1.00  0.00     0.040 A 
ATOM     90  F   UNL A   1      43.510  25.691  35.051  1.00  0.00    -0.206 F 
ATOM     91  C   UNL A   1      46.794  26.854  36.037  1.00  0.00     0.006 A 
ENDBRANCH  67  84
ENDBRANCH  41  42
ENDBRANCH  34  36
ENDBRANCH  33  34
ENDBRANCH  32  33
ENDBRANCH  31  32
ENDBRANCH  30  31
ENDBRANCH   1  30
TORSDOF 21
ENDMDL
MODEL 3
REMARK VINA RESULT:     -10.5      2.122      4.234
REMARK SMILES CSCC[C@H](NC(=O)Cc1c(C)c2ccc(O)cc2oc1=O)C(=O)OCCOCCOC(=O)c1ccc(-c2c3nc(c(-c4c(F)cccc4F)c4ccc([nH]4)c(-c4c(F)cccc4F)c4nc(c(-c5c(F)cccc5F)c5ccc2[nH]5)C=C4)C=C3)cc1
REMARK SMILES IDX 27 1 26 2 25 3 23 4 24 5 5 6 4 7 3 8 2 9 1 10 6 11 7 12 8 14
REMARK SMILES IDX 9 15 10 16 11 17 21 18 12 19 13 20 20 21 22 22 14 23 19 24
REMARK SMILES IDX 15 25 18 26 16 27 17 28 28 30 29 31 30 32 31 33 32 34 33 35
REMARK SMILES IDX 34 36 35 37 87 38 36 39 86 40 37 41 38 42 39 43 80 44 40 45
REMARK SMILES IDX 85 46 79 47 81 48 41 49 84 50 78 51 77 52 42 54 68 55 51 56
REMARK SMILES IDX 67 57 52 58 55 59 66 60 82 61 53 62 54 63 65 65 83 66 56 67
REMARK SMILES IDX 43 68 44 69 49 70 45 71 46 72 48 73 50 74 47 75 69 76 70 77
REMARK SMILES IDX 75 78 71 79 72 80 74 81 76 82 73 83 57 84 58 85 63 86 59 87
REMARK SMILES IDX 60 88 62 89 64 90 61 91
REMARK H PARENT 6 13 17 29 81 53 55 64
REMARK Flexibility Score: inf
ROOT
ATOM      1  C   UNL A   1      32.833  29.012  26.832  1.00  0.00     0.202 C 
ENDROOT
BRANCH   1   2
ATOM      2  C   UNL A   1      31.611  28.434  26.126  1.00  0.00     0.261 C 
BRANCH   2   3
ATOM      3  O   UNL A   1      31.112  27.322  26.898  1.00  0.00    -0.462 OA
BRANCH   3   4
ATOM      4  C   UNL A   1      30.772  26.228  26.188  1.00  0.00     0.328 C 
ATOM      5  O   UNL A   1      29.840  25.491  26.490  1.00  0.00    -0.250 OA
BRANCH   4   6
ATOM      6  C   UNL A   1      31.597  26.040  24.893  1.00  0.00     0.193 C 
BRANCH   6   7
ATOM      7  C   UNL A   1      30.768  25.631  23.671  1.00  0.00     0.048 C 
BRANCH   7   8
ATOM      8  C   UNL A   1      31.065  26.280  22.324  1.00  0.00     0.072 C 
BRANCH   8   9
ATOM      9  S   UNL A   1      31.436  28.053  22.401  1.00  0.00    -0.165 SA
ATOM     10  C   UNL A   1      29.794  28.701  22.788  1.00  0.00     0.085 C 
ENDBRANCH   8   9
ENDBRANCH   7   8
ENDBRANCH   6   7
BRANCH   6  11
ATOM     11  N   UNL A   1      32.960  25.499  24.912  1.00  0.00    -0.342 N 
ATOM     12  C   UNL A   1      33.444  24.418  25.612  1.00  0.00     0.225 C 
ATOM     13  H   UNL A   1      33.616  25.973  24.352  1.00  0.00     0.164 HD
ATOM     14  O   UNL A   1      34.655  24.401  25.837  1.00  0.00    -0.275 OA
BRANCH  12  15
ATOM     15  C   UNL A   1      32.532  23.243  26.015  1.00  0.00     0.143 C 
BRANCH  15  16
ATOM     16  C   UNL A   1      32.965  21.893  25.482  1.00  0.00     0.051 A 
ATOM     17  C   UNL A   1      32.716  21.432  24.238  1.00  0.00    -0.029 A 
ATOM     18  C   UNL A   1      33.930  21.122  26.334  1.00  0.00     0.340 A 
ATOM     19  C   UNL A   1      32.289  22.247  23.050  1.00  0.00     0.046 C 
ATOM     20  C   UNL A   1      32.934  20.018  23.958  1.00  0.00     0.021 A 
ATOM     21  O   UNL A   1      34.511  19.979  25.775  1.00  0.00    -0.422 OA
ATOM     22  O   UNL A   1      34.311  21.550  27.419  1.00  0.00    -0.246 OA
ATOM     23  C   UNL A   1      32.189  19.313  23.003  1.00  0.00     0.016 A 
ATOM     24  C   UNL A   1      33.927  19.360  24.661  1.00  0.00     0.142 A 
ATOM     25  C   UNL A   1      32.531  18.005  22.674  1.00  0.00     0.047 A 
ATOM     26  C   UNL A   1      34.325  18.075  24.304  1.00  0.00     0.094 A 
ATOM     27  C   UNL A   1      33.629  17.416  23.292  1.00  0.00     0.119 A 
BRANCH  27  28
ATOM     28  O   UNL A   1      34.042  16.170  22.930  1.00  0.00    -0.508 OA
ATOM     29  H   UNL A   1      34.949  15.942  22.986  1.00  0.00     0.293 HD
ENDBRANCH  27  28
ENDBRANCH  15  16
ENDBRANCH  12  15
ENDBRANCH   6  11
ENDBRANCH   4   6
ENDBRANCH   3   4
ENDBRANCH   2   3
ENDBRANCH   1   2
BRANCH   1  30
ATOM     30  O   UNL A   1      32.695  30.331  27.358  1.00  0.00    -0.374 OA
BRANCH  30  31
ATOM     31  C   UNL A   1      31.733  31.194  26.754  1.00  0.00     0.202 C 
BRANCH  31  32
ATOM     32  C   UNL A   1      31.899  32.702  26.982  1.00  0.00     0.261 C 
BRANCH  32  33
ATOM     33  O   UNL A   1      33.237  33.052  27.378  1.00  0.00    -0.460 OA
BRANCH  33  34
ATOM     34  C   UNL A   1      33.308  34.029  28.314  1.00  0.00     0.338 C 
ATOM     35  O   UNL A   1      32.499  34.922  28.518  1.00  0.00    -0.246 OA
BRANCH  34  36
ATOM     36  C   UNL A   1      34.425  33.746  29.234  1.00  0.00     0.060 A 
ATOM     37  C   UNL A   1      35.684  34.281  28.924  1.00  0.00     0.016 A 
ATOM     38  C   UNL A   1      34.255  32.932  30.354  1.00  0.00     0.016 A 
ATOM     39  C   UNL A   1      36.795  33.956  29.700  1.00  0.00     0.010 A 
ATOM     40  C   UNL A   1      35.370  32.602  31.129  1.00  0.00     0.010 A 
ATOM     41  C   UNL A   1      36.650  33.074  30.778  1.00  0.00    -0.014 A 
BRANCH  41  42
ATOM     42  C   UNL A   1      37.847  32.457  31.398  1.00  0.00     0.031 A 
ATOM     43  C   UNL A   1      38.554  31.372  30.633  1.00  0.00     0.074 A 
ATOM     44  C   UNL A   1      38.302  32.843  32.603  1.00  0.00     0.049 A 
ATOM     45  N   UNL A   1      39.534  30.592  31.007  1.00  0.00    -0.248 NA
ATOM     46  C   UNL A   1      38.079  31.126  29.261  1.00  0.00     0.031 C 
ATOM     47  C   UNL A   1      37.744  33.919  33.418  1.00  0.00     0.029 A 
ATOM     48  N   UNL A   1      39.338  32.349  33.357  1.00  0.00    -0.354 N 
ATOM     49  C   UNL A   1      39.775  29.750  29.928  1.00  0.00     0.074 A 
ATOM     50  C   UNL A   1      38.820  30.092  28.898  1.00  0.00     0.031 C 
ATOM     51  C   UNL A   1      38.434  33.994  34.570  1.00  0.00     0.029 A 
ATOM     52  C   UNL A   1      39.451  32.943  34.590  1.00  0.00     0.049 A 
ATOM     53  H   UNL A   1      39.942  31.638  33.043  1.00  0.00     0.167 HD
ATOM     54  C   UNL A   1      40.712  28.781  29.804  1.00  0.00     0.037 A 
ATOM     55  C   UNL A   1      40.262  32.646  35.626  1.00  0.00     0.037 A 
ATOM     56  C   UNL A   1      41.666  28.451  30.826  1.00  0.00     0.049 A 
ATOM     57  C   UNL A   1      41.245  31.509  35.497  1.00  0.00     0.074 A 
ATOM     58  C   UNL A   1      42.666  27.495  30.794  1.00  0.00     0.029 A 
ATOM     59  N   UNL A   1      41.737  29.067  32.067  1.00  0.00    -0.354 N 
ATOM     60  N   UNL A   1      41.471  30.722  34.474  1.00  0.00    -0.248 NA
ATOM     61  C   UNL A   1      42.087  31.219  36.668  1.00  0.00     0.031 C 
ATOM     62  C   UNL A   1      43.305  27.492  32.037  1.00  0.00     0.029 A 
ATOM     63  C   UNL A   1      42.749  28.494  32.817  1.00  0.00     0.049 A 
ATOM     64  H   UNL A   1      41.154  29.800  32.368  1.00  0.00     0.167 HD
ATOM     65  C   UNL A   1      42.508  29.879  34.859  1.00  0.00     0.074 A 
ATOM     66  C   UNL A   1      42.864  30.247  36.212  1.00  0.00     0.031 C 
ATOM     67  C   UNL A   1      43.116  28.895  34.151  1.00  0.00     0.037 A 
BRANCH  54  68
ATOM     68  C   UNL A   1      40.727  27.990  28.529  1.00  0.00     0.057 A 
ATOM     69  C   UNL A   1      41.458  28.401  27.407  1.00  0.00     0.134 A 
ATOM     70  C   UNL A   1      40.020  26.784  28.434  1.00  0.00     0.134 A 
ATOM     71  F   UNL A   1      42.144  29.553  27.425  1.00  0.00    -0.206 F 
ATOM     72  C   UNL A   1      41.464  27.653  26.227  1.00  0.00     0.040 A 
ATOM     73  C   UNL A   1      40.045  26.013  27.272  1.00  0.00     0.040 A 
ATOM     74  F   UNL A   1      39.303  26.331  29.473  1.00  0.00    -0.206 F 
ATOM     75  C   UNL A   1      40.762  26.451  26.162  1.00  0.00     0.006 A 
ENDBRANCH  54  68
BRANCH  55  76
ATOM     76  C   UNL A   1      40.171  33.421  36.891  1.00  0.00     0.057 A 
ATOM     77  C   UNL A   1      41.015  34.510  37.136  1.00  0.00     0.134 A 
ATOM     78  C   UNL A   1      39.262  33.074  37.898  1.00  0.00     0.134 A 
ATOM     79  F   UNL A   1      41.925  34.879  36.223  1.00  0.00    -0.206 F 
ATOM     80  C   UNL A   1      40.975  35.211  38.345  1.00  0.00     0.040 A 
ATOM     81  C   UNL A   1      39.190  33.782  39.098  1.00  0.00     0.040 A 
ATOM     82  F   UNL A   1      38.424  32.039  37.727  1.00  0.00    -0.206 F 
ATOM     83  C   UNL A   1      40.056  34.850  39.327  1.00  0.00     0.006 A 
ENDBRANCH  55  76
BRANCH  67  84
ATOM     84  C   UNL A   1      44.283  28.191  34.781  1.00  0.00     0.057 A 
ATOM     85  C   UNL A   1      44.137  27.002  35.506  1.00  0.00     0.134 A 
ATOM     86  C   UNL A   1      45.585  28.666  34.573  1.00  0.00     0.134 A 
ATOM     87  F   UNL A   1      42.918  26.497  35.748  1.00  0.00    -0.206 F 
ATOM     88  C   UNL A   1      45.245  26.315  36.007  1.00  0.00     0.040 A 
ATOM     89  C   UNL A   1      46.701  27.974  35.045  1.00  0.00     0.040 A 
ATOM     90  F   UNL A   1      45.794  29.795  33.878  1.00  0.00    -0.206 F 
ATOM     91  C   UNL A   1      46.532  26.795  35.767  1.00  0.00     0.006 A 
ENDBRANCH  67  84
ENDBRANCH  41  42
ENDBRANCH  34  36
ENDBRANCH  33  34
ENDBRANCH  32  33
ENDBRANCH  31  32
ENDBRANCH  30  31
ENDBRANCH   1  30
TORSDOF 21
ENDMDL
