MODEL 1
REMARK VINA RESULT:     -10.7      0.000      0.000
REMARK SMILES CC(C)([NH2+]C[C@@H]1COc2ccccc21)C(=O)OCCOCCOC(=O)c1ccc(-c2c3nc(c(-c4c(F)cccc4F)c4ccc([nH]4)c(-c4c(F)cccc4F)c4nc(c(-c5c(F)cccc5F)c5ccc2[nH]5)C=C4)C=C3)cc1
REMARK SMILES IDX 19 1 18 2 17 3 15 4 16 5 2 6 1 7 3 8 4 9 5 12 6 13 7 14
REMARK SMILES IDX 14 15 8 16 9 17 13 18 10 19 12 20 11 21 20 22 21 23 22 24
REMARK SMILES IDX 23 25 24 26 25 27 26 28 27 29 79 30 28 31 78 32 29 33 30 34
REMARK SMILES IDX 31 35 72 36 32 37 77 38 71 39 73 40 33 41 76 42 70 43 69 44
REMARK SMILES IDX 34 46 60 47 43 48 59 49 44 50 47 51 58 52 74 53 45 54 46 55
REMARK SMILES IDX 57 57 75 58 48 59 35 60 36 61 41 62 37 63 38 64 40 65 42 66
REMARK SMILES IDX 39 67 61 68 62 69 67 70 63 71 64 72 66 73 68 74 65 75 49 76
REMARK SMILES IDX 50 77 55 78 51 79 52 80 54 81 56 82 53 83
REMARK H PARENT 4 10 4 11 73 45 47 56
REMARK Flexibility Score: inf
ROOT
ATOM      1  C   UNL A   1      35.123  32.748  29.359  1.00  0.00     0.202 C 
ENDROOT
BRANCH   1   2
ATOM      2  C   UNL A   1      34.470  32.560  27.990  1.00  0.00     0.261 C 
BRANCH   2   3
ATOM      3  O   UNL A   1      33.505  31.498  28.056  1.00  0.00    -0.459 OA
BRANCH   3   4
ATOM      4  C   UNL A   1      33.695  30.464  27.203  1.00  0.00     0.367 C 
ATOM      5  O   UNL A   1      34.772  29.887  27.072  1.00  0.00    -0.245 OA
BRANCH   4   6
ATOM      6  C   UNL A   1      32.441  30.049  26.397  1.00  0.00     0.188 C 
ATOM      7  C   UNL A   1      31.447  31.232  26.543  1.00  0.00     0.092 C 
ATOM      8  C   UNL A   1      31.821  28.842  27.099  1.00  0.00     0.092 C 
BRANCH   6   9
ATOM      9  N   UNL A   1      32.533  29.901  24.919  1.00  0.00    -0.332 N 
ATOM     10  H   UNL A   1      33.443  30.285  24.666  1.00  0.00     0.347 HD
ATOM     11  H   UNL A   1      31.656  30.343  24.643  1.00  0.00     0.347 HD
BRANCH   9  12
ATOM     12  C   UNL A   1      32.427  28.647  24.181  1.00  0.00     0.273 C 
BRANCH  12  13
ATOM     13  C   UNL A   1      33.643  27.865  23.650  1.00  0.00     0.116 C 
ATOM     14  C   UNL A   1      33.692  27.594  22.140  1.00  0.00     0.244 C 
ATOM     15  C   UNL A   1      33.795  26.490  24.178  1.00  0.00     0.006 A 
ATOM     16  O   UNL A   1      33.796  26.168  21.892  1.00  0.00    -0.492 OA
ATOM     17  C   UNL A   1      33.863  25.592  23.131  1.00  0.00     0.123 A 
ATOM     18  C   UNL A   1      33.868  26.061  25.495  1.00  0.00     0.008 A 
ATOM     19  C   UNL A   1      33.921  24.231  23.349  1.00  0.00     0.047 A 
ATOM     20  C   UNL A   1      33.931  24.689  25.738  1.00  0.00     0.001 A 
ATOM     21  C   UNL A   1      33.940  23.778  24.671  1.00  0.00     0.004 A 
ENDBRANCH  12  13
ENDBRANCH   9  12
ENDBRANCH   6   9
ENDBRANCH   4   6
ENDBRANCH   3   4
ENDBRANCH   2   3
ENDBRANCH   1   2
BRANCH   1  22
ATOM     22  O   UNL A   1      34.219  33.018  30.433  1.00  0.00    -0.374 OA
BRANCH  22  23
ATOM     23  C   UNL A   1      34.421  34.238  31.148  1.00  0.00     0.202 C 
BRANCH  23  24
ATOM     24  C   UNL A   1      35.013  34.094  32.552  1.00  0.00     0.261 C 
BRANCH  24  25
ATOM     25  O   UNL A   1      36.407  33.743  32.506  1.00  0.00    -0.460 OA
BRANCH  25  26
ATOM     26  C   UNL A   1      36.732  32.661  33.246  1.00  0.00     0.338 C 
ATOM     27  O   UNL A   1      36.341  32.392  34.375  1.00  0.00    -0.246 OA
BRANCH  26  28
ATOM     28  C   UNL A   1      37.534  31.711  32.453  1.00  0.00     0.060 A 
ATOM     29  C   UNL A   1      38.745  31.289  33.011  1.00  0.00     0.016 A 
ATOM     30  C   UNL A   1      37.173  31.323  31.160  1.00  0.00     0.016 A 
ATOM     31  C   UNL A   1      39.648  30.560  32.244  1.00  0.00     0.010 A 
ATOM     32  C   UNL A   1      38.083  30.591  30.388  1.00  0.00     0.010 A 
ATOM     33  C   UNL A   1      39.348  30.262  30.909  1.00  0.00    -0.014 A 
BRANCH  33  34
ATOM     34  C   UNL A   1      40.449  29.810  30.025  1.00  0.00     0.031 A 
ATOM     35  C   UNL A   1      41.576  30.765  29.730  1.00  0.00     0.074 A 
ATOM     36  C   UNL A   1      40.499  28.546  29.572  1.00  0.00     0.049 A 
ATOM     37  N   UNL A   1      42.675  30.570  29.047  1.00  0.00    -0.248 NA
ATOM     38  C   UNL A   1      41.448  32.125  30.283  1.00  0.00     0.031 C 
ATOM     39  C   UNL A   1      39.488  27.519  29.817  1.00  0.00     0.029 A 
ATOM     40  N   UNL A   1      41.452  27.910  28.818  1.00  0.00    -0.354 N 
ATOM     41  C   UNL A   1      43.364  31.776  29.086  1.00  0.00     0.074 A 
ATOM     42  C   UNL A   1      42.546  32.709  29.828  1.00  0.00     0.031 C 
ATOM     43  C   UNL A   1      39.877  26.377  29.223  1.00  0.00     0.029 A 
ATOM     44  C   UNL A   1      41.152  26.598  28.546  1.00  0.00     0.049 A 
ATOM     45  H   UNL A   1      42.273  28.352  28.501  1.00  0.00     0.167 HD
ATOM     46  C   UNL A   1      44.577  32.077  28.564  1.00  0.00     0.037 A 
ATOM     47  C   UNL A   1      41.834  25.683  27.829  1.00  0.00     0.037 A 
ATOM     48  C   UNL A   1      45.399  31.148  27.837  1.00  0.00     0.049 A 
ATOM     49  C   UNL A   1      43.167  26.052  27.234  1.00  0.00     0.074 A 
ATOM     50  C   UNL A   1      46.648  31.355  27.277  1.00  0.00     0.029 A 
ATOM     51  N   UNL A   1      45.052  29.834  27.569  1.00  0.00    -0.354 N 
ATOM     52  N   UNL A   1      43.819  27.188  27.301  1.00  0.00    -0.248 NA
ATOM     53  C   UNL A   1      43.865  25.005  26.476  1.00  0.00     0.031 C 
ATOM     54  C   UNL A   1      47.042  30.174  26.638  1.00  0.00     0.029 A 
ATOM     55  C   UNL A   1      46.057  29.219  26.841  1.00  0.00     0.049 A 
ATOM     56  H   UNL A   1      44.216  29.400  27.854  1.00  0.00     0.167 HD
ATOM     57  C   UNL A   1      45.016  26.980  26.626  1.00  0.00     0.074 A 
ATOM     58  C   UNL A   1      45.004  25.607  26.167  1.00  0.00     0.031 C 
ATOM     59  C   UNL A   1      46.036  27.848  26.405  1.00  0.00     0.037 A 
BRANCH  46  60
ATOM     60  C   UNL A   1      45.080  33.479  28.750  1.00  0.00     0.057 A 
ATOM     61  C   UNL A   1      45.891  33.837  29.834  1.00  0.00     0.134 A 
ATOM     62  C   UNL A   1      44.771  34.475  27.815  1.00  0.00     0.134 A 
ATOM     63  F   UNL A   1      46.209  32.933  30.774  1.00  0.00    -0.206 F 
ATOM     64  C   UNL A   1      46.365  35.141  29.991  1.00  0.00     0.040 A 
ATOM     65  C   UNL A   1      45.258  35.776  27.949  1.00  0.00     0.040 A 
ATOM     66  F   UNL A   1      43.999  34.198  26.755  1.00  0.00    -0.206 F 
ATOM     67  C   UNL A   1      46.054  36.113  29.043  1.00  0.00     0.006 A 
ENDBRANCH  46  60
BRANCH  47  68
ATOM     68  C   UNL A   1      41.274  24.322  27.636  1.00  0.00     0.057 A 
ATOM     69  C   UNL A   1      41.779  23.219  28.334  1.00  0.00     0.134 A 
ATOM     70  C   UNL A   1      40.242  24.088  26.720  1.00  0.00     0.134 A 
ATOM     71  F   UNL A   1      42.785  23.376  29.208  1.00  0.00    -0.206 F 
ATOM     72  C   UNL A   1      41.295  21.929  28.112  1.00  0.00     0.040 A 
ATOM     73  C   UNL A   1      39.730  22.807  26.507  1.00  0.00     0.040 A 
ATOM     74  F   UNL A   1      39.713  25.104  26.021  1.00  0.00    -0.206 F 
ATOM     75  C   UNL A   1      40.264  21.722  27.197  1.00  0.00     0.006 A 
ENDBRANCH  47  68
BRANCH  59  76
ATOM     76  C   UNL A   1      47.240  27.320  25.680  1.00  0.00     0.057 A 
ATOM     77  C   UNL A   1      48.260  26.625  26.342  1.00  0.00     0.134 A 
ATOM     78  C   UNL A   1      47.368  27.496  24.296  1.00  0.00     0.134 A 
ATOM     79  F   UNL A   1      48.202  26.433  27.668  1.00  0.00    -0.206 F 
ATOM     80  C   UNL A   1      49.380  26.150  25.659  1.00  0.00     0.040 A 
ATOM     81  C   UNL A   1      48.471  27.002  23.598  1.00  0.00     0.040 A 
ATOM     82  F   UNL A   1      46.422  28.143  23.600  1.00  0.00    -0.206 F 
ATOM     83  C   UNL A   1      49.486  26.334  24.281  1.00  0.00     0.006 A 
ENDBRANCH  59  76
ENDBRANCH  33  34
ENDBRANCH  26  28
ENDBRANCH  25  26
ENDBRANCH  24  25
ENDBRANCH  23  24
ENDBRANCH  22  23
ENDBRANCH   1  22
TORSDOF 17
ENDMDL
MODEL 2
REMARK VINA RESULT:     -10.7      3.239      8.368
REMARK SMILES CC(C)([NH2+]C[C@@H]1COc2ccccc21)C(=O)OCCOCCOC(=O)c1ccc(-c2c3nc(c(-c4c(F)cccc4F)c4ccc([nH]4)c(-c4c(F)cccc4F)c4nc(c(-c5c(F)cccc5F)c5ccc2[nH]5)C=C4)C=C3)cc1
REMARK SMILES IDX 19 1 18 2 17 3 15 4 16 5 2 6 1 7 3 8 4 9 5 12 6 13 7 14
REMARK SMILES IDX 14 15 8 16 9 17 13 18 10 19 12 20 11 21 20 22 21 23 22 24
REMARK SMILES IDX 23 25 24 26 25 27 26 28 27 29 79 30 28 31 78 32 29 33 30 34
REMARK SMILES IDX 31 35 72 36 32 37 77 38 71 39 73 40 33 41 76 42 70 43 69 44
REMARK SMILES IDX 34 46 60 47 43 48 59 49 44 50 47 51 58 52 74 53 45 54 46 55
REMARK SMILES IDX 57 57 75 58 48 59 35 60 36 61 41 62 37 63 38 64 40 65 42 66
REMARK SMILES IDX 39 67 61 68 62 69 67 70 63 71 64 72 66 73 68 74 65 75 49 76
REMARK SMILES IDX 50 77 55 78 51 79 52 80 54 81 56 82 53 83
REMARK H PARENT 4 10 4 11 73 45 47 56
REMARK Flexibility Score: inf
ROOT
ATOM      1  C   UNL A   1      33.808  20.279  25.598  1.00  0.00     0.202 C 
ENDROOT
BRANCH   1   2
ATOM      2  C   UNL A   1      33.256  21.596  26.143  1.00  0.00     0.261 C 
BRANCH   2   3
ATOM      3  O   UNL A   1      31.951  21.838  25.594  1.00  0.00    -0.459 OA
BRANCH   3   4
ATOM      4  C   UNL A   1      31.764  23.043  25.005  1.00  0.00     0.367 C 
ATOM      5  O   UNL A   1      32.296  23.364  23.944  1.00  0.00    -0.245 OA
BRANCH   4   6
ATOM      6  C   UNL A   1      30.817  23.999  25.768  1.00  0.00     0.188 C 
ATOM      7  C   UNL A   1      31.746  25.019  26.480  1.00  0.00     0.092 C 
ATOM      8  C   UNL A   1      30.117  23.183  26.854  1.00  0.00     0.092 C 
BRANCH   6   9
ATOM      9  N   UNL A   1      29.903  24.892  25.005  1.00  0.00    -0.332 N 
ATOM     10  H   UNL A   1      29.010  24.846  25.497  1.00  0.00     0.347 HD
ATOM     11  H   UNL A   1      30.030  24.514  24.066  1.00  0.00     0.347 HD
BRANCH   9  12
ATOM     12  C   UNL A   1      30.123  26.309  24.739  1.00  0.00     0.273 C 
BRANCH  12  13
ATOM     13  C   UNL A   1      30.175  26.913  23.323  1.00  0.00     0.116 C 
ATOM     14  C   UNL A   1      31.511  27.520  22.874  1.00  0.00     0.244 C 
ATOM     15  C   UNL A   1      29.263  28.054  23.085  1.00  0.00     0.006 A 
ATOM     16  O   UNL A   1      31.325  28.907  22.489  1.00  0.00    -0.492 OA
ATOM     17  C   UNL A   1      29.984  29.141  22.628  1.00  0.00     0.123 A 
ATOM     18  C   UNL A   1      27.890  28.130  23.261  1.00  0.00     0.008 A 
ATOM     19  C   UNL A   1      29.385  30.364  22.408  1.00  0.00     0.047 A 
ATOM     20  C   UNL A   1      27.264  29.357  23.041  1.00  0.00     0.001 A 
ATOM     21  C   UNL A   1      28.010  30.472  22.633  1.00  0.00     0.004 A 
ENDBRANCH  12  13
ENDBRANCH   9  12
ENDBRANCH   6   9
ENDBRANCH   4   6
ENDBRANCH   3   4
ENDBRANCH   2   3
ENDBRANCH   1   2
BRANCH   1  22
ATOM     22  O   UNL A   1      34.911  20.408  24.698  1.00  0.00    -0.374 OA
BRANCH  22  23
ATOM     23  C   UNL A   1      36.054  21.115  25.183  1.00  0.00     0.202 C 
BRANCH  23  24
ATOM     24  C   UNL A   1      37.398  20.407  24.999  1.00  0.00     0.261 C 
BRANCH  24  25
ATOM     25  O   UNL A   1      38.498  21.332  25.070  1.00  0.00    -0.460 OA
BRANCH  25  26
ATOM     26  C   UNL A   1      39.428  21.017  25.997  1.00  0.00     0.338 C 
ATOM     27  O   UNL A   1      40.015  19.949  26.125  1.00  0.00    -0.246 OA
BRANCH  26  28
ATOM     28  C   UNL A   1      39.791  22.204  26.792  1.00  0.00     0.060 A 
ATOM     29  C   UNL A   1      39.102  23.389  26.509  1.00  0.00     0.016 A 
ATOM     30  C   UNL A   1      40.842  22.196  27.714  1.00  0.00     0.016 A 
ATOM     31  C   UNL A   1      39.524  24.590  27.069  1.00  0.00     0.010 A 
ATOM     32  C   UNL A   1      41.267  23.406  28.275  1.00  0.00     0.010 A 
ATOM     33  C   UNL A   1      40.647  24.613  27.905  1.00  0.00    -0.014 A 
BRANCH  33  34
ATOM     34  C   UNL A   1      41.281  25.923  28.193  1.00  0.00     0.031 A 
ATOM     35  C   UNL A   1      42.660  26.192  27.651  1.00  0.00     0.074 A 
ATOM     36  C   UNL A   1      40.608  26.890  28.841  1.00  0.00     0.049 A 
ATOM     37  N   UNL A   1      43.380  27.283  27.714  1.00  0.00    -0.248 NA
ATOM     38  C   UNL A   1      43.315  25.082  26.937  1.00  0.00     0.031 C 
ATOM     39  C   UNL A   1      39.257  26.762  29.384  1.00  0.00     0.029 A 
ATOM     40  N   UNL A   1      40.973  28.177  29.139  1.00  0.00    -0.354 N 
ATOM     41  C   UNL A   1      44.568  26.991  27.054  1.00  0.00     0.074 A 
ATOM     42  C   UNL A   1      44.489  25.611  26.629  1.00  0.00     0.031 C 
ATOM     43  C   UNL A   1      38.905  27.931  29.950  1.00  0.00     0.029 A 
ATOM     44  C   UNL A   1      40.010  28.878  29.822  1.00  0.00     0.049 A 
ATOM     45  H   UNL A   1      41.844  28.564  28.887  1.00  0.00     0.167 HD
ATOM     46  C   UNL A   1      45.624  27.803  26.810  1.00  0.00     0.037 A 
ATOM     47  C   UNL A   1      40.024  30.140  30.290  1.00  0.00     0.037 A 
ATOM     48  C   UNL A   1      45.700  29.179  27.219  1.00  0.00     0.049 A 
ATOM     49  C   UNL A   1      41.224  31.014  30.031  1.00  0.00     0.074 A 
ATOM     50  C   UNL A   1      46.724  30.087  27.010  1.00  0.00     0.029 A 
ATOM     51  N   UNL A   1      44.710  29.845  27.924  1.00  0.00    -0.354 N 
ATOM     52  N   UNL A   1      42.328  30.733  29.383  1.00  0.00    -0.248 NA
ATOM     53  C   UNL A   1      41.169  32.385  30.556  1.00  0.00     0.031 C 
ATOM     54  C   UNL A   1      46.368  31.294  27.621  1.00  0.00     0.029 A 
ATOM     55  C   UNL A   1      45.103  31.151  28.169  1.00  0.00     0.049 A 
ATOM     56  H   UNL A   1      43.854  29.451  28.207  1.00  0.00     0.167 HD
ATOM     57  C   UNL A   1      43.082  31.900  29.393  1.00  0.00     0.074 A 
ATOM     58  C   UNL A   1      42.304  32.895  30.101  1.00  0.00     0.031 C 
ATOM     59  C   UNL A   1      44.310  32.131  28.863  1.00  0.00     0.037 A 
BRANCH  46  60
ATOM     60  C   UNL A   1      46.792  27.212  26.076  1.00  0.00     0.057 A 
ATOM     61  C   UNL A   1      46.939  27.344  24.689  1.00  0.00     0.134 A 
ATOM     62  C   UNL A   1      47.798  26.529  26.771  1.00  0.00     0.134 A 
ATOM     63  F   UNL A   1      46.002  27.972  23.962  1.00  0.00    -0.206 F 
ATOM     64  C   UNL A   1      48.036  26.804  24.016  1.00  0.00     0.040 A 
ATOM     65  C   UNL A   1      48.911  26.004  26.113  1.00  0.00     0.040 A 
ATOM     66  F   UNL A   1      47.719  26.368  28.099  1.00  0.00    -0.206 F 
ATOM     67  C   UNL A   1      49.030  26.137  24.731  1.00  0.00     0.006 A 
ENDBRANCH  46  60
BRANCH  47  68
ATOM     68  C   UNL A   1      38.861  30.665  31.050  1.00  0.00     0.057 A 
ATOM     69  C   UNL A   1      37.832  31.370  30.414  1.00  0.00     0.134 A 
ATOM     70  C   UNL A   1      38.771  30.503  32.437  1.00  0.00     0.134 A 
ATOM     71  F   UNL A   1      37.874  31.578  29.090  1.00  0.00    -0.206 F 
ATOM     72  C   UNL A   1      36.768  31.916  31.133  1.00  0.00     0.040 A 
ATOM     73  C   UNL A   1      37.699  31.021  33.165  1.00  0.00     0.040 A 
ATOM     74  F   UNL A   1      39.724  29.835  33.104  1.00  0.00    -0.206 F 
ATOM     75  C   UNL A   1      36.698  31.737  32.514  1.00  0.00     0.006 A 
ENDBRANCH  47  68
BRANCH  59  76
ATOM     76  C   UNL A   1      44.860  33.522  28.985  1.00  0.00     0.057 A 
ATOM     77  C   UNL A   1      45.697  33.900  30.042  1.00  0.00     0.134 A 
ATOM     78  C   UNL A   1      44.560  34.491  28.018  1.00  0.00     0.134 A 
ATOM     79  F   UNL A   1      46.013  33.022  31.006  1.00  0.00    -0.206 F 
ATOM     80  C   UNL A   1      46.192  35.200  30.150  1.00  0.00     0.040 A 
ATOM     81  C   UNL A   1      45.071  35.787  28.101  1.00  0.00     0.040 A 
ATOM     82  F   UNL A   1      43.773  34.192  26.973  1.00  0.00    -0.206 F 
ATOM     83  C   UNL A   1      45.882  36.148  29.175  1.00  0.00     0.006 A 
ENDBRANCH  59  76
ENDBRANCH  33  34
ENDBRANCH  26  28
ENDBRANCH  25  26
ENDBRANCH  24  25
ENDBRANCH  23  24
ENDBRANCH  22  23
ENDBRANCH   1  22
TORSDOF 17
ENDMDL
MODEL 3
REMARK VINA RESULT:     -10.6      3.896      6.629
REMARK SMILES CC(C)([NH2+]C[C@@H]1COc2ccccc21)C(=O)OCCOCCOC(=O)c1ccc(-c2c3nc(c(-c4c(F)cccc4F)c4ccc([nH]4)c(-c4c(F)cccc4F)c4nc(c(-c5c(F)cccc5F)c5ccc2[nH]5)C=C4)C=C3)cc1
REMARK SMILES IDX 19 1 18 2 17 3 15 4 16 5 2 6 1 7 3 8 4 9 5 12 6 13 7 14
REMARK SMILES IDX 14 15 8 16 9 17 13 18 10 19 12 20 11 21 20 22 21 23 22 24
REMARK SMILES IDX 23 25 24 26 25 27 26 28 27 29 79 30 28 31 78 32 29 33 30 34
REMARK SMILES IDX 31 35 72 36 32 37 77 38 71 39 73 40 33 41 76 42 70 43 69 44
REMARK SMILES IDX 34 46 60 47 43 48 59 49 44 50 47 51 58 52 74 53 45 54 46 55
REMARK SMILES IDX 57 57 75 58 48 59 35 60 36 61 41 62 37 63 38 64 40 65 42 66
REMARK SMILES IDX 39 67 61 68 62 69 67 70 63 71 64 72 66 73 68 74 65 75 49 76
REMARK SMILES IDX 50 77 55 78 51 79 52 80 54 81 56 82 53 83
REMARK H PARENT 4 10 4 11 73 45 47 56
REMARK Flexibility Score: inf
ROOT
ATOM      1  C   UNL A   1      32.877  29.664  25.105  1.00  0.00     0.202 C 
ENDROOT
BRANCH   1   2
ATOM      2  C   UNL A   1      31.657  29.189  24.318  1.00  0.00     0.261 C 
BRANCH   2   3
ATOM      3  O   UNL A   1      31.727  27.767  24.129  1.00  0.00    -0.459 OA
BRANCH   3   4
ATOM      4  C   UNL A   1      30.740  27.213  23.385  1.00  0.00     0.367 C 
ATOM      5  O   UNL A   1      30.486  27.564  22.234  1.00  0.00    -0.245 OA
BRANCH   4   6
ATOM      6  C   UNL A   1      29.947  26.089  24.091  1.00  0.00     0.188 C 
ATOM      7  C   UNL A   1      28.451  26.462  23.909  1.00  0.00     0.092 C 
ATOM      8  C   UNL A   1      30.261  26.174  25.585  1.00  0.00     0.092 C 
BRANCH   6   9
ATOM      9  N   UNL A   1      29.990  24.704  23.547  1.00  0.00    -0.332 N 
ATOM     10  H   UNL A   1      29.508  24.753  22.650  1.00  0.00     0.347 HD
ATOM     11  H   UNL A   1      29.614  24.190  24.344  1.00  0.00     0.347 HD
BRANCH   9  12
ATOM     12  C   UNL A   1      31.199  23.928  23.292  1.00  0.00     0.273 C 
BRANCH  12  13
ATOM     13  C   UNL A   1      31.726  22.835  24.241  1.00  0.00     0.116 C 
ATOM     14  C   UNL A   1      31.065  22.734  25.623  1.00  0.00     0.244 C 
ATOM     15  C   UNL A   1      33.149  22.963  24.630  1.00  0.00     0.006 A 
ATOM     16  O   UNL A   1      32.064  22.867  26.666  1.00  0.00    -0.492 OA
ATOM     17  C   UNL A   1      33.257  22.985  26.007  1.00  0.00     0.123 A 
ATOM     18  C   UNL A   1      34.272  23.056  23.822  1.00  0.00     0.008 A 
ATOM     19  C   UNL A   1      34.471  23.182  26.633  1.00  0.00     0.047 A 
ATOM     20  C   UNL A   1      35.510  23.252  24.435  1.00  0.00     0.001 A 
ATOM     21  C   UNL A   1      35.606  23.332  25.832  1.00  0.00     0.004 A 
ENDBRANCH  12  13
ENDBRANCH   9  12
ENDBRANCH   6   9
ENDBRANCH   4   6
ENDBRANCH   3   4
ENDBRANCH   2   3
ENDBRANCH   1   2
BRANCH   1  22
ATOM     22  O   UNL A   1      32.586  30.429  26.277  1.00  0.00    -0.374 OA
BRANCH  22  23
ATOM     23  C   UNL A   1      31.456  31.300  26.209  1.00  0.00     0.202 C 
BRANCH  23  24
ATOM     24  C   UNL A   1      31.498  32.515  27.140  1.00  0.00     0.261 C 
BRANCH  24  25
ATOM     25  O   UNL A   1      32.724  33.252  26.993  1.00  0.00    -0.460 OA
BRANCH  25  26
ATOM     26  C   UNL A   1      33.326  33.566  28.161  1.00  0.00     0.338 C 
ATOM     27  O   UNL A   1      32.859  34.228  29.080  1.00  0.00    -0.246 OA
BRANCH  26  28
ATOM     28  C   UNL A   1      34.619  32.870  28.282  1.00  0.00     0.060 A 
ATOM     29  C   UNL A   1      34.580  31.528  28.676  1.00  0.00     0.016 A 
ATOM     30  C   UNL A   1      35.842  33.528  28.120  1.00  0.00     0.016 A 
ATOM     31  C   UNL A   1      35.757  30.866  29.008  1.00  0.00     0.010 A 
ATOM     32  C   UNL A   1      37.026  32.860  28.457  1.00  0.00     0.010 A 
ATOM     33  C   UNL A   1      36.979  31.548  28.961  1.00  0.00    -0.014 A 
BRANCH  33  34
ATOM     34  C   UNL A   1      38.147  30.946  29.648  1.00  0.00     0.031 A 
ATOM     35  C   UNL A   1      38.371  31.265  31.103  1.00  0.00     0.074 A 
ATOM     36  C   UNL A   1      38.937  30.058  29.021  1.00  0.00     0.049 A 
ATOM     37  N   UNL A   1      39.278  30.803  31.926  1.00  0.00    -0.248 NA
ATOM     38  C   UNL A   1      37.445  32.234  31.715  1.00  0.00     0.031 C 
ATOM     39  C   UNL A   1      38.802  29.642  27.626  1.00  0.00     0.029 A 
ATOM     40  N   UNL A   1      40.006  29.337  29.487  1.00  0.00    -0.354 N 
ATOM     41  C   UNL A   1      39.034  31.424  33.145  1.00  0.00     0.074 A 
ATOM     42  C   UNL A   1      37.917  32.322  32.949  1.00  0.00     0.031 C 
ATOM     43  C   UNL A   1      39.756  28.735  27.350  1.00  0.00     0.029 A 
ATOM     44  C   UNL A   1      40.574  28.520  28.541  1.00  0.00     0.049 A 
ATOM     45  H   UNL A   1      40.337  29.400  30.414  1.00  0.00     0.167 HD
ATOM     46  C   UNL A   1      39.671  31.251  34.328  1.00  0.00     0.037 A 
ATOM     47  C   UNL A   1      41.634  27.695  28.631  1.00  0.00     0.037 A 
ATOM     48  C   UNL A   1      40.773  30.348  34.530  1.00  0.00     0.049 A 
ATOM     49  C   UNL A   1      42.345  27.542  29.951  1.00  0.00     0.074 A 
ATOM     50  C   UNL A   1      41.479  30.094  35.693  1.00  0.00     0.029 A 
ATOM     51  N   UNL A   1      41.328  29.551  33.541  1.00  0.00    -0.354 N 
ATOM     52  N   UNL A   1      42.087  28.115  31.101  1.00  0.00    -0.248 NA
ATOM     53  C   UNL A   1      43.484  26.616  29.984  1.00  0.00     0.031 C 
ATOM     54  C   UNL A   1      42.486  29.169  35.399  1.00  0.00     0.029 A 
ATOM     55  C   UNL A   1      42.376  28.813  34.064  1.00  0.00     0.049 A 
ATOM     56  H   UNL A   1      41.022  29.514  32.606  1.00  0.00     0.167 HD
ATOM     57  C   UNL A   1      43.008  27.593  32.001  1.00  0.00     0.074 A 
ATOM     58  C   UNL A   1      43.823  26.649  31.265  1.00  0.00     0.031 C 
ATOM     59  C   UNL A   1      43.167  27.868  33.321  1.00  0.00     0.037 A 
BRANCH  46  60
ATOM     60  C   UNL A   1      39.199  32.070  35.492  1.00  0.00     0.057 A 
ATOM     61  C   UNL A   1      39.599  33.400  35.673  1.00  0.00     0.134 A 
ATOM     62  C   UNL A   1      38.309  31.529  36.429  1.00  0.00     0.134 A 
ATOM     63  F   UNL A   1      40.463  33.972  34.821  1.00  0.00    -0.206 F 
ATOM     64  C   UNL A   1      39.143  34.159  36.752  1.00  0.00     0.040 A 
ATOM     65  C   UNL A   1      37.828  32.284  37.499  1.00  0.00     0.040 A 
ATOM     66  F   UNL A   1      37.887  30.262  36.314  1.00  0.00    -0.206 F 
ATOM     67  C   UNL A   1      38.250  33.602  37.666  1.00  0.00     0.006 A 
ENDBRANCH  46  60
BRANCH  47  68
ATOM     68  C   UNL A   1      42.091  26.938  27.438  1.00  0.00     0.057 A 
ATOM     69  C   UNL A   1      41.688  25.616  27.214  1.00  0.00     0.134 A 
ATOM     70  C   UNL A   1      42.972  27.511  26.513  1.00  0.00     0.134 A 
ATOM     71  F   UNL A   1      40.864  25.006  28.078  1.00  0.00    -0.206 F 
ATOM     72  C   UNL A   1      42.163  24.883  26.125  1.00  0.00     0.040 A 
ATOM     73  C   UNL A   1      43.434  26.797  25.406  1.00  0.00     0.040 A 
ATOM     74  F   UNL A   1      43.393  28.774  26.671  1.00  0.00    -0.206 F 
ATOM     75  C   UNL A   1      43.036  25.476  25.215  1.00  0.00     0.006 A 
ENDBRANCH  47  68
BRANCH  59  76
ATOM     76  C   UNL A   1      44.226  27.101  34.059  1.00  0.00     0.057 A 
ATOM     77  C   UNL A   1      45.540  27.572  34.173  1.00  0.00     0.134 A 
ATOM     78  C   UNL A   1      43.918  25.884  34.679  1.00  0.00     0.134 A 
ATOM     79  F   UNL A   1      45.901  28.726  33.593  1.00  0.00    -0.206 F 
ATOM     80  C   UNL A   1      46.517  26.844  34.852  1.00  0.00     0.040 A 
ATOM     81  C   UNL A   1      44.880  25.160  35.383  1.00  0.00     0.040 A 
ATOM     82  F   UNL A   1      42.675  25.381  34.617  1.00  0.00    -0.206 F 
ATOM     83  C   UNL A   1      46.188  25.635  35.464  1.00  0.00     0.006 A 
ENDBRANCH  59  76
ENDBRANCH  33  34
ENDBRANCH  26  28
ENDBRANCH  25  26
ENDBRANCH  24  25
ENDBRANCH  23  24
ENDBRANCH  22  23
ENDBRANCH   1  22
TORSDOF 17
ENDMDL
