MODEL 1
REMARK VINA RESULT:     -10.9      0.000      0.000
REMARK SMILES CSc1nc(O)nc(C)c1C(=O)N1C[C@@H](O)C[C@@H]1C(=O)OCCOCCOC(=O)c1ccc(-c2c3nc(c(-c4c(F)cccc4F)c4ccc([nH]4)c(-c4c(F)cccc4F)c4nc(c(-c5c(F)cccc5F)c5ccc2[nH]5)C=C4)C=C3)cc1
REMARK SMILES IDX 23 1 22 2 21 3 19 4 20 5 18 6 13 7 14 8 15 9 17 10 11 11
REMARK SMILES IDX 12 12 10 13 3 14 4 15 5 16 8 17 7 18 9 19 2 20 1 21 6 22
REMARK SMILES IDX 16 24 24 26 25 27 26 28 27 29 28 30 29 31 30 32 31 33 83 34
REMARK SMILES IDX 32 35 82 36 33 37 34 38 35 39 76 40 36 41 81 42 75 43 77 44
REMARK SMILES IDX 37 45 80 46 74 47 73 48 38 50 64 51 47 52 63 53 48 54 51 55
REMARK SMILES IDX 62 56 78 57 49 58 50 59 61 61 79 62 52 63 39 64 40 65 45 66
REMARK SMILES IDX 41 67 42 68 44 69 46 70 43 71 65 72 66 73 71 74 67 75 68 76
REMARK SMILES IDX 70 77 72 78 69 79 53 80 54 81 59 82 55 83 56 84 58 85 60 86
REMARK SMILES IDX 57 87
REMARK H PARENT 6 23 16 25 77 49 51 60
REMARK Flexibility Score: inf
ROOT
ATOM      1  C   UNL A   1      32.300  30.045  25.709  1.00  0.00     0.202 C 
ENDROOT
BRANCH   1   2
ATOM      2  C   UNL A   1      31.731  28.612  25.678  1.00  0.00     0.261 C 
BRANCH   2   3
ATOM      3  O   UNL A   1      31.820  27.948  24.410  1.00  0.00    -0.462 OA
BRANCH   3   4
ATOM      4  C   UNL A   1      31.040  26.834  24.379  1.00  0.00     0.329 C 
ATOM      5  O   UNL A   1      29.997  26.737  25.010  1.00  0.00    -0.250 OA
BRANCH   4   6
ATOM      6  C   UNL A   1      31.545  25.784  23.392  1.00  0.00     0.198 C 
ATOM      7  N   UNL A   1      32.937  25.433  23.719  1.00  0.00    -0.322 N 
ATOM      8  C   UNL A   1      33.580  25.002  22.491  1.00  0.00     0.152 C 
ATOM      9  C   UNL A   1      32.947  25.879  21.408  1.00  0.00     0.136 C 
ATOM     10  C   UNL A   1      31.537  26.191  21.923  1.00  0.00     0.071 C 
BRANCH   7  11
ATOM     11  C   UNL A   1      33.099  24.702  24.890  1.00  0.00     0.259 C 
ATOM     12  O   UNL A   1      33.411  25.329  25.904  1.00  0.00    -0.269 OA
BRANCH  11  13
ATOM     13  C   UNL A   1      32.933  23.207  24.927  1.00  0.00     0.093 A 
ATOM     14  C   UNL A   1      33.856  22.204  24.578  1.00  0.00     0.116 A 
ATOM     15  N   UNL A   1      33.550  20.880  24.663  1.00  0.00    -0.188 NA
ATOM     16  C   UNL A   1      32.393  20.552  25.203  1.00  0.00     0.315 A 
ATOM     17  C   UNL A   1      31.734  22.705  25.489  1.00  0.00     0.058 A 
ATOM     18  N   UNL A   1      31.464  21.382  25.638  1.00  0.00    -0.200 NA
ATOM     19  C   UNL A   1      30.645  23.557  26.087  1.00  0.00     0.068 C 
BRANCH  14  20
ATOM     20  S   UNL A   1      35.621  22.257  24.313  1.00  0.00    -0.109 SA
ATOM     21  C   UNL A   1      36.281  20.776  25.066  1.00  0.00     0.092 C 
ENDBRANCH  14  20
BRANCH  16  22
ATOM     22  O   UNL A   1      32.154  19.241  25.454  1.00  0.00    -0.479 OA
ATOM     23  H   UNL A   1      32.792  18.727  25.909  1.00  0.00     0.297 HD
ENDBRANCH  16  22
ENDBRANCH  11  13
ENDBRANCH   7  11
BRANCH   9  24
ATOM     24  O   UNL A   1      32.914  25.258  20.135  1.00  0.00    -0.391 OA
ATOM     25  H   UNL A   1      33.660  24.643  20.055  1.00  0.00     0.211 HD
ENDBRANCH   9  24
ENDBRANCH   4   6
ENDBRANCH   3   4
ENDBRANCH   2   3
ENDBRANCH   1   2
BRANCH   1  26
ATOM     26  O   UNL A   1      32.141  30.831  26.882  1.00  0.00    -0.374 OA
BRANCH  26  27
ATOM     27  C   UNL A   1      31.366  32.028  26.819  1.00  0.00     0.202 C 
BRANCH  27  28
ATOM     28  C   UNL A   1      32.092  33.372  26.884  1.00  0.00     0.261 C 
BRANCH  28  29
ATOM     29  O   UNL A   1      32.403  33.725  28.247  1.00  0.00    -0.460 OA
BRANCH  29  30
ATOM     30  C   UNL A   1      33.538  34.438  28.404  1.00  0.00     0.338 C 
ATOM     31  O   UNL A   1      33.647  35.655  28.534  1.00  0.00    -0.246 OA
BRANCH  30  32
ATOM     32  C   UNL A   1      34.673  33.529  28.588  1.00  0.00     0.060 A 
ATOM     33  C   UNL A   1      34.423  32.256  29.115  1.00  0.00     0.016 A 
ATOM     34  C   UNL A   1      35.977  33.974  28.370  1.00  0.00     0.016 A 
ATOM     35  C   UNL A   1      35.486  31.429  29.464  1.00  0.00     0.010 A 
ATOM     36  C   UNL A   1      37.044  33.155  28.749  1.00  0.00     0.010 A 
ATOM     37  C   UNL A   1      36.798  31.900  29.334  1.00  0.00    -0.014 A 
BRANCH  37  38
ATOM     38  C   UNL A   1      37.893  31.171  30.009  1.00  0.00     0.031 A 
ATOM     39  C   UNL A   1      38.169  31.477  31.455  1.00  0.00     0.074 A 
ATOM     40  C   UNL A   1      38.606  30.237  29.358  1.00  0.00     0.049 A 
ATOM     41  N   UNL A   1      39.083  30.984  32.249  1.00  0.00    -0.248 NA
ATOM     42  C   UNL A   1      37.288  32.470  32.092  1.00  0.00     0.031 C 
ATOM     43  C   UNL A   1      38.393  29.821  27.974  1.00  0.00     0.029 A 
ATOM     44  N   UNL A   1      39.663  29.477  29.784  1.00  0.00    -0.354 N 
ATOM     45  C   UNL A   1      38.880  31.594  33.480  1.00  0.00     0.074 A 
ATOM     46  C   UNL A   1      37.778  32.516  33.322  1.00  0.00     0.031 C 
ATOM     47  C   UNL A   1      39.308  28.888  27.658  1.00  0.00     0.029 A 
ATOM     48  C   UNL A   1      40.181  28.664  28.807  1.00  0.00     0.049 A 
ATOM     49  H   UNL A   1      40.018  29.510  30.703  1.00  0.00     0.167 HD
ATOM     50  C   UNL A   1      39.549  31.399  34.640  1.00  0.00     0.037 A 
ATOM     51  C   UNL A   1      41.253  27.851  28.841  1.00  0.00     0.037 A 
ATOM     52  C   UNL A   1      40.665  30.506  34.786  1.00  0.00     0.049 A 
ATOM     53  C   UNL A   1      42.053  27.740  30.111  1.00  0.00     0.074 A 
ATOM     54  C   UNL A   1      41.417  30.237  35.916  1.00  0.00     0.029 A 
ATOM     55  N   UNL A   1      41.201  29.746  33.757  1.00  0.00    -0.354 N 
ATOM     56  N   UNL A   1      41.843  28.304  31.275  1.00  0.00    -0.248 NA
ATOM     57  C   UNL A   1      43.244  26.879  30.066  1.00  0.00     0.031 C 
ATOM     58  C   UNL A   1      42.436  29.345  35.559  1.00  0.00     0.029 A 
ATOM     59  C   UNL A   1      42.292  29.029  34.217  1.00  0.00     0.049 A 
ATOM     60  H   UNL A   1      40.856  29.719  32.835  1.00  0.00     0.167 HD
ATOM     61  C   UNL A   1      42.859  27.851  32.108  1.00  0.00     0.074 A 
ATOM     62  C   UNL A   1      43.679  26.956  31.316  1.00  0.00     0.031 C 
ATOM     63  C   UNL A   1      43.094  28.147  33.410  1.00  0.00     0.037 A 
BRANCH  50  64
ATOM     64  C   UNL A   1      39.099  32.194  35.828  1.00  0.00     0.057 A 
ATOM     65  C   UNL A   1      38.206  31.647  36.757  1.00  0.00     0.134 A 
ATOM     66  C   UNL A   1      39.552  33.499  36.053  1.00  0.00     0.134 A 
ATOM     67  F   UNL A   1      37.738  30.401  36.600  1.00  0.00    -0.206 F 
ATOM     68  C   UNL A   1      37.780  32.373  37.871  1.00  0.00     0.040 A 
ATOM     69  C   UNL A   1      39.149  34.228  37.175  1.00  0.00     0.040 A 
ATOM     70  F   UNL A   1      40.425  34.072  35.210  1.00  0.00    -0.206 F 
ATOM     71  C   UNL A   1      38.257  33.665  38.085  1.00  0.00     0.006 A 
ENDBRANCH  50  64
BRANCH  51  72
ATOM     72  C   UNL A   1      41.653  27.093  27.630  1.00  0.00     0.057 A 
ATOM     73  C   UNL A   1      41.186  25.794  27.399  1.00  0.00     0.134 A 
ATOM     74  C   UNL A   1      42.481  27.665  26.659  1.00  0.00     0.134 A 
ATOM     75  F   UNL A   1      40.387  25.192  28.292  1.00  0.00    -0.206 F 
ATOM     76  C   UNL A   1      41.531  25.088  26.246  1.00  0.00     0.040 A 
ATOM     77  C   UNL A   1      42.818  26.979  25.491  1.00  0.00     0.040 A 
ATOM     78  F   UNL A   1      42.939  28.916  26.815  1.00  0.00    -0.206 F 
ATOM     79  C   UNL A   1      42.345  25.685  25.283  1.00  0.00     0.006 A 
ENDBRANCH  51  72
BRANCH  63  80
ATOM     80  C   UNL A   1      44.270  27.478  34.057  1.00  0.00     0.057 A 
ATOM     81  C   UNL A   1      44.133  26.221  34.660  1.00  0.00     0.134 A 
ATOM     82  C   UNL A   1      45.529  28.087  34.104  1.00  0.00     0.134 A 
ATOM     83  F   UNL A   1      42.950  25.588  34.655  1.00  0.00    -0.206 F 
ATOM     84  C   UNL A   1      45.208  25.594  35.289  1.00  0.00     0.040 A 
ATOM     85  C   UNL A   1      46.618  27.460  34.711  1.00  0.00     0.040 A 
ATOM     86  F   UNL A   1      45.728  29.284  33.531  1.00  0.00    -0.206 F 
ATOM     87  C   UNL A   1      46.457  26.211  35.310  1.00  0.00     0.006 A 
ENDBRANCH  63  80
ENDBRANCH  37  38
ENDBRANCH  30  32
ENDBRANCH  29  30
ENDBRANCH  28  29
ENDBRANCH  27  28
ENDBRANCH  26  27
ENDBRANCH   1  26
TORSDOF 19
ENDMDL
MODEL 2
REMARK VINA RESULT:     -10.8      0.515      6.242
REMARK SMILES CSc1nc(O)nc(C)c1C(=O)N1C[C@@H](O)C[C@@H]1C(=O)OCCOCCOC(=O)c1ccc(-c2c3nc(c(-c4c(F)cccc4F)c4ccc([nH]4)c(-c4c(F)cccc4F)c4nc(c(-c5c(F)cccc5F)c5ccc2[nH]5)C=C4)C=C3)cc1
REMARK SMILES IDX 23 1 22 2 21 3 19 4 20 5 18 6 13 7 14 8 15 9 17 10 11 11
REMARK SMILES IDX 12 12 10 13 3 14 4 15 5 16 8 17 7 18 9 19 2 20 1 21 6 22
REMARK SMILES IDX 16 24 24 26 25 27 26 28 27 29 28 30 29 31 30 32 31 33 83 34
REMARK SMILES IDX 32 35 82 36 33 37 34 38 35 39 76 40 36 41 81 42 75 43 77 44
REMARK SMILES IDX 37 45 80 46 74 47 73 48 38 50 64 51 47 52 63 53 48 54 51 55
REMARK SMILES IDX 62 56 78 57 49 58 50 59 61 61 79 62 52 63 39 64 40 65 45 66
REMARK SMILES IDX 41 67 42 68 44 69 46 70 43 71 65 72 66 73 71 74 67 75 68 76
REMARK SMILES IDX 70 77 72 78 69 79 53 80 54 81 59 82 55 83 56 84 58 85 60 86
REMARK SMILES IDX 57 87
REMARK H PARENT 6 23 16 25 77 49 51 60
REMARK Flexibility Score: inf
ROOT
ATOM      1  C   UNL A   1      32.478  29.928  25.682  1.00  0.00     0.202 C 
ENDROOT
BRANCH   1   2
ATOM      2  C   UNL A   1      32.008  28.459  25.662  1.00  0.00     0.261 C 
BRANCH   2   3
ATOM      3  O   UNL A   1      31.524  27.992  24.396  1.00  0.00    -0.462 OA
BRANCH   3   4
ATOM      4  C   UNL A   1      30.967  26.754  24.506  1.00  0.00     0.329 C 
ATOM      5  O   UNL A   1      30.043  26.508  25.267  1.00  0.00    -0.250 OA
BRANCH   4   6
ATOM      6  C   UNL A   1      31.540  25.756  23.501  1.00  0.00     0.198 C 
ATOM      7  N   UNL A   1      32.921  25.417  23.880  1.00  0.00    -0.322 N 
ATOM      8  C   UNL A   1      33.630  25.050  22.668  1.00  0.00     0.152 C 
ATOM      9  C   UNL A   1      33.032  25.960  21.592  1.00  0.00     0.136 C 
ATOM     10  C   UNL A   1      31.593  26.225  22.051  1.00  0.00     0.071 C 
BRANCH   7  11
ATOM     11  C   UNL A   1      33.043  24.641  25.027  1.00  0.00     0.259 C 
ATOM     12  O   UNL A   1      33.288  25.231  26.080  1.00  0.00    -0.269 OA
BRANCH  11  13
ATOM     13  C   UNL A   1      32.913  23.143  24.993  1.00  0.00     0.093 A 
ATOM     14  C   UNL A   1      33.869  22.177  24.627  1.00  0.00     0.116 A 
ATOM     15  N   UNL A   1      33.593  20.845  24.645  1.00  0.00    -0.188 NA
ATOM     16  C   UNL A   1      32.430  20.466  25.136  1.00  0.00     0.315 A 
ATOM     17  C   UNL A   1      31.711  22.588  25.497  1.00  0.00     0.058 A 
ATOM     18  N   UNL A   1      31.469  21.254  25.580  1.00  0.00    -0.200 NA
ATOM     19  C   UNL A   1      30.585  23.387  26.101  1.00  0.00     0.068 C 
BRANCH  14  20
ATOM     20  S   UNL A   1      35.639  22.283  24.416  1.00  0.00    -0.109 SA
ATOM     21  C   UNL A   1      36.265  23.106  25.875  1.00  0.00     0.092 C 
ENDBRANCH  14  20
BRANCH  16  22
ATOM     22  O   UNL A   1      32.216  19.140  25.323  1.00  0.00    -0.479 OA
ATOM     23  H   UNL A   1      32.765  18.655  25.907  1.00  0.00     0.297 HD
ENDBRANCH  16  22
ENDBRANCH  11  13
ENDBRANCH   7  11
BRANCH   9  24
ATOM     24  O   UNL A   1      33.072  25.393  20.295  1.00  0.00    -0.391 OA
ATOM     25  H   UNL A   1      33.902  25.640  19.858  1.00  0.00     0.211 HD
ENDBRANCH   9  24
ENDBRANCH   4   6
ENDBRANCH   3   4
ENDBRANCH   2   3
ENDBRANCH   1   2
BRANCH   1  26
ATOM     26  O   UNL A   1      32.135  30.753  26.787  1.00  0.00    -0.374 OA
BRANCH  26  27
ATOM     27  C   UNL A   1      31.348  31.923  26.566  1.00  0.00     0.202 C 
BRANCH  27  28
ATOM     28  C   UNL A   1      32.015  33.291  26.719  1.00  0.00     0.261 C 
BRANCH  28  29
ATOM     29  O   UNL A   1      32.188  33.627  28.110  1.00  0.00    -0.460 OA
BRANCH  29  30
ATOM     30  C   UNL A   1      33.231  34.442  28.371  1.00  0.00     0.338 C 
ATOM     31  O   UNL A   1      33.211  35.662  28.519  1.00  0.00    -0.246 OA
BRANCH  30  32
ATOM     32  C   UNL A   1      34.428  33.643  28.647  1.00  0.00     0.060 A 
ATOM     33  C   UNL A   1      34.258  32.355  29.171  1.00  0.00     0.016 A 
ATOM     34  C   UNL A   1      35.699  34.203  28.516  1.00  0.00     0.016 A 
ATOM     35  C   UNL A   1      35.363  31.631  29.606  1.00  0.00     0.010 A 
ATOM     36  C   UNL A   1      36.805  33.488  28.981  1.00  0.00     0.010 A 
ATOM     37  C   UNL A   1      36.633  32.219  29.563  1.00  0.00    -0.014 A 
BRANCH  37  38
ATOM     38  C   UNL A   1      37.738  31.598  30.324  1.00  0.00     0.031 A 
ATOM     39  C   UNL A   1      38.589  30.568  29.635  1.00  0.00     0.074 A 
ATOM     40  C   UNL A   1      37.996  31.964  31.590  1.00  0.00     0.049 A 
ATOM     41  N   UNL A   1      39.596  29.876  30.100  1.00  0.00    -0.248 NA
ATOM     42  C   UNL A   1      38.262  30.286  28.227  1.00  0.00     0.031 C 
ATOM     43  C   UNL A   1      37.272  32.988  32.340  1.00  0.00     0.029 A 
ATOM     44  N   UNL A   1      38.941  31.502  32.468  1.00  0.00    -0.354 N 
ATOM     45  C   UNL A   1      40.031  29.088  29.042  1.00  0.00     0.074 A 
ATOM     46  C   UNL A   1      39.161  29.363  27.920  1.00  0.00     0.031 C 
ATOM     47  C   UNL A   1      37.791  33.065  33.578  1.00  0.00     0.029 A 
ATOM     48  C   UNL A   1      38.862  32.079  33.711  1.00  0.00     0.049 A 
ATOM     49  H   UNL A   1      39.612  30.821  32.231  1.00  0.00     0.167 HD
ATOM     50  C   UNL A   1      41.067  28.218  29.007  1.00  0.00     0.037 A 
ATOM     51  C   UNL A   1      39.564  31.819  34.829  1.00  0.00     0.037 A 
ATOM     52  C   UNL A   1      41.909  27.923  30.133  1.00  0.00     0.049 A 
ATOM     53  C   UNL A   1      40.634  30.761  34.797  1.00  0.00     0.074 A 
ATOM     54  C   UNL A   1      42.984  27.054  30.206  1.00  0.00     0.029 A 
ATOM     55  N   UNL A   1      41.759  28.481  31.393  1.00  0.00    -0.354 N 
ATOM     56  N   UNL A   1      41.053  30.036  33.788  1.00  0.00    -0.248 NA
ATOM     57  C   UNL A   1      41.327  30.485  36.064  1.00  0.00     0.031 C 
ATOM     58  C   UNL A   1      43.457  27.056  31.523  1.00  0.00     0.029 A 
ATOM     59  C   UNL A   1      42.701  27.955  32.259  1.00  0.00     0.049 A 
ATOM     60  H   UNL A   1      41.081  29.153  31.636  1.00  0.00     0.167 HD
ATOM     61  C   UNL A   1      42.071  29.235  34.290  1.00  0.00     0.074 A 
ATOM     62  C   UNL A   1      42.213  29.572  35.692  1.00  0.00     0.031 C 
ATOM     63  C   UNL A   1      42.821  28.304  33.651  1.00  0.00     0.037 A 
BRANCH  50  64
ATOM     64  C   UNL A   1      41.317  27.509  27.710  1.00  0.00     0.057 A 
ATOM     65  C   UNL A   1      42.105  28.096  26.714  1.00  0.00     0.134 A 
ATOM     66  C   UNL A   1      40.780  26.242  27.451  1.00  0.00     0.134 A 
ATOM     67  F   UNL A   1      42.651  29.307  26.903  1.00  0.00    -0.206 F 
ATOM     68  C   UNL A   1      42.350  27.447  25.503  1.00  0.00     0.040 A 
ATOM     69  C   UNL A   1      41.035  25.574  26.251  1.00  0.00     0.040 A 
ATOM     70  F   UNL A   1      40.033  25.617  28.374  1.00  0.00    -0.206 F 
ATOM     71  C   UNL A   1      41.820  26.180  25.272  1.00  0.00     0.006 A 
ENDBRANCH  50  64
BRANCH  51  72
ATOM     72  C   UNL A   1      39.267  32.551  36.085  1.00  0.00     0.057 A 
ATOM     73  C   UNL A   1      39.850  33.794  36.356  1.00  0.00     0.134 A 
ATOM     74  C   UNL A   1      38.364  32.041  37.023  1.00  0.00     0.134 A 
ATOM     75  F   UNL A   1      40.721  34.336  35.494  1.00  0.00    -0.206 F 
ATOM     76  C   UNL A   1      39.549  34.504  37.520  1.00  0.00     0.040 A 
ATOM     77  C   UNL A   1      38.037  32.749  38.181  1.00  0.00     0.040 A 
ATOM     78  F   UNL A   1      37.755  30.866  36.805  1.00  0.00    -0.206 F 
ATOM     79  C   UNL A   1      38.633  33.983  38.433  1.00  0.00     0.006 A 
ENDBRANCH  51  72
BRANCH  63  80
ATOM     80  C   UNL A   1      43.874  27.607  34.461  1.00  0.00     0.057 A 
ATOM     81  C   UNL A   1      45.162  28.145  34.571  1.00  0.00     0.134 A 
ATOM     82  C   UNL A   1      43.619  26.394  35.111  1.00  0.00     0.134 A 
ATOM     83  F   UNL A   1      45.472  29.302  33.965  1.00  0.00    -0.206 F 
ATOM     84  C   UNL A   1      46.161  27.498  35.298  1.00  0.00     0.040 A 
ATOM     85  C   UNL A   1      44.604  25.749  35.860  1.00  0.00     0.040 A 
ATOM     86  F   UNL A   1      42.400  25.835  35.055  1.00  0.00    -0.206 F 
ATOM     87  C   UNL A   1      45.881  26.300  35.951  1.00  0.00     0.006 A 
ENDBRANCH  63  80
ENDBRANCH  37  38
ENDBRANCH  30  32
ENDBRANCH  29  30
ENDBRANCH  28  29
ENDBRANCH  27  28
ENDBRANCH  26  27
ENDBRANCH   1  26
TORSDOF 19
ENDMDL
MODEL 3
REMARK VINA RESULT:     -10.6      0.874      1.910
REMARK SMILES CSc1nc(O)nc(C)c1C(=O)N1C[C@@H](O)C[C@@H]1C(=O)OCCOCCOC(=O)c1ccc(-c2c3nc(c(-c4c(F)cccc4F)c4ccc([nH]4)c(-c4c(F)cccc4F)c4nc(c(-c5c(F)cccc5F)c5ccc2[nH]5)C=C4)C=C3)cc1
REMARK SMILES IDX 23 1 22 2 21 3 19 4 20 5 18 6 13 7 14 8 15 9 17 10 11 11
REMARK SMILES IDX 12 12 10 13 3 14 4 15 5 16 8 17 7 18 9 19 2 20 1 21 6 22
REMARK SMILES IDX 16 24 24 26 25 27 26 28 27 29 28 30 29 31 30 32 31 33 83 34
REMARK SMILES IDX 32 35 82 36 33 37 34 38 35 39 76 40 36 41 81 42 75 43 77 44
REMARK SMILES IDX 37 45 80 46 74 47 73 48 38 50 64 51 47 52 63 53 48 54 51 55
REMARK SMILES IDX 62 56 78 57 49 58 50 59 61 61 79 62 52 63 39 64 40 65 45 66
REMARK SMILES IDX 41 67 42 68 44 69 46 70 43 71 65 72 66 73 71 74 67 75 68 76
REMARK SMILES IDX 70 77 72 78 69 79 53 80 54 81 59 82 55 83 56 84 58 85 60 86
REMARK SMILES IDX 57 87
REMARK H PARENT 6 23 16 25 77 49 51 60
REMARK Flexibility Score: inf
ROOT
ATOM      1  C   UNL A   1      33.101  29.532  26.257  1.00  0.00     0.202 C 
ENDROOT
BRANCH   1   2
ATOM      2  C   UNL A   1      32.031  28.446  26.018  1.00  0.00     0.261 C 
BRANCH   2   3
ATOM      3  O   UNL A   1      31.958  27.947  24.677  1.00  0.00    -0.462 OA
BRANCH   3   4
ATOM      4  C   UNL A   1      31.176  26.836  24.604  1.00  0.00     0.329 C 
ATOM      5  O   UNL A   1      30.144  26.708  25.248  1.00  0.00    -0.250 OA
BRANCH   4   6
ATOM      6  C   UNL A   1      31.662  25.836  23.556  1.00  0.00     0.198 C 
ATOM      7  N   UNL A   1      33.050  25.448  23.857  1.00  0.00    -0.322 N 
ATOM      8  C   UNL A   1      33.682  25.078  22.604  1.00  0.00     0.152 C 
ATOM      9  C   UNL A   1      33.058  26.024  21.575  1.00  0.00     0.136 C 
ATOM     10  C   UNL A   1      31.655  26.326  22.113  1.00  0.00     0.071 C 
BRANCH   7  11
ATOM     11  C   UNL A   1      33.206  24.650  24.984  1.00  0.00     0.259 C 
ATOM     12  O   UNL A   1      33.559  25.210  26.023  1.00  0.00    -0.269 OA
BRANCH  11  13
ATOM     13  C   UNL A   1      32.987  23.162  24.945  1.00  0.00     0.093 A 
ATOM     14  C   UNL A   1      33.866  22.146  24.524  1.00  0.00     0.116 A 
ATOM     15  N   UNL A   1      33.514  20.832  24.545  1.00  0.00    -0.188 NA
ATOM     16  C   UNL A   1      32.355  20.516  25.089  1.00  0.00     0.315 A 
ATOM     17  C   UNL A   1      31.780  22.672  25.501  1.00  0.00     0.058 A 
ATOM     18  N   UNL A   1      31.465  21.354  25.585  1.00  0.00    -0.200 NA
ATOM     19  C   UNL A   1      30.733  23.529  26.166  1.00  0.00     0.068 C 
BRANCH  14  20
ATOM     20  S   UNL A   1      35.627  22.151  24.228  1.00  0.00    -0.109 SA
ATOM     21  C   UNL A   1      36.397  21.812  25.807  1.00  0.00     0.092 C 
ENDBRANCH  14  20
BRANCH  16  22
ATOM     22  O   UNL A   1      32.073  19.203  25.274  1.00  0.00    -0.479 OA
ATOM     23  H   UNL A   1      32.062  18.618  24.542  1.00  0.00     0.297 HD
ENDBRANCH  16  22
ENDBRANCH  11  13
ENDBRANCH   7  11
BRANCH   9  24
ATOM     24  O   UNL A   1      33.011  25.477  20.268  1.00  0.00    -0.391 OA
ATOM     25  H   UNL A   1      33.891  25.532  19.863  1.00  0.00     0.211 HD
ENDBRANCH   9  24
ENDBRANCH   4   6
ENDBRANCH   3   4
ENDBRANCH   2   3
ENDBRANCH   1   2
BRANCH   1  26
ATOM     26  O   UNL A   1      32.778  30.663  27.054  1.00  0.00    -0.374 OA
BRANCH  26  27
ATOM     27  C   UNL A   1      31.662  31.476  26.692  1.00  0.00     0.202 C 
BRANCH  27  28
ATOM     28  C   UNL A   1      31.749  32.983  26.932  1.00  0.00     0.261 C 
BRANCH  28  29
ATOM     29  O   UNL A   1      33.103  33.382  27.223  1.00  0.00    -0.460 OA
BRANCH  29  30
ATOM     30  C   UNL A   1      33.232  34.254  28.243  1.00  0.00     0.338 C 
ATOM     31  O   UNL A   1      32.484  35.186  28.532  1.00  0.00    -0.246 OA
BRANCH  30  32
ATOM     32  C   UNL A   1      34.328  33.834  29.120  1.00  0.00     0.060 A 
ATOM     33  C   UNL A   1      35.631  34.226  28.785  1.00  0.00     0.016 A 
ATOM     34  C   UNL A   1      34.092  32.958  30.180  1.00  0.00     0.016 A 
ATOM     35  C   UNL A   1      36.714  33.710  29.489  1.00  0.00     0.010 A 
ATOM     36  C   UNL A   1      35.181  32.415  30.866  1.00  0.00     0.010 A 
ATOM     37  C   UNL A   1      36.494  32.760  30.494  1.00  0.00    -0.014 A 
BRANCH  37  38
ATOM     38  C   UNL A   1      37.637  31.972  31.000  1.00  0.00     0.031 A 
ATOM     39  C   UNL A   1      38.170  32.284  32.371  1.00  0.00     0.074 A 
ATOM     40  C   UNL A   1      38.171  30.981  30.268  1.00  0.00     0.049 A 
ATOM     41  N   UNL A   1      39.170  31.745  33.016  1.00  0.00    -0.248 NA
ATOM     42  C   UNL A   1      37.473  33.346  33.116  1.00  0.00     0.031 C 
ATOM     43  C   UNL A   1      37.703  30.555  28.950  1.00  0.00     0.029 A 
ATOM     44  N   UNL A   1      39.233  30.158  30.534  1.00  0.00    -0.354 N 
ATOM     45  C   UNL A   1      39.215  32.390  34.245  1.00  0.00     0.074 A 
ATOM     46  C   UNL A   1      38.163  33.381  34.246  1.00  0.00     0.031 C 
ATOM     47  C   UNL A   1      38.491  29.557  28.514  1.00  0.00     0.029 A 
ATOM     48  C   UNL A   1      39.528  29.295  29.509  1.00  0.00     0.049 A 
ATOM     49  H   UNL A   1      39.738  30.184  31.380  1.00  0.00     0.167 HD
ATOM     50  C   UNL A   1      40.055  32.171  35.284  1.00  0.00     0.037 A 
ATOM     51  C   UNL A   1      40.537  28.412  29.388  1.00  0.00     0.037 A 
ATOM     52  C   UNL A   1      41.121  31.207  35.269  1.00  0.00     0.049 A 
ATOM     53  C   UNL A   1      41.530  28.270  30.511  1.00  0.00     0.074 A 
ATOM     54  C   UNL A   1      42.032  30.908  36.267  1.00  0.00     0.029 A 
ATOM     55  N   UNL A   1      41.428  30.394  34.188  1.00  0.00    -0.354 N 
ATOM     56  N   UNL A   1      41.553  28.867  31.677  1.00  0.00    -0.248 NA
ATOM     57  C   UNL A   1      42.639  27.330  30.295  1.00  0.00     0.031 C 
ATOM     58  C   UNL A   1      42.918  29.943  35.772  1.00  0.00     0.029 A 
ATOM     59  C   UNL A   1      42.532  29.614  34.482  1.00  0.00     0.049 A 
ATOM     60  H   UNL A   1      40.933  30.374  33.337  1.00  0.00     0.167 HD
ATOM     61  C   UNL A   1      42.663  28.363  32.343  1.00  0.00     0.074 A 
ATOM     62  C   UNL A   1      43.280  27.400  31.453  1.00  0.00     0.031 C 
ATOM     63  C   UNL A   1      43.130  28.665  33.579  1.00  0.00     0.037 A 
BRANCH  50  64
ATOM     64  C   UNL A   1      39.861  33.015  36.507  1.00  0.00     0.057 A 
ATOM     65  C   UNL A   1      40.571  34.209  36.672  1.00  0.00     0.134 A 
ATOM     66  C   UNL A   1      38.967  32.646  37.520  1.00  0.00     0.134 A 
ATOM     67  F   UNL A   1      41.439  34.620  35.736  1.00  0.00    -0.206 F 
ATOM     68  C   UNL A   1      40.398  35.008  37.804  1.00  0.00     0.040 A 
ATOM     69  C   UNL A   1      38.771  33.447  38.647  1.00  0.00     0.040 A 
ATOM     70  F   UNL A   1      38.241  31.523  37.411  1.00  0.00    -0.206 F 
ATOM     71  C   UNL A   1      39.492  34.631  38.792  1.00  0.00     0.006 A 
ENDBRANCH  50  64
BRANCH  51  72
ATOM     72  C   UNL A   1      40.681  27.607  28.151  1.00  0.00     0.057 A 
ATOM     73  C   UNL A   1      41.436  28.069  27.067  1.00  0.00     0.134 A 
ATOM     74  C   UNL A   1      40.098  26.340  28.040  1.00  0.00     0.134 A 
ATOM     75  F   UNL A   1      42.021  29.274  27.114  1.00  0.00    -0.206 F 
ATOM     76  C   UNL A   1      41.603  27.302  25.913  1.00  0.00     0.040 A 
ATOM     77  C   UNL A   1      40.274  25.553  26.901  1.00  0.00     0.040 A 
ATOM     78  F   UNL A   1      39.384  25.834  29.056  1.00  0.00    -0.206 F 
ATOM     79  C   UNL A   1      41.026  26.035  25.832  1.00  0.00     0.006 A 
ENDBRANCH  51  72
BRANCH  63  80
ATOM     80  C   UNL A   1      44.353  27.930  34.042  1.00  0.00     0.057 A 
ATOM     81  C   UNL A   1      45.630  28.467  33.834  1.00  0.00     0.134 A 
ATOM     82  C   UNL A   1      44.268  26.684  34.672  1.00  0.00     0.134 A 
ATOM     83  F   UNL A   1      45.779  29.656  33.230  1.00  0.00    -0.206 F 
ATOM     84  C   UNL A   1      46.780  27.787  34.235  1.00  0.00     0.040 A 
ATOM     85  C   UNL A   1      45.410  26.004  35.099  1.00  0.00     0.040 A 
ATOM     86  F   UNL A   1      43.072  26.124  34.914  1.00  0.00    -0.206 F 
ATOM     87  C   UNL A   1      46.671  26.555  34.876  1.00  0.00     0.006 A 
ENDBRANCH  63  80
ENDBRANCH  37  38
ENDBRANCH  30  32
ENDBRANCH  29  30
ENDBRANCH  28  29
ENDBRANCH  27  28
ENDBRANCH  26  27
ENDBRANCH   1  26
TORSDOF 19
ENDMDL
