MODEL 1
REMARK VINA RESULT:     -12.3      0.000      0.000
REMARK SMILES Cc1occc1C(=O)NN1C(=O)/C(=C\c2ccc(O[C@H](C)C(=O)OCCOCCOC(=O)c3ccc(-c4c5nc(c(-c6c(F)cccc6F)c6ccc([nH]6)c(-c6c(F)cccc6F)c6nc(c(-c7c(F)cccc7F)c7ccc4[nH]7)C=C6)C=C5)cc3)cc2)SC1=S
REMARK SMILES IDX 25 1 24 2 22 3 23 4 20 5 21 6 19 7 18 8 15 9 16 10 88 11
REMARK SMILES IDX 17 12 87 13 14 14 10 15 11 16 90 17 12 18 13 19 89 20 91 21
REMARK SMILES IDX 9 22 7 23 8 24 6 26 1 27 2 28 3 29 4 30 5 31 26 32 27 33
REMARK SMILES IDX 28 34 29 35 30 36 31 37 32 38 33 39 34 40 86 41 35 42 85 43
REMARK SMILES IDX 36 44 37 45 38 46 79 47 39 48 84 49 78 50 80 51 40 52 83 53
REMARK SMILES IDX 77 54 76 55 41 57 67 58 50 59 66 60 51 61 54 62 65 63 81 64
REMARK SMILES IDX 52 65 53 66 64 68 82 69 55 70 42 71 43 72 48 73 44 74 45 75
REMARK SMILES IDX 47 76 49 77 46 78 68 79 69 80 74 81 70 82 71 83 73 84 75 85
REMARK SMILES IDX 72 86 56 87 57 88 62 89 58 90 59 91 61 92 63 93 60 94
REMARK H PARENT 9 25 80 56 54 67
REMARK Flexibility Score: inf
ROOT
ATOM      1  C   UNL A   1      43.026  18.287  26.166  1.00  0.00     0.261 C 
ENDROOT
BRANCH   1   2
ATOM      2  O   UNL A   1      42.352  19.356  26.850  1.00  0.00    -0.461 OA
BRANCH   2   3
ATOM      3  C   UNL A   1      41.086  19.616  26.416  1.00  0.00     0.347 C 
ATOM      4  O   UNL A   1      40.439  18.893  25.668  1.00  0.00    -0.248 OA
BRANCH   3   5
ATOM      5  C   UNL A   1      40.545  20.925  26.978  1.00  0.00     0.279 C 
ATOM      6  C   UNL A   1      41.380  21.540  28.100  1.00  0.00     0.066 C 
BRANCH   5   7
ATOM      7  O   UNL A   1      40.079  21.765  25.930  1.00  0.00    -0.479 OA
BRANCH   7   8
ATOM      8  C   UNL A   1      38.815  22.232  25.795  1.00  0.00     0.120 A 
ATOM      9  C   UNL A   1      36.043  22.690  25.709  1.00  0.00    -0.024 A 
ATOM     10  C   UNL A   1      36.918  23.678  26.174  1.00  0.00     0.012 A 
ATOM     11  C   UNL A   1      36.584  21.547  25.121  1.00  0.00     0.012 A 
ATOM     12  C   UNL A   1      38.301  23.457  26.195  1.00  0.00     0.047 A 
ATOM     13  C   UNL A   1      37.956  21.309  25.197  1.00  0.00     0.047 A 
BRANCH   9  14
ATOM     14  C   UNL A   1      34.599  22.872  25.913  1.00  0.00     0.029 C 
ATOM     15  N   UNL A   1      33.060  25.142  23.521  1.00  0.00    -0.198 N 
ATOM     16  C   UNL A   1      34.137  24.353  23.888  1.00  0.00     0.285 C 
ATOM     17  C   UNL A   1      31.826  24.826  24.047  1.00  0.00     0.168 C 
ATOM     18  O   UNL A   1      35.185  24.287  23.263  1.00  0.00    -0.266 OA
ATOM     19  C   UNL A   1      33.778  23.559  25.101  1.00  0.00     0.082 C 
ATOM     20  S   UNL A   1      32.062  23.654  25.350  1.00  0.00    -0.052 SA
ATOM     21  S   UNL A   1      30.331  25.391  23.579  1.00  0.00    -0.050 S 
BRANCH  15  22
ATOM     22  N   UNL A   1      33.252  25.992  22.439  1.00  0.00    -0.254 N 
ATOM     23  C   UNL A   1      33.428  27.356  22.460  1.00  0.00     0.273 C 
ATOM     24  O   UNL A   1      33.808  27.878  21.409  1.00  0.00    -0.267 OA
ATOM     25  H   UNL A   1      33.265  25.566  21.551  1.00  0.00     0.192 HD
BRANCH  23  26
ATOM     26  C   UNL A   1      33.081  28.196  23.602  1.00  0.00     0.082 A 
ATOM     27  C   UNL A   1      30.618  29.194  23.371  1.00  0.00     0.088 C 
ATOM     28  C   UNL A   1      31.955  28.937  23.939  1.00  0.00     0.113 A 
ATOM     29  O   UNL A   1      32.135  29.545  25.150  1.00  0.00    -0.469 OA
ATOM     30  C   UNL A   1      33.332  29.157  25.636  1.00  0.00     0.196 A 
ATOM     31  C   UNL A   1      33.943  28.316  24.748  1.00  0.00     0.056 A 
ENDBRANCH  23  26
ENDBRANCH  15  22
ENDBRANCH   9  14
ENDBRANCH   7   8
ENDBRANCH   5   7
ENDBRANCH   3   5
ENDBRANCH   2   3
ENDBRANCH   1   2
BRANCH   1  32
ATOM     32  C   UNL A   1      44.268  18.774  25.416  1.00  0.00     0.202 C 
BRANCH  32  33
ATOM     33  O   UNL A   1      44.052  19.689  24.344  1.00  0.00    -0.374 OA
BRANCH  33  34
ATOM     34  C   UNL A   1      44.655  20.976  24.447  1.00  0.00     0.202 C 
BRANCH  34  35
ATOM     35  C   UNL A   1      44.102  21.909  25.532  1.00  0.00     0.261 C 
BRANCH  35  36
ATOM     36  O   UNL A   1      43.362  23.014  24.980  1.00  0.00    -0.460 OA
BRANCH  36  37
ATOM     37  C   UNL A   1      43.989  24.211  25.070  1.00  0.00     0.338 C 
ATOM     38  O   UNL A   1      44.970  24.583  24.436  1.00  0.00    -0.246 OA
BRANCH  37  39
ATOM     39  C   UNL A   1      43.231  25.127  25.938  1.00  0.00     0.060 A 
ATOM     40  C   UNL A   1      43.780  26.395  26.170  1.00  0.00     0.016 A 
ATOM     41  C   UNL A   1      42.062  24.730  26.592  1.00  0.00     0.016 A 
ATOM     42  C   UNL A   1      43.194  27.251  27.099  1.00  0.00     0.010 A 
ATOM     43  C   UNL A   1      41.479  25.589  27.532  1.00  0.00     0.010 A 
ATOM     44  C   UNL A   1      42.064  26.837  27.817  1.00  0.00    -0.014 A 
BRANCH  44  45
ATOM     45  C   UNL A   1      41.598  27.649  28.968  1.00  0.00     0.031 A 
ATOM     46  C   UNL A   1      42.330  27.544  30.279  1.00  0.00     0.074 A 
ATOM     47  C   UNL A   1      40.569  28.504  28.836  1.00  0.00     0.049 A 
ATOM     48  N   UNL A   1      42.084  28.142  31.417  1.00  0.00    -0.248 NA
ATOM     49  C   UNL A   1      43.497  26.648  30.310  1.00  0.00     0.031 C 
ATOM     50  C   UNL A   1      39.811  28.734  27.608  1.00  0.00     0.029 A 
ATOM     51  N   UNL A   1      39.986  29.342  29.754  1.00  0.00    -0.354 N 
ATOM     52  C   UNL A   1      43.063  27.697  32.297  1.00  0.00     0.074 A 
ATOM     53  C   UNL A   1      43.888  26.754  31.572  1.00  0.00     0.031 C 
ATOM     54  C   UNL A   1      38.855  29.648  27.851  1.00  0.00     0.029 A 
ATOM     55  C   UNL A   1      38.916  30.045  29.256  1.00  0.00     0.049 A 
ATOM     56  H   UNL A   1      40.304  29.430  30.682  1.00  0.00     0.167 HD
ATOM     57  C   UNL A   1      43.266  28.052  33.588  1.00  0.00     0.037 A 
ATOM     58  C   UNL A   1      38.073  30.897  29.872  1.00  0.00     0.037 A 
ATOM     59  C   UNL A   1      42.450  28.991  34.311  1.00  0.00     0.049 A 
ATOM     60  C   UNL A   1      38.274  31.213  31.332  1.00  0.00     0.074 A 
ATOM     61  C   UNL A   1      42.576  29.414  35.623  1.00  0.00     0.029 A 
ATOM     62  N   UNL A   1      41.353  29.653  33.781  1.00  0.00    -0.354 N 
ATOM     63  N   UNL A   1      39.208  30.793  32.149  1.00  0.00    -0.248 NA
ATOM     64  C   UNL A   1      37.299  32.123  31.952  1.00  0.00     0.031 C 
ATOM     65  C   UNL A   1      41.533  30.303  35.899  1.00  0.00     0.029 A 
ATOM     66  C   UNL A   1      40.783  30.467  34.746  1.00  0.00     0.049 A 
ATOM     67  H   UNL A   1      41.029  29.560  32.857  1.00  0.00     0.167 HD
ATOM     68  C   UNL A   1      38.954  31.411  33.368  1.00  0.00     0.074 A 
ATOM     69  C   UNL A   1      37.784  32.243  33.181  1.00  0.00     0.031 C 
ATOM     70  C   UNL A   1      39.628  31.301  34.539  1.00  0.00     0.037 A 
BRANCH  57  71
ATOM     71  C   UNL A   1      44.412  27.410  34.312  1.00  0.00     0.057 A 
ATOM     72  C   UNL A   1      45.647  28.054  34.451  1.00  0.00     0.134 A 
ATOM     73  C   UNL A   1      44.262  26.157  34.919  1.00  0.00     0.134 A 
ATOM     74  F   UNL A   1      45.859  29.250  33.881  1.00  0.00    -0.206 F 
ATOM     75  C   UNL A   1      46.698  27.469  35.160  1.00  0.00     0.040 A 
ATOM     76  C   UNL A   1      45.297  25.572  35.650  1.00  0.00     0.040 A 
ATOM     77  F   UNL A   1      43.101  25.489  34.826  1.00  0.00    -0.206 F 
ATOM     78  C   UNL A   1      46.521  26.228  35.769  1.00  0.00     0.006 A 
ENDBRANCH  57  71
BRANCH  58  79
ATOM     79  C   UNL A   1      36.943  31.504  29.123  1.00  0.00     0.057 A 
ATOM     80  C   UNL A   1      36.994  32.831  28.680  1.00  0.00     0.134 A 
ATOM     81  C   UNL A   1      35.767  30.787  28.878  1.00  0.00     0.134 A 
ATOM     82  F   UNL A   1      38.084  33.577  28.909  1.00  0.00    -0.206 F 
ATOM     83  C   UNL A   1      35.907  33.430  28.042  1.00  0.00     0.040 A 
ATOM     84  C   UNL A   1      34.681  31.365  28.217  1.00  0.00     0.040 A 
ATOM     85  F   UNL A   1      35.654  29.511  29.277  1.00  0.00    -0.206 F 
ATOM     86  C   UNL A   1      34.747  32.694  27.806  1.00  0.00     0.006 A 
ENDBRANCH  58  79
BRANCH  70  87
ATOM     87  C   UNL A   1      39.143  32.125  35.694  1.00  0.00     0.057 A 
ATOM     88  C   UNL A   1      39.524  33.463  35.861  1.00  0.00     0.134 A 
ATOM     89  C   UNL A   1      38.253  31.585  36.631  1.00  0.00     0.134 A 
ATOM     90  F   UNL A   1      40.385  34.036  35.005  1.00  0.00    -0.206 F 
ATOM     91  C   UNL A   1      39.053  34.227  36.930  1.00  0.00     0.040 A 
ATOM     92  C   UNL A   1      37.755  32.346  37.689  1.00  0.00     0.040 A 
ATOM     93  F   UNL A   1      37.840  30.313  36.524  1.00  0.00    -0.206 F 
ATOM     94  C   UNL A   1      38.161  33.670  37.844  1.00  0.00     0.006 A 
ENDBRANCH  70  87
ENDBRANCH  44  45
ENDBRANCH  37  39
ENDBRANCH  36  37
ENDBRANCH  35  36
ENDBRANCH  34  35
ENDBRANCH  33  34
ENDBRANCH  32  33
ENDBRANCH   1  32
TORSDOF 19
ENDMDL
MODEL 2
REMARK VINA RESULT:     -11.9      1.060      1.760
REMARK SMILES Cc1occc1C(=O)NN1C(=O)/C(=C\c2ccc(O[C@H](C)C(=O)OCCOCCOC(=O)c3ccc(-c4c5nc(c(-c6c(F)cccc6F)c6ccc([nH]6)c(-c6c(F)cccc6F)c6nc(c(-c7c(F)cccc7F)c7ccc4[nH]7)C=C6)C=C5)cc3)cc2)SC1=S
REMARK SMILES IDX 25 1 24 2 22 3 23 4 20 5 21 6 19 7 18 8 15 9 16 10 88 11
REMARK SMILES IDX 17 12 87 13 14 14 10 15 11 16 90 17 12 18 13 19 89 20 91 21
REMARK SMILES IDX 9 22 7 23 8 24 6 26 1 27 2 28 3 29 4 30 5 31 26 32 27 33
REMARK SMILES IDX 28 34 29 35 30 36 31 37 32 38 33 39 34 40 86 41 35 42 85 43
REMARK SMILES IDX 36 44 37 45 38 46 79 47 39 48 84 49 78 50 80 51 40 52 83 53
REMARK SMILES IDX 77 54 76 55 41 57 67 58 50 59 66 60 51 61 54 62 65 63 81 64
REMARK SMILES IDX 52 65 53 66 64 68 82 69 55 70 42 71 43 72 48 73 44 74 45 75
REMARK SMILES IDX 47 76 49 77 46 78 68 79 69 80 74 81 70 82 71 83 73 84 75 85
REMARK SMILES IDX 72 86 56 87 57 88 62 89 58 90 59 91 61 92 63 93 60 94
REMARK H PARENT 9 25 80 56 54 67
REMARK Flexibility Score: inf
ROOT
ATOM      1  C   UNL A   1      42.499  21.068  26.557  1.00  0.00     0.261 C 
ENDROOT
BRANCH   1   2
ATOM      2  O   UNL A   1      41.278  21.672  26.100  1.00  0.00    -0.461 OA
BRANCH   2   3
ATOM      3  C   UNL A   1      40.306  21.805  27.047  1.00  0.00     0.347 C 
ATOM      4  O   UNL A   1      40.425  21.486  28.224  1.00  0.00    -0.248 OA
BRANCH   3   5
ATOM      5  C   UNL A   1      39.029  22.411  26.478  1.00  0.00     0.279 C 
ATOM      6  C   UNL A   1      38.951  23.936  26.551  1.00  0.00     0.066 C 
BRANCH   5   7
ATOM      7  O   UNL A   1      38.662  21.763  25.268  1.00  0.00    -0.479 OA
BRANCH   7   8
ATOM      8  C   UNL A   1      37.439  21.802  24.690  1.00  0.00     0.120 A 
ATOM      9  C   UNL A   1      34.710  21.927  24.024  1.00  0.00    -0.024 A 
ATOM     10  C   UNL A   1      35.663  22.630  23.279  1.00  0.00     0.012 A 
ATOM     11  C   UNL A   1      35.157  21.022  24.986  1.00  0.00     0.012 A 
ATOM     12  C   UNL A   1      37.025  22.549  23.597  1.00  0.00     0.047 A 
ATOM     13  C   UNL A   1      36.507  20.989  25.337  1.00  0.00     0.047 A 
BRANCH   9  14
ATOM     14  C   UNL A   1      33.287  22.214  23.803  1.00  0.00     0.029 C 
ATOM     15  N   UNL A   1      32.088  25.140  25.605  1.00  0.00    -0.198 N 
ATOM     16  C   UNL A   1      33.150  24.387  25.133  1.00  0.00     0.285 C 
ATOM     17  C   UNL A   1      30.878  25.017  24.958  1.00  0.00     0.168 C 
ATOM     18  O   UNL A   1      34.325  24.633  25.363  1.00  0.00    -0.266 OA
ATOM     19  C   UNL A   1      32.630  23.297  24.253  1.00  0.00     0.082 C 
ATOM     20  S   UNL A   1      30.967  23.622  23.876  1.00  0.00    -0.052 SA
ATOM     21  S   UNL A   1      29.530  25.984  25.102  1.00  0.00    -0.050 S 
BRANCH  15  22
ATOM     22  N   UNL A   1      32.399  26.164  26.491  1.00  0.00    -0.254 N 
ATOM     23  C   UNL A   1      32.544  27.504  26.211  1.00  0.00     0.273 C 
ATOM     24  O   UNL A   1      32.596  28.265  27.180  1.00  0.00    -0.267 OA
ATOM     25  H   UNL A   1      32.530  25.900  27.430  1.00  0.00     0.192 HD
BRANCH  23  26
ATOM     26  C   UNL A   1      32.752  28.028  24.865  1.00  0.00     0.082 A 
ATOM     27  C   UNL A   1      30.606  29.344  23.985  1.00  0.00     0.088 C 
ATOM     28  C   UNL A   1      31.956  28.749  23.985  1.00  0.00     0.113 A 
ATOM     29  O   UNL A   1      32.641  29.009  22.832  1.00  0.00    -0.469 OA
ATOM     30  C   UNL A   1      33.894  28.527  22.975  1.00  0.00     0.196 A 
ATOM     31  C   UNL A   1      34.027  27.940  24.204  1.00  0.00     0.056 A 
ENDBRANCH  23  26
ENDBRANCH  15  22
ENDBRANCH   9  14
ENDBRANCH   7   8
ENDBRANCH   5   7
ENDBRANCH   3   5
ENDBRANCH   2   3
ENDBRANCH   1   2
BRANCH   1  32
ATOM     32  C   UNL A   1      42.919  19.883  25.684  1.00  0.00     0.202 C 
BRANCH  32  33
ATOM     33  O   UNL A   1      43.914  20.136  24.696  1.00  0.00    -0.374 OA
BRANCH  33  34
ATOM     34  C   UNL A   1      44.751  21.275  24.881  1.00  0.00     0.202 C 
BRANCH  34  35
ATOM     35  C   UNL A   1      44.553  22.438  23.900  1.00  0.00     0.261 C 
BRANCH  35  36
ATOM     36  O   UNL A   1      43.748  23.494  24.456  1.00  0.00    -0.460 OA
BRANCH  36  37
ATOM     37  C   UNL A   1      44.454  24.514  24.997  1.00  0.00     0.338 C 
ATOM     38  O   UNL A   1      45.592  24.865  24.705  1.00  0.00    -0.246 OA
BRANCH  37  39
ATOM     39  C   UNL A   1      43.609  25.302  25.909  1.00  0.00     0.060 A 
ATOM     40  C   UNL A   1      43.822  26.687  25.949  1.00  0.00     0.016 A 
ATOM     41  C   UNL A   1      42.697  24.699  26.779  1.00  0.00     0.016 A 
ATOM     42  C   UNL A   1      43.164  27.468  26.896  1.00  0.00     0.010 A 
ATOM     43  C   UNL A   1      42.043  25.485  27.736  1.00  0.00     0.010 A 
ATOM     44  C   UNL A   1      42.302  26.865  27.824  1.00  0.00    -0.014 A 
BRANCH  44  45
ATOM     45  C   UNL A   1      41.804  27.661  28.972  1.00  0.00     0.031 A 
ATOM     46  C   UNL A   1      42.530  27.579  30.288  1.00  0.00     0.074 A 
ATOM     47  C   UNL A   1      40.747  28.482  28.835  1.00  0.00     0.049 A 
ATOM     48  N   UNL A   1      42.258  28.168  31.425  1.00  0.00    -0.248 NA
ATOM     49  C   UNL A   1      43.725  26.722  30.326  1.00  0.00     0.031 C 
ATOM     50  C   UNL A   1      39.990  28.687  27.602  1.00  0.00     0.029 A 
ATOM     51  N   UNL A   1      40.132  29.299  29.750  1.00  0.00    -0.354 N 
ATOM     52  C   UNL A   1      43.245  27.754  32.310  1.00  0.00     0.074 A 
ATOM     53  C   UNL A   1      44.105  26.840  31.590  1.00  0.00     0.031 C 
ATOM     54  C   UNL A   1      39.003  29.570  27.840  1.00  0.00     0.029 A 
ATOM     55  C   UNL A   1      39.043  29.968  29.246  1.00  0.00     0.049 A 
ATOM     56  H   UNL A   1      40.441  29.397  30.679  1.00  0.00     0.167 HD
ATOM     57  C   UNL A   1      43.428  28.115  33.603  1.00  0.00     0.037 A 
ATOM     58  C   UNL A   1      38.168  30.791  29.857  1.00  0.00     0.037 A 
ATOM     59  C   UNL A   1      42.578  29.026  34.321  1.00  0.00     0.049 A 
ATOM     60  C   UNL A   1      38.349  31.112  31.317  1.00  0.00     0.074 A 
ATOM     61  C   UNL A   1      42.682  29.452  35.634  1.00  0.00     0.029 A 
ATOM     62  N   UNL A   1      41.463  29.653  33.785  1.00  0.00    -0.354 N 
ATOM     63  N   UNL A   1      39.292  30.723  32.141  1.00  0.00    -0.248 NA
ATOM     64  C   UNL A   1      37.342  31.989  31.932  1.00  0.00     0.031 C 
ATOM     65  C   UNL A   1      41.608  30.306  35.905  1.00  0.00     0.029 A 
ATOM     66  C   UNL A   1      40.861  30.447  34.747  1.00  0.00     0.049 A 
ATOM     67  H   UNL A   1      41.148  29.549  32.858  1.00  0.00     0.167 HD
ATOM     68  C   UNL A   1      39.010  31.331  33.358  1.00  0.00     0.074 A 
ATOM     69  C   UNL A   1      37.815  32.124  33.164  1.00  0.00     0.031 C 
ATOM     70  C   UNL A   1      39.680  31.242  34.533  1.00  0.00     0.037 A 
BRANCH  57  71
ATOM     71  C   UNL A   1      44.590  27.510  34.334  1.00  0.00     0.057 A 
ATOM     72  C   UNL A   1      45.833  28.152  34.398  1.00  0.00     0.134 A 
ATOM     73  C   UNL A   1      44.450  26.299  35.022  1.00  0.00     0.134 A 
ATOM     74  F   UNL A   1      46.036  29.309  33.749  1.00  0.00    -0.206 F 
ATOM     75  C   UNL A   1      46.900  27.604  35.113  1.00  0.00     0.040 A 
ATOM     76  C   UNL A   1      45.502  25.752  35.758  1.00  0.00     0.040 A 
ATOM     77  F   UNL A   1      43.283  25.635  35.002  1.00  0.00    -0.206 F 
ATOM     78  C   UNL A   1      46.733  26.405  35.803  1.00  0.00     0.006 A 
ENDBRANCH  57  71
BRANCH  58  79
ATOM     79  C   UNL A   1      37.023  31.361  29.101  1.00  0.00     0.057 A 
ATOM     80  C   UNL A   1      37.035  32.688  28.657  1.00  0.00     0.134 A 
ATOM     81  C   UNL A   1      35.872  30.607  28.850  1.00  0.00     0.134 A 
ATOM     82  F   UNL A   1      38.099  33.469  28.891  1.00  0.00    -0.206 F 
ATOM     83  C   UNL A   1      35.932  33.252  28.012  1.00  0.00     0.040 A 
ATOM     84  C   UNL A   1      34.772  31.150  28.183  1.00  0.00     0.040 A 
ATOM     85  F   UNL A   1      35.797  29.328  29.250  1.00  0.00    -0.206 F 
ATOM     86  C   UNL A   1      34.798  32.480  27.771  1.00  0.00     0.006 A 
ENDBRANCH  58  79
BRANCH  70  87
ATOM     87  C   UNL A   1      39.162  32.049  35.686  1.00  0.00     0.057 A 
ATOM     88  C   UNL A   1      38.254  31.520  36.612  1.00  0.00     0.134 A 
ATOM     89  C   UNL A   1      39.607  33.361  35.894  1.00  0.00     0.134 A 
ATOM     90  F   UNL A   1      37.780  30.274  36.462  1.00  0.00    -0.206 F 
ATOM     91  C   UNL A   1      37.791  32.274  37.692  1.00  0.00     0.040 A 
ATOM     92  C   UNL A   1      39.171  34.116  36.984  1.00  0.00     0.040 A 
ATOM     93  F   UNL A   1      40.484  33.925  35.050  1.00  0.00    -0.206 F 
ATOM     94  C   UNL A   1      38.255  33.574  37.883  1.00  0.00     0.006 A 
ENDBRANCH  70  87
ENDBRANCH  44  45
ENDBRANCH  37  39
ENDBRANCH  36  37
ENDBRANCH  35  36
ENDBRANCH  34  35
ENDBRANCH  33  34
ENDBRANCH  32  33
ENDBRANCH   1  32
TORSDOF 19
ENDMDL
MODEL 3
REMARK VINA RESULT:     -11.9      4.140     10.375
REMARK SMILES Cc1occc1C(=O)NN1C(=O)/C(=C\c2ccc(O[C@H](C)C(=O)OCCOCCOC(=O)c3ccc(-c4c5nc(c(-c6c(F)cccc6F)c6ccc([nH]6)c(-c6c(F)cccc6F)c6nc(c(-c7c(F)cccc7F)c7ccc4[nH]7)C=C6)C=C5)cc3)cc2)SC1=S
REMARK SMILES IDX 25 1 24 2 22 3 23 4 20 5 21 6 19 7 18 8 15 9 16 10 88 11
REMARK SMILES IDX 17 12 87 13 14 14 10 15 11 16 90 17 12 18 13 19 89 20 91 21
REMARK SMILES IDX 9 22 7 23 8 24 6 26 1 27 2 28 3 29 4 30 5 31 26 32 27 33
REMARK SMILES IDX 28 34 29 35 30 36 31 37 32 38 33 39 34 40 86 41 35 42 85 43
REMARK SMILES IDX 36 44 37 45 38 46 79 47 39 48 84 49 78 50 80 51 40 52 83 53
REMARK SMILES IDX 77 54 76 55 41 57 67 58 50 59 66 60 51 61 54 62 65 63 81 64
REMARK SMILES IDX 52 65 53 66 64 68 82 69 55 70 42 71 43 72 48 73 44 74 45 75
REMARK SMILES IDX 47 76 49 77 46 78 68 79 69 80 74 81 70 82 71 83 73 84 75 85
REMARK SMILES IDX 72 86 56 87 57 88 62 89 58 90 59 91 61 92 63 93 60 94
REMARK H PARENT 9 25 80 56 54 67
REMARK Flexibility Score: inf
ROOT
ATOM      1  C   UNL A   1      33.477  34.078  28.590  1.00  0.00     0.261 C 
ENDROOT
BRANCH   1   2
ATOM      2  O   UNL A   1      34.059  32.796  28.880  1.00  0.00    -0.461 OA
BRANCH   2   3
ATOM      3  C   UNL A   1      34.913  32.319  27.931  1.00  0.00     0.347 C 
ATOM      4  O   UNL A   1      35.937  32.882  27.561  1.00  0.00    -0.248 OA
BRANCH   3   5
ATOM      5  C   UNL A   1      34.456  30.978  27.369  1.00  0.00     0.279 C 
ATOM      6  C   UNL A   1      35.449  29.830  27.550  1.00  0.00     0.066 C 
BRANCH   5   7
ATOM      7  O   UNL A   1      33.084  30.752  27.666  1.00  0.00    -0.479 OA
BRANCH   7   8
ATOM      8  C   UNL A   1      32.295  29.816  27.089  1.00  0.00     0.120 A 
ATOM      9  C   UNL A   1      31.045  27.879  25.479  1.00  0.00    -0.024 A 
ATOM     10  C   UNL A   1      31.121  27.717  26.867  1.00  0.00     0.012 A 
ATOM     11  C   UNL A   1      31.437  29.100  24.932  1.00  0.00     0.012 A 
ATOM     12  C   UNL A   1      31.724  28.693  27.670  1.00  0.00     0.047 A 
ATOM     13  C   UNL A   1      32.088  30.043  25.728  1.00  0.00     0.047 A 
BRANCH   9  14
ATOM     14  C   UNL A   1      30.614  26.742  24.656  1.00  0.00     0.029 C 
ATOM     15  N   UNL A   1      33.332  24.528  23.680  1.00  0.00    -0.198 N 
ATOM     16  C   UNL A   1      32.862  25.547  24.491  1.00  0.00     0.285 C 
ATOM     17  C   UNL A   1      32.407  23.668  23.131  1.00  0.00     0.168 C 
ATOM     18  O   UNL A   1      33.546  26.153  25.302  1.00  0.00    -0.266 OA
ATOM     19  C   UNL A   1      31.395  25.720  24.266  1.00  0.00     0.082 C 
ATOM     20  S   UNL A   1      30.797  24.357  23.372  1.00  0.00    -0.052 SA
ATOM     21  S   UNL A   1      32.678  22.210  22.373  1.00  0.00    -0.050 S 
BRANCH  15  22
ATOM     22  N   UNL A   1      34.699  24.279  23.726  1.00  0.00    -0.254 N 
ATOM     23  C   UNL A   1      35.351  23.291  24.428  1.00  0.00     0.273 C 
ATOM     24  O   UNL A   1      36.538  23.111  24.148  1.00  0.00    -0.267 OA
ATOM     25  H   UNL A   1      35.267  24.879  23.192  1.00  0.00     0.192 HD
BRANCH  23  26
ATOM     26  C   UNL A   1      34.748  22.557  25.536  1.00  0.00     0.082 A 
ATOM     27  C   UNL A   1      34.385  19.986  24.923  1.00  0.00     0.088 C 
ATOM     28  C   UNL A   1      34.354  21.236  25.706  1.00  0.00     0.113 A 
ATOM     29  O   UNL A   1      33.847  21.052  26.962  1.00  0.00    -0.469 OA
ATOM     30  C   UNL A   1      33.968  22.217  27.633  1.00  0.00     0.196 A 
ATOM     31  C   UNL A   1      34.532  23.163  26.822  1.00  0.00     0.056 A 
ENDBRANCH  23  26
ENDBRANCH  15  22
ENDBRANCH   9  14
ENDBRANCH   7   8
ENDBRANCH   5   7
ENDBRANCH   3   5
ENDBRANCH   2   3
ENDBRANCH   1   2
BRANCH   1  32
ATOM     32  C   UNL A   1      33.716  35.087  29.716  1.00  0.00     0.202 C 
BRANCH  32  33
ATOM     33  O   UNL A   1      32.971  34.897  30.916  1.00  0.00    -0.374 OA
BRANCH  33  34
ATOM     34  C   UNL A   1      33.702  34.815  32.138  1.00  0.00     0.202 C 
BRANCH  34  35
ATOM     35  C   UNL A   1      35.129  34.260  32.047  1.00  0.00     0.261 C 
BRANCH  35  36
ATOM     36  O   UNL A   1      35.164  32.823  32.128  1.00  0.00    -0.460 OA
BRANCH  36  37
ATOM     37  C   UNL A   1      36.155  32.328  32.907  1.00  0.00     0.338 C 
ATOM     38  O   UNL A   1      36.238  32.388  34.128  1.00  0.00    -0.246 OA
BRANCH  37  39
ATOM     39  C   UNL A   1      37.092  31.526  32.103  1.00  0.00     0.060 A 
ATOM     40  C   UNL A   1      38.127  30.871  32.784  1.00  0.00     0.016 A 
ATOM     41  C   UNL A   1      37.027  31.489  30.708  1.00  0.00     0.016 A 
ATOM     42  C   UNL A   1      39.132  30.223  32.071  1.00  0.00     0.010 A 
ATOM     43  C   UNL A   1      38.044  30.844  29.993  1.00  0.00     0.010 A 
ATOM     44  C   UNL A   1      39.120  30.242  30.670  1.00  0.00    -0.014 A 
BRANCH  44  45
ATOM     45  C   UNL A   1      40.314  29.766  29.928  1.00  0.00     0.031 A 
ATOM     46  C   UNL A   1      41.464  30.712  29.711  1.00  0.00     0.074 A 
ATOM     47  C   UNL A   1      40.395  28.495  29.495  1.00  0.00     0.049 A 
ATOM     48  N   UNL A   1      42.591  30.517  29.075  1.00  0.00    -0.248 NA
ATOM     49  C   UNL A   1      41.326  32.057  30.293  1.00  0.00     0.031 C 
ATOM     50  C   UNL A   1      39.371  27.470  29.684  1.00  0.00     0.029 A 
ATOM     51  N   UNL A   1      41.392  27.854  28.803  1.00  0.00    -0.354 N 
ATOM     52  C   UNL A   1      43.295  31.710  29.180  1.00  0.00     0.074 A 
ATOM     53  C   UNL A   1      42.457  32.635  29.913  1.00  0.00     0.031 C 
ATOM     54  C   UNL A   1      39.791  26.326  29.114  1.00  0.00     0.029 A 
ATOM     55  C   UNL A   1      41.097  26.547  28.497  1.00  0.00     0.049 A 
ATOM     56  H   UNL A   1      42.238  28.288  28.550  1.00  0.00     0.167 HD
ATOM     57  C   UNL A   1      44.535  32.005  28.720  1.00  0.00     0.037 A 
ATOM     58  C   UNL A   1      41.794  25.643  27.783  1.00  0.00     0.037 A 
ATOM     59  C   UNL A   1      45.372  31.087  27.995  1.00  0.00     0.049 A 
ATOM     60  C   UNL A   1      43.137  26.024  27.214  1.00  0.00     0.074 A 
ATOM     61  C   UNL A   1      46.643  31.295  27.488  1.00  0.00     0.029 A 
ATOM     62  N   UNL A   1      45.021  29.785  27.672  1.00  0.00    -0.354 N 
ATOM     63  N   UNL A   1      43.796  27.151  27.328  1.00  0.00    -0.248 NA
ATOM     64  C   UNL A   1      43.831  25.002  26.416  1.00  0.00     0.031 C 
ATOM     65  C   UNL A   1      47.046  30.132  26.824  1.00  0.00     0.029 A 
ATOM     66  C   UNL A   1      46.043  29.185  26.957  1.00  0.00     0.049 A 
ATOM     67  H   UNL A   1      44.172  29.352  27.917  1.00  0.00     0.167 HD
ATOM     68  C   UNL A   1      44.992  26.964  26.647  1.00  0.00     0.074 A 
ATOM     69  C   UNL A   1      44.974  25.611  26.130  1.00  0.00     0.031 C 
ATOM     70  C   UNL A   1      46.016  27.833  26.463  1.00  0.00     0.037 A 
BRANCH  57  71
ATOM     71  C   UNL A   1      45.059  33.386  28.977  1.00  0.00     0.057 A 
ATOM     72  C   UNL A   1      45.831  33.682  30.108  1.00  0.00     0.134 A 
ATOM     73  C   UNL A   1      44.833  34.419  28.059  1.00  0.00     0.134 A 
ATOM     74  F   UNL A   1      46.072  32.740  31.032  1.00  0.00    -0.206 F 
ATOM     75  C   UNL A   1      46.350  34.961  30.321  1.00  0.00     0.040 A 
ATOM     76  C   UNL A   1      45.365  35.695  28.250  1.00  0.00     0.040 A 
ATOM     77  F   UNL A   1      44.104  34.200  26.954  1.00  0.00    -0.206 F 
ATOM     78  C   UNL A   1      46.124  35.969  29.387  1.00  0.00     0.006 A 
ENDBRANCH  57  71
BRANCH  58  79
ATOM     79  C   UNL A   1      41.236  24.288  27.541  1.00  0.00     0.057 A 
ATOM     80  C   UNL A   1      40.188  24.084  26.635  1.00  0.00     0.134 A 
ATOM     81  C   UNL A   1      41.704  23.174  28.247  1.00  0.00     0.134 A 
ATOM     82  F   UNL A   1      39.680  25.118  25.949  1.00  0.00    -0.206 F 
ATOM     83  C   UNL A   1      39.609  22.827  26.459  1.00  0.00     0.040 A 
ATOM     84  C   UNL A   1      41.152  21.905  28.061  1.00  0.00     0.040 A 
ATOM     85  F   UNL A   1      42.706  23.301  29.129  1.00  0.00    -0.206 F 
ATOM     86  C   UNL A   1      40.094  21.732  27.171  1.00  0.00     0.006 A 
ENDBRANCH  58  79
BRANCH  70  87
ATOM     87  C   UNL A   1      47.214  27.339  25.708  1.00  0.00     0.057 A 
ATOM     88  C   UNL A   1      47.365  27.557  24.333  1.00  0.00     0.134 A 
ATOM     89  C   UNL A   1      48.249  26.669  26.375  1.00  0.00     0.134 A 
ATOM     90  F   UNL A   1      46.403  28.180  23.635  1.00  0.00    -0.206 F 
ATOM     91  C   UNL A   1      48.492  27.108  23.644  1.00  0.00     0.040 A 
ATOM     92  C   UNL A   1      49.393  26.239  25.701  1.00  0.00     0.040 A 
ATOM     93  F   UNL A   1      48.172  26.437  27.694  1.00  0.00    -0.206 F 
ATOM     94  C   UNL A   1      49.514  26.452  24.329  1.00  0.00     0.006 A 
ENDBRANCH  70  87
ENDBRANCH  44  45
ENDBRANCH  37  39
ENDBRANCH  36  37
ENDBRANCH  35  36
ENDBRANCH  34  35
ENDBRANCH  33  34
ENDBRANCH  32  33
ENDBRANCH   1  32
TORSDOF 19
ENDMDL
