MODEL 1
REMARK VINA RESULT:     -10.8      0.000      0.000
REMARK SMILES CC[C@@H]1CCCN(S(=O)(=O)c2cc(C(=O)OCCOCCOC(=O)c3ccc(-c4c5nc(c(-c6c(F)cccc6F)c6ccc([nH]6)c(-c6c(F)cccc6F)c6nc(c(-c7c(F)cccc7F)c7ccc4[nH]7)C=C6)C=C5)cc3)ccc2F)C1
REMARK SMILES IDX 18 1 17 2 16 3 14 4 15 5 13 6 11 7 12 8 81 9 80 10 82 11
REMARK SMILES IDX 79 12 8 13 9 14 10 15 7 16 3 17 4 18 83 19 5 20 6 21 2 22
REMARK SMILES IDX 1 23 19 24 20 25 21 26 22 27 23 28 24 29 25 30 26 31 78 32
REMARK SMILES IDX 27 33 77 34 28 35 29 36 30 37 71 38 31 39 76 40 70 41 72 42
REMARK SMILES IDX 32 43 75 44 69 45 68 46 33 48 59 49 42 50 58 51 43 52 46 53
REMARK SMILES IDX 57 54 73 55 44 56 45 57 56 59 74 60 47 61 34 62 35 63 40 64
REMARK SMILES IDX 36 65 37 66 39 67 41 68 38 69 60 70 61 71 66 72 62 73 63 74
REMARK SMILES IDX 65 75 67 76 64 77 48 78 49 79 54 80 50 81 51 82 53 83 55 84
REMARK SMILES IDX 52 85
REMARK H PARENT 72 47 46 58
REMARK Flexibility Score: inf
ROOT
ATOM      1  C   UNL A   1      33.707  31.982  28.003  1.00  0.00     0.202 C 
ENDROOT
BRANCH   1   2
ATOM      2  C   UNL A   1      34.290  30.600  27.690  1.00  0.00     0.261 C 
BRANCH   2   3
ATOM      3  O   UNL A   1      33.743  30.065  26.473  1.00  0.00    -0.460 OA
BRANCH   3   4
ATOM      4  C   UNL A   1      33.086  28.885  26.598  1.00  0.00     0.338 C 
ATOM      5  O   UNL A   1      32.901  28.250  27.621  1.00  0.00    -0.246 OA
BRANCH   4   6
ATOM      6  C   UNL A   1      32.449  28.539  25.303  1.00  0.00     0.061 A 
ATOM      7  C   UNL A   1      32.257  26.974  23.464  1.00  0.00     0.119 A 
ATOM      8  C   UNL A   1      32.884  27.377  24.649  1.00  0.00     0.040 A 
ATOM      9  C   UNL A   1      31.206  27.719  22.945  1.00  0.00     0.143 A 
ATOM     10  C   UNL A   1      30.787  28.887  23.579  1.00  0.00     0.041 A 
ATOM     11  F   UNL A   1      30.595  27.370  21.805  1.00  0.00    -0.206 F 
ATOM     12  C   UNL A   1      31.401  29.297  24.766  1.00  0.00     0.019 A 
BRANCH   7  13
ATOM     13  S   UNL A   1      32.731  25.456  22.697  1.00  0.00     0.246 S 
ATOM     14  O   UNL A   1      33.656  25.731  21.621  1.00  0.00    -0.207 OA
ATOM     15  O   UNL A   1      31.508  24.725  22.431  1.00  0.00    -0.207 OA
BRANCH  13  16
ATOM     16  N   UNL A   1      33.575  24.620  23.931  1.00  0.00    -0.197 NA
ATOM     17  C   UNL A   1      33.585  22.667  25.478  1.00  0.00     0.004 C 
ATOM     18  C   UNL A   1      35.121  22.662  25.423  1.00  0.00     0.006 C 
ATOM     19  C   UNL A   1      33.009  23.258  24.184  1.00  0.00     0.106 C 
ATOM     20  C   UNL A   1      35.695  24.020  25.048  1.00  0.00     0.017 C 
ATOM     21  C   UNL A   1      35.054  24.569  23.778  1.00  0.00     0.102 C 
BRANCH  17  22
ATOM     22  C   UNL A   1      33.023  23.280  26.784  1.00  0.00     0.001 C 
ATOM     23  C   UNL A   1      32.902  22.376  28.005  1.00  0.00     0.004 C 
ENDBRANCH  17  22
ENDBRANCH  13  16
ENDBRANCH   7  13
ENDBRANCH   4   6
ENDBRANCH   3   4
ENDBRANCH   2   3
ENDBRANCH   1   2
BRANCH   1  24
ATOM     24  O   UNL A   1      34.635  33.017  28.319  1.00  0.00    -0.374 OA
BRANCH  24  25
ATOM     25  C   UNL A   1      34.206  34.035  29.224  1.00  0.00     0.202 C 
BRANCH  25  26
ATOM     26  C   UNL A   1      34.370  33.754  30.724  1.00  0.00     0.261 C 
BRANCH  26  27
ATOM     27  O   UNL A   1      34.729  32.389  30.998  1.00  0.00    -0.460 OA
BRANCH  27  28
ATOM     28  C   UNL A   1      35.713  32.231  31.918  1.00  0.00     0.338 C 
ATOM     29  O   UNL A   1      35.671  32.498  33.107  1.00  0.00    -0.246 OA
BRANCH  28  30
ATOM     30  C   UNL A   1      36.842  31.504  31.309  1.00  0.00     0.060 A 
ATOM     31  C   UNL A   1      37.772  30.898  32.164  1.00  0.00     0.016 A 
ATOM     32  C   UNL A   1      37.016  31.464  29.925  1.00  0.00     0.016 A 
ATOM     33  C   UNL A   1      38.896  30.265  31.637  1.00  0.00     0.010 A 
ATOM     34  C   UNL A   1      38.148  30.836  29.399  1.00  0.00     0.010 A 
ATOM     35  C   UNL A   1      39.103  30.250  30.252  1.00  0.00    -0.014 A 
BRANCH  35  36
ATOM     36  C   UNL A   1      40.356  29.700  29.684  1.00  0.00     0.031 A 
ATOM     37  C   UNL A   1      41.541  30.603  29.500  1.00  0.00     0.074 A 
ATOM     38  C   UNL A   1      40.428  28.406  29.318  1.00  0.00     0.049 A 
ATOM     39  N   UNL A   1      42.684  30.359  28.914  1.00  0.00    -0.248 NA
ATOM     40  C   UNL A   1      41.422  31.964  30.047  1.00  0.00     0.031 C 
ATOM     41  C   UNL A   1      39.363  27.421  29.496  1.00  0.00     0.029 A 
ATOM     42  N   UNL A   1      41.438  27.707  28.708  1.00  0.00    -0.354 N 
ATOM     43  C   UNL A   1      43.416  31.534  29.011  1.00  0.00     0.074 A 
ATOM     44  C   UNL A   1      42.580  32.501  29.691  1.00  0.00     0.031 C 
ATOM     45  C   UNL A   1      39.771  26.245  28.991  1.00  0.00     0.029 A 
ATOM     46  C   UNL A   1      41.104  26.407  28.414  1.00  0.00     0.049 A 
ATOM     47  H   UNL A   1      42.317  28.098  28.500  1.00  0.00     0.167 HD
ATOM     48  C   UNL A   1      44.675  31.779  28.580  1.00  0.00     0.037 A 
ATOM     49  C   UNL A   1      41.781  25.465  27.728  1.00  0.00     0.037 A 
ATOM     50  C   UNL A   1      45.503  30.810  27.911  1.00  0.00     0.049 A 
ATOM     51  C   UNL A   1      43.140  25.791  27.168  1.00  0.00     0.074 A 
ATOM     52  C   UNL A   1      46.803  30.957  27.459  1.00  0.00     0.029 A 
ATOM     53  N   UNL A   1      45.110  29.519  27.592  1.00  0.00    -0.354 N 
ATOM     54  N   UNL A   1      43.831  26.901  27.276  1.00  0.00    -0.248 NA
ATOM     55  C   UNL A   1      43.811  24.744  26.382  1.00  0.00     0.031 C 
ATOM     56  C   UNL A   1      47.176  29.777  26.813  1.00  0.00     0.029 A 
ATOM     57  C   UNL A   1      46.131  28.873  26.915  1.00  0.00     0.049 A 
ATOM     58  H   UNL A   1      44.238  29.122  27.813  1.00  0.00     0.167 HD
ATOM     59  C   UNL A   1      45.022  26.678  26.596  1.00  0.00     0.074 A 
ATOM     60  C   UNL A   1      44.965  25.326  26.083  1.00  0.00     0.031 C 
ATOM     61  C   UNL A   1      46.067  27.522  26.414  1.00  0.00     0.037 A 
BRANCH  48  62
ATOM     62  C   UNL A   1      45.243  33.151  28.797  1.00  0.00     0.057 A 
ATOM     63  C   UNL A   1      45.080  34.151  27.829  1.00  0.00     0.134 A 
ATOM     64  C   UNL A   1      46.021  33.459  29.919  1.00  0.00     0.134 A 
ATOM     65  F   UNL A   1      44.352  33.918  26.725  1.00  0.00    -0.206 F 
ATOM     66  C   UNL A   1      45.687  35.400  27.959  1.00  0.00     0.040 A 
ATOM     67  C   UNL A   1      46.611  34.714  30.075  1.00  0.00     0.040 A 
ATOM     68  F   UNL A   1      46.206  32.550  30.888  1.00  0.00    -0.206 F 
ATOM     69  C   UNL A   1      46.455  35.685  29.087  1.00  0.00     0.006 A 
ENDBRANCH  48  62
BRANCH  49  70
ATOM     70  C   UNL A   1      41.170  24.128  27.520  1.00  0.00     0.057 A 
ATOM     71  C   UNL A   1      41.613  23.003  28.228  1.00  0.00     0.134 A 
ATOM     72  C   UNL A   1      40.143  23.939  26.589  1.00  0.00     0.134 A 
ATOM     73  F   UNL A   1      42.595  23.116  29.134  1.00  0.00    -0.206 F 
ATOM     74  C   UNL A   1      41.076  21.736  28.000  1.00  0.00     0.040 A 
ATOM     75  C   UNL A   1      39.579  22.682  26.368  1.00  0.00     0.040 A 
ATOM     76  F   UNL A   1      39.660  24.982  25.898  1.00  0.00    -0.206 F 
ATOM     77  C   UNL A   1      40.053  21.573  27.067  1.00  0.00     0.006 A 
ENDBRANCH  49  70
BRANCH  61  78
ATOM     78  C   UNL A   1      47.254  27.023  25.645  1.00  0.00     0.057 A 
ATOM     79  C   UNL A   1      48.306  26.370  26.301  1.00  0.00     0.134 A 
ATOM     80  C   UNL A   1      47.415  27.302  24.283  1.00  0.00     0.134 A 
ATOM     81  F   UNL A   1      48.220  26.085  27.609  1.00  0.00    -0.206 F 
ATOM     82  C   UNL A   1      49.489  26.042  25.637  1.00  0.00     0.040 A 
ATOM     83  C   UNL A   1      48.583  26.956  23.601  1.00  0.00     0.040 A 
ATOM     84  F   UNL A   1      46.441  27.916  23.594  1.00  0.00    -0.206 F 
ATOM     85  C   UNL A   1      49.630  26.337  24.284  1.00  0.00     0.006 A 
ENDBRANCH  61  78
ENDBRANCH  35  36
ENDBRANCH  28  30
ENDBRANCH  27  28
ENDBRANCH  26  27
ENDBRANCH  25  26
ENDBRANCH  24  25
ENDBRANCH   1  24
TORSDOF 17
ENDMDL
MODEL 2
REMARK VINA RESULT:     -10.8      2.758      7.663
REMARK SMILES CC[C@@H]1CCCN(S(=O)(=O)c2cc(C(=O)OCCOCCOC(=O)c3ccc(-c4c5nc(c(-c6c(F)cccc6F)c6ccc([nH]6)c(-c6c(F)cccc6F)c6nc(c(-c7c(F)cccc7F)c7ccc4[nH]7)C=C6)C=C5)cc3)ccc2F)C1
REMARK SMILES IDX 18 1 17 2 16 3 14 4 15 5 13 6 11 7 12 8 81 9 80 10 82 11
REMARK SMILES IDX 79 12 8 13 9 14 10 15 7 16 3 17 4 18 83 19 5 20 6 21 2 22
REMARK SMILES IDX 1 23 19 24 20 25 21 26 22 27 23 28 24 29 25 30 26 31 78 32
REMARK SMILES IDX 27 33 77 34 28 35 29 36 30 37 71 38 31 39 76 40 70 41 72 42
REMARK SMILES IDX 32 43 75 44 69 45 68 46 33 48 59 49 42 50 58 51 43 52 46 53
REMARK SMILES IDX 57 54 73 55 44 56 45 57 56 59 74 60 47 61 34 62 35 63 40 64
REMARK SMILES IDX 36 65 37 66 39 67 41 68 38 69 60 70 61 71 66 72 62 73 63 74
REMARK SMILES IDX 65 75 67 76 64 77 48 78 49 79 54 80 50 81 51 82 53 83 55 84
REMARK SMILES IDX 52 85
REMARK H PARENT 72 47 46 58
REMARK Flexibility Score: inf
ROOT
ATOM      1  C   UNL A   1      34.839  23.197  26.486  1.00  0.00     0.202 C 
ENDROOT
BRANCH   1   2
ATOM      2  C   UNL A   1      33.570  22.459  26.924  1.00  0.00     0.261 C 
BRANCH   2   3
ATOM      3  O   UNL A   1      32.415  23.310  26.839  1.00  0.00    -0.460 OA
BRANCH   3   4
ATOM      4  C   UNL A   1      31.401  22.842  26.069  1.00  0.00     0.338 C 
ATOM      5  O   UNL A   1      30.270  22.566  26.429  1.00  0.00    -0.246 OA
BRANCH   4   6
ATOM      6  C   UNL A   1      31.813  22.874  24.644  1.00  0.00     0.061 A 
ATOM      7  C   UNL A   1      32.378  24.205  22.701  1.00  0.00     0.119 A 
ATOM      8  C   UNL A   1      31.921  24.126  24.022  1.00  0.00     0.040 A 
ATOM      9  C   UNL A   1      32.730  23.049  22.017  1.00  0.00     0.143 A 
ATOM     10  C   UNL A   1      32.604  21.802  22.624  1.00  0.00     0.041 A 
ATOM     11  F   UNL A   1      33.157  23.089  20.747  1.00  0.00    -0.206 F 
ATOM     12  C   UNL A   1      32.152  21.709  23.943  1.00  0.00     0.019 A 
BRANCH   7  13
ATOM     13  S   UNL A   1      32.615  25.786  21.951  1.00  0.00     0.246 S 
ATOM     14  O   UNL A   1      31.965  25.806  20.659  1.00  0.00    -0.207 OA
ATOM     15  O   UNL A   1      34.028  26.088  22.056  1.00  0.00    -0.207 OA
BRANCH  13  16
ATOM     16  N   UNL A   1      31.778  26.861  22.989  1.00  0.00    -0.197 NA
ATOM     17  C   UNL A   1      31.960  28.509  24.850  1.00  0.00     0.004 C 
ATOM     18  C   UNL A   1      30.731  29.242  24.288  1.00  0.00     0.006 C 
ATOM     19  C   UNL A   1      32.704  27.779  23.723  1.00  0.00     0.106 C 
ATOM     20  C   UNL A   1      29.849  28.337  23.441  1.00  0.00     0.017 C 
ATOM     21  C   UNL A   1      30.655  27.613  22.367  1.00  0.00     0.102 C 
BRANCH  17  22
ATOM     22  C   UNL A   1      31.636  27.640  26.090  1.00  0.00     0.001 C 
ATOM     23  C   UNL A   1      31.950  28.213  27.467  1.00  0.00     0.004 C 
ENDBRANCH  17  22
ENDBRANCH  13  16
ENDBRANCH   7  13
ENDBRANCH   4   6
ENDBRANCH   3   4
ENDBRANCH   2   3
ENDBRANCH   1   2
BRANCH   1  24
ATOM     24  O   UNL A   1      35.345  22.894  25.188  1.00  0.00    -0.374 OA
BRANCH  24  25
ATOM     25  C   UNL A   1      35.524  21.518  24.853  1.00  0.00     0.202 C 
BRANCH  25  26
ATOM     26  C   UNL A   1      36.958  20.970  24.880  1.00  0.00     0.261 C 
BRANCH  26  27
ATOM     27  O   UNL A   1      37.604  21.168  26.149  1.00  0.00    -0.460 OA
BRANCH  27  28
ATOM     28  C   UNL A   1      38.957  21.071  26.122  1.00  0.00     0.338 C 
ATOM     29  O   UNL A   1      39.630  20.183  25.627  1.00  0.00    -0.246 OA
BRANCH  28  30
ATOM     30  C   UNL A   1      39.549  22.317  26.642  1.00  0.00     0.060 A 
ATOM     31  C   UNL A   1      39.081  23.532  26.125  1.00  0.00     0.016 A 
ATOM     32  C   UNL A   1      40.583  22.292  27.579  1.00  0.00     0.016 A 
ATOM     33  C   UNL A   1      39.662  24.732  26.530  1.00  0.00     0.010 A 
ATOM     34  C   UNL A   1      41.170  23.496  27.977  1.00  0.00     0.010 A 
ATOM     35  C   UNL A   1      40.726  24.720  27.441  1.00  0.00    -0.014 A 
BRANCH  35  36
ATOM     36  C   UNL A   1      41.442  25.973  27.779  1.00  0.00     0.031 A 
ATOM     37  C   UNL A   1      40.724  27.048  28.544  1.00  0.00     0.074 A 
ATOM     38  C   UNL A   1      42.717  26.157  27.390  1.00  0.00     0.049 A 
ATOM     39  N   UNL A   1      41.119  28.260  28.836  1.00  0.00    -0.248 NA
ATOM     40  C   UNL A   1      39.381  26.714  29.045  1.00  0.00     0.031 C 
ATOM     41  C   UNL A   1      43.533  25.166  26.689  1.00  0.00     0.029 A 
ATOM     42  N   UNL A   1      43.541  27.247  27.517  1.00  0.00    -0.354 N 
ATOM     43  C   UNL A   1      40.074  28.837  29.544  1.00  0.00     0.074 A 
ATOM     44  C   UNL A   1      39.016  27.852  29.619  1.00  0.00     0.031 C 
ATOM     45  C   UNL A   1      44.739  25.701  26.434  1.00  0.00     0.029 A 
ATOM     46  C   UNL A   1      44.763  27.083  26.911  1.00  0.00     0.049 A 
ATOM     47  H   UNL A   1      43.282  28.067  27.995  1.00  0.00     0.167 HD
ATOM     48  C   UNL A   1      40.010  30.074  30.090  1.00  0.00     0.037 A 
ATOM     49  C   UNL A   1      45.771  27.957  26.729  1.00  0.00     0.037 A 
ATOM     50  C   UNL A   1      41.070  31.045  30.018  1.00  0.00     0.049 A 
ATOM     51  C   UNL A   1      45.637  29.361  27.256  1.00  0.00     0.074 A 
ATOM     52  C   UNL A   1      41.108  32.316  30.563  1.00  0.00     0.029 A 
ATOM     53  N   UNL A   1      42.273  30.856  29.355  1.00  0.00    -0.354 N 
ATOM     54  N   UNL A   1      44.652  29.895  27.937  1.00  0.00    -0.248 NA
ATOM     55  C   UNL A   1      46.746  30.289  26.985  1.00  0.00     0.031 C 
ATOM     56  C   UNL A   1      42.307  32.920  30.180  1.00  0.00     0.029 A 
ATOM     57  C   UNL A   1      43.043  32.003  29.446  1.00  0.00     0.049 A 
ATOM     58  H   UNL A   1      42.540  30.031  28.890  1.00  0.00     0.167 HD
ATOM     59  C   UNL A   1      45.029  31.207  28.193  1.00  0.00     0.074 A 
ATOM     60  C   UNL A   1      46.338  31.390  27.602  1.00  0.00     0.031 C 
ATOM     61  C   UNL A   1      44.350  32.172  28.859  1.00  0.00     0.037 A 
BRANCH  48  62
ATOM     62  C   UNL A   1      38.750  30.467  30.803  1.00  0.00     0.057 A 
ATOM     63  C   UNL A   1      37.732  31.152  30.126  1.00  0.00     0.134 A 
ATOM     64  C   UNL A   1      38.578  30.246  32.175  1.00  0.00     0.134 A 
ATOM     65  F   UNL A   1      37.838  31.403  28.812  1.00  0.00    -0.206 F 
ATOM     66  C   UNL A   1      36.599  31.620  30.792  1.00  0.00     0.040 A 
ATOM     67  C   UNL A   1      37.437  30.686  32.847  1.00  0.00     0.040 A 
ATOM     68  F   UNL A   1      39.511  29.586  32.879  1.00  0.00    -0.206 F 
ATOM     69  C   UNL A   1      36.449  31.386  32.157  1.00  0.00     0.006 A 
ENDBRANCH  48  62
BRANCH  49  70
ATOM     70  C   UNL A   1      46.991  27.529  25.998  1.00  0.00     0.057 A 
ATOM     71  C   UNL A   1      47.064  27.582  24.600  1.00  0.00     0.134 A 
ATOM     72  C   UNL A   1      48.107  27.034  26.682  1.00  0.00     0.134 A 
ATOM     73  F   UNL A   1      46.028  28.045  23.885  1.00  0.00    -0.206 F 
ATOM     74  C   UNL A   1      48.189  27.134  23.908  1.00  0.00     0.040 A 
ATOM     75  C   UNL A   1      49.249  26.606  26.005  1.00  0.00     0.040 A 
ATOM     76  F   UNL A   1      48.107  26.982  28.022  1.00  0.00    -0.206 F 
ATOM     77  C   UNL A   1      49.289  26.645  24.612  1.00  0.00     0.006 A 
ENDBRANCH  49  70
BRANCH  61  78
ATOM     78  C   UNL A   1      44.996  33.517  29.012  1.00  0.00     0.057 A 
ATOM     79  C   UNL A   1      45.776  33.810  30.140  1.00  0.00     0.134 A 
ATOM     80  C   UNL A   1      44.744  34.558  28.111  1.00  0.00     0.134 A 
ATOM     81  F   UNL A   1      46.044  32.860  31.047  1.00  0.00    -0.206 F 
ATOM     82  C   UNL A   1      46.253  35.099  30.382  1.00  0.00     0.040 A 
ATOM     83  C   UNL A   1      45.237  35.846  28.330  1.00  0.00     0.040 A 
ATOM     84  F   UNL A   1      44.013  34.341  27.008  1.00  0.00    -0.206 F 
ATOM     85  C   UNL A   1      45.981  36.121  29.477  1.00  0.00     0.006 A 
ENDBRANCH  61  78
ENDBRANCH  35  36
ENDBRANCH  28  30
ENDBRANCH  27  28
ENDBRANCH  26  27
ENDBRANCH  25  26
ENDBRANCH  24  25
ENDBRANCH   1  24
TORSDOF 17
ENDMDL
MODEL 3
REMARK VINA RESULT:     -10.6      4.859      8.684
REMARK SMILES CC[C@@H]1CCCN(S(=O)(=O)c2cc(C(=O)OCCOCCOC(=O)c3ccc(-c4c5nc(c(-c6c(F)cccc6F)c6ccc([nH]6)c(-c6c(F)cccc6F)c6nc(c(-c7c(F)cccc7F)c7ccc4[nH]7)C=C6)C=C5)cc3)ccc2F)C1
REMARK SMILES IDX 18 1 17 2 16 3 14 4 15 5 13 6 11 7 12 8 81 9 80 10 82 11
REMARK SMILES IDX 79 12 8 13 9 14 10 15 7 16 3 17 4 18 83 19 5 20 6 21 2 22
REMARK SMILES IDX 1 23 19 24 20 25 21 26 22 27 23 28 24 29 25 30 26 31 78 32
REMARK SMILES IDX 27 33 77 34 28 35 29 36 30 37 71 38 31 39 76 40 70 41 72 42
REMARK SMILES IDX 32 43 75 44 69 45 68 46 33 48 59 49 42 50 58 51 43 52 46 53
REMARK SMILES IDX 57 54 73 55 44 56 45 57 56 59 74 60 47 61 34 62 35 63 40 64
REMARK SMILES IDX 36 65 37 66 39 67 41 68 38 69 60 70 61 71 66 72 62 73 63 74
REMARK SMILES IDX 65 75 67 76 64 77 48 78 49 79 54 80 50 81 51 82 53 83 55 84
REMARK SMILES IDX 52 85
REMARK H PARENT 72 47 46 58
REMARK Flexibility Score: inf
ROOT
ATOM      1  C   UNL A   1      41.107  19.912  27.202  1.00  0.00     0.202 C 
ENDROOT
BRANCH   1   2
ATOM      2  C   UNL A   1      40.259  19.775  25.933  1.00  0.00     0.261 C 
BRANCH   2   3
ATOM      3  O   UNL A   1      39.321  20.857  25.812  1.00  0.00    -0.460 OA
BRANCH   3   4
ATOM      4  C   UNL A   1      38.127  20.535  25.255  1.00  0.00     0.338 C 
ATOM      5  O   UNL A   1      37.761  19.434  24.882  1.00  0.00    -0.246 OA
BRANCH   4   6
ATOM      6  C   UNL A   1      37.223  21.710  25.320  1.00  0.00     0.061 A 
ATOM      7  C   UNL A   1      34.960  22.567  25.206  1.00  0.00     0.119 A 
ATOM      8  C   UNL A   1      35.857  21.499  25.081  1.00  0.00     0.040 A 
ATOM      9  C   UNL A   1      35.422  23.824  25.573  1.00  0.00     0.143 A 
ATOM     10  C   UNL A   1      36.781  24.043  25.789  1.00  0.00     0.041 A 
ATOM     11  F   UNL A   1      34.593  24.870  25.687  1.00  0.00    -0.206 F 
ATOM     12  C   UNL A   1      37.687  22.984  25.671  1.00  0.00     0.019 A 
BRANCH   7  13
ATOM     13  S   UNL A   1      33.229  22.281  25.011  1.00  0.00     0.246 S 
ATOM     14  O   UNL A   1      32.688  23.239  24.073  1.00  0.00    -0.207 OA
ATOM     15  O   UNL A   1      32.671  22.179  26.344  1.00  0.00    -0.207 OA
BRANCH  13  16
ATOM     16  N   UNL A   1      33.148  20.726  24.296  1.00  0.00    -0.197 NA
ATOM     17  C   UNL A   1      33.103  18.266  24.685  1.00  0.00     0.004 C 
ATOM     18  C   UNL A   1      32.265  18.104  23.407  1.00  0.00     0.006 C 
ATOM     19  C   UNL A   1      32.871  19.653  25.301  1.00  0.00     0.106 C 
ATOM     20  C   UNL A   1      32.456  19.257  22.435  1.00  0.00     0.017 C 
ATOM     21  C   UNL A   1      32.250  20.606  23.116  1.00  0.00     0.102 C 
BRANCH  17  22
ATOM     22  C   UNL A   1      34.589  17.876  24.494  1.00  0.00     0.001 C 
ATOM     23  C   UNL A   1      35.004  16.449  24.832  1.00  0.00     0.004 C 
ENDBRANCH  17  22
ENDBRANCH  13  16
ENDBRANCH   7  13
ENDBRANCH   4   6
ENDBRANCH   3   4
ENDBRANCH   2   3
ENDBRANCH   1   2
BRANCH   1  24
ATOM     24  O   UNL A   1      42.523  19.913  27.033  1.00  0.00    -0.374 OA
BRANCH  24  25
ATOM     25  C   UNL A   1      43.035  20.269  25.749  1.00  0.00     0.202 C 
BRANCH  25  26
ATOM     26  C   UNL A   1      43.611  21.684  25.592  1.00  0.00     0.261 C 
BRANCH  26  27
ATOM     27  O   UNL A   1      42.633  22.634  25.135  1.00  0.00    -0.460 OA
BRANCH  27  28
ATOM     28  C   UNL A   1      42.128  23.442  26.100  1.00  0.00     0.338 C 
ATOM     29  O   UNL A   1      41.190  23.216  26.845  1.00  0.00    -0.246 OA
BRANCH  28  30
ATOM     30  C   UNL A   1      43.001  24.619  26.261  1.00  0.00     0.060 A 
ATOM     31  C   UNL A   1      43.406  25.299  25.105  1.00  0.00     0.016 A 
ATOM     32  C   UNL A   1      43.461  25.014  27.518  1.00  0.00     0.016 A 
ATOM     33  C   UNL A   1      44.292  26.371  25.200  1.00  0.00     0.010 A 
ATOM     34  C   UNL A   1      44.357  26.083  27.610  1.00  0.00     0.010 A 
ATOM     35  C   UNL A   1      44.792  26.754  26.451  1.00  0.00    -0.014 A 
BRANCH  35  36
ATOM     36  C   UNL A   1      45.835  27.801  26.557  1.00  0.00     0.031 A 
ATOM     37  C   UNL A   1      45.425  29.240  26.690  1.00  0.00     0.074 A 
ATOM     38  C   UNL A   1      47.139  27.471  26.515  1.00  0.00     0.049 A 
ATOM     39  N   UNL A   1      46.167  30.317  26.673  1.00  0.00    -0.248 NA
ATOM     40  C   UNL A   1      43.986  29.500  26.861  1.00  0.00     0.031 C 
ATOM     41  C   UNL A   1      47.659  26.107  26.441  1.00  0.00     0.029 A 
ATOM     42  N   UNL A   1      48.260  28.262  26.514  1.00  0.00    -0.354 N 
ATOM     43  C   UNL A   1      45.289  31.381  26.822  1.00  0.00     0.074 A 
ATOM     44  C   UNL A   1      43.955  30.825  26.903  1.00  0.00     0.031 C 
ATOM     45  C   UNL A   1      49.001  26.157  26.387  1.00  0.00     0.029 A 
ATOM     46  C   UNL A   1      49.429  27.554  26.375  1.00  0.00     0.049 A 
ATOM     47  H   UNL A   1      48.231  29.242  26.604  1.00  0.00     0.167 HD
ATOM     48  C   UNL A   1      45.573  32.703  26.894  1.00  0.00     0.037 A 
ATOM     49  C   UNL A   1      50.697  27.984  26.219  1.00  0.00     0.037 A 
ATOM     50  C   UNL A   1      46.904  33.247  26.821  1.00  0.00     0.049 A 
ATOM     51  C   UNL A   1      50.980  29.463  26.200  1.00  0.00     0.074 A 
ATOM     52  C   UNL A   1      47.295  34.572  26.910  1.00  0.00     0.029 A 
ATOM     53  N   UNL A   1      48.056  32.500  26.633  1.00  0.00    -0.354 N 
ATOM     54  N   UNL A   1      50.146  30.463  26.355  1.00  0.00    -0.248 NA
ATOM     55  C   UNL A   1      52.373  29.877  25.975  1.00  0.00     0.031 C 
ATOM     56  C   UNL A   1      48.676  34.633  26.716  1.00  0.00     0.029 A 
ATOM     57  C   UNL A   1      49.154  33.341  26.566  1.00  0.00     0.049 A 
ATOM     58  H   UNL A   1      48.089  31.519  26.559  1.00  0.00     0.167 HD
ATOM     59  C   UNL A   1      50.913  31.618  26.269  1.00  0.00     0.074 A 
ATOM     60  C   UNL A   1      52.281  31.198  26.056  1.00  0.00     0.031 C 
ATOM     61  C   UNL A   1      50.515  32.911  26.360  1.00  0.00     0.037 A 
BRANCH  48  62
ATOM     62  C   UNL A   1      44.432  33.664  27.045  1.00  0.00     0.057 A 
ATOM     63  C   UNL A   1      43.845  34.255  25.918  1.00  0.00     0.134 A 
ATOM     64  C   UNL A   1      43.971  34.072  28.302  1.00  0.00     0.134 A 
ATOM     65  F   UNL A   1      44.246  33.914  24.683  1.00  0.00    -0.206 F 
ATOM     66  C   UNL A   1      42.855  35.231  26.037  1.00  0.00     0.040 A 
ATOM     67  C   UNL A   1      42.962  35.027  28.434  1.00  0.00     0.040 A 
ATOM     68  F   UNL A   1      44.484  33.537  29.421  1.00  0.00    -0.206 F 
ATOM     69  C   UNL A   1      42.409  35.618  27.299  1.00  0.00     0.006 A 
ENDBRANCH  48  62
BRANCH  49  70
ATOM     70  C   UNL A   1      51.792  26.995  26.052  1.00  0.00     0.057 A 
ATOM     71  C   UNL A   1      52.113  26.462  24.797  1.00  0.00     0.134 A 
ATOM     72  C   UNL A   1      52.529  26.541  27.151  1.00  0.00     0.134 A 
ATOM     73  F   UNL A   1      51.443  26.854  23.703  1.00  0.00    -0.206 F 
ATOM     74  C   UNL A   1      53.107  25.496  24.644  1.00  0.00     0.040 A 
ATOM     75  C   UNL A   1      53.544  25.594  27.010  1.00  0.00     0.040 A 
ATOM     76  F   UNL A   1      52.285  27.033  28.375  1.00  0.00    -0.206 F 
ATOM     77  C   UNL A   1      53.829  25.060  25.755  1.00  0.00     0.006 A 
ENDBRANCH  49  70
BRANCH  61  78
ATOM     78  C   UNL A   1      51.559  33.982  26.248  1.00  0.00     0.057 A 
ATOM     79  C   UNL A   1      52.091  34.583  27.398  1.00  0.00     0.134 A 
ATOM     80  C   UNL A   1      51.941  34.507  25.008  1.00  0.00     0.134 A 
ATOM     81  F   UNL A   1      51.754  34.136  28.617  1.00  0.00    -0.206 F 
ATOM     82  C   UNL A   1      52.940  35.688  27.318  1.00  0.00     0.040 A 
ATOM     83  C   UNL A   1      52.810  35.596  24.915  1.00  0.00     0.040 A 
ATOM     84  F   UNL A   1      51.476  33.970  23.870  1.00  0.00    -0.206 F 
ATOM     85  C   UNL A   1      53.299  36.198  26.073  1.00  0.00     0.006 A 
ENDBRANCH  61  78
ENDBRANCH  35  36
ENDBRANCH  28  30
ENDBRANCH  27  28
ENDBRANCH  26  27
ENDBRANCH  25  26
ENDBRANCH  24  25
ENDBRANCH   1  24
TORSDOF 17
ENDMDL
