MODEL 1
REMARK VINA RESULT:     -11.0      0.000      0.000
REMARK SMILES CCc1ccc(C[NH+]2CCC(Oc3ccccc3OC)(C(=O)OCCOCCOC(=O)c3ccc(-c4c5nc(c(-c6c(F)cccc6F)c6ccc([nH]6)c(-c6c(F)cccc6F)c6nc(c(-c7c(F)cccc7F)c7ccc4[nH]7)C=C6)C=C5)cc3)CC2)nc1
REMARK SMILES IDX 25 1 24 2 23 3 21 4 22 5 11 6 8 7 9 8 87 9 10 11 86 12 7 13
REMARK SMILES IDX 6 14 3 15 4 16 89 17 5 18 88 19 2 20 1 21 12 22 13 23 14 24
REMARK SMILES IDX 18 25 15 26 17 27 16 28 19 29 20 30 26 31 27 32 28 33 29 34
REMARK SMILES IDX 30 35 31 36 32 37 33 38 85 39 34 40 84 41 35 42 36 43 37 44
REMARK SMILES IDX 78 45 38 46 83 47 77 48 79 49 39 50 82 51 76 52 75 53 40 55
REMARK SMILES IDX 66 56 49 57 65 58 50 59 53 60 64 61 80 62 51 63 52 64 63 66
REMARK SMILES IDX 81 67 54 68 41 69 42 70 47 71 43 72 44 73 46 74 48 75 45 76
REMARK SMILES IDX 67 77 68 78 73 79 69 80 70 81 72 82 74 83 71 84 55 85 56 86
REMARK SMILES IDX 61 87 57 88 58 89 60 90 62 91 59 92
REMARK H PARENT 8 10 79 54 53 65
REMARK Flexibility Score: inf
ROOT
ATOM      1  C   UNL A   1      33.757  30.198  27.263  1.00  0.00     0.202 C 
ENDROOT
BRANCH   1   2
ATOM      2  C   UNL A   1      34.394  29.108  26.391  1.00  0.00     0.261 C 
BRANCH   2   3
ATOM      3  O   UNL A   1      33.694  27.841  26.392  1.00  0.00    -0.460 OA
BRANCH   3   4
ATOM      4  C   UNL A   1      33.497  27.285  25.157  1.00  0.00     0.351 C 
ATOM      5  O   UNL A   1      33.711  27.895  24.110  1.00  0.00    -0.247 OA
BRANCH   4   6
ATOM      6  C   UNL A   1      32.853  25.885  25.185  1.00  0.00     0.216 C 
ATOM      7  N   UNL A   1      30.048  25.894  24.217  1.00  0.00    -0.330 N 
ATOM      8  C   UNL A   1      31.094  25.549  23.265  1.00  0.00     0.267 C 
ATOM      9  C   UNL A   1      30.482  26.700  25.350  1.00  0.00     0.267 C 
ATOM     10  H   UNL A   1      29.800  24.997  24.634  1.00  0.00     0.348 HD
ATOM     11  C   UNL A   1      32.485  25.251  23.836  1.00  0.00     0.122 C 
ATOM     12  C   UNL A   1      31.611  25.968  26.087  1.00  0.00     0.122 C 
BRANCH   7  13
ATOM     13  C   UNL A   1      28.807  26.399  23.579  1.00  0.00     0.319 C 
BRANCH  13  14
ATOM     14  C   UNL A   1      28.773  27.859  23.127  1.00  0.00     0.095 A 
ATOM     15  C   UNL A   1      28.720  30.492  22.232  1.00  0.00    -0.030 A 
ATOM     16  C   UNL A   1      27.583  29.934  22.816  1.00  0.00     0.007 A 
ATOM     17  C   UNL A   1      29.846  29.677  22.155  1.00  0.00     0.115 A 
ATOM     18  C   UNL A   1      27.609  28.614  23.276  1.00  0.00     0.030 A 
ATOM     19  N   UNL A   1      29.892  28.385  22.567  1.00  0.00    -0.255 NA
BRANCH  15  20
ATOM     20  C   UNL A   1      28.720  31.893  21.676  1.00  0.00     0.034 C 
ATOM     21  C   UNL A   1      28.779  32.978  22.745  1.00  0.00     0.009 C 
ENDBRANCH  15  20
ENDBRANCH  13  14
ENDBRANCH   7  13
BRANCH   6  22
ATOM     22  O   UNL A   1      34.034  25.227  25.739  1.00  0.00    -0.471 OA
BRANCH  22  23
ATOM     23  C   UNL A   1      34.073  23.869  25.775  1.00  0.00     0.162 A 
ATOM     24  C   UNL A   1      33.490  23.241  26.879  1.00  0.00     0.050 A 
ATOM     25  C   UNL A   1      34.809  23.117  24.854  1.00  0.00     0.160 A 
ATOM     26  C   UNL A   1      33.568  21.856  27.021  1.00  0.00     0.004 A 
ATOM     27  C   UNL A   1      34.854  21.727  24.980  1.00  0.00     0.050 A 
ATOM     28  C   UNL A   1      34.240  21.098  26.064  1.00  0.00     0.004 A 
BRANCH  25  29
ATOM     29  O   UNL A   1      35.449  23.632  23.757  1.00  0.00    -0.493 OA
ATOM     30  C   UNL A   1      36.654  22.948  23.419  1.00  0.00     0.278 C 
ENDBRANCH  25  29
ENDBRANCH  22  23
ENDBRANCH   6  22
ENDBRANCH   4   6
ENDBRANCH   3   4
ENDBRANCH   2   3
ENDBRANCH   1   2
BRANCH   1  31
ATOM     31  O   UNL A   1      32.336  30.335  27.240  1.00  0.00    -0.374 OA
BRANCH  31  32
ATOM     32  C   UNL A   1      31.799  31.423  26.501  1.00  0.00     0.202 C 
BRANCH  32  33
ATOM     33  C   UNL A   1      31.778  32.780  27.200  1.00  0.00     0.261 C 
BRANCH  33  34
ATOM     34  O   UNL A   1      33.034  33.450  27.230  1.00  0.00    -0.460 OA
BRANCH  34  35
ATOM     35  C   UNL A   1      33.204  34.245  28.301  1.00  0.00     0.338 C 
ATOM     36  O   UNL A   1      32.524  35.214  28.637  1.00  0.00    -0.246 OA
BRANCH  35  37
ATOM     37  C   UNL A   1      34.321  33.724  29.090  1.00  0.00     0.060 A 
ATOM     38  C   UNL A   1      35.621  34.177  28.827  1.00  0.00     0.016 A 
ATOM     39  C   UNL A   1      34.087  32.714  30.023  1.00  0.00     0.016 A 
ATOM     40  C   UNL A   1      36.703  33.588  29.481  1.00  0.00     0.010 A 
ATOM     41  C   UNL A   1      35.170  32.142  30.692  1.00  0.00     0.010 A 
ATOM     42  C   UNL A   1      36.482  32.550  30.397  1.00  0.00    -0.014 A 
BRANCH  42  43
ATOM     43  C   UNL A   1      37.628  31.790  30.945  1.00  0.00     0.031 A 
ATOM     44  C   UNL A   1      38.132  32.129  32.321  1.00  0.00     0.074 A 
ATOM     45  C   UNL A   1      38.211  30.818  30.222  1.00  0.00     0.049 A 
ATOM     46  N   UNL A   1      39.148  31.632  32.976  1.00  0.00    -0.248 NA
ATOM     47  C   UNL A   1      37.396  33.174  33.053  1.00  0.00     0.031 C 
ATOM     48  C   UNL A   1      37.800  30.399  28.882  1.00  0.00     0.029 A 
ATOM     49  N   UNL A   1      39.286  30.018  30.510  1.00  0.00    -0.354 N 
ATOM     50  C   UNL A   1      39.181  32.309  34.189  1.00  0.00     0.074 A 
ATOM     51  C   UNL A   1      38.099  33.267  34.172  1.00  0.00     0.031 C 
ATOM     52  C   UNL A   1      38.624  29.426  28.458  1.00  0.00     0.029 A 
ATOM     53  C   UNL A   1      39.631  29.172  29.486  1.00  0.00     0.049 A 
ATOM     54  H   UNL A   1      39.764  30.047  31.371  1.00  0.00     0.167 HD
ATOM     55  C   UNL A   1      40.037  32.140  35.225  1.00  0.00     0.037 A 
ATOM     56  C   UNL A   1      40.656  28.303  29.388  1.00  0.00     0.037 A 
ATOM     57  C   UNL A   1      41.102  31.175  35.243  1.00  0.00     0.049 A 
ATOM     58  C   UNL A   1      41.600  28.147  30.550  1.00  0.00     0.074 A 
ATOM     59  C   UNL A   1      42.006  30.906  36.256  1.00  0.00     0.029 A 
ATOM     60  N   UNL A   1      41.409  30.322  34.193  1.00  0.00    -0.354 N 
ATOM     61  N   UNL A   1      41.597  28.764  31.707  1.00  0.00    -0.248 NA
ATOM     62  C   UNL A   1      42.686  27.168  30.397  1.00  0.00     0.031 C 
ATOM     63  C   UNL A   1      42.880  29.911  35.807  1.00  0.00     0.029 A 
ATOM     64  C   UNL A   1      42.495  29.534  34.530  1.00  0.00     0.049 A 
ATOM     65  H   UNL A   1      40.924  30.283  33.337  1.00  0.00     0.167 HD
ATOM     66  C   UNL A   1      42.655  28.227  32.428  1.00  0.00     0.074 A 
ATOM     67  C   UNL A   1      43.272  27.227  31.583  1.00  0.00     0.031 C 
ATOM     68  C   UNL A   1      43.079  28.532  33.679  1.00  0.00     0.037 A 
BRANCH  55  69
ATOM     69  C   UNL A   1      39.863  33.025  36.422  1.00  0.00     0.057 A 
ATOM     70  C   UNL A   1      40.579  34.220  36.565  1.00  0.00     0.134 A 
ATOM     71  C   UNL A   1      38.928  32.704  37.413  1.00  0.00     0.134 A 
ATOM     72  F   UNL A   1      41.500  34.575  35.657  1.00  0.00    -0.206 F 
ATOM     73  C   UNL A   1      40.376  35.062  37.660  1.00  0.00     0.040 A 
ATOM     74  C   UNL A   1      38.703  33.548  38.502  1.00  0.00     0.040 A 
ATOM     75  F   UNL A   1      38.211  31.574  37.334  1.00  0.00    -0.206 F 
ATOM     76  C   UNL A   1      39.429  34.731  38.628  1.00  0.00     0.006 A 
ENDBRANCH  55  69
BRANCH  56  77
ATOM     77  C   UNL A   1      40.852  27.516  28.145  1.00  0.00     0.057 A 
ATOM     78  C   UNL A   1      41.601  28.019  27.076  1.00  0.00     0.134 A 
ATOM     79  C   UNL A   1      40.269  26.253  27.987  1.00  0.00     0.134 A 
ATOM     80  F   UNL A   1      42.166  29.232  27.159  1.00  0.00    -0.206 F 
ATOM     81  C   UNL A   1      41.742  27.307  25.883  1.00  0.00     0.040 A 
ATOM     82  C   UNL A   1      40.423  25.519  26.810  1.00  0.00     0.040 A 
ATOM     83  F   UNL A   1      39.543  25.713  28.977  1.00  0.00    -0.206 F 
ATOM     84  C   UNL A   1      41.154  26.051  25.750  1.00  0.00     0.006 A 
ENDBRANCH  56  77
BRANCH  68  85
ATOM     85  C   UNL A   1      44.233  27.744  34.221  1.00  0.00     0.057 A 
ATOM     86  C   UNL A   1      44.048  26.523  34.883  1.00  0.00     0.134 A 
ATOM     87  C   UNL A   1      45.547  28.197  34.048  1.00  0.00     0.134 A 
ATOM     88  F   UNL A   1      42.813  26.043  35.090  1.00  0.00    -0.206 F 
ATOM     89  C   UNL A   1      45.132  25.792  35.373  1.00  0.00     0.040 A 
ATOM     90  C   UNL A   1      46.637  27.463  34.513  1.00  0.00     0.040 A 
ATOM     91  F   UNL A   1      45.789  29.355  33.414  1.00  0.00    -0.206 F 
ATOM     92  C   UNL A   1      46.431  26.259  35.183  1.00  0.00     0.006 A 
ENDBRANCH  68  85
ENDBRANCH  42  43
ENDBRANCH  35  37
ENDBRANCH  34  35
ENDBRANCH  33  34
ENDBRANCH  32  33
ENDBRANCH  31  32
ENDBRANCH   1  31
TORSDOF 20
ENDMDL
MODEL 2
REMARK VINA RESULT:     -10.9      0.656      6.063
REMARK SMILES CCc1ccc(C[NH+]2CCC(Oc3ccccc3OC)(C(=O)OCCOCCOC(=O)c3ccc(-c4c5nc(c(-c6c(F)cccc6F)c6ccc([nH]6)c(-c6c(F)cccc6F)c6nc(c(-c7c(F)cccc7F)c7ccc4[nH]7)C=C6)C=C5)cc3)CC2)nc1
REMARK SMILES IDX 25 1 24 2 23 3 21 4 22 5 11 6 8 7 9 8 87 9 10 11 86 12 7 13
REMARK SMILES IDX 6 14 3 15 4 16 89 17 5 18 88 19 2 20 1 21 12 22 13 23 14 24
REMARK SMILES IDX 18 25 15 26 17 27 16 28 19 29 20 30 26 31 27 32 28 33 29 34
REMARK SMILES IDX 30 35 31 36 32 37 33 38 85 39 34 40 84 41 35 42 36 43 37 44
REMARK SMILES IDX 78 45 38 46 83 47 77 48 79 49 39 50 82 51 76 52 75 53 40 55
REMARK SMILES IDX 66 56 49 57 65 58 50 59 53 60 64 61 80 62 51 63 52 64 63 66
REMARK SMILES IDX 81 67 54 68 41 69 42 70 47 71 43 72 44 73 46 74 48 75 45 76
REMARK SMILES IDX 67 77 68 78 73 79 69 80 70 81 72 82 74 83 71 84 55 85 56 86
REMARK SMILES IDX 61 87 57 88 58 89 60 90 62 91 59 92
REMARK H PARENT 8 10 79 54 53 65
REMARK Flexibility Score: inf
ROOT
ATOM      1  C   UNL A   1      33.651  30.440  27.224  1.00  0.00     0.202 C 
ENDROOT
BRANCH   1   2
ATOM      2  C   UNL A   1      34.240  29.039  27.013  1.00  0.00     0.261 C 
BRANCH   2   3
ATOM      3  O   UNL A   1      33.264  28.001  26.756  1.00  0.00    -0.460 OA
BRANCH   3   4
ATOM      4  C   UNL A   1      33.338  27.428  25.516  1.00  0.00     0.351 C 
ATOM      5  O   UNL A   1      33.747  28.034  24.525  1.00  0.00    -0.247 OA
BRANCH   4   6
ATOM      6  C   UNL A   1      32.736  26.012  25.432  1.00  0.00     0.216 C 
ATOM      7  N   UNL A   1      30.024  25.988  24.227  1.00  0.00    -0.330 N 
ATOM      8  C   UNL A   1      31.157  25.712  23.356  1.00  0.00     0.267 C 
ATOM      9  C   UNL A   1      30.336  26.756  25.425  1.00  0.00     0.267 C 
ATOM     10  H   UNL A   1      29.769  25.068  24.586  1.00  0.00     0.348 HD
ATOM     11  C   UNL A   1      32.503  25.426  24.032  1.00  0.00     0.122 C 
ATOM     12  C   UNL A   1      31.420  26.023  26.226  1.00  0.00     0.122 C 
BRANCH   7  13
ATOM     13  C   UNL A   1      28.827  26.487  23.505  1.00  0.00     0.319 C 
BRANCH  13  14
ATOM     14  C   UNL A   1      28.797  27.958  23.093  1.00  0.00     0.095 A 
ATOM     15  C   UNL A   1      28.742  30.614  22.269  1.00  0.00    -0.030 A 
ATOM     16  C   UNL A   1      27.656  30.080  22.962  1.00  0.00     0.007 A 
ATOM     17  C   UNL A   1      29.822  29.764  22.049  1.00  0.00     0.115 A 
ATOM     18  C   UNL A   1      27.685  28.748  23.388  1.00  0.00     0.030 A 
ATOM     19  N   UNL A   1      29.865  28.460  22.424  1.00  0.00    -0.255 NA
BRANCH  15  20
ATOM     20  C   UNL A   1      28.731  32.028  21.748  1.00  0.00     0.034 C 
ATOM     21  C   UNL A   1      28.781  33.086  22.844  1.00  0.00     0.009 C 
ENDBRANCH  15  20
ENDBRANCH  13  14
ENDBRANCH   7  13
BRANCH   6  22
ATOM     22  O   UNL A   1      33.885  25.363  26.059  1.00  0.00    -0.471 OA
BRANCH  22  23
ATOM     23  C   UNL A   1      34.327  24.181  25.554  1.00  0.00     0.162 A 
ATOM     24  C   UNL A   1      35.432  24.223  24.699  1.00  0.00     0.050 A 
ATOM     25  C   UNL A   1      33.624  22.984  25.726  1.00  0.00     0.160 A 
ATOM     26  C   UNL A   1      35.886  23.058  24.081  1.00  0.00     0.004 A 
ATOM     27  C   UNL A   1      34.104  21.813  25.134  1.00  0.00     0.050 A 
ATOM     28  C   UNL A   1      35.228  21.851  24.308  1.00  0.00     0.004 A 
BRANCH  25  29
ATOM     29  O   UNL A   1      32.511  22.836  26.511  1.00  0.00    -0.493 OA
ATOM     30  C   UNL A   1      31.377  22.325  25.813  1.00  0.00     0.278 C 
ENDBRANCH  25  29
ENDBRANCH  22  23
ENDBRANCH   6  22
ENDBRANCH   4   6
ENDBRANCH   3   4
ENDBRANCH   2   3
ENDBRANCH   1   2
BRANCH   1  31
ATOM     31  O   UNL A   1      32.259  30.632  26.971  1.00  0.00    -0.374 OA
BRANCH  31  32
ATOM     32  C   UNL A   1      31.790  31.971  26.896  1.00  0.00     0.202 C 
BRANCH  32  33
ATOM     33  C   UNL A   1      32.791  33.067  27.254  1.00  0.00     0.261 C 
BRANCH  33  34
ATOM     34  O   UNL A   1      32.261  34.111  28.063  1.00  0.00    -0.460 OA
BRANCH  34  35
ATOM     35  C   UNL A   1      33.196  34.911  28.605  1.00  0.00     0.338 C 
ATOM     36  O   UNL A   1      33.137  36.127  28.782  1.00  0.00    -0.246 OA
BRANCH  35  37
ATOM     37  C   UNL A   1      34.318  34.080  29.044  1.00  0.00     0.060 A 
ATOM     38  C   UNL A   1      34.086  33.030  29.943  1.00  0.00     0.016 A 
ATOM     39  C   UNL A   1      35.612  34.407  28.639  1.00  0.00     0.016 A 
ATOM     40  C   UNL A   1      35.165  32.321  30.468  1.00  0.00     0.010 A 
ATOM     41  C   UNL A   1      36.688  33.682  29.149  1.00  0.00     0.010 A 
ATOM     42  C   UNL A   1      36.473  32.662  30.093  1.00  0.00    -0.014 A 
BRANCH  42  43
ATOM     43  C   UNL A   1      37.627  32.051  30.789  1.00  0.00     0.031 A 
ATOM     44  C   UNL A   1      38.398  30.961  30.097  1.00  0.00     0.074 A 
ATOM     45  C   UNL A   1      37.974  32.459  32.022  1.00  0.00     0.049 A 
ATOM     46  N   UNL A   1      39.407  30.254  30.536  1.00  0.00    -0.248 NA
ATOM     47  C   UNL A   1      37.972  30.619  28.729  1.00  0.00     0.031 C 
ATOM     48  C   UNL A   1      37.303  33.512  32.785  1.00  0.00     0.029 A 
ATOM     49  N   UNL A   1      38.971  32.022  32.856  1.00  0.00    -0.354 N 
ATOM     50  C   UNL A   1      39.727  29.377  29.506  1.00  0.00     0.074 A 
ATOM     51  C   UNL A   1      38.794  29.625  28.430  1.00  0.00     0.031 C 
ATOM     52  C   UNL A   1      37.901  33.631  33.982  1.00  0.00     0.029 A 
ATOM     53  C   UNL A   1      38.978  32.648  34.078  1.00  0.00     0.049 A 
ATOM     54  H   UNL A   1      39.620  31.326  32.602  1.00  0.00     0.167 HD
ATOM     55  C   UNL A   1      40.715  28.453  29.464  1.00  0.00     0.037 A 
ATOM     56  C   UNL A   1      39.757  32.435  35.156  1.00  0.00     0.037 A 
ATOM     57  C   UNL A   1      41.650  28.220  30.532  1.00  0.00     0.049 A 
ATOM     58  C   UNL A   1      40.838  31.391  35.085  1.00  0.00     0.074 A 
ATOM     59  C   UNL A   1      42.706  27.327  30.575  1.00  0.00     0.029 A 
ATOM     60  N   UNL A   1      41.637  28.888  31.748  1.00  0.00    -0.354 N 
ATOM     61  N   UNL A   1      41.157  30.596  34.092  1.00  0.00    -0.248 NA
ATOM     62  C   UNL A   1      41.675  31.218  36.282  1.00  0.00     0.031 C 
ATOM     63  C   UNL A   1      43.313  27.432  31.831  1.00  0.00     0.029 A 
ATOM     64  C   UNL A   1      42.658  28.417  32.553  1.00  0.00     0.049 A 
ATOM     65  H   UNL A   1      40.996  29.592  31.999  1.00  0.00     0.167 HD
ATOM     66  C   UNL A   1      42.247  29.855  34.531  1.00  0.00     0.074 A 
ATOM     67  C   UNL A   1      42.541  30.301  35.877  1.00  0.00     0.031 C 
ATOM     68  C   UNL A   1      42.944  28.891  33.882  1.00  0.00     0.037 A 
BRANCH  55  69
ATOM     69  C   UNL A   1      40.831  27.613  28.228  1.00  0.00     0.057 A 
ATOM     70  C   UNL A   1      40.152  26.396  28.096  1.00  0.00     0.134 A 
ATOM     71  C   UNL A   1      41.587  28.058  27.136  1.00  0.00     0.134 A 
ATOM     72  F   UNL A   1      39.424  25.910  29.113  1.00  0.00    -0.206 F 
ATOM     73  C   UNL A   1      40.227  25.645  26.922  1.00  0.00     0.040 A 
ATOM     74  C   UNL A   1      41.653  27.324  25.950  1.00  0.00     0.040 A 
ATOM     75  F   UNL A   1      42.261  29.215  27.199  1.00  0.00    -0.206 F 
ATOM     76  C   UNL A   1      40.973  26.113  25.841  1.00  0.00     0.006 A 
ENDBRANCH  55  69
BRANCH  56  77
ATOM     77  C   UNL A   1      39.546  33.219  36.398  1.00  0.00     0.057 A 
ATOM     78  C   UNL A   1      38.630  32.807  37.372  1.00  0.00     0.134 A 
ATOM     79  C   UNL A   1      40.233  34.418  36.625  1.00  0.00     0.134 A 
ATOM     80  F   UNL A   1      37.926  31.679  37.201  1.00  0.00    -0.206 F 
ATOM     81  C   UNL A   1      38.386  33.569  38.516  1.00  0.00     0.040 A 
ATOM     82  C   UNL A   1      40.017  35.177  37.776  1.00  0.00     0.040 A 
ATOM     83  F   UNL A   1      41.127  34.866  35.731  1.00  0.00    -0.206 F 
ATOM     84  C   UNL A   1      39.084  34.758  38.721  1.00  0.00     0.006 A 
ENDBRANCH  56  77
BRANCH  68  85
ATOM     85  C   UNL A   1      44.116  28.292  34.598  1.00  0.00     0.057 A 
ATOM     86  C   UNL A   1      43.988  27.147  35.394  1.00  0.00     0.134 A 
ATOM     87  C   UNL A   1      45.393  28.850  34.460  1.00  0.00     0.134 A 
ATOM     88  F   UNL A   1      42.789  26.575  35.576  1.00  0.00    -0.206 F 
ATOM     89  C   UNL A   1      45.089  26.591  36.047  1.00  0.00     0.040 A 
ATOM     90  C   UNL A   1      46.504  28.288  35.088  1.00  0.00     0.040 A 
ATOM     91  F   UNL A   1      45.581  29.941  33.702  1.00  0.00    -0.206 F 
ATOM     92  C   UNL A   1      46.353  27.158  35.890  1.00  0.00     0.006 A 
ENDBRANCH  68  85
ENDBRANCH  42  43
ENDBRANCH  35  37
ENDBRANCH  34  35
ENDBRANCH  33  34
ENDBRANCH  32  33
ENDBRANCH  31  32
ENDBRANCH   1  31
TORSDOF 20
ENDMDL
MODEL 3
REMARK VINA RESULT:     -10.7      4.442      9.357
REMARK SMILES CCc1ccc(C[NH+]2CCC(Oc3ccccc3OC)(C(=O)OCCOCCOC(=O)c3ccc(-c4c5nc(c(-c6c(F)cccc6F)c6ccc([nH]6)c(-c6c(F)cccc6F)c6nc(c(-c7c(F)cccc7F)c7ccc4[nH]7)C=C6)C=C5)cc3)CC2)nc1
REMARK SMILES IDX 25 1 24 2 23 3 21 4 22 5 11 6 8 7 9 8 87 9 10 11 86 12 7 13
REMARK SMILES IDX 6 14 3 15 4 16 89 17 5 18 88 19 2 20 1 21 12 22 13 23 14 24
REMARK SMILES IDX 18 25 15 26 17 27 16 28 19 29 20 30 26 31 27 32 28 33 29 34
REMARK SMILES IDX 30 35 31 36 32 37 33 38 85 39 34 40 84 41 35 42 36 43 37 44
REMARK SMILES IDX 78 45 38 46 83 47 77 48 79 49 39 50 82 51 76 52 75 53 40 55
REMARK SMILES IDX 66 56 49 57 65 58 50 59 53 60 64 61 80 62 51 63 52 64 63 66
REMARK SMILES IDX 81 67 54 68 41 69 42 70 47 71 43 72 44 73 46 74 48 75 45 76
REMARK SMILES IDX 67 77 68 78 73 79 69 80 70 81 72 82 74 83 71 84 55 85 56 86
REMARK SMILES IDX 61 87 57 88 58 89 60 90 62 91 59 92
REMARK H PARENT 8 10 79 54 53 65
REMARK Flexibility Score: inf
ROOT
ATOM      1  C   UNL A   1      37.670  23.074  25.295  1.00  0.00     0.202 C 
ENDROOT
BRANCH   1   2
ATOM      2  C   UNL A   1      36.785  24.031  26.105  1.00  0.00     0.261 C 
BRANCH   2   3
ATOM      3  O   UNL A   1      35.521  24.364  25.483  1.00  0.00    -0.460 OA
BRANCH   3   4
ATOM      4  C   UNL A   1      34.417  23.829  26.089  1.00  0.00     0.351 C 
ATOM      5  O   UNL A   1      34.489  22.974  26.971  1.00  0.00    -0.247 OA
BRANCH   4   6
ATOM      6  C   UNL A   1      33.075  24.281  25.479  1.00  0.00     0.216 C 
ATOM      7  N   UNL A   1      32.061  22.401  23.420  1.00  0.00    -0.330 N 
ATOM      8  C   UNL A   1      31.558  22.257  24.778  1.00  0.00     0.267 C 
ATOM      9  C   UNL A   1      33.359  23.053  23.306  1.00  0.00     0.267 C 
ATOM     10  H   UNL A   1      31.414  23.065  22.994  1.00  0.00     0.348 HD
ATOM     11  C   UNL A   1      31.846  23.403  25.753  1.00  0.00     0.122 C 
ATOM     12  C   UNL A   1      33.287  24.437  23.965  1.00  0.00     0.122 C 
BRANCH   7  13
ATOM     13  C   UNL A   1      31.955  21.160  22.611  1.00  0.00     0.319 C 
BRANCH  13  14
ATOM     14  C   UNL A   1      32.527  19.870  23.196  1.00  0.00     0.095 A 
ATOM     15  C   UNL A   1      33.521  17.527  24.320  1.00  0.00    -0.030 A 
ATOM     16  C   UNL A   1      32.841  17.480  23.103  1.00  0.00     0.007 A 
ATOM     17  C   UNL A   1      33.681  18.784  24.897  1.00  0.00     0.115 A 
ATOM     18  C   UNL A   1      32.350  18.657  22.529  1.00  0.00     0.030 A 
ATOM     19  N   UNL A   1      33.190  19.938  24.379  1.00  0.00    -0.255 NA
BRANCH  15  20
ATOM     20  C   UNL A   1      34.021  16.277  24.998  1.00  0.00     0.034 C 
ATOM     21  C   UNL A   1      32.924  15.264  25.303  1.00  0.00     0.009 C 
ENDBRANCH  15  20
ENDBRANCH  13  14
ENDBRANCH   7  13
BRANCH   6  22
ATOM     22  O   UNL A   1      32.998  25.507  26.269  1.00  0.00    -0.471 OA
BRANCH  22  23
ATOM     23  C   UNL A   1      32.776  26.687  25.632  1.00  0.00     0.162 A 
ATOM     24  C   UNL A   1      33.888  27.488  25.362  1.00  0.00     0.050 A 
ATOM     25  C   UNL A   1      31.487  27.181  25.402  1.00  0.00     0.160 A 
ATOM     26  C   UNL A   1      33.722  28.748  24.786  1.00  0.00     0.004 A 
ATOM     27  C   UNL A   1      31.328  28.427  24.791  1.00  0.00     0.050 A 
ATOM     28  C   UNL A   1      32.442  29.212  24.490  1.00  0.00     0.004 A 
BRANCH  25  29
ATOM     29  O   UNL A   1      30.329  26.497  25.660  1.00  0.00    -0.493 OA
ATOM     30  C   UNL A   1      29.604  26.128  24.489  1.00  0.00     0.278 C 
ENDBRANCH  25  29
ENDBRANCH  22  23
ENDBRANCH   6  22
ENDBRANCH   4   6
ENDBRANCH   3   4
ENDBRANCH   2   3
ENDBRANCH   1   2
BRANCH   1  31
ATOM     31  O   UNL A   1      38.005  21.812  25.872  1.00  0.00    -0.374 OA
BRANCH  31  32
ATOM     32  C   UNL A   1      38.083  20.696  24.997  1.00  0.00     0.202 C 
BRANCH  32  33
ATOM     33  C   UNL A   1      39.025  19.568  25.409  1.00  0.00     0.261 C 
BRANCH  33  34
ATOM     34  O   UNL A   1      39.926  19.904  26.459  1.00  0.00    -0.460 OA
BRANCH  34  35
ATOM     35  C   UNL A   1      41.224  19.794  26.122  1.00  0.00     0.338 C 
ATOM     36  O   UNL A   1      41.764  18.887  25.491  1.00  0.00    -0.246 OA
BRANCH  35  37
ATOM     37  C   UNL A   1      41.920  21.001  26.569  1.00  0.00     0.060 A 
ATOM     38  C   UNL A   1      42.124  21.212  27.940  1.00  0.00     0.016 A 
ATOM     39  C   UNL A   1      42.283  21.968  25.632  1.00  0.00     0.016 A 
ATOM     40  C   UNL A   1      42.665  22.418  28.380  1.00  0.00     0.010 A 
ATOM     41  C   UNL A   1      42.845  23.166  26.074  1.00  0.00     0.010 A 
ATOM     42  C   UNL A   1      43.004  23.411  27.449  1.00  0.00    -0.014 A 
BRANCH  42  43
ATOM     43  C   UNL A   1      43.393  24.762  27.914  1.00  0.00     0.031 A 
ATOM     44  C   UNL A   1      42.315  25.770  28.196  1.00  0.00     0.074 A 
ATOM     45  C   UNL A   1      44.689  25.080  28.072  1.00  0.00     0.049 A 
ATOM     46  N   UNL A   1      42.426  27.021  28.562  1.00  0.00    -0.248 NA
ATOM     47  C   UNL A   1      40.924  25.310  28.041  1.00  0.00     0.031 C 
ATOM     48  C   UNL A   1      45.817  24.179  27.835  1.00  0.00     0.029 A 
ATOM     49  N   UNL A   1      45.275  26.259  28.456  1.00  0.00    -0.354 N 
ATOM     50  C   UNL A   1      41.126  27.500  28.668  1.00  0.00     0.074 A 
ATOM     51  C   UNL A   1      40.242  26.414  28.308  1.00  0.00     0.031 C 
ATOM     52  C   UNL A   1      46.962  24.844  28.068  1.00  0.00     0.029 A 
ATOM     53  C   UNL A   1      46.646  26.220  28.445  1.00  0.00     0.049 A 
ATOM     54  H   UNL A   1      44.759  27.057  28.716  1.00  0.00     0.167 HD
ATOM     55  C   UNL A   1      40.710  28.733  29.037  1.00  0.00     0.037 A 
ATOM     56  C   UNL A   1      47.543  27.194  28.695  1.00  0.00     0.037 A 
ATOM     57  C   UNL A   1      41.593  29.806  29.409  1.00  0.00     0.049 A 
ATOM     58  C   UNL A   1      47.051  28.560  29.090  1.00  0.00     0.074 A 
ATOM     59  C   UNL A   1      41.270  31.085  29.828  1.00  0.00     0.029 A 
ATOM     60  N   UNL A   1      42.978  29.722  29.404  1.00  0.00    -0.354 N 
ATOM     61  N   UNL A   1      45.820  28.989  29.226  1.00  0.00    -0.248 NA
ATOM     62  C   UNL A   1      48.074  29.577  29.376  1.00  0.00     0.031 C 
ATOM     63  C   UNL A   1      42.461  31.785  30.045  1.00  0.00     0.029 A 
ATOM     64  C   UNL A   1      43.523  30.930  29.799  1.00  0.00     0.049 A 
ATOM     65  H   UNL A   1      43.495  28.921  29.156  1.00  0.00     0.167 HD
ATOM     66  C   UNL A   1      45.919  30.310  29.642  1.00  0.00     0.074 A 
ATOM     67  C   UNL A   1      47.332  30.611  29.746  1.00  0.00     0.031 C 
ATOM     68  C   UNL A   1      44.933  31.198  29.914  1.00  0.00     0.037 A 
BRANCH  55  69
ATOM     69  C   UNL A   1      39.235  28.997  29.048  1.00  0.00     0.057 A 
ATOM     70  C   UNL A   1      38.469  28.856  30.212  1.00  0.00     0.134 A 
ATOM     71  C   UNL A   1      38.585  29.450  27.893  1.00  0.00     0.134 A 
ATOM     72  F   UNL A   1      39.031  28.411  31.346  1.00  0.00    -0.206 F 
ATOM     73  C   UNL A   1      37.105  29.149  30.224  1.00  0.00     0.040 A 
ATOM     74  C   UNL A   1      37.226  29.766  27.899  1.00  0.00     0.040 A 
ATOM     75  F   UNL A   1      39.263  29.605  26.747  1.00  0.00    -0.206 F 
ATOM     76  C   UNL A   1      36.481  29.614  29.067  1.00  0.00     0.006 A 
ENDBRANCH  55  69
BRANCH  56  77
ATOM     77  C   UNL A   1      48.997  26.920  28.576  1.00  0.00     0.057 A 
ATOM     78  C   UNL A   1      49.677  27.109  27.369  1.00  0.00     0.134 A 
ATOM     79  C   UNL A   1      49.734  26.433  29.663  1.00  0.00     0.134 A 
ATOM     80  F   UNL A   1      49.020  27.552  26.287  1.00  0.00    -0.206 F 
ATOM     81  C   UNL A   1      51.031  26.800  27.236  1.00  0.00     0.040 A 
ATOM     82  C   UNL A   1      51.095  26.144  29.551  1.00  0.00     0.040 A 
ATOM     83  F   UNL A   1      49.142  26.235  30.850  1.00  0.00    -0.206 F 
ATOM     84  C   UNL A   1      51.745  26.318  28.331  1.00  0.00     0.006 A 
ENDBRANCH  56  77
BRANCH  68  85
ATOM     85  C   UNL A   1      45.346  32.557  30.394  1.00  0.00     0.057 A 
ATOM     86  C   UNL A   1      45.577  33.615  29.507  1.00  0.00     0.134 A 
ATOM     87  C   UNL A   1      45.480  32.815  31.764  1.00  0.00     0.134 A 
ATOM     88  F   UNL A   1      45.476  33.426  28.183  1.00  0.00    -0.206 F 
ATOM     89  C   UNL A   1      45.949  34.879  29.966  1.00  0.00     0.040 A 
ATOM     90  C   UNL A   1      45.829  34.080  32.235  1.00  0.00     0.040 A 
ATOM     91  F   UNL A   1      45.263  31.844  32.665  1.00  0.00    -0.206 F 
ATOM     92  C   UNL A   1      46.070  35.116  31.335  1.00  0.00     0.006 A 
ENDBRANCH  68  85
ENDBRANCH  42  43
ENDBRANCH  35  37
ENDBRANCH  34  35
ENDBRANCH  33  34
ENDBRANCH  32  33
ENDBRANCH  31  32
ENDBRANCH   1  31
TORSDOF 20
ENDMDL
